MODEL 1
REMARK VINA RESULT:     -10.2      0.000      0.000
REMARK SMILES CC[C@@H](C(=O)NCCCNC(=O)c1ccc(-c2c3nc(c(-c4ccccc4)c4ccc([nH]4)c(-c4ccccc4)c4nc(c(-c5ccccc5)c5ccc2[nH]5)C=C4)C=C3)cc1)N(C)C(=O)N(C)C[C@@H]1CCC[N@H+]1C
REMARK SMILES IDX 4 1 5 2 6 3 3 5 2 6 1 7 61 8 62 9 63 10 64 11 65 12 66 13
REMARK SMILES IDX 67 14 68 15 69 16 72 17 70 18 71 19 73 20 7 22 8 23 9 24
REMARK SMILES IDX 10 25 11 26 12 28 13 29 14 30 60 31 15 32 59 33 16 34 17 35
REMARK SMILES IDX 18 36 53 37 19 38 58 39 52 40 54 41 20 42 57 43 51 44 50 45
REMARK SMILES IDX 21 47 43 48 28 49 42 50 29 51 32 52 41 53 55 54 30 55 31 56
REMARK SMILES IDX 40 58 56 59 33 60 22 61 23 62 27 63 24 64 26 65 25 66 44 67
REMARK SMILES IDX 45 68 49 69 46 70 48 71 47 72 34 73 35 74 39 75 36 76 38 77
REMARK SMILES IDX 37 78
REMARK H PARENT 6 4 72 21 10 27 54 46 32 57
REMARK Flexibility Score: inf
ROOT
ATOM      1  C   UNL A   1      31.162  24.507  26.473  1.00  0.00     0.242 C 
ATOM      2  O   UNL A   1      30.392  23.840  27.173  1.00  0.00    -0.273 OA
ATOM      3  N   UNL A   1      30.984  25.853  26.585  1.00  0.00    -0.354 N 
ATOM      4  H   UNL A   1      30.152  26.105  27.046  1.00  0.00     0.163 HD
ENDROOT
BRANCH   1   5
ATOM      5  C   UNL A   1      32.305  23.879  25.606  1.00  0.00     0.175 C 
BRANCH   5   6
ATOM      6  C   UNL A   1      32.035  23.619  24.104  1.00  0.00     0.032 C 
ATOM      7  C   UNL A   1      30.709  24.090  23.543  1.00  0.00     0.006 C 
ENDBRANCH   5   6
BRANCH   5   8
ATOM      8  N   UNL A   1      32.761  22.601  26.257  1.00  0.00    -0.316 N 
ATOM      9  C   UNL A   1      33.246  22.729  27.616  1.00  0.00     0.149 C 
BRANCH   8  10
ATOM     10  C   UNL A   1      32.642  21.442  25.508  1.00  0.00     0.320 C 
ATOM     11  O   UNL A   1      31.509  21.006  25.251  1.00  0.00    -0.248 OA
BRANCH  10  12
ATOM     12  N   UNL A   1      33.722  20.757  24.989  1.00  0.00    -0.322 N 
ATOM     13  C   UNL A   1      34.016  19.338  24.852  1.00  0.00     0.149 C 
BRANCH  12  14
ATOM     14  C   UNL A   1      34.791  21.612  24.448  1.00  0.00     0.185 C 
BRANCH  14  15
ATOM     15  C   UNL A   1      35.993  21.902  25.391  1.00  0.00     0.203 C 
ATOM     16  C   UNL A   1      36.256  23.370  25.753  1.00  0.00     0.073 C 
ATOM     17  N   UNL A   1      37.305  21.456  24.857  1.00  0.00    -0.333 N 
ATOM     18  C   UNL A   1      37.763  23.475  25.964  1.00  0.00     0.068 C 
ATOM     19  C   UNL A   1      38.296  22.072  25.749  1.00  0.00     0.262 C 
ATOM     20  C   UNL A   1      37.452  20.002  24.854  1.00  0.00     0.333 C 
ATOM     21  H   UNL A   1      37.416  21.735  23.882  1.00  0.00     0.348 HD
ENDBRANCH  14  15
ENDBRANCH  12  14
ENDBRANCH  10  12
ENDBRANCH   8  10
ENDBRANCH   5   8
ENDBRANCH   1   5
BRANCH   3  22
ATOM     22  C   UNL A   1      31.780  26.986  26.159  1.00  0.00     0.117 C 
BRANCH  22  23
ATOM     23  C   UNL A   1      32.147  27.894  27.328  1.00  0.00     0.042 C 
BRANCH  23  24
ATOM     24  C   UNL A   1      33.508  28.569  27.208  1.00  0.00     0.118 C 
BRANCH  24  25
ATOM     25  N   UNL A   1      33.483  29.968  27.603  1.00  0.00    -0.352 N 
ATOM     26  C   UNL A   1      34.440  30.723  28.233  1.00  0.00     0.251 C 
ATOM     27  H   UNL A   1      32.652  30.447  27.384  1.00  0.00     0.163 HD
ATOM     28  O   UNL A   1      34.148  31.852  28.634  1.00  0.00    -0.269 OA
BRANCH  26  29
ATOM     29  C   UNL A   1      35.809  30.201  28.466  1.00  0.00     0.039 A 
ATOM     30  C   UNL A   1      36.713  30.193  27.399  1.00  0.00     0.014 A 
ATOM     31  C   UNL A   1      36.200  29.684  29.704  1.00  0.00     0.014 A 
ATOM     32  C   UNL A   1      38.018  29.727  27.590  1.00  0.00     0.010 A 
ATOM     33  C   UNL A   1      37.525  29.301  29.915  1.00  0.00     0.010 A 
ATOM     34  C   UNL A   1      38.447  29.308  28.859  1.00  0.00    -0.014 A 
BRANCH  34  35
ATOM     35  C   UNL A   1      39.846  28.861  29.092  1.00  0.00     0.031 A 
ATOM     36  C   UNL A   1      40.853  29.798  29.708  1.00  0.00     0.074 A 
ATOM     37  C   UNL A   1      40.233  27.630  28.702  1.00  0.00     0.049 A 
ATOM     38  N   UNL A   1      42.127  29.604  29.943  1.00  0.00    -0.248 NA
ATOM     39  C   UNL A   1      40.371  31.136  30.087  1.00  0.00     0.031 C 
ATOM     40  C   UNL A   1      39.373  26.635  28.059  1.00  0.00     0.029 A 
ATOM     41  N   UNL A   1      41.454  27.008  28.788  1.00  0.00    -0.354 N 
ATOM     42  C   UNL A   1      42.600  30.797  30.477  1.00  0.00     0.074 A 
ATOM     43  C   UNL A   1      41.489  31.723  30.486  1.00  0.00     0.031 C 
ATOM     44  C   UNL A   1      40.085  25.519  27.835  1.00  0.00     0.029 A 
ATOM     45  C   UNL A   1      41.458  25.731  28.281  1.00  0.00     0.049 A 
ATOM     46  H   UNL A   1      42.251  27.436  29.176  1.00  0.00     0.167 HD
ATOM     47  C   UNL A   1      43.839  31.093  30.936  1.00  0.00     0.031 A 
ATOM     48  C   UNL A   1      42.455  24.832  28.179  1.00  0.00     0.031 A 
ATOM     49  C   UNL A   1      44.943  30.170  30.943  1.00  0.00     0.049 A 
ATOM     50  C   UNL A   1      43.825  25.185  28.687  1.00  0.00     0.074 A 
ATOM     51  C   UNL A   1      46.221  30.359  31.444  1.00  0.00     0.029 A 
ATOM     52  N   UNL A   1      44.903  28.886  30.425  1.00  0.00    -0.354 N 
ATOM     53  N   UNL A   1      44.235  26.296  29.249  1.00  0.00    -0.248 NA
ATOM     54  C   UNL A   1      44.866  24.156  28.555  1.00  0.00     0.031 C 
ATOM     55  C   UNL A   1      46.967  29.205  31.184  1.00  0.00     0.029 A 
ATOM     56  C   UNL A   1      46.139  28.280  30.571  1.00  0.00     0.049 A 
ATOM     57  H   UNL A   1      44.112  28.468  30.013  1.00  0.00     0.167 HD
ATOM     58  C   UNL A   1      45.573  26.089  29.561  1.00  0.00     0.074 A 
ATOM     59  C   UNL A   1      45.900  24.742  29.140  1.00  0.00     0.031 C 
ATOM     60  C   UNL A   1      46.452  26.940  30.145  1.00  0.00     0.031 A 
BRANCH  47  61
ATOM     61  C   UNL A   1      44.068  32.482  31.464  1.00  0.00    -0.014 A 
ATOM     62  C   UNL A   1      43.896  32.780  32.826  1.00  0.00     0.009 A 
ATOM     63  C   UNL A   1      44.490  33.499  30.595  1.00  0.00     0.009 A 
ATOM     64  C   UNL A   1      44.105  34.078  33.298  1.00  0.00     0.001 A 
ATOM     65  C   UNL A   1      44.726  34.789  31.075  1.00  0.00     0.001 A 
ATOM     66  C   UNL A   1      44.524  35.079  32.423  1.00  0.00     0.000 A 
ENDBRANCH  47  61
BRANCH  48  67
ATOM     67  C   UNL A   1      42.192  23.495  27.584  1.00  0.00    -0.014 A 
ATOM     68  C   UNL A   1      42.511  23.239  26.242  1.00  0.00     0.009 A 
ATOM     69  C   UNL A   1      41.618  22.471  28.354  1.00  0.00     0.009 A 
ATOM     70  C   UNL A   1      42.240  21.992  25.675  1.00  0.00     0.001 A 
ATOM     71  C   UNL A   1      41.374  21.215  27.792  1.00  0.00     0.001 A 
ATOM     72  C   UNL A   1      41.676  20.980  26.451  1.00  0.00     0.000 A 
ENDBRANCH  48  67
BRANCH  60  73
ATOM     73  C   UNL A   1      47.843  26.429  30.391  1.00  0.00    -0.014 A 
ATOM     74  C   UNL A   1      48.195  25.831  31.611  1.00  0.00     0.009 A 
ATOM     75  C   UNL A   1      48.804  26.511  29.371  1.00  0.00     0.009 A 
ATOM     76  C   UNL A   1      49.492  25.355  31.815  1.00  0.00     0.001 A 
ATOM     77  C   UNL A   1      50.091  26.010  29.568  1.00  0.00     0.001 A 
ATOM     78  C   UNL A   1      50.437  25.441  30.792  1.00  0.00     0.000 A 
ENDBRANCH  60  73
ENDBRANCH  34  35
ENDBRANCH  26  29
ENDBRANCH  24  25
ENDBRANCH  23  24
ENDBRANCH  22  23
ENDBRANCH   3  22
TORSDOF 16
ENDMDL
MODEL 2
REMARK VINA RESULT:     -10.2      1.667      7.299
REMARK SMILES CC[C@@H](C(=O)NCCCNC(=O)c1ccc(-c2c3nc(c(-c4ccccc4)c4ccc([nH]4)c(-c4ccccc4)c4nc(c(-c5ccccc5)c5ccc2[nH]5)C=C4)C=C3)cc1)N(C)C(=O)N(C)C[C@@H]1CCC[N@H+]1C
REMARK SMILES IDX 4 1 5 2 6 3 3 5 2 6 1 7 61 8 62 9 63 10 64 11 65 12 66 13
REMARK SMILES IDX 67 14 68 15 69 16 72 17 70 18 71 19 73 20 7 22 8 23 9 24
REMARK SMILES IDX 10 25 11 26 12 28 13 29 14 30 60 31 15 32 59 33 16 34 17 35
REMARK SMILES IDX 18 36 53 37 19 38 58 39 52 40 54 41 20 42 57 43 51 44 50 45
REMARK SMILES IDX 21 47 43 48 28 49 42 50 29 51 32 52 41 53 55 54 30 55 31 56
REMARK SMILES IDX 40 58 56 59 33 60 22 61 23 62 27 63 24 64 26 65 25 66 44 67
REMARK SMILES IDX 45 68 49 69 46 70 48 71 47 72 34 73 35 74 39 75 36 76 38 77
REMARK SMILES IDX 37 78
REMARK H PARENT 6 4 72 21 10 27 54 46 32 57
REMARK Flexibility Score: inf
ROOT
ATOM      1  C   UNL A   1      34.004  21.405  26.447  1.00  0.00     0.242 C 
ATOM      2  O   UNL A   1      33.875  21.516  27.672  1.00  0.00    -0.273 OA
ATOM      3  N   UNL A   1      35.299  21.317  26.035  1.00  0.00    -0.354 N 
ATOM      4  H   UNL A   1      35.954  21.549  26.732  1.00  0.00     0.163 HD
ENDROOT
BRANCH   1   5
ATOM      5  C   UNL A   1      32.796  21.279  25.460  1.00  0.00     0.175 C 
BRANCH   5   6
ATOM      6  C   UNL A   1      32.747  20.062  24.503  1.00  0.00     0.032 C 
ATOM      7  C   UNL A   1      32.868  18.685  25.122  1.00  0.00     0.006 C 
ENDBRANCH   5   6
BRANCH   5   8
ATOM      8  N   UNL A   1      32.691  22.547  24.656  1.00  0.00    -0.316 N 
ATOM      9  C   UNL A   1      32.974  22.417  23.242  1.00  0.00     0.149 C 
BRANCH   8  10
ATOM     10  C   UNL A   1      32.306  23.689  25.340  1.00  0.00     0.320 C 
ATOM     11  O   UNL A   1      31.272  23.660  26.023  1.00  0.00    -0.248 OA
BRANCH  10  12
ATOM     12  N   UNL A   1      33.039  24.859  25.338  1.00  0.00    -0.322 N 
ATOM     13  C   UNL A   1      34.469  25.125  25.396  1.00  0.00     0.149 C 
BRANCH  12  14
ATOM     14  C   UNL A   1      32.237  26.089  25.244  1.00  0.00     0.185 C 
BRANCH  14  15
ATOM     15  C   UNL A   1      32.838  27.363  25.901  1.00  0.00     0.203 C 
ATOM     16  C   UNL A   1      32.162  27.871  27.182  1.00  0.00     0.073 C 
ATOM     17  N   UNL A   1      32.825  28.562  25.026  1.00  0.00    -0.333 N 
ATOM     18  C   UNL A   1      32.359  29.383  27.174  1.00  0.00     0.068 C 
ATOM     19  C   UNL A   1      33.159  29.677  25.920  1.00  0.00     0.262 C 
ATOM     20  C   UNL A   1      33.789  28.477  23.931  1.00  0.00     0.333 C 
ATOM     21  H   UNL A   1      31.918  28.672  24.571  1.00  0.00     0.348 HD
ENDBRANCH  14  15
ENDBRANCH  12  14
ENDBRANCH  10  12
ENDBRANCH   8  10
ENDBRANCH   5   8
ENDBRANCH   1   5
BRANCH   3  22
ATOM     22  C   UNL A   1      35.902  20.947  24.771  1.00  0.00     0.117 C 
BRANCH  22  23
ATOM     23  C   UNL A   1      37.030  19.938  24.952  1.00  0.00     0.042 C 
BRANCH  23  24
ATOM     24  C   UNL A   1      38.371  20.544  25.348  1.00  0.00     0.118 C 
BRANCH  24  25
ATOM     25  N   UNL A   1      39.415  19.546  25.521  1.00  0.00    -0.352 N 
ATOM     26  C   UNL A   1      40.699  19.686  25.985  1.00  0.00     0.251 C 
ATOM     27  H   UNL A   1      39.161  18.631  25.264  1.00  0.00     0.163 HD
ATOM     28  O   UNL A   1      41.480  18.737  25.886  1.00  0.00    -0.269 OA
BRANCH  26  29
ATOM     29  C   UNL A   1      41.174  20.960  26.577  1.00  0.00     0.039 A 
ATOM     30  C   UNL A   1      41.707  21.935  25.728  1.00  0.00     0.014 A 
ATOM     31  C   UNL A   1      41.139  21.191  27.955  1.00  0.00     0.014 A 
ATOM     32  C   UNL A   1      42.145  23.156  26.250  1.00  0.00     0.010 A 
ATOM     33  C   UNL A   1      41.495  22.440  28.463  1.00  0.00     0.010 A 
ATOM     34  C   UNL A   1      42.012  23.434  27.620  1.00  0.00    -0.014 A 
BRANCH  34  35
ATOM     35  C   UNL A   1      42.421  24.748  28.184  1.00  0.00     0.031 A 
ATOM     36  C   UNL A   1      41.404  25.840  28.387  1.00  0.00     0.074 A 
ATOM     37  C   UNL A   1      43.717  24.984  28.466  1.00  0.00     0.049 A 
ATOM     38  N   UNL A   1      41.580  27.064  28.820  1.00  0.00    -0.248 NA
ATOM     39  C   UNL A   1      40.009  25.525  28.035  1.00  0.00     0.031 C 
ATOM     40  C   UNL A   1      44.812  24.030  28.282  1.00  0.00     0.029 A 
ATOM     41  N   UNL A   1      44.334  26.105  28.965  1.00  0.00    -0.354 N 
ATOM     42  C   UNL A   1      40.328  27.667  28.774  1.00  0.00     0.074 A 
ATOM     43  C   UNL A   1      39.411  26.691  28.225  1.00  0.00     0.031 C 
ATOM     44  C   UNL A   1      45.960  24.595  28.690  1.00  0.00     0.029 A 
ATOM     45  C   UNL A   1      45.691  25.961  29.126  1.00  0.00     0.049 A 
ATOM     46  H   UNL A   1      43.849  26.932  29.188  1.00  0.00     0.167 HD
ATOM     47  C   UNL A   1      39.967  28.911  29.167  1.00  0.00     0.031 A 
ATOM     48  C   UNL A   1      46.617  26.832  29.568  1.00  0.00     0.031 A 
ATOM     49  C   UNL A   1      40.871  29.880  29.728  1.00  0.00     0.049 A 
ATOM     50  C   UNL A   1      46.194  28.212  29.992  1.00  0.00     0.074 A 
ATOM     51  C   UNL A   1      40.587  31.145  30.212  1.00  0.00     0.029 A 
ATOM     52  N   UNL A   1      42.236  29.692  29.877  1.00  0.00    -0.354 N 
ATOM     53  N   UNL A   1      44.995  28.740  30.002  1.00  0.00    -0.248 NA
ATOM     54  C   UNL A   1      47.254  29.110  30.473  1.00  0.00     0.031 C 
ATOM     55  C   UNL A   1      41.787  31.742  30.610  1.00  0.00     0.029 A 
ATOM     56  C   UNL A   1      42.811  30.827  30.423  1.00  0.00     0.049 A 
ATOM     57  H   UNL A   1      42.724  28.873  29.630  1.00  0.00     0.167 HD
ATOM     58  C   UNL A   1      45.151  30.021  30.515  1.00  0.00     0.074 A 
ATOM     59  C   UNL A   1      46.559  30.184  30.818  1.00  0.00     0.031 C 
ATOM     60  C   UNL A   1      44.212  30.978  30.717  1.00  0.00     0.031 A 
BRANCH  47  61
ATOM     61  C   UNL A   1      38.523  29.299  28.996  1.00  0.00    -0.014 A 
ATOM     62  C   UNL A   1      37.618  29.220  30.067  1.00  0.00     0.009 A 
ATOM     63  C   UNL A   1      38.070  29.778  27.758  1.00  0.00     0.009 A 
ATOM     64  C   UNL A   1      36.279  29.576  29.889  1.00  0.00     0.001 A 
ATOM     65  C   UNL A   1      36.738  30.162  27.591  1.00  0.00     0.001 A 
ATOM     66  C   UNL A   1      35.842  30.051  28.653  1.00  0.00     0.000 A 
ENDBRANCH  47  61
BRANCH  48  67
ATOM     67  C   UNL A   1      48.043  26.421  29.652  1.00  0.00    -0.014 A 
ATOM     68  C   UNL A   1      48.905  26.618  28.562  1.00  0.00     0.009 A 
ATOM     69  C   UNL A   1      48.548  25.826  30.819  1.00  0.00     0.009 A 
ATOM     70  C   UNL A   1      50.239  26.208  28.631  1.00  0.00     0.001 A 
ATOM     71  C   UNL A   1      49.890  25.443  30.895  1.00  0.00     0.001 A 
ATOM     72  C   UNL A   1      50.731  25.625  29.798  1.00  0.00     0.000 A 
ENDBRANCH  48  67
BRANCH  60  73
ATOM     73  C   UNL A   1      44.671  32.274  31.322  1.00  0.00    -0.014 A 
ATOM     74  C   UNL A   1      45.028  33.368  30.519  1.00  0.00     0.009 A 
ATOM     75  C   UNL A   1      44.707  32.413  32.718  1.00  0.00     0.009 A 
ATOM     76  C   UNL A   1      45.443  34.566  31.104  1.00  0.00     0.001 A 
ATOM     77  C   UNL A   1      45.097  33.621  33.300  1.00  0.00     0.001 A 
ATOM     78  C   UNL A   1      45.473  34.693  32.493  1.00  0.00     0.000 A 
ENDBRANCH  60  73
ENDBRANCH  34  35
ENDBRANCH  26  29
ENDBRANCH  24  25
ENDBRANCH  23  24
ENDBRANCH  22  23
ENDBRANCH   3  22
TORSDOF 16
ENDMDL
MODEL 3
REMARK VINA RESULT:     -10.1      2.730      7.218
REMARK SMILES CC[C@@H](C(=O)NCCCNC(=O)c1ccc(-c2c3nc(c(-c4ccccc4)c4ccc([nH]4)c(-c4ccccc4)c4nc(c(-c5ccccc5)c5ccc2[nH]5)C=C4)C=C3)cc1)N(C)C(=O)N(C)C[C@@H]1CCC[N@H+]1C
REMARK SMILES IDX 4 1 5 2 6 3 3 5 2 6 1 7 61 8 62 9 63 10 64 11 65 12 66 13
REMARK SMILES IDX 67 14 68 15 69 16 72 17 70 18 71 19 73 20 7 22 8 23 9 24
REMARK SMILES IDX 10 25 11 26 12 28 13 29 14 30 60 31 15 32 59 33 16 34 17 35
REMARK SMILES IDX 18 36 53 37 19 38 58 39 52 40 54 41 20 42 57 43 51 44 50 45
REMARK SMILES IDX 21 47 43 48 28 49 42 50 29 51 32 52 41 53 55 54 30 55 31 56
REMARK SMILES IDX 40 58 56 59 33 60 22 61 23 62 27 63 24 64 26 65 25 66 44 67
REMARK SMILES IDX 45 68 49 69 46 70 48 71 47 72 34 73 35 74 39 75 36 76 38 77
REMARK SMILES IDX 37 78
REMARK H PARENT 6 4 72 21 10 27 54 46 32 57
REMARK Flexibility Score: inf
ROOT
ATOM      1  C   UNL A   1      30.342  29.009  23.410  1.00  0.00     0.242 C 
ATOM      2  O   UNL A   1      29.450  29.313  22.608  1.00  0.00    -0.273 OA
ATOM      3  N   UNL A   1      30.690  30.019  24.256  1.00  0.00    -0.354 N 
ATOM      4  H   UNL A   1      30.334  30.898  23.992  1.00  0.00     0.163 HD
ENDROOT
BRANCH   1   5
ATOM      5  C   UNL A   1      30.954  27.573  23.516  1.00  0.00     0.175 C 
BRANCH   5   6
ATOM      6  C   UNL A   1      31.327  26.830  22.210  1.00  0.00     0.032 C 
ATOM      7  C   UNL A   1      32.737  26.285  22.097  1.00  0.00     0.006 C 
ENDBRANCH   5   6
BRANCH   5   8
ATOM      8  N   UNL A   1      30.030  26.710  24.332  1.00  0.00    -0.316 N 
ATOM      9  C   UNL A   1      28.655  26.664  23.880  1.00  0.00     0.149 C 
BRANCH   8  10
ATOM     10  C   UNL A   1      30.592  26.030  25.400  1.00  0.00     0.320 C 
ATOM     11  O   UNL A   1      30.666  26.595  26.501  1.00  0.00    -0.248 OA
BRANCH  10  12
ATOM     12  N   UNL A   1      31.041  24.727  25.319  1.00  0.00    -0.322 N 
ATOM     13  C   UNL A   1      30.992  23.731  24.258  1.00  0.00     0.149 C 
BRANCH  12  14
ATOM     14  C   UNL A   1      31.719  24.232  26.528  1.00  0.00     0.185 C 
BRANCH  14  15
ATOM     15  C   UNL A   1      33.271  24.157  26.474  1.00  0.00     0.203 C 
ATOM     16  C   UNL A   1      33.978  25.085  25.477  1.00  0.00     0.073 C 
ATOM     17  N   UNL A   1      33.802  22.819  26.108  1.00  0.00    -0.333 N 
ATOM     18  C   UNL A   1      35.242  24.343  25.055  1.00  0.00     0.068 C 
ATOM     19  C   UNL A   1      35.227  23.047  25.841  1.00  0.00     0.262 C 
ATOM     20  C   UNL A   1      33.631  21.831  27.171  1.00  0.00     0.333 C 
ATOM     21  H   UNL A   1      33.301  22.434  25.307  1.00  0.00     0.348 HD
ENDBRANCH  14  15
ENDBRANCH  12  14
ENDBRANCH  10  12
ENDBRANCH   8  10
ENDBRANCH   5   8
ENDBRANCH   1   5
BRANCH   3  22
ATOM     22  C   UNL A   1      31.481  30.051  25.469  1.00  0.00     0.117 C 
BRANCH  22  23
ATOM     23  C   UNL A   1      31.246  31.329  26.267  1.00  0.00     0.042 C 
BRANCH  23  24
ATOM     24  C   UNL A   1      32.498  31.929  26.893  1.00  0.00     0.118 C 
BRANCH  24  25
ATOM     25  N   UNL A   1      32.311  33.304  27.328  1.00  0.00    -0.352 N 
ATOM     26  C   UNL A   1      33.068  34.070  28.179  1.00  0.00     0.251 C 
ATOM     27  H   UNL A   1      31.520  33.754  26.955  1.00  0.00     0.163 HD
ATOM     28  O   UNL A   1      32.634  35.162  28.552  1.00  0.00    -0.269 OA
BRANCH  26  29
ATOM     29  C   UNL A   1      34.382  33.601  28.681  1.00  0.00     0.039 A 
ATOM     30  C   UNL A   1      34.433  32.945  29.915  1.00  0.00     0.014 A 
ATOM     31  C   UNL A   1      35.567  33.832  27.975  1.00  0.00     0.014 A 
ATOM     32  C   UNL A   1      35.653  32.470  30.408  1.00  0.00     0.010 A 
ATOM     33  C   UNL A   1      36.768  33.283  28.425  1.00  0.00     0.010 A 
ATOM     34  C   UNL A   1      36.828  32.605  29.651  1.00  0.00    -0.014 A 
BRANCH  34  35
ATOM     35  C   UNL A   1      38.123  32.058  30.135  1.00  0.00     0.031 A 
ATOM     36  C   UNL A   1      38.642  30.747  29.606  1.00  0.00     0.074 A 
ATOM     37  C   UNL A   1      38.815  32.712  31.090  1.00  0.00     0.049 A 
ATOM     38  N   UNL A   1      39.724  30.089  29.943  1.00  0.00    -0.248 NA
ATOM     39  C   UNL A   1      37.826  30.073  28.583  1.00  0.00     0.031 C 
ATOM     40  C   UNL A   1      38.411  33.971  31.718  1.00  0.00     0.029 A 
ATOM     41  N   UNL A   1      40.003  32.402  31.703  1.00  0.00    -0.354 N 
ATOM     42  C   UNL A   1      39.707  28.921  29.190  1.00  0.00     0.074 A 
ATOM     43  C   UNL A   1      38.485  28.936  28.416  1.00  0.00     0.031 C 
ATOM     44  C   UNL A   1      39.348  34.340  32.604  1.00  0.00     0.029 A 
ATOM     45  C   UNL A   1      40.398  33.328  32.638  1.00  0.00     0.049 A 
ATOM     46  H   UNL A   1      40.523  31.593  31.492  1.00  0.00     0.167 HD
ATOM     47  C   UNL A   1      40.631  27.932  29.131  1.00  0.00     0.031 A 
ATOM     48  C   UNL A   1      41.481  33.357  33.438  1.00  0.00     0.031 A 
ATOM     49  C   UNL A   1      41.855  27.919  29.887  1.00  0.00     0.049 A 
ATOM     50  C   UNL A   1      42.489  32.244  33.362  1.00  0.00     0.074 A 
ATOM     51  C   UNL A   1      42.881  26.990  29.849  1.00  0.00     0.029 A 
ATOM     52  N   UNL A   1      42.218  28.878  30.819  1.00  0.00    -0.354 N 
ATOM     53  N   UNL A   1      42.487  31.181  32.596  1.00  0.00    -0.248 NA
ATOM     54  C   UNL A   1      43.651  32.342  34.256  1.00  0.00     0.031 C 
ATOM     55  C   UNL A   1      43.843  27.362  30.793  1.00  0.00     0.029 A 
ATOM     56  C   UNL A   1      43.441  28.551  31.380  1.00  0.00     0.049 A 
ATOM     57  H   UNL A   1      41.685  29.674  31.047  1.00  0.00     0.167 HD
ATOM     58  C   UNL A   1      43.659  30.498  32.896  1.00  0.00     0.074 A 
ATOM     59  C   UNL A   1      44.353  31.276  33.902  1.00  0.00     0.031 C 
ATOM     60  C   UNL A   1      44.119  29.331  32.382  1.00  0.00     0.031 A 
BRANCH  47  61
ATOM     61  C   UNL A   1      40.345  26.771  28.218  1.00  0.00    -0.014 A 
ATOM     62  C   UNL A   1      39.565  25.684  28.645  1.00  0.00     0.009 A 
ATOM     63  C   UNL A   1      40.837  26.779  26.904  1.00  0.00     0.009 A 
ATOM     64  C   UNL A   1      39.317  24.611  27.786  1.00  0.00     0.001 A 
ATOM     65  C   UNL A   1      40.563  25.718  26.038  1.00  0.00     0.001 A 
ATOM     66  C   UNL A   1      39.812  24.631  26.483  1.00  0.00     0.000 A 
ENDBRANCH  47  61
BRANCH  48  67
ATOM     67  C   UNL A   1      41.681  34.495  34.375  1.00  0.00    -0.014 A 
ATOM     68  C   UNL A   1      42.390  35.634  33.968  1.00  0.00     0.009 A 
ATOM     69  C   UNL A   1      41.167  34.444  35.680  1.00  0.00     0.009 A 
ATOM     70  C   UNL A   1      42.601  36.692  34.855  1.00  0.00     0.001 A 
ATOM     71  C   UNL A   1      41.355  35.516  36.557  1.00  0.00     0.001 A 
ATOM     72  C   UNL A   1      42.079  36.634  36.147  1.00  0.00     0.000 A 
ENDBRANCH  48  67
BRANCH  60  73
ATOM     73  C   UNL A   1      45.450  28.840  32.877  1.00  0.00    -0.014 A 
ATOM     74  C   UNL A   1      45.544  27.971  33.974  1.00  0.00     0.009 A 
ATOM     75  C   UNL A   1      46.623  29.222  32.208  1.00  0.00     0.009 A 
ATOM     76  C   UNL A   1      46.791  27.520  34.412  1.00  0.00     0.001 A 
ATOM     77  C   UNL A   1      47.866  28.749  32.632  1.00  0.00     0.001 A 
ATOM     78  C   UNL A   1      47.950  27.906  33.738  1.00  0.00     0.000 A 
ENDBRANCH  60  73
ENDBRANCH  34  35
ENDBRANCH  26  29
ENDBRANCH  24  25
ENDBRANCH  23  24
ENDBRANCH  22  23
ENDBRANCH   3  22
TORSDOF 16
ENDMDL
