MODEL 1
REMARK VINA RESULT:     -11.1      0.000      0.000
REMARK SMILES CC1(C)C[C@@H]([NH2+]C[C@@H]2CCCC[C@@H]2C(=O)NCCCNC(=O)c2ccc(-c3c4nc(c(-c5ccccc5)c5ccc([nH]5)c(-c5ccccc5)c5nc(c(-c6ccccc6)c6ccc3[nH]6)C=C5)C=C4)cc2)C(C)(C)O1
REMARK SMILES IDX 17 1 16 2 14 3 15 4 13 6 8 7 9 8 10 9 12 10 11 11 7 12 6 13
REMARK SMILES IDX 5 16 1 17 2 18 3 19 4 20 74 21 71 22 72 23 73 24 18 25 19 26
REMARK SMILES IDX 20 27 21 28 22 30 23 31 24 32 70 33 25 34 69 35 26 36 27 37
REMARK SMILES IDX 28 38 63 39 29 40 68 41 62 42 64 43 30 44 67 45 61 46 60 47
REMARK SMILES IDX 31 49 53 50 38 51 52 52 39 53 42 54 51 55 65 56 40 57 41 58
REMARK SMILES IDX 50 60 66 61 43 62 32 63 33 64 37 65 34 66 36 67 35 68 54 69
REMARK SMILES IDX 55 70 59 71 56 72 58 73 57 74 44 75 45 76 49 77 46 78 48 79
REMARK SMILES IDX 47 80
REMARK H PARENT 16 5 6 14 6 15 20 29 64 48 42 59
REMARK Flexibility Score: inf
ROOT
ATOM      1  C   UNL A   1      37.167  21.170  24.723  1.00  0.00     0.117 C 
ENDROOT
BRANCH   1   2
ATOM      2  N   UNL A   1      36.299  21.327  25.875  1.00  0.00    -0.356 N 
ATOM      3  C   UNL A   1      35.067  21.900  25.975  1.00  0.00     0.223 C 
ATOM      4  O   UNL A   1      34.615  22.067  27.105  1.00  0.00    -0.275 OA
ATOM      5  H   UNL A   1      36.656  20.960  26.716  1.00  0.00     0.163 HD
BRANCH   3   6
ATOM      6  C   UNL A   1      34.305  22.255  24.700  1.00  0.00     0.087 C 
ATOM      7  C   UNL A   1      33.503  23.575  24.777  1.00  0.00     0.056 C 
ATOM      8  C   UNL A   1      32.333  23.501  25.770  1.00  0.00     0.010 C 
ATOM      9  C   UNL A   1      31.399  22.351  25.385  1.00  0.00     0.001 C 
ATOM     10  C   UNL A   1      33.349  21.110  24.318  1.00  0.00     0.014 C 
ATOM     11  C   UNL A   1      32.134  21.021  25.243  1.00  0.00     0.001 C 
BRANCH   7  12
ATOM     12  C   UNL A   1      34.360  24.849  24.933  1.00  0.00     0.265 C 
BRANCH  12  13
ATOM     13  N   UNL A   1      34.047  25.946  24.004  1.00  0.00    -0.341 N 
ATOM     14  H   UNL A   1      34.881  26.124  23.445  1.00  0.00     0.346 HD
ATOM     15  H   UNL A   1      33.237  25.623  23.474  1.00  0.00     0.346 HD
BRANCH  13  16
ATOM     16  C   UNL A   1      33.630  27.225  24.602  1.00  0.00     0.217 C 
ATOM     17  C   UNL A   1      31.621  28.220  27.568  1.00  0.00     0.042 C 
ATOM     18  C   UNL A   1      32.509  28.438  26.344  1.00  0.00     0.069 C 
ATOM     19  C   UNL A   1      33.329  29.720  26.513  1.00  0.00     0.042 C 
ATOM     20  C   UNL A   1      33.394  27.227  26.103  1.00  0.00     0.103 C 
ATOM     21  O   UNL A   1      31.694  28.571  25.173  1.00  0.00    -0.363 OA
ATOM     22  C   UNL A   1      32.270  27.797  24.090  1.00  0.00     0.115 C 
ATOM     23  C   UNL A   1      31.229  26.724  23.745  1.00  0.00     0.048 C 
ATOM     24  C   UNL A   1      32.457  28.733  22.896  1.00  0.00     0.048 C 
ENDBRANCH  13  16
ENDBRANCH  12  13
ENDBRANCH   7  12
ENDBRANCH   3   6
ENDBRANCH   1   2
BRANCH   1  25
ATOM     25  C   UNL A   1      38.103  19.976  24.886  1.00  0.00     0.042 C 
BRANCH  25  26
ATOM     26  C   UNL A   1      39.118  20.119  26.020  1.00  0.00     0.118 C 
BRANCH  26  27
ATOM     27  N   UNL A   1      40.306  19.300  25.831  1.00  0.00    -0.352 N 
ATOM     28  C   UNL A   1      41.634  19.611  25.985  1.00  0.00     0.251 C 
ATOM     29  H   UNL A   1      40.129  18.374  25.546  1.00  0.00     0.163 HD
ATOM     30  O   UNL A   1      42.488  18.803  25.633  1.00  0.00    -0.269 OA
BRANCH  28  31
ATOM     31  C   UNL A   1      42.047  20.918  26.541  1.00  0.00     0.039 A 
ATOM     32  C   UNL A   1      42.428  21.927  25.652  1.00  0.00     0.014 A 
ATOM     33  C   UNL A   1      42.088  21.151  27.919  1.00  0.00     0.014 A 
ATOM     34  C   UNL A   1      42.781  23.187  26.140  1.00  0.00     0.010 A 
ATOM     35  C   UNL A   1      42.370  22.428  28.400  1.00  0.00     0.010 A 
ATOM     36  C   UNL A   1      42.716  23.460  27.516  1.00  0.00    -0.014 A 
BRANCH  36  37
ATOM     37  C   UNL A   1      42.983  24.826  28.033  1.00  0.00     0.031 A 
ATOM     38  C   UNL A   1      44.375  25.246  28.419  1.00  0.00     0.074 A 
ATOM     39  C   UNL A   1      41.954  25.679  28.207  1.00  0.00     0.049 A 
ATOM     40  N   UNL A   1      44.786  26.391  28.905  1.00  0.00    -0.248 NA
ATOM     41  C   UNL A   1      45.441  24.244  28.257  1.00  0.00     0.031 C 
ATOM     42  C   UNL A   1      40.549  25.382  27.916  1.00  0.00     0.029 A 
ATOM     43  N   UNL A   1      41.930  26.971  28.672  1.00  0.00    -0.354 N 
ATOM     44  C   UNL A   1      46.151  26.243  29.120  1.00  0.00     0.074 A 
ATOM     45  C   UNL A   1      46.489  24.884  28.756  1.00  0.00     0.031 C 
ATOM     46  C   UNL A   1      39.806  26.469  28.179  1.00  0.00     0.029 A 
ATOM     47  C   UNL A   1      40.673  27.523  28.696  1.00  0.00     0.049 A 
ATOM     48  H   UNL A   1      42.738  27.454  28.961  1.00  0.00     0.167 HD
ATOM     49  C   UNL A   1      47.045  27.159  29.562  1.00  0.00     0.031 A 
ATOM     50  C   UNL A   1      40.258  28.742  29.091  1.00  0.00     0.031 A 
ATOM     51  C   UNL A   1      46.710  28.512  29.922  1.00  0.00     0.049 A 
ATOM     52  C   UNL A   1      41.269  29.735  29.591  1.00  0.00     0.074 A 
ATOM     53  C   UNL A   1      47.557  29.531  30.323  1.00  0.00     0.029 A 
ATOM     54  N   UNL A   1      45.426  29.033  29.932  1.00  0.00    -0.354 N 
ATOM     55  N   UNL A   1      42.568  29.604  29.712  1.00  0.00    -0.248 NA
ATOM     56  C   UNL A   1      40.755  31.051  29.998  1.00  0.00     0.031 C 
ATOM     57  C   UNL A   1      46.778  30.652  30.631  1.00  0.00     0.029 A 
ATOM     58  C   UNL A   1      45.453  30.350  30.361  1.00  0.00     0.049 A 
ATOM     59  H   UNL A   1      44.615  28.540  29.672  1.00  0.00     0.167 HD
ATOM     60  C   UNL A   1      43.029  30.826  30.185  1.00  0.00     0.074 A 
ATOM     61  C   UNL A   1      41.873  31.691  30.307  1.00  0.00     0.031 C 
ATOM     62  C   UNL A   1      44.296  31.198  30.489  1.00  0.00     0.031 A 
BRANCH  49  63
ATOM     63  C   UNL A   1      48.478  26.721  29.694  1.00  0.00    -0.014 A 
ATOM     64  C   UNL A   1      49.390  26.884  28.639  1.00  0.00     0.009 A 
ATOM     65  C   UNL A   1      48.933  26.173  30.903  1.00  0.00     0.009 A 
ATOM     66  C   UNL A   1      50.717  26.474  28.779  1.00  0.00     0.001 A 
ATOM     67  C   UNL A   1      50.268  25.791  31.051  1.00  0.00     0.001 A 
ATOM     68  C   UNL A   1      51.156  25.932  29.986  1.00  0.00     0.000 A 
ENDBRANCH  49  63
BRANCH  50  69
ATOM     69  C   UNL A   1      38.817  29.096  29.021  1.00  0.00    -0.014 A 
ATOM     70  C   UNL A   1      38.251  29.543  27.818  1.00  0.00     0.009 A 
ATOM     71  C   UNL A   1      38.001  28.994  30.158  1.00  0.00     0.009 A 
ATOM     72  C   UNL A   1      36.902  29.905  27.761  1.00  0.00     0.001 A 
ATOM     73  C   UNL A   1      36.646  29.328  30.091  1.00  0.00     0.001 A 
ATOM     74  C   UNL A   1      36.101  29.793  28.896  1.00  0.00     0.000 A 
ENDBRANCH  50  69
BRANCH  62  75
ATOM     75  C   UNL A   1      44.501  32.610  30.959  1.00  0.00    -0.014 A 
ATOM     76  C   UNL A   1      44.703  33.661  30.051  1.00  0.00     0.009 A 
ATOM     77  C   UNL A   1      44.466  32.897  32.333  1.00  0.00     0.009 A 
ATOM     78  C   UNL A   1      44.902  34.964  30.511  1.00  0.00     0.001 A 
ATOM     79  C   UNL A   1      44.635  34.206  32.789  1.00  0.00     0.001 A 
ATOM     80  C   UNL A   1      44.863  35.237  31.878  1.00  0.00     0.000 A 
ENDBRANCH  62  75
ENDBRANCH  36  37
ENDBRANCH  28  31
ENDBRANCH  26  27
ENDBRANCH  25  26
ENDBRANCH   1  25
TORSDOF 13
ENDMDL
MODEL 2
REMARK VINA RESULT:     -11.0      1.680      7.692
REMARK SMILES CC1(C)C[C@@H]([NH2+]C[C@@H]2CCCC[C@@H]2C(=O)NCCCNC(=O)c2ccc(-c3c4nc(c(-c5ccccc5)c5ccc([nH]5)c(-c5ccccc5)c5nc(c(-c6ccccc6)c6ccc3[nH]6)C=C5)C=C4)cc2)C(C)(C)O1
REMARK SMILES IDX 17 1 16 2 14 3 15 4 13 6 8 7 9 8 10 9 12 10 11 11 7 12 6 13
REMARK SMILES IDX 5 16 1 17 2 18 3 19 4 20 74 21 71 22 72 23 73 24 18 25 19 26
REMARK SMILES IDX 20 27 21 28 22 30 23 31 24 32 70 33 25 34 69 35 26 36 27 37
REMARK SMILES IDX 28 38 63 39 29 40 68 41 62 42 64 43 30 44 67 45 61 46 60 47
REMARK SMILES IDX 31 49 53 50 38 51 52 52 39 53 42 54 51 55 65 56 40 57 41 58
REMARK SMILES IDX 50 60 66 61 43 62 32 63 33 64 37 65 34 66 36 67 35 68 54 69
REMARK SMILES IDX 55 70 59 71 56 72 58 73 57 74 44 75 45 76 49 77 46 78 48 79
REMARK SMILES IDX 47 80
REMARK H PARENT 16 5 6 14 6 15 20 29 64 48 42 59
REMARK Flexibility Score: inf
ROOT
ATOM      1  C   UNL A   1      32.528  29.708  25.059  1.00  0.00     0.117 C 
ENDROOT
BRANCH   1   2
ATOM      2  N   UNL A   1      32.153  29.143  23.775  1.00  0.00    -0.356 N 
ATOM      3  C   UNL A   1      32.030  27.843  23.390  1.00  0.00     0.223 C 
ATOM      4  O   UNL A   1      31.872  27.624  22.191  1.00  0.00    -0.275 OA
ATOM      5  H   UNL A   1      31.957  29.805  23.073  1.00  0.00     0.163 HD
BRANCH   3   6
ATOM      6  C   UNL A   1      32.044  26.746  24.453  1.00  0.00     0.087 C 
ATOM      7  C   UNL A   1      32.599  25.387  23.968  1.00  0.00     0.056 C 
ATOM      8  C   UNL A   1      31.698  24.721  22.916  1.00  0.00     0.010 C 
ATOM      9  C   UNL A   1      30.290  24.530  23.486  1.00  0.00     0.001 C 
ATOM     10  C   UNL A   1      30.627  26.536  25.017  1.00  0.00     0.014 C 
ATOM     11  C   UNL A   1      29.697  25.827  24.030  1.00  0.00     0.001 C 
BRANCH   7  12
ATOM     12  C   UNL A   1      34.092  25.395  23.580  1.00  0.00     0.265 C 
BRANCH  12  13
ATOM     13  N   UNL A   1      34.700  24.074  23.357  1.00  0.00    -0.341 N 
ATOM     14  H   UNL A   1      33.943  23.403  23.234  1.00  0.00     0.346 HD
ATOM     15  H   UNL A   1      35.303  24.193  22.543  1.00  0.00     0.346 HD
BRANCH  13  16
ATOM     16  C   UNL A   1      35.583  23.560  24.417  1.00  0.00     0.217 C 
ATOM     17  C   UNL A   1      37.793  20.595  24.802  1.00  0.00     0.042 C 
ATOM     18  C   UNL A   1      37.159  21.927  25.200  1.00  0.00     0.069 C 
ATOM     19  C   UNL A   1      38.113  22.712  26.105  1.00  0.00     0.042 C 
ATOM     20  C   UNL A   1      36.768  22.722  23.965  1.00  0.00     0.103 C 
ATOM     21  O   UNL A   1      35.943  21.688  25.918  1.00  0.00    -0.363 OA
ATOM     22  C   UNL A   1      34.913  22.593  25.443  1.00  0.00     0.115 C 
ATOM     23  C   UNL A   1      33.820  21.700  24.841  1.00  0.00     0.048 C 
ATOM     24  C   UNL A   1      34.355  23.341  26.653  1.00  0.00     0.048 C 
ENDBRANCH  13  16
ENDBRANCH  12  13
ENDBRANCH   7  12
ENDBRANCH   3   6
ENDBRANCH   1   2
BRANCH   1  25
ATOM     25  C   UNL A   1      33.642  28.901  25.720  1.00  0.00     0.042 C 
BRANCH  25  26
ATOM     26  C   UNL A   1      33.601  28.901  27.248  1.00  0.00     0.118 C 
BRANCH  26  27
ATOM     27  N   UNL A   1      33.632  30.238  27.821  1.00  0.00    -0.352 N 
ATOM     28  C   UNL A   1      34.622  30.885  28.518  1.00  0.00     0.251 C 
ATOM     29  H   UNL A   1      32.809  30.763  27.690  1.00  0.00     0.163 HD
ATOM     30  O   UNL A   1      34.384  31.970  29.038  1.00  0.00    -0.269 OA
BRANCH  28  31
ATOM     31  C   UNL A   1      35.962  30.276  28.672  1.00  0.00     0.039 A 
ATOM     32  C   UNL A   1      36.826  30.285  27.574  1.00  0.00     0.014 A 
ATOM     33  C   UNL A   1      36.363  29.679  29.870  1.00  0.00     0.014 A 
ATOM     34  C   UNL A   1      38.114  29.759  27.697  1.00  0.00     0.010 A 
ATOM     35  C   UNL A   1      37.672  29.220  30.014  1.00  0.00     0.010 A 
ATOM     36  C   UNL A   1      38.562  29.258  28.931  1.00  0.00    -0.014 A 
BRANCH  36  37
ATOM     37  C   UNL A   1      39.963  28.798  29.101  1.00  0.00     0.031 A 
ATOM     38  C   UNL A   1      41.015  29.723  29.650  1.00  0.00     0.074 A 
ATOM     39  C   UNL A   1      40.302  27.555  28.708  1.00  0.00     0.049 A 
ATOM     40  N   UNL A   1      42.291  29.496  29.847  1.00  0.00    -0.248 NA
ATOM     41  C   UNL A   1      40.586  31.085  30.003  1.00  0.00     0.031 C 
ATOM     42  C   UNL A   1      39.389  26.573  28.118  1.00  0.00     0.029 A 
ATOM     43  N   UNL A   1      41.510  26.902  28.746  1.00  0.00    -0.354 N 
ATOM     44  C   UNL A   1      42.816  30.686  30.333  1.00  0.00     0.074 A 
ATOM     45  C   UNL A   1      41.734  31.646  30.356  1.00  0.00     0.031 C 
ATOM     46  C   UNL A   1      40.060  25.436  27.878  1.00  0.00     0.029 A 
ATOM     47  C   UNL A   1      41.457  25.620  28.257  1.00  0.00     0.049 A 
ATOM     48  H   UNL A   1      42.335  27.315  29.090  1.00  0.00     0.167 HD
ATOM     49  C   UNL A   1      44.080  30.953  30.740  1.00  0.00     0.031 A 
ATOM     50  C   UNL A   1      42.424  24.692  28.124  1.00  0.00     0.031 A 
ATOM     51  C   UNL A   1      45.158  29.998  30.721  1.00  0.00     0.049 A 
ATOM     52  C   UNL A   1      43.821  25.017  28.571  1.00  0.00     0.074 A 
ATOM     53  C   UNL A   1      46.457  30.157  31.170  1.00  0.00     0.029 A 
ATOM     54  N   UNL A   1      45.063  28.709  30.219  1.00  0.00    -0.354 N 
ATOM     55  N   UNL A   1      44.283  26.123  29.103  1.00  0.00    -0.248 NA
ATOM     56  C   UNL A   1      44.829  23.959  28.410  1.00  0.00     0.031 C 
ATOM     57  C   UNL A   1      47.165  28.984  30.887  1.00  0.00     0.029 A 
ATOM     58  C   UNL A   1      46.289  28.072  30.319  1.00  0.00     0.049 A 
ATOM     59  H   UNL A   1      44.246  28.307  29.846  1.00  0.00     0.167 HD
ATOM     60  C   UNL A   1      45.626  25.886  29.362  1.00  0.00     0.074 A 
ATOM     61  C   UNL A   1      45.899  24.524  28.949  1.00  0.00     0.031 C 
ATOM     62  C   UNL A   1      46.551  26.721  29.895  1.00  0.00     0.031 A 
BRANCH  49  63
ATOM     63  C   UNL A   1      44.370  32.344  31.234  1.00  0.00    -0.014 A 
ATOM     64  C   UNL A   1      44.776  33.360  30.354  1.00  0.00     0.009 A 
ATOM     65  C   UNL A   1      44.199  32.653  32.592  1.00  0.00     0.009 A 
ATOM     66  C   UNL A   1      45.039  34.646  30.830  1.00  0.00     0.001 A 
ATOM     67  C   UNL A   1      44.434  33.948  33.060  1.00  0.00     0.001 A 
ATOM     68  C   UNL A   1      44.864  34.940  32.180  1.00  0.00     0.000 A 
ENDBRANCH  49  63
BRANCH  50  69
ATOM     69  C   UNL A   1      42.102  23.359  27.551  1.00  0.00    -0.014 A 
ATOM     70  C   UNL A   1      41.518  22.363  28.347  1.00  0.00     0.009 A 
ATOM     71  C   UNL A   1      42.382  23.075  26.205  1.00  0.00     0.009 A 
ATOM     72  C   UNL A   1      41.244  21.100  27.815  1.00  0.00     0.001 A 
ATOM     73  C   UNL A   1      42.079  21.822  25.668  1.00  0.00     0.001 A 
ATOM     74  C   UNL A   1      41.521  20.833  26.475  1.00  0.00     0.000 A 
ENDBRANCH  50  69
BRANCH  62  75
ATOM     75  C   UNL A   1      47.938  26.175  30.086  1.00  0.00    -0.014 A 
ATOM     76  C   UNL A   1      48.851  26.111  29.020  1.00  0.00     0.009 A 
ATOM     77  C   UNL A   1      48.348  25.744  31.357  1.00  0.00     0.009 A 
ATOM     78  C   UNL A   1      50.132  25.591  29.217  1.00  0.00     0.001 A 
ATOM     79  C   UNL A   1      49.639  25.253  31.559  1.00  0.00     0.001 A 
ATOM     80  C   UNL A   1      50.526  25.167  30.487  1.00  0.00     0.000 A 
ENDBRANCH  62  75
ENDBRANCH  36  37
ENDBRANCH  28  31
ENDBRANCH  26  27
ENDBRANCH  25  26
ENDBRANCH   1  25
TORSDOF 13
ENDMDL
MODEL 3
REMARK VINA RESULT:     -11.0      3.516      9.213
REMARK SMILES CC1(C)C[C@@H]([NH2+]C[C@@H]2CCCC[C@@H]2C(=O)NCCCNC(=O)c2ccc(-c3c4nc(c(-c5ccccc5)c5ccc([nH]5)c(-c5ccccc5)c5nc(c(-c6ccccc6)c6ccc3[nH]6)C=C5)C=C4)cc2)C(C)(C)O1
REMARK SMILES IDX 17 1 16 2 14 3 15 4 13 6 8 7 9 8 10 9 12 10 11 11 7 12 6 13
REMARK SMILES IDX 5 16 1 17 2 18 3 19 4 20 74 21 71 22 72 23 73 24 18 25 19 26
REMARK SMILES IDX 20 27 21 28 22 30 23 31 24 32 70 33 25 34 69 35 26 36 27 37
REMARK SMILES IDX 28 38 63 39 29 40 68 41 62 42 64 43 30 44 67 45 61 46 60 47
REMARK SMILES IDX 31 49 53 50 38 51 52 52 39 53 42 54 51 55 65 56 40 57 41 58
REMARK SMILES IDX 50 60 66 61 43 62 32 63 33 64 37 65 34 66 36 67 35 68 54 69
REMARK SMILES IDX 55 70 59 71 56 72 58 73 57 74 44 75 45 76 49 77 46 78 48 79
REMARK SMILES IDX 47 80
REMARK H PARENT 16 5 6 14 6 15 20 29 64 48 42 59
REMARK Flexibility Score: inf
ROOT
ATOM      1  C   UNL A   1      31.709  30.442  26.642  1.00  0.00     0.117 C 
ENDROOT
BRANCH   1   2
ATOM      2  N   UNL A   1      32.469  30.222  25.425  1.00  0.00    -0.356 N 
ATOM      3  C   UNL A   1      32.526  29.133  24.610  1.00  0.00     0.223 C 
ATOM      4  O   UNL A   1      33.388  29.129  23.734  1.00  0.00    -0.275 OA
ATOM      5  H   UNL A   1      33.032  30.980  25.146  1.00  0.00     0.163 HD
BRANCH   3   6
ATOM      6  C   UNL A   1      31.504  28.012  24.791  1.00  0.00     0.087 C 
ATOM      7  C   UNL A   1      32.077  26.585  24.627  1.00  0.00     0.056 C 
ATOM      8  C   UNL A   1      32.535  26.293  23.190  1.00  0.00     0.010 C 
ATOM      9  C   UNL A   1      31.366  26.494  22.222  1.00  0.00     0.001 C 
ATOM     10  C   UNL A   1      30.334  28.199  23.807  1.00  0.00     0.014 C 
ATOM     11  C   UNL A   1      30.718  27.869  22.363  1.00  0.00     0.001 C 
BRANCH   7  12
ATOM     12  C   UNL A   1      33.110  26.173  25.696  1.00  0.00     0.265 C 
BRANCH  12  13
ATOM     13  N   UNL A   1      33.063  24.764  26.117  1.00  0.00    -0.341 N 
ATOM     14  H   UNL A   1      32.753  24.743  27.088  1.00  0.00     0.346 HD
ATOM     15  H   UNL A   1      32.433  24.309  25.456  1.00  0.00     0.346 HD
BRANCH  13  16
ATOM     16  C   UNL A   1      34.321  24.003  26.035  1.00  0.00     0.217 C 
ATOM     17  C   UNL A   1      36.533  22.855  23.276  1.00  0.00     0.042 C 
ATOM     18  C   UNL A   1      36.106  23.074  24.727  1.00  0.00     0.069 C 
ATOM     19  C   UNL A   1      37.341  23.178  25.626  1.00  0.00     0.042 C 
ATOM     20  C   UNL A   1      35.215  24.299  24.843  1.00  0.00     0.103 C 
ATOM     21  O   UNL A   1      35.314  21.965  25.169  1.00  0.00    -0.363 OA
ATOM     22  C   UNL A   1      34.164  22.454  25.908  1.00  0.00     0.115 C 
ATOM     23  C   UNL A   1      32.935  22.013  25.104  1.00  0.00     0.048 C 
ATOM     24  C   UNL A   1      34.161  21.767  27.273  1.00  0.00     0.048 C 
ENDBRANCH  13  16
ENDBRANCH  12  13
ENDBRANCH   7  12
ENDBRANCH   3   6
ENDBRANCH   1   2
BRANCH   1  25
ATOM     25  C   UNL A   1      31.463  31.928  26.886  1.00  0.00     0.042 C 
BRANCH  25  26
ATOM     26  C   UNL A   1      32.732  32.754  27.093  1.00  0.00     0.118 C 
BRANCH  26  27
ATOM     27  N   UNL A   1      32.477  34.055  27.691  1.00  0.00    -0.352 N 
ATOM     28  C   UNL A   1      33.142  34.721  28.691  1.00  0.00     0.251 C 
ATOM     29  H   UNL A   1      31.703  34.537  27.319  1.00  0.00     0.163 HD
ATOM     30  O   UNL A   1      32.669  35.758  29.144  1.00  0.00    -0.269 OA
BRANCH  28  31
ATOM     31  C   UNL A   1      34.403  34.186  29.249  1.00  0.00     0.039 A 
ATOM     32  C   UNL A   1      34.343  33.432  30.425  1.00  0.00     0.014 A 
ATOM     33  C   UNL A   1      35.639  34.438  28.644  1.00  0.00     0.014 A 
ATOM     34  C   UNL A   1      35.509  32.875  30.954  1.00  0.00     0.010 A 
ATOM     35  C   UNL A   1      36.790  33.821  29.132  1.00  0.00     0.010 A 
ATOM     36  C   UNL A   1      36.737  33.031  30.290  1.00  0.00    -0.014 A 
BRANCH  36  37
ATOM     37  C   UNL A   1      37.961  32.351  30.785  1.00  0.00     0.031 A 
ATOM     38  C   UNL A   1      38.739  32.913  31.944  1.00  0.00     0.074 A 
ATOM     39  C   UNL A   1      38.404  31.247  30.152  1.00  0.00     0.049 A 
ATOM     40  N   UNL A   1      39.839  32.461  32.494  1.00  0.00    -0.248 NA
ATOM     41  C   UNL A   1      38.228  34.152  32.550  1.00  0.00     0.031 C 
ATOM     42  C   UNL A   1      37.769  30.625  28.987  1.00  0.00     0.029 A 
ATOM     43  N   UNL A   1      39.496  30.451  30.398  1.00  0.00    -0.354 N 
ATOM     44  C   UNL A   1      40.158  33.366  33.499  1.00  0.00     0.074 A 
ATOM     45  C   UNL A   1      39.164  34.416  33.451  1.00  0.00     0.031 C 
ATOM     46  C   UNL A   1      38.463  29.530  28.640  1.00  0.00     0.029 A 
ATOM     47  C   UNL A   1      39.613  29.395  29.528  1.00  0.00     0.049 A 
ATOM     48  H   UNL A   1      40.134  30.623  31.128  1.00  0.00     0.167 HD
ATOM     49  C   UNL A   1      41.175  33.319  34.392  1.00  0.00     0.031 A 
ATOM     50  C   UNL A   1      40.543  28.424  29.449  1.00  0.00     0.031 A 
ATOM     51  C   UNL A   1      42.164  32.273  34.442  1.00  0.00     0.049 A 
ATOM     52  C   UNL A   1      41.670  28.402  30.444  1.00  0.00     0.074 A 
ATOM     53  C   UNL A   1      43.196  32.108  35.349  1.00  0.00     0.029 A 
ATOM     54  N   UNL A   1      42.247  31.221  33.544  1.00  0.00    -0.354 N 
ATOM     55  N   UNL A   1      41.911  29.223  31.438  1.00  0.00    -0.248 NA
ATOM     56  C   UNL A   1      42.646  27.312  30.311  1.00  0.00     0.031 C 
ATOM     57  C   UNL A   1      43.940  30.986  34.966  1.00  0.00     0.029 A 
ATOM     58  C   UNL A   1      43.332  30.418  33.857  1.00  0.00     0.049 A 
ATOM     59  H   UNL A   1      41.628  31.067  32.795  1.00  0.00     0.167 HD
ATOM     60  C   UNL A   1      43.050  28.734  32.063  1.00  0.00     0.074 A 
ATOM     61  C   UNL A   1      43.439  27.534  31.349  1.00  0.00     0.031 C 
ATOM     62  C   UNL A   1      43.715  29.233  33.133  1.00  0.00     0.031 A 
BRANCH  49  63
ATOM     63  C   UNL A   1      41.277  34.444  35.385  1.00  0.00    -0.014 A 
ATOM     64  C   UNL A   1      42.059  35.580  35.123  1.00  0.00     0.009 A 
ATOM     65  C   UNL A   1      40.551  34.384  36.585  1.00  0.00     0.009 A 
ATOM     66  C   UNL A   1      42.140  36.615  36.057  1.00  0.00     0.001 A 
ATOM     67  C   UNL A   1      40.610  35.434  37.503  1.00  0.00     0.001 A 
ATOM     68  C   UNL A   1      41.413  36.544  37.243  1.00  0.00     0.000 A 
ENDBRANCH  49  63
BRANCH  50  69
ATOM     69  C   UNL A   1      40.443  27.383  28.394  1.00  0.00    -0.014 A 
ATOM     70  C   UNL A   1      41.050  27.574  27.144  1.00  0.00     0.009 A 
ATOM     71  C   UNL A   1      39.737  26.193  28.630  1.00  0.00     0.009 A 
ATOM     72  C   UNL A   1      40.929  26.607  26.142  1.00  0.00     0.001 A 
ATOM     73  C   UNL A   1      39.643  25.215  27.638  1.00  0.00     0.001 A 
ATOM     74  C   UNL A   1      40.230  25.427  26.392  1.00  0.00     0.000 A 
ENDBRANCH  50  69
BRANCH  62  75
ATOM     75  C   UNL A   1      44.916  28.468  33.612  1.00  0.00    -0.014 A 
ATOM     76  C   UNL A   1      46.202  28.744  33.122  1.00  0.00     0.009 A 
ATOM     77  C   UNL A   1      44.762  27.472  34.591  1.00  0.00     0.009 A 
ATOM     78  C   UNL A   1      47.303  28.013  33.574  1.00  0.00     0.001 A 
ATOM     79  C   UNL A   1      45.868  26.764  35.063  1.00  0.00     0.001 A 
ATOM     80  C   UNL A   1      47.136  27.028  34.547  1.00  0.00     0.000 A 
ENDBRANCH  62  75
ENDBRANCH  36  37
ENDBRANCH  28  31
ENDBRANCH  26  27
ENDBRANCH  25  26
ENDBRANCH   1  25
TORSDOF 13
ENDMDL
