MODEL 1
REMARK VINA RESULT:      -9.3      0.000      0.000
REMARK SMILES O=C(NCCCNC(=O)[C@@H]1CN(c2nc(-c3ccccc3)no2)CC[NH2+]1)c1ccc(-c2c3nc(c(-c4ccccc4)c4ccc([nH]4)c(-c4ccccc4)c4nc(c(-c5ccccc5)c5ccc2[nH]5)C=C4)C=C3)cc1
REMARK SMILES IDX 5 1 4 2 3 3 1 4 2 5 27 7 28 8 74 9 29 10 73 11 30 12 31 13
REMARK SMILES IDX 32 14 67 15 33 16 72 17 66 18 68 19 34 20 71 21 65 22 64 23
REMARK SMILES IDX 35 25 57 26 42 27 56 28 43 29 46 30 55 31 69 32 44 33 45 34
REMARK SMILES IDX 54 36 70 37 47 38 36 39 37 40 41 41 38 42 40 43 39 44 58 45
REMARK SMILES IDX 59 46 63 47 60 48 62 49 61 50 48 51 49 52 53 53 50 54 52 55
REMARK SMILES IDX 51 56 6 57 7 58 8 59 9 61 10 62 11 63 26 64 12 65 25 66
REMARK SMILES IDX 24 69 13 70 14 71 23 72 15 73 22 74 16 75 17 76 21 77 18 78
REMARK SMILES IDX 20 79 19 80
REMARK H PARENT 3 6 68 24 46 35 7 60 26 67 26 68
REMARK Flexibility Score: inf
ROOT
ATOM      1  C   UNL A   1      33.210  36.817  31.017  1.00  0.00     0.042 C 
ENDROOT
BRANCH   1   2
ATOM      2  C   UNL A   1      33.735  36.504  29.630  1.00  0.00     0.118 C 
BRANCH   2   3
ATOM      3  N   UNL A   1      32.869  35.572  28.914  1.00  0.00    -0.352 N 
ATOM      4  O   UNL A   1      32.382  33.823  27.576  1.00  0.00    -0.269 OA
ATOM      5  C   UNL A   1      33.162  34.350  28.368  1.00  0.00     0.251 C 
ATOM      6  H   UNL A   1      31.935  35.867  28.806  1.00  0.00     0.163 HD
BRANCH   5   7
ATOM      7  C   UNL A   1      34.416  33.668  28.736  1.00  0.00     0.039 A 
ATOM      8  C   UNL A   1      35.624  34.088  28.175  1.00  0.00     0.014 A 
ATOM      9  C   UNL A   1      34.398  32.634  29.675  1.00  0.00     0.014 A 
ATOM     10  C   UNL A   1      36.787  33.381  28.427  1.00  0.00     0.010 A 
ATOM     11  C   UNL A   1      35.594  32.005  30.028  1.00  0.00     0.010 A 
ATOM     12  C   UNL A   1      36.794  32.372  29.400  1.00  0.00    -0.014 A 
BRANCH  12  13
ATOM     13  C   UNL A   1      38.100  31.844  29.853  1.00  0.00     0.031 A 
ATOM     14  C   UNL A   1      38.984  32.621  30.779  1.00  0.00     0.074 A 
ATOM     15  C   UNL A   1      38.469  30.628  29.402  1.00  0.00     0.049 A 
ATOM     16  N   UNL A   1      40.164  32.297  31.242  1.00  0.00    -0.248 NA
ATOM     17  C   UNL A   1      38.494  33.929  31.243  1.00  0.00     0.031 C 
ATOM     18  C   UNL A   1      37.679  29.791  28.488  1.00  0.00     0.029 A 
ATOM     19  N   UNL A   1      39.586  29.875  29.651  1.00  0.00    -0.354 N 
ATOM     20  C   UNL A   1      40.571  33.367  32.027  1.00  0.00     0.074 A 
ATOM     21  C   UNL A   1      39.517  34.357  31.974  1.00  0.00     0.031 C 
ATOM     22  C   UNL A   1      38.317  28.631  28.288  1.00  0.00     0.029 A 
ATOM     23  C   UNL A   1      39.596  28.676  28.980  1.00  0.00     0.049 A 
ATOM     24  H   UNL A   1      40.310  30.166  30.251  1.00  0.00     0.167 HD
ATOM     25  C   UNL A   1      41.726  33.502  32.719  1.00  0.00     0.031 A 
ATOM     26  C   UNL A   1      40.549  27.732  28.892  1.00  0.00     0.031 A 
ATOM     27  C   UNL A   1      42.763  32.503  32.763  1.00  0.00     0.049 A 
ATOM     28  C   UNL A   1      41.836  27.945  29.630  1.00  0.00     0.074 A 
ATOM     29  C   UNL A   1      43.942  32.521  33.488  1.00  0.00     0.029 A 
ATOM     30  N   UNL A   1      42.753  31.319  32.043  1.00  0.00    -0.354 N 
ATOM     31  N   UNL A   1      42.175  28.929  30.426  1.00  0.00    -0.248 NA
ATOM     32  C   UNL A   1      42.875  26.924  29.450  1.00  0.00     0.031 C 
ATOM     33  C   UNL A   1      44.679  31.384  33.148  1.00  0.00     0.029 A 
ATOM     34  C   UNL A   1      43.931  30.625  32.263  1.00  0.00     0.049 A 
ATOM     35  H   UNL A   1      42.019  31.017  31.461  1.00  0.00     0.167 HD
ATOM     36  C   UNL A   1      43.464  28.642  30.849  1.00  0.00     0.074 A 
ATOM     37  C   UNL A   1      43.830  27.376  30.250  1.00  0.00     0.031 C 
ATOM     38  C   UNL A   1      44.277  29.369  31.651  1.00  0.00     0.031 A 
BRANCH  25  39
ATOM     39  C   UNL A   1      41.967  34.788  33.460  1.00  0.00    -0.014 A 
ATOM     40  C   UNL A   1      42.795  35.793  32.941  1.00  0.00     0.009 A 
ATOM     41  C   UNL A   1      41.263  35.034  34.652  1.00  0.00     0.009 A 
ATOM     42  C   UNL A   1      42.922  37.016  33.606  1.00  0.00     0.001 A 
ATOM     43  C   UNL A   1      41.373  36.265  35.301  1.00  0.00     0.001 A 
ATOM     44  C   UNL A   1      42.204  37.254  34.779  1.00  0.00     0.000 A 
ENDBRANCH  25  39
BRANCH  26  45
ATOM     45  C   UNL A   1      40.351  26.550  28.013  1.00  0.00    -0.014 A 
ATOM     46  C   UNL A   1      40.857  26.531  26.706  1.00  0.00     0.009 A 
ATOM     47  C   UNL A   1      39.632  25.436  28.477  1.00  0.00     0.009 A 
ATOM     48  C   UNL A   1      40.613  25.437  25.871  1.00  0.00     0.001 A 
ATOM     49  C   UNL A   1      39.424  24.329  27.656  1.00  0.00     0.001 A 
ATOM     50  C   UNL A   1      39.901  24.337  26.347  1.00  0.00     0.000 A 
ENDBRANCH  26  45
BRANCH  38  51
ATOM     51  C   UNL A   1      45.637  28.800  31.934  1.00  0.00    -0.014 A 
ATOM     52  C   UNL A   1      45.834  27.887  32.982  1.00  0.00     0.009 A 
ATOM     53  C   UNL A   1      46.724  29.150  31.119  1.00  0.00     0.009 A 
ATOM     54  C   UNL A   1      47.102  27.359  33.226  1.00  0.00     0.001 A 
ATOM     55  C   UNL A   1      47.983  28.595  31.345  1.00  0.00     0.001 A 
ATOM     56  C   UNL A   1      48.173  27.707  32.404  1.00  0.00     0.000 A 
ENDBRANCH  38  51
ENDBRANCH  12  13
ENDBRANCH   5   7
ENDBRANCH   2   3
ENDBRANCH   1   2
BRANCH   1  57
ATOM     57  C   UNL A   1      34.037  36.165  32.107  1.00  0.00     0.118 C 
BRANCH  57  58
ATOM     58  N   UNL A   1      33.563  34.824  32.414  1.00  0.00    -0.351 N 
ATOM     59  C   UNL A   1      34.175  33.721  32.924  1.00  0.00     0.280 C 
ATOM     60  H   UNL A   1      32.609  34.688  32.214  1.00  0.00     0.163 HD
ATOM     61  O   UNL A   1      33.467  32.710  33.007  1.00  0.00    -0.268 OA
BRANCH  59  62
ATOM     62  C   UNL A   1      35.661  33.682  33.341  1.00  0.00     0.292 C 
ATOM     63  C   UNL A   1      35.962  32.238  33.829  1.00  0.00     0.197 C 
ATOM     64  N   UNL A   1      35.982  34.698  34.381  1.00  0.00    -0.333 N 
ATOM     65  N   UNL A   1      37.245  32.140  34.529  1.00  0.00    -0.312 N 
ATOM     66  C   UNL A   1      37.379  34.556  34.807  1.00  0.00     0.283 C 
ATOM     67  H   UNL A   1      35.369  34.564  35.184  1.00  0.00     0.347 HD
ATOM     68  H   UNL A   1      35.844  35.631  33.992  1.00  0.00     0.347 HD
ATOM     69  C   UNL A   1      37.607  33.190  35.472  1.00  0.00     0.183 C 
BRANCH  65  70
ATOM     70  C   UNL A   1      38.166  31.238  34.150  1.00  0.00     0.324 A 
ATOM     71  N   UNL A   1      39.340  30.980  34.668  1.00  0.00    -0.171 NA
ATOM     72  O   UNL A   1      37.859  30.433  33.089  1.00  0.00    -0.315 OA
ATOM     73  C   UNL A   1      39.767  29.921  33.905  1.00  0.00     0.204 A 
ATOM     74  N   UNL A   1      38.936  29.571  32.914  1.00  0.00    -0.055 NA
BRANCH  73  75
ATOM     75  C   UNL A   1      40.962  29.173  34.212  1.00  0.00     0.023 A 
ATOM     76  C   UNL A   1      41.167  27.908  33.652  1.00  0.00     0.012 A 
ATOM     77  C   UNL A   1      41.888  29.693  35.126  1.00  0.00     0.012 A 
ATOM     78  C   UNL A   1      42.288  27.161  34.016  1.00  0.00     0.001 A 
ATOM     79  C   UNL A   1      43.000  28.938  35.497  1.00  0.00     0.001 A 
ATOM     80  C   UNL A   1      43.197  27.673  34.943  1.00  0.00     0.000 A 
ENDBRANCH  73  75
ENDBRANCH  65  70
ENDBRANCH  59  62
ENDBRANCH  57  58
ENDBRANCH   1  57
TORSDOF 12
ENDMDL
MODEL 2
REMARK VINA RESULT:      -9.2      5.891     11.246
REMARK SMILES O=C(NCCCNC(=O)[C@@H]1CN(c2nc(-c3ccccc3)no2)CC[NH2+]1)c1ccc(-c2c3nc(c(-c4ccccc4)c4ccc([nH]4)c(-c4ccccc4)c4nc(c(-c5ccccc5)c5ccc2[nH]5)C=C4)C=C3)cc1
REMARK SMILES IDX 5 1 4 2 3 3 1 4 2 5 27 7 28 8 74 9 29 10 73 11 30 12 31 13
REMARK SMILES IDX 32 14 67 15 33 16 72 17 66 18 68 19 34 20 71 21 65 22 64 23
REMARK SMILES IDX 35 25 57 26 42 27 56 28 43 29 46 30 55 31 69 32 44 33 45 34
REMARK SMILES IDX 54 36 70 37 47 38 36 39 37 40 41 41 38 42 40 43 39 44 58 45
REMARK SMILES IDX 59 46 63 47 60 48 62 49 61 50 48 51 49 52 53 53 50 54 52 55
REMARK SMILES IDX 51 56 6 57 7 58 8 59 9 61 10 62 11 63 26 64 12 65 25 66
REMARK SMILES IDX 24 69 13 70 14 71 23 72 15 73 22 74 16 75 17 76 21 77 18 78
REMARK SMILES IDX 20 79 19 80
REMARK H PARENT 3 6 68 24 46 35 7 60 26 67 26 68
REMARK Flexibility Score: inf
ROOT
ATOM      1  C   UNL A   1      37.639  19.805  24.951  1.00  0.00     0.042 C 
ENDROOT
BRANCH   1   2
ATOM      2  C   UNL A   1      38.871  20.309  25.676  1.00  0.00     0.118 C 
BRANCH   2   3
ATOM      3  N   UNL A   1      39.877  19.263  25.840  1.00  0.00    -0.352 N 
ATOM      4  O   UNL A   1      41.959  18.398  25.908  1.00  0.00    -0.269 OA
ATOM      5  C   UNL A   1      41.226  19.373  26.058  1.00  0.00     0.251 C 
ATOM      6  H   UNL A   1      39.536  18.341  25.784  1.00  0.00     0.163 HD
BRANCH   5   7
ATOM      7  C   UNL A   1      41.793  20.669  26.475  1.00  0.00     0.039 A 
ATOM      8  C   UNL A   1      42.150  21.613  25.511  1.00  0.00     0.014 A 
ATOM      9  C   UNL A   1      41.934  20.963  27.834  1.00  0.00     0.014 A 
ATOM     10  C   UNL A   1      42.788  22.781  25.887  1.00  0.00     0.010 A 
ATOM     11  C   UNL A   1      42.460  22.199  28.218  1.00  0.00     0.010 A 
ATOM     12  C   UNL A   1      42.895  23.112  27.246  1.00  0.00    -0.014 A 
BRANCH  12  13
ATOM     13  C   UNL A   1      43.309  24.487  27.602  1.00  0.00     0.031 A 
ATOM     14  C   UNL A   1      42.316  25.520  28.034  1.00  0.00     0.074 A 
ATOM     15  C   UNL A   1      44.624  24.778  27.527  1.00  0.00     0.049 A 
ATOM     16  N   UNL A   1      42.529  26.771  28.355  1.00  0.00    -0.248 NA
ATOM     17  C   UNL A   1      40.904  25.111  28.113  1.00  0.00     0.031 C 
ATOM     18  C   UNL A   1      45.675  23.840  27.110  1.00  0.00     0.029 A 
ATOM     19  N   UNL A   1      45.308  25.931  27.806  1.00  0.00    -0.354 N 
ATOM     20  C   UNL A   1      41.282  27.307  28.645  1.00  0.00     0.074 A 
ATOM     21  C   UNL A   1      40.312  26.249  28.457  1.00  0.00     0.031 C 
ATOM     22  C   UNL A   1      46.867  24.442  27.198  1.00  0.00     0.029 A 
ATOM     23  C   UNL A   1      46.661  25.829  27.588  1.00  0.00     0.049 A 
ATOM     24  H   UNL A   1      44.873  26.753  28.130  1.00  0.00     0.167 HD
ATOM     25  C   UNL A   1      40.985  28.570  29.027  1.00  0.00     0.031 A 
ATOM     26  C   UNL A   1      47.629  26.760  27.648  1.00  0.00     0.031 A 
ATOM     27  C   UNL A   1      41.965  29.609  29.214  1.00  0.00     0.049 A 
ATOM     28  C   UNL A   1      47.251  28.161  28.022  1.00  0.00     0.074 A 
ATOM     29  C   UNL A   1      41.769  30.904  29.661  1.00  0.00     0.029 A 
ATOM     30  N   UNL A   1      43.319  29.477  28.949  1.00  0.00    -0.354 N 
ATOM     31  N   UNL A   1      46.077  28.633  28.366  1.00  0.00    -0.248 NA
ATOM     32  C   UNL A   1      48.326  29.160  28.010  1.00  0.00     0.031 C 
ATOM     33  C   UNL A   1      42.991  31.578  29.595  1.00  0.00     0.029 A 
ATOM     34  C   UNL A   1      43.961  30.685  29.170  1.00  0.00     0.049 A 
ATOM     35  H   UNL A   1      43.759  28.650  28.648  1.00  0.00     0.167 HD
ATOM     36  C   UNL A   1      46.274  29.982  28.616  1.00  0.00     0.074 A 
ATOM     37  C   UNL A   1      47.685  30.243  28.421  1.00  0.00     0.031 C 
ATOM     38  C   UNL A   1      45.366  30.924  28.964  1.00  0.00     0.031 A 
BRANCH  25  39
ATOM     39  C   UNL A   1      39.541  28.931  29.236  1.00  0.00    -0.014 A 
ATOM     40  C   UNL A   1      38.731  29.367  28.178  1.00  0.00     0.009 A 
ATOM     41  C   UNL A   1      38.958  28.726  30.499  1.00  0.00     0.009 A 
ATOM     42  C   UNL A   1      37.368  29.602  28.382  1.00  0.00     0.001 A 
ATOM     43  C   UNL A   1      37.592  28.938  30.694  1.00  0.00     0.001 A 
ATOM     44  C   UNL A   1      36.799  29.378  29.637  1.00  0.00     0.000 A 
ENDBRANCH  25  39
BRANCH  26  45
ATOM     45  C   UNL A   1      49.024  26.413  27.271  1.00  0.00    -0.014 A 
ATOM     46  C   UNL A   1      49.446  26.478  25.935  1.00  0.00     0.009 A 
ATOM     47  C   UNL A   1      49.939  25.994  28.251  1.00  0.00     0.009 A 
ATOM     48  C   UNL A   1      50.743  26.093  25.586  1.00  0.00     0.001 A 
ATOM     49  C   UNL A   1      51.246  25.649  27.906  1.00  0.00     0.001 A 
ATOM     50  C   UNL A   1      51.641  25.683  26.571  1.00  0.00     0.000 A 
ENDBRANCH  26  45
BRANCH  38  51
ATOM     51  C   UNL A   1      45.879  32.319  29.167  1.00  0.00    -0.014 A 
ATOM     52  C   UNL A   1      45.887  33.246  28.112  1.00  0.00     0.009 A 
ATOM     53  C   UNL A   1      46.321  32.724  30.435  1.00  0.00     0.009 A 
ATOM     54  C   UNL A   1      46.358  34.543  28.318  1.00  0.00     0.001 A 
ATOM     55  C   UNL A   1      46.760  34.030  30.646  1.00  0.00     0.001 A 
ATOM     56  C   UNL A   1      46.787  34.936  29.585  1.00  0.00     0.000 A 
ENDBRANCH  38  51
ENDBRANCH  12  13
ENDBRANCH   5   7
ENDBRANCH   2   3
ENDBRANCH   1   2
BRANCH   1  57
ATOM     57  C   UNL A   1      36.481  20.778  25.038  1.00  0.00     0.118 C 
BRANCH  57  58
ATOM     58  N   UNL A   1      35.225  20.098  25.320  1.00  0.00    -0.351 N 
ATOM     59  C   UNL A   1      33.924  20.455  25.154  1.00  0.00     0.280 C 
ATOM     60  H   UNL A   1      35.342  19.202  25.708  1.00  0.00     0.163 HD
ATOM     61  O   UNL A   1      33.091  19.636  25.560  1.00  0.00    -0.268 OA
BRANCH  59  62
ATOM     62  C   UNL A   1      33.475  21.801  24.544  1.00  0.00     0.292 C 
ATOM     63  C   UNL A   1      32.388  22.391  25.486  1.00  0.00     0.197 C 
ATOM     64  N   UNL A   1      32.978  21.650  23.149  1.00  0.00    -0.333 N 
ATOM     65  N   UNL A   1      31.669  23.512  24.876  1.00  0.00    -0.312 N 
ATOM     66  C   UNL A   1      32.480  22.938  22.652  1.00  0.00     0.283 C 
ATOM     67  H   UNL A   1      32.223  20.967  23.131  1.00  0.00     0.347 HD
ATOM     68  H   UNL A   1      33.744  21.336  22.553  1.00  0.00     0.347 HD
ATOM     69  C   UNL A   1      31.272  23.407  23.478  1.00  0.00     0.183 C 
BRANCH  65  70
ATOM     70  C   UNL A   1      31.575  24.693  25.508  1.00  0.00     0.324 A 
ATOM     71  N   UNL A   1      32.417  25.695  25.531  1.00  0.00    -0.171 NA
ATOM     72  O   UNL A   1      30.434  24.935  26.223  1.00  0.00    -0.315 OA
ATOM     73  C   UNL A   1      31.735  26.629  26.271  1.00  0.00     0.204 A 
ATOM     74  N   UNL A   1      30.552  26.217  26.748  1.00  0.00    -0.055 NA
BRANCH  73  75
ATOM     75  C   UNL A   1      32.202  27.986  26.432  1.00  0.00     0.023 A 
ATOM     76  C   UNL A   1      31.569  29.035  25.760  1.00  0.00     0.012 A 
ATOM     77  C   UNL A   1      33.335  28.237  27.217  1.00  0.00     0.012 A 
ATOM     78  C   UNL A   1      32.077  30.331  25.862  1.00  0.00     0.001 A 
ATOM     79  C   UNL A   1      33.847  29.532  27.306  1.00  0.00     0.001 A 
ATOM     80  C   UNL A   1      33.219  30.575  26.627  1.00  0.00     0.000 A 
ENDBRANCH  73  75
ENDBRANCH  65  70
ENDBRANCH  59  62
ENDBRANCH  57  58
ENDBRANCH   1  57
TORSDOF 12
ENDMDL
MODEL 3
REMARK VINA RESULT:      -9.1      0.363      6.012
REMARK SMILES O=C(NCCCNC(=O)[C@@H]1CN(c2nc(-c3ccccc3)no2)CC[NH2+]1)c1ccc(-c2c3nc(c(-c4ccccc4)c4ccc([nH]4)c(-c4ccccc4)c4nc(c(-c5ccccc5)c5ccc2[nH]5)C=C4)C=C3)cc1
REMARK SMILES IDX 5 1 4 2 3 3 1 4 2 5 27 7 28 8 74 9 29 10 73 11 30 12 31 13
REMARK SMILES IDX 32 14 67 15 33 16 72 17 66 18 68 19 34 20 71 21 65 22 64 23
REMARK SMILES IDX 35 25 57 26 42 27 56 28 43 29 46 30 55 31 69 32 44 33 45 34
REMARK SMILES IDX 54 36 70 37 47 38 36 39 37 40 41 41 38 42 40 43 39 44 58 45
REMARK SMILES IDX 59 46 63 47 60 48 62 49 61 50 48 51 49 52 53 53 50 54 52 55
REMARK SMILES IDX 51 56 6 57 7 58 8 59 9 61 10 62 11 63 26 64 12 65 25 66
REMARK SMILES IDX 24 69 13 70 14 71 23 72 15 73 22 74 16 75 17 76 21 77 18 78
REMARK SMILES IDX 20 79 19 80
REMARK H PARENT 3 6 68 24 46 35 7 60 26 67 26 68
REMARK Flexibility Score: inf
ROOT
ATOM      1  C   UNL A   1      33.127  36.808  31.098  1.00  0.00     0.042 C 
ENDROOT
BRANCH   1   2
ATOM      2  C   UNL A   1      33.685  36.468  29.730  1.00  0.00     0.118 C 
BRANCH   2   3
ATOM      3  N   UNL A   1      32.819  35.549  28.997  1.00  0.00    -0.352 N 
ATOM      4  O   UNL A   1      32.334  33.839  27.609  1.00  0.00    -0.269 OA
ATOM      5  C   UNL A   1      33.119  34.350  28.405  1.00  0.00     0.251 C 
ATOM      6  H   UNL A   1      31.880  35.834  28.914  1.00  0.00     0.163 HD
BRANCH   5   7
ATOM      7  C   UNL A   1      34.389  33.674  28.730  1.00  0.00     0.039 A 
ATOM      8  C   UNL A   1      35.571  34.085  28.113  1.00  0.00     0.014 A 
ATOM      9  C   UNL A   1      34.411  32.653  29.683  1.00  0.00     0.014 A 
ATOM     10  C   UNL A   1      36.744  33.383  28.325  1.00  0.00     0.010 A 
ATOM     11  C   UNL A   1      35.621  32.028  29.994  1.00  0.00     0.010 A 
ATOM     12  C   UNL A   1      36.793  32.387  29.311  1.00  0.00    -0.014 A 
BRANCH  12  13
ATOM     13  C   UNL A   1      38.118  31.866  29.716  1.00  0.00     0.031 A 
ATOM     14  C   UNL A   1      38.633  30.553  29.214  1.00  0.00     0.074 A 
ATOM     15  C   UNL A   1      38.853  32.622  30.557  1.00  0.00     0.049 A 
ATOM     16  N   UNL A   1      39.763  29.958  29.500  1.00  0.00    -0.248 NA
ATOM     17  C   UNL A   1      37.778  29.803  28.279  1.00  0.00     0.031 C 
ATOM     18  C   UNL A   1      38.436  33.919  31.109  1.00  0.00     0.029 A 
ATOM     19  N   UNL A   1      40.100  32.427  31.086  1.00  0.00    -0.354 N 
ATOM     20  C   UNL A   1      39.746  28.755  28.807  1.00  0.00     0.074 A 
ATOM     21  C   UNL A   1      38.490  28.698  28.090  1.00  0.00     0.031 C 
ATOM     22  C   UNL A   1      39.423  34.416  31.865  1.00  0.00     0.029 A 
ATOM     23  C   UNL A   1      40.501  33.440  31.925  1.00  0.00     0.049 A 
ATOM     24  H   UNL A   1      40.655  31.639  30.887  1.00  0.00     0.167 HD
ATOM     25  C   UNL A   1      40.695  27.792  28.784  1.00  0.00     0.031 A 
ATOM     26  C   UNL A   1      41.595  33.554  32.698  1.00  0.00     0.031 A 
ATOM     27  C   UNL A   1      41.942  27.869  29.501  1.00  0.00     0.049 A 
ATOM     28  C   UNL A   1      42.597  32.439  32.686  1.00  0.00     0.074 A 
ATOM     29  C   UNL A   1      42.996  26.971  29.491  1.00  0.00     0.029 A 
ATOM     30  N   UNL A   1      42.295  28.892  30.367  1.00  0.00    -0.354 N 
ATOM     31  N   UNL A   1      42.599  31.342  31.968  1.00  0.00    -0.248 NA
ATOM     32  C   UNL A   1      43.741  32.572  33.595  1.00  0.00     0.031 C 
ATOM     33  C   UNL A   1      43.953  27.413  30.406  1.00  0.00     0.029 A 
ATOM     34  C   UNL A   1      43.527  28.619  30.939  1.00  0.00     0.049 A 
ATOM     35  H   UNL A   1      41.752  29.692  30.549  1.00  0.00     0.167 HD
ATOM     36  C   UNL A   1      43.747  30.657  32.335  1.00  0.00     0.074 A 
ATOM     37  C   UNL A   1      44.434  31.479  33.309  1.00  0.00     0.031 C 
ATOM     38  C   UNL A   1      44.189  29.449  31.911  1.00  0.00     0.031 A 
BRANCH  25  39
ATOM     39  C   UNL A   1      40.424  26.542  27.994  1.00  0.00    -0.014 A 
ATOM     40  C   UNL A   1      39.599  25.522  28.490  1.00  0.00     0.009 A 
ATOM     41  C   UNL A   1      40.921  26.437  26.683  1.00  0.00     0.009 A 
ATOM     42  C   UNL A   1      39.286  24.417  27.693  1.00  0.00     0.001 A 
ATOM     43  C   UNL A   1      40.588  25.345  25.881  1.00  0.00     0.001 A 
ATOM     44  C   UNL A   1      39.773  24.334  26.387  1.00  0.00     0.000 A 
ENDBRANCH  25  39
BRANCH  26  45
ATOM     45  C   UNL A   1      41.755  34.724  33.599  1.00  0.00    -0.014 A 
ATOM     46  C   UNL A   1      41.064  34.794  34.818  1.00  0.00     0.009 A 
ATOM     47  C   UNL A   1      42.590  35.791  33.232  1.00  0.00     0.009 A 
ATOM     48  C   UNL A   1      41.178  35.926  35.629  1.00  0.00     0.001 A 
ATOM     49  C   UNL A   1      42.734  36.903  34.062  1.00  0.00     0.001 A 
ATOM     50  C   UNL A   1      42.014  36.977  35.253  1.00  0.00     0.000 A 
ENDBRANCH  26  45
BRANCH  38  51
ATOM     51  C   UNL A   1      45.481  28.956  32.495  1.00  0.00    -0.014 A 
ATOM     52  C   UNL A   1      46.688  29.092  31.792  1.00  0.00     0.009 A 
ATOM     53  C   UNL A   1      45.496  28.384  33.775  1.00  0.00     0.009 A 
ATOM     54  C   UNL A   1      47.883  28.637  32.352  1.00  0.00     0.001 A 
ATOM     55  C   UNL A   1      46.696  27.961  34.346  1.00  0.00     0.001 A 
ATOM     56  C   UNL A   1      47.887  28.080  33.630  1.00  0.00     0.000 A 
ENDBRANCH  38  51
ENDBRANCH  12  13
ENDBRANCH   5   7
ENDBRANCH   2   3
ENDBRANCH   1   2
BRANCH   1  57
ATOM     57  C   UNL A   1      33.924  36.173  32.220  1.00  0.00     0.118 C 
BRANCH  57  58
ATOM     58  N   UNL A   1      33.524  34.794  32.453  1.00  0.00    -0.351 N 
ATOM     59  C   UNL A   1      34.194  33.701  32.906  1.00  0.00     0.280 C 
ATOM     60  H   UNL A   1      32.579  34.617  32.242  1.00  0.00     0.163 HD
ATOM     61  O   UNL A   1      33.544  32.650  32.933  1.00  0.00    -0.268 OA
BRANCH  59  62
ATOM     62  C   UNL A   1      35.680  33.721  33.326  1.00  0.00     0.292 C 
ATOM     63  C   UNL A   1      36.028  32.299  33.849  1.00  0.00     0.197 C 
ATOM     64  N   UNL A   1      35.965  34.771  34.343  1.00  0.00    -0.333 N 
ATOM     65  N   UNL A   1      37.312  32.261  34.553  1.00  0.00    -0.312 N 
ATOM     66  C   UNL A   1      37.365  34.686  34.774  1.00  0.00     0.283 C 
ATOM     67  H   UNL A   1      35.354  34.637  35.148  1.00  0.00     0.347 HD
ATOM     68  H   UNL A   1      35.797  35.690  33.931  1.00  0.00     0.347 HD
ATOM     69  C   UNL A   1      37.636  33.344  35.471  1.00  0.00     0.183 C 
BRANCH  65  70
ATOM     70  C   UNL A   1      38.263  31.381  34.198  1.00  0.00     0.324 A 
ATOM     71  N   UNL A   1      39.303  30.963  34.873  1.00  0.00    -0.171 NA
ATOM     72  O   UNL A   1      38.149  30.794  32.968  1.00  0.00    -0.315 OA
ATOM     73  C   UNL A   1      39.841  30.027  34.024  1.00  0.00     0.204 A 
ATOM     74  N   UNL A   1      39.214  29.908  32.846  1.00  0.00    -0.055 NA
BRANCH  73  75
ATOM     75  C   UNL A   1      40.931  29.162  34.409  1.00  0.00     0.023 A 
ATOM     76  C   UNL A   1      41.135  27.947  33.749  1.00  0.00     0.012 A 
ATOM     77  C   UNL A   1      41.744  29.516  35.494  1.00  0.00     0.012 A 
ATOM     78  C   UNL A   1      42.142  27.083  34.181  1.00  0.00     0.001 A 
ATOM     79  C   UNL A   1      42.741  28.644  35.930  1.00  0.00     0.001 A 
ATOM     80  C   UNL A   1      42.937  27.428  35.275  1.00  0.00     0.000 A 
ENDBRANCH  73  75
ENDBRANCH  65  70
ENDBRANCH  59  62
ENDBRANCH  57  58
ENDBRANCH   1  57
TORSDOF 12
ENDMDL
