MODEL 1
REMARK VINA RESULT:     -11.8      0.000      0.000
REMARK SMILES CS(=O)(=O)c1ccc(/C=C(/C(=O)NCCCNC(=O)c2ccc(-c3c4nc(c(-c5ccccc5)c5ccc([nH]5)c(-c5ccccc5)c5nc(c(-c6ccccc6)c6ccc3[nH]6)C=C5)C=C4)cc2)c2ccccc2)cc1
REMARK SMILES IDX 15 1 14 2 13 3 11 4 12 5 10 7 9 8 8 9 5 10 6 11 75 12 7 13
REMARK SMILES IDX 74 14 2 15 1 16 3 17 4 18 68 19 69 20 73 21 70 22 72 23
REMARK SMILES IDX 71 24 16 25 17 26 18 27 19 29 20 30 21 31 67 32 22 33 66 34
REMARK SMILES IDX 23 35 24 36 25 37 60 38 26 39 65 40 59 41 61 42 27 43 64 44
REMARK SMILES IDX 58 45 57 46 28 48 50 49 35 50 49 51 36 52 39 53 48 54 62 55
REMARK SMILES IDX 37 56 38 57 47 59 63 60 40 61 29 62 30 63 34 64 31 65 33 66
REMARK SMILES IDX 32 67 51 68 52 69 56 70 53 71 55 72 54 73 41 74 42 75 46 76
REMARK SMILES IDX 43 77 45 78 44 79
REMARK H PARENT 13 6 17 28 61 47 39 58
REMARK Flexibility Score: inf
ROOT
ATOM      1  C   UNL A   1      36.273  23.347  24.026  1.00  0.00     0.042 C 
ENDROOT
BRANCH   1   2
ATOM      2  C   UNL A   1      34.893  24.002  23.930  1.00  0.00     0.118 C 
BRANCH   2   3
ATOM      3  N   UNL A   1      33.997  23.475  24.943  1.00  0.00    -0.352 N 
ATOM      4  C   UNL A   1      32.877  23.943  25.555  1.00  0.00     0.251 C 
ATOM      5  O   UNL A   1      32.385  23.205  26.412  1.00  0.00    -0.269 OA
ATOM      6  H   UNL A   1      34.259  22.579  25.256  1.00  0.00     0.163 HD
BRANCH   4   7
ATOM      7  C   UNL A   1      32.203  25.244  25.185  1.00  0.00     0.047 C 
ATOM      8  C   UNL A   1      31.440  25.355  24.074  1.00  0.00     0.022 C 
BRANCH   8   9
ATOM      9  C   UNL A   1      30.657  26.511  23.585  1.00  0.00    -0.025 A 
ATOM     10  C   UNL A   1      29.064  28.680  22.791  1.00  0.00     0.067 A 
ATOM     11  C   UNL A   1      30.410  28.637  22.425  1.00  0.00     0.021 A 
ATOM     12  C   UNL A   1      28.489  27.628  23.501  1.00  0.00     0.021 A 
ATOM     13  C   UNL A   1      31.195  27.546  22.810  1.00  0.00     0.009 A 
ATOM     14  C   UNL A   1      29.287  26.551  23.897  1.00  0.00     0.009 A 
BRANCH  10  15
ATOM     15  S   UNL A   1      28.075  30.075  22.306  1.00  0.00     0.175 S 
ATOM     16  C   UNL A   1      29.042  31.470  22.822  1.00  0.00     0.163 C 
ATOM     17  O   UNL A   1      26.865  30.056  23.101  1.00  0.00    -0.224 OA
ATOM     18  O   UNL A   1      28.016  30.072  20.855  1.00  0.00    -0.224 OA
ENDBRANCH  10  15
ENDBRANCH   8   9
BRANCH   7  19
ATOM     19  C   UNL A   1      32.558  26.438  25.993  1.00  0.00    -0.013 A 
ATOM     20  C   UNL A   1      33.823  27.025  25.820  1.00  0.00     0.009 A 
ATOM     21  C   UNL A   1      31.650  27.038  26.874  1.00  0.00     0.009 A 
ATOM     22  C   UNL A   1      34.166  28.197  26.492  1.00  0.00     0.001 A 
ATOM     23  C   UNL A   1      31.992  28.219  27.541  1.00  0.00     0.001 A 
ATOM     24  C   UNL A   1      33.246  28.798  27.347  1.00  0.00     0.000 A 
ENDBRANCH   7  19
ENDBRANCH   4   7
ENDBRANCH   2   3
ENDBRANCH   1   2
BRANCH   1  25
ATOM     25  C   UNL A   1      37.008  23.637  25.336  1.00  0.00     0.118 C 
BRANCH  25  26
ATOM     26  N   UNL A   1      38.126  22.732  25.557  1.00  0.00    -0.352 N 
ATOM     27  C   UNL A   1      39.362  22.970  26.104  1.00  0.00     0.251 C 
ATOM     28  H   UNL A   1      37.971  21.802  25.269  1.00  0.00     0.163 HD
ATOM     29  O   UNL A   1      40.235  22.111  26.019  1.00  0.00    -0.269 OA
BRANCH  27  30
ATOM     30  C   UNL A   1      39.661  24.250  26.784  1.00  0.00     0.039 A 
ATOM     31  C   UNL A   1      39.200  24.438  28.091  1.00  0.00     0.014 A 
ATOM     32  C   UNL A   1      40.333  25.286  26.127  1.00  0.00     0.014 A 
ATOM     33  C   UNL A   1      39.454  25.640  28.757  1.00  0.00     0.010 A 
ATOM     34  C   UNL A   1      40.636  26.464  26.811  1.00  0.00     0.010 A 
ATOM     35  C   UNL A   1      40.195  26.654  28.130  1.00  0.00    -0.014 A 
BRANCH  35  36
ATOM     36  C   UNL A   1      40.516  27.919  28.839  1.00  0.00     0.031 A 
ATOM     37  C   UNL A   1      41.847  28.096  29.517  1.00  0.00     0.074 A 
ATOM     38  C   UNL A   1      39.587  28.891  28.922  1.00  0.00     0.049 A 
ATOM     39  N   UNL A   1      42.281  29.102  30.234  1.00  0.00    -0.248 NA
ATOM     40  C   UNL A   1      42.808  26.990  29.386  1.00  0.00     0.031 C 
ATOM     41  C   UNL A   1      38.248  28.837  28.330  1.00  0.00     0.029 A 
ATOM     42  N   UNL A   1      39.626  30.113  29.545  1.00  0.00    -0.354 N 
ATOM     43  C   UNL A   1      43.554  28.742  30.659  1.00  0.00     0.074 A 
ATOM     44  C   UNL A   1      43.807  27.411  30.148  1.00  0.00     0.031 C 
ATOM     45  C   UNL A   1      37.604  29.984  28.599  1.00  0.00     0.029 A 
ATOM     46  C   UNL A   1      38.468  30.837  29.410  1.00  0.00     0.049 A 
ATOM     47  H   UNL A   1      40.412  30.440  30.041  1.00  0.00     0.167 HD
ATOM     48  C   UNL A   1      44.438  29.456  31.395  1.00  0.00     0.031 A 
ATOM     49  C   UNL A   1      38.134  32.050  29.890  1.00  0.00     0.031 A 
ATOM     50  C   UNL A   1      44.195  30.784  31.894  1.00  0.00     0.049 A 
ATOM     51  C   UNL A   1      39.125  32.815  30.717  1.00  0.00     0.074 A 
ATOM     52  C   UNL A   1      45.052  31.610  32.602  1.00  0.00     0.029 A 
ATOM     53  N   UNL A   1      43.008  31.480  31.736  1.00  0.00    -0.354 N 
ATOM     54  N   UNL A   1      40.344  32.481  31.065  1.00  0.00    -0.248 NA
ATOM     55  C   UNL A   1      38.695  34.131  31.213  1.00  0.00     0.031 C 
ATOM     56  C   UNL A   1      44.367  32.791  32.909  1.00  0.00     0.029 A 
ATOM     57  C   UNL A   1      43.100  32.718  32.352  1.00  0.00     0.049 A 
ATOM     58  H   UNL A   1      42.215  31.144  31.257  1.00  0.00     0.167 HD
ATOM     59  C   UNL A   1      40.835  33.555  31.797  1.00  0.00     0.074 A 
ATOM     60  C   UNL A   1      39.787  34.554  31.834  1.00  0.00     0.031 C 
ATOM     61  C   UNL A   1      42.049  33.700  32.381  1.00  0.00     0.031 A 
BRANCH  48  62
ATOM     62  C   UNL A   1      45.753  28.802  31.714  1.00  0.00    -0.014 A 
ATOM     63  C   UNL A   1      45.917  28.029  32.875  1.00  0.00     0.009 A 
ATOM     64  C   UNL A   1      46.836  28.941  30.832  1.00  0.00     0.009 A 
ATOM     65  C   UNL A   1      47.150  27.443  33.165  1.00  0.00     0.001 A 
ATOM     66  C   UNL A   1      48.060  28.332  31.113  1.00  0.00     0.001 A 
ATOM     67  C   UNL A   1      48.220  27.593  32.284  1.00  0.00     0.000 A 
ENDBRANCH  48  62
BRANCH  49  68
ATOM     68  C   UNL A   1      36.801  32.627  29.581  1.00  0.00    -0.014 A 
ATOM     69  C   UNL A   1      35.744  32.489  30.494  1.00  0.00     0.009 A 
ATOM     70  C   UNL A   1      36.579  33.317  28.380  1.00  0.00     0.009 A 
ATOM     71  C   UNL A   1      34.484  33.013  30.200  1.00  0.00     0.001 A 
ATOM     72  C   UNL A   1      35.323  33.860  28.100  1.00  0.00     0.001 A 
ATOM     73  C   UNL A   1      34.276  33.702  29.006  1.00  0.00     0.000 A 
ENDBRANCH  49  68
BRANCH  61  74
ATOM     74  C   UNL A   1      42.318  34.999  33.084  1.00  0.00    -0.014 A 
ATOM     75  C   UNL A   1      41.811  35.251  34.367  1.00  0.00     0.009 A 
ATOM     76  C   UNL A   1      43.117  35.972  32.463  1.00  0.00     0.009 A 
ATOM     77  C   UNL A   1      42.074  36.466  35.004  1.00  0.00     0.001 A 
ATOM     78  C   UNL A   1      43.398  37.175  33.111  1.00  0.00     0.001 A 
ATOM     79  C   UNL A   1      42.870  37.424  34.377  1.00  0.00     0.000 A 
ENDBRANCH  61  74
ENDBRANCH  35  36
ENDBRANCH  27  30
ENDBRANCH  25  26
ENDBRANCH   1  25
TORSDOF 13
ENDMDL
MODEL 2
REMARK VINA RESULT:     -11.8      0.883      5.978
REMARK SMILES CS(=O)(=O)c1ccc(/C=C(/C(=O)NCCCNC(=O)c2ccc(-c3c4nc(c(-c5ccccc5)c5ccc([nH]5)c(-c5ccccc5)c5nc(c(-c6ccccc6)c6ccc3[nH]6)C=C5)C=C4)cc2)c2ccccc2)cc1
REMARK SMILES IDX 15 1 14 2 13 3 11 4 12 5 10 7 9 8 8 9 5 10 6 11 75 12 7 13
REMARK SMILES IDX 74 14 2 15 1 16 3 17 4 18 68 19 69 20 73 21 70 22 72 23
REMARK SMILES IDX 71 24 16 25 17 26 18 27 19 29 20 30 21 31 67 32 22 33 66 34
REMARK SMILES IDX 23 35 24 36 25 37 60 38 26 39 65 40 59 41 61 42 27 43 64 44
REMARK SMILES IDX 58 45 57 46 28 48 50 49 35 50 49 51 36 52 39 53 48 54 62 55
REMARK SMILES IDX 37 56 38 57 47 59 63 60 40 61 29 62 30 63 34 64 31 65 33 66
REMARK SMILES IDX 32 67 51 68 52 69 56 70 53 71 55 72 54 73 41 74 42 75 46 76
REMARK SMILES IDX 43 77 45 78 44 79
REMARK H PARENT 13 6 17 28 61 47 39 58
REMARK Flexibility Score: inf
ROOT
ATOM      1  C   UNL A   1      35.704  24.084  25.746  1.00  0.00     0.042 C 
ENDROOT
BRANCH   1   2
ATOM      2  C   UNL A   1      34.345  23.881  25.073  1.00  0.00     0.118 C 
BRANCH   2   3
ATOM      3  N   UNL A   1      33.318  23.589  26.057  1.00  0.00    -0.352 N 
ATOM      4  C   UNL A   1      32.210  24.244  26.494  1.00  0.00     0.251 C 
ATOM      5  O   UNL A   1      31.572  23.683  27.389  1.00  0.00    -0.269 OA
ATOM      6  H   UNL A   1      33.454  22.723  26.506  1.00  0.00     0.163 HD
BRANCH   4   7
ATOM      7  C   UNL A   1      31.714  25.540  25.896  1.00  0.00     0.047 C 
ATOM      8  C   UNL A   1      30.898  25.556  24.818  1.00  0.00     0.022 C 
BRANCH   8   9
ATOM      9  C   UNL A   1      30.264  26.706  24.137  1.00  0.00    -0.025 A 
ATOM     10  C   UNL A   1      28.919  28.858  22.939  1.00  0.00     0.067 A 
ATOM     11  C   UNL A   1      30.313  28.865  23.012  1.00  0.00     0.021 A 
ATOM     12  C   UNL A   1      28.191  27.765  23.406  1.00  0.00     0.021 A 
ATOM     13  C   UNL A   1      30.979  27.783  23.596  1.00  0.00     0.009 A 
ATOM     14  C   UNL A   1      28.865  26.697  24.005  1.00  0.00     0.009 A 
BRANCH  10  15
ATOM     15  S   UNL A   1      28.080  30.240  22.203  1.00  0.00     0.175 S 
ATOM     16  C   UNL A   1      29.191  31.596  22.480  1.00  0.00     0.163 C 
ATOM     17  O   UNL A   1      26.878  30.489  22.973  1.00  0.00    -0.224 OA
ATOM     18  O   UNL A   1      28.014  29.990  20.774  1.00  0.00    -0.224 OA
ENDBRANCH  10  15
ENDBRANCH   8   9
BRANCH   7  19
ATOM     19  C   UNL A   1      32.301  26.794  26.432  1.00  0.00    -0.013 A 
ATOM     20  C   UNL A   1      33.621  27.129  26.087  1.00  0.00     0.009 A 
ATOM     21  C   UNL A   1      31.560  27.689  27.214  1.00  0.00     0.009 A 
ATOM     22  C   UNL A   1      34.183  28.338  26.494  1.00  0.00     0.001 A 
ATOM     23  C   UNL A   1      32.122  28.905  27.615  1.00  0.00     0.001 A 
ATOM     24  C   UNL A   1      33.429  29.229  27.252  1.00  0.00     0.000 A 
ENDBRANCH   7  19
ENDBRANCH   4   7
ENDBRANCH   2   3
ENDBRANCH   1   2
BRANCH   1  25
ATOM     25  C   UNL A   1      36.899  23.807  24.830  1.00  0.00     0.118 C 
BRANCH  25  26
ATOM     26  N   UNL A   1      37.739  22.727  25.325  1.00  0.00    -0.352 N 
ATOM     27  C   UNL A   1      38.879  22.773  26.089  1.00  0.00     0.251 C 
ATOM     28  H   UNL A   1      37.444  21.822  25.072  1.00  0.00     0.163 HD
ATOM     29  O   UNL A   1      39.549  21.754  26.233  1.00  0.00    -0.269 OA
BRANCH  27  30
ATOM     30  C   UNL A   1      39.316  24.032  26.731  1.00  0.00     0.039 A 
ATOM     31  C   UNL A   1      40.069  24.941  25.980  1.00  0.00     0.014 A 
ATOM     32  C   UNL A   1      39.048  24.297  28.077  1.00  0.00     0.014 A 
ATOM     33  C   UNL A   1      40.509  26.134  26.559  1.00  0.00     0.010 A 
ATOM     34  C   UNL A   1      39.439  25.513  28.640  1.00  0.00     0.010 A 
ATOM     35  C   UNL A   1      40.177  26.440  27.888  1.00  0.00    -0.014 A 
BRANCH  35  36
ATOM     36  C   UNL A   1      40.595  27.724  28.507  1.00  0.00     0.031 A 
ATOM     37  C   UNL A   1      39.602  28.837  28.697  1.00  0.00     0.074 A 
ATOM     38  C   UNL A   1      41.885  27.912  28.846  1.00  0.00     0.049 A 
ATOM     39  N   UNL A   1      39.795  30.046  29.161  1.00  0.00    -0.248 NA
ATOM     40  C   UNL A   1      38.213  28.559  28.300  1.00  0.00     0.031 C 
ATOM     41  C   UNL A   1      42.955  26.923  28.691  1.00  0.00     0.029 A 
ATOM     42  N   UNL A   1      42.516  29.004  29.386  1.00  0.00    -0.354 N 
ATOM     43  C   UNL A   1      38.561  30.680  29.088  1.00  0.00     0.074 A 
ATOM     44  C   UNL A   1      37.635  29.733  28.504  1.00  0.00     0.031 C 
ATOM     45  C   UNL A   1      44.104  27.447  29.149  1.00  0.00     0.029 A 
ATOM     46  C   UNL A   1      43.860  28.816  29.593  1.00  0.00     0.049 A 
ATOM     47  H   UNL A   1      42.049  29.843  29.605  1.00  0.00     0.167 HD
ATOM     48  C   UNL A   1      38.224  31.931  29.484  1.00  0.00     0.031 A 
ATOM     49  C   UNL A   1      44.795  29.653  30.081  1.00  0.00     0.031 A 
ATOM     50  C   UNL A   1      39.138  32.871  30.076  1.00  0.00     0.049 A 
ATOM     51  C   UNL A   1      44.400  31.040  30.497  1.00  0.00     0.074 A 
ATOM     52  C   UNL A   1      38.877  34.142  30.559  1.00  0.00     0.029 A 
ATOM     53  N   UNL A   1      40.491  32.641  30.266  1.00  0.00    -0.354 N 
ATOM     54  N   UNL A   1      43.217  31.605  30.471  1.00  0.00    -0.248 NA
ATOM     55  C   UNL A   1      45.470  31.904  31.017  1.00  0.00     0.031 C 
ATOM     56  C   UNL A   1      40.082  34.697  31.004  1.00  0.00     0.029 A 
ATOM     57  C   UNL A   1      41.083  33.754  30.840  1.00  0.00     0.049 A 
ATOM     58  H   UNL A   1      40.962  31.809  30.028  1.00  0.00     0.167 HD
ATOM     59  C   UNL A   1      43.396  32.879  30.995  1.00  0.00     0.074 A 
ATOM     60  C   UNL A   1      44.798  33.000  31.339  1.00  0.00     0.031 C 
ATOM     61  C   UNL A   1      42.479  33.859  31.176  1.00  0.00     0.031 A 
BRANCH  48  62
ATOM     62  C   UNL A   1      36.798  32.357  29.273  1.00  0.00    -0.014 A 
ATOM     63  C   UNL A   1      36.399  33.000  28.090  1.00  0.00     0.009 A 
ATOM     64  C   UNL A   1      35.835  32.092  30.260  1.00  0.00     0.009 A 
ATOM     65  C   UNL A   1      35.074  33.405  27.918  1.00  0.00     0.001 A 
ATOM     66  C   UNL A   1      34.506  32.475  30.073  1.00  0.00     0.001 A 
ATOM     67  C   UNL A   1      34.128  33.140  28.908  1.00  0.00     0.000 A 
ENDBRANCH  48  62
BRANCH  49  68
ATOM     68  C   UNL A   1      46.200  29.193  30.223  1.00  0.00    -0.014 A 
ATOM     69  C   UNL A   1      46.621  28.567  31.407  1.00  0.00     0.009 A 
ATOM     70  C   UNL A   1      47.123  29.374  29.183  1.00  0.00     0.009 A 
ATOM     71  C   UNL A   1      47.945  28.150  31.553  1.00  0.00     0.001 A 
ATOM     72  C   UNL A   1      48.442  28.935  29.324  1.00  0.00     0.001 A 
ATOM     73  C   UNL A   1      48.852  28.331  30.511  1.00  0.00     0.000 A 
ENDBRANCH  49  68
BRANCH  61  74
ATOM     74  C   UNL A   1      42.958  35.136  31.805  1.00  0.00    -0.014 A 
ATOM     75  C   UNL A   1      42.805  35.372  33.178  1.00  0.00     0.009 A 
ATOM     76  C   UNL A   1      43.600  36.101  31.013  1.00  0.00     0.009 A 
ATOM     77  C   UNL A   1      43.259  36.566  33.743  1.00  0.00     0.001 A 
ATOM     78  C   UNL A   1      44.074  37.283  31.584  1.00  0.00     0.001 A 
ATOM     79  C   UNL A   1      43.896  37.517  32.946  1.00  0.00     0.000 A 
ENDBRANCH  61  74
ENDBRANCH  35  36
ENDBRANCH  27  30
ENDBRANCH  25  26
ENDBRANCH   1  25
TORSDOF 13
ENDMDL
MODEL 3
REMARK VINA RESULT:     -11.2      4.670     10.756
REMARK SMILES CS(=O)(=O)c1ccc(/C=C(/C(=O)NCCCNC(=O)c2ccc(-c3c4nc(c(-c5ccccc5)c5ccc([nH]5)c(-c5ccccc5)c5nc(c(-c6ccccc6)c6ccc3[nH]6)C=C5)C=C4)cc2)c2ccccc2)cc1
REMARK SMILES IDX 15 1 14 2 13 3 11 4 12 5 10 7 9 8 8 9 5 10 6 11 75 12 7 13
REMARK SMILES IDX 74 14 2 15 1 16 3 17 4 18 68 19 69 20 73 21 70 22 72 23
REMARK SMILES IDX 71 24 16 25 17 26 18 27 19 29 20 30 21 31 67 32 22 33 66 34
REMARK SMILES IDX 23 35 24 36 25 37 60 38 26 39 65 40 59 41 61 42 27 43 64 44
REMARK SMILES IDX 58 45 57 46 28 48 50 49 35 50 49 51 36 52 39 53 48 54 62 55
REMARK SMILES IDX 37 56 38 57 47 59 63 60 40 61 29 62 30 63 34 64 31 65 33 66
REMARK SMILES IDX 32 67 51 68 52 69 56 70 53 71 55 72 54 73 41 74 42 75 46 76
REMARK SMILES IDX 43 77 45 78 44 79
REMARK H PARENT 13 6 17 28 61 47 39 58
REMARK Flexibility Score: inf
ROOT
ATOM      1  C   UNL A   1      34.723  32.724  30.671  1.00  0.00     0.042 C 
ENDROOT
BRANCH   1   2
ATOM      2  C   UNL A   1      35.991  33.192  31.391  1.00  0.00     0.118 C 
BRANCH   2   3
ATOM      3  N   UNL A   1      35.766  33.295  32.821  1.00  0.00    -0.352 N 
ATOM      4  C   UNL A   1      36.463  32.906  33.921  1.00  0.00     0.251 C 
ATOM      5  O   UNL A   1      35.931  33.149  35.008  1.00  0.00    -0.269 OA
ATOM      6  H   UNL A   1      34.921  33.750  33.044  1.00  0.00     0.163 HD
BRANCH   4   7
ATOM      7  C   UNL A   1      37.838  32.284  33.864  1.00  0.00     0.047 C 
ATOM      8  C   UNL A   1      38.014  30.945  33.943  1.00  0.00     0.022 C 
BRANCH   8   9
ATOM      9  C   UNL A   1      39.260  30.155  33.843  1.00  0.00    -0.025 A 
ATOM     10  C   UNL A   1      41.669  28.715  33.809  1.00  0.00     0.067 A 
ATOM     11  C   UNL A   1      40.584  28.270  33.052  1.00  0.00     0.021 A 
ATOM     12  C   UNL A   1      41.585  29.899  34.539  1.00  0.00     0.021 A 
ATOM     13  C   UNL A   1      39.391  29.000  33.060  1.00  0.00     0.009 A 
ATOM     14  C   UNL A   1      40.382  30.611  34.556  1.00  0.00     0.009 A 
BRANCH  10  15
ATOM     15  S   UNL A   1      43.178  27.777  33.801  1.00  0.00     0.175 S 
ATOM     16  C   UNL A   1      42.888  26.513  35.012  1.00  0.00     0.163 C 
ATOM     17  O   UNL A   1      44.234  28.634  34.299  1.00  0.00    -0.224 OA
ATOM     18  O   UNL A   1      43.281  27.145  32.498  1.00  0.00    -0.224 OA
ENDBRANCH  10  15
ENDBRANCH   8   9
BRANCH   7  19
ATOM     19  C   UNL A   1      38.997  33.212  33.895  1.00  0.00    -0.013 A 
ATOM     20  C   UNL A   1      39.604  33.584  32.684  1.00  0.00     0.009 A 
ATOM     21  C   UNL A   1      39.462  33.782  35.087  1.00  0.00     0.009 A 
ATOM     22  C   UNL A   1      40.637  34.520  32.658  1.00  0.00     0.001 A 
ATOM     23  C   UNL A   1      40.493  34.727  35.059  1.00  0.00     0.001 A 
ATOM     24  C   UNL A   1      41.076  35.097  33.847  1.00  0.00     0.000 A 
ENDBRANCH   7  19
ENDBRANCH   4   7
ENDBRANCH   2   3
ENDBRANCH   1   2
BRANCH   1  25
ATOM     25  C   UNL A   1      34.832  32.744  29.145  1.00  0.00     0.118 C 
BRANCH  25  26
ATOM     26  N   UNL A   1      34.124  31.635  28.523  1.00  0.00    -0.352 N 
ATOM     27  C   UNL A   1      34.600  30.441  28.043  1.00  0.00     0.251 C 
ATOM     28  H   UNL A   1      33.152  31.762  28.431  1.00  0.00     0.163 HD
ATOM     29  O   UNL A   1      33.863  29.722  27.375  1.00  0.00    -0.269 OA
BRANCH  27  30
ATOM     30  C   UNL A   1      35.991  30.012  28.310  1.00  0.00     0.039 A 
ATOM     31  C   UNL A   1      36.300  29.485  29.569  1.00  0.00     0.014 A 
ATOM     32  C   UNL A   1      37.003  30.182  27.360  1.00  0.00     0.014 A 
ATOM     33  C   UNL A   1      37.606  29.082  29.858  1.00  0.00     0.010 A 
ATOM     34  C   UNL A   1      38.295  29.728  27.629  1.00  0.00     0.010 A 
ATOM     35  C   UNL A   1      38.610  29.179  28.882  1.00  0.00    -0.014 A 
BRANCH  35  36
ATOM     36  C   UNL A   1      39.993  28.712  29.155  1.00  0.00     0.031 A 
ATOM     37  C   UNL A   1      40.981  29.616  29.838  1.00  0.00     0.074 A 
ATOM     38  C   UNL A   1      40.379  27.491  28.736  1.00  0.00     0.049 A 
ATOM     39  N   UNL A   1      42.247  29.406  30.103  1.00  0.00    -0.248 NA
ATOM     40  C   UNL A   1      40.488  30.934  30.263  1.00  0.00     0.031 C 
ATOM     41  C   UNL A   1      39.527  26.524  28.039  1.00  0.00     0.029 A 
ATOM     42  N   UNL A   1      41.593  26.858  28.829  1.00  0.00    -0.354 N 
ATOM     43  C   UNL A   1      42.705  30.572  30.704  1.00  0.00     0.074 A 
ATOM     44  C   UNL A   1      41.592  31.497  30.731  1.00  0.00     0.031 C 
ATOM     45  C   UNL A   1      40.238  25.413  27.790  1.00  0.00     0.029 A 
ATOM     46  C   UNL A   1      41.603  25.602  28.275  1.00  0.00     0.049 A 
ATOM     47  H   UNL A   1      42.383  27.266  29.254  1.00  0.00     0.167 HD
ATOM     48  C   UNL A   1      43.935  30.845  31.200  1.00  0.00     0.031 A 
ATOM     49  C   UNL A   1      42.598  24.702  28.164  1.00  0.00     0.031 A 
ATOM     50  C   UNL A   1      45.041  29.924  31.186  1.00  0.00     0.049 A 
ATOM     51  C   UNL A   1      43.958  25.035  28.707  1.00  0.00     0.074 A 
ATOM     52  C   UNL A   1      46.310  30.090  31.714  1.00  0.00     0.029 A 
ATOM     53  N   UNL A   1      45.008  28.663  30.614  1.00  0.00    -0.354 N 
ATOM     54  N   UNL A   1      44.360  26.123  29.319  1.00  0.00    -0.248 NA
ATOM     55  C   UNL A   1      45.001  24.011  28.549  1.00  0.00     0.031 C 
ATOM     56  C   UNL A   1      47.059  28.944  31.425  1.00  0.00     0.029 A 
ATOM     57  C   UNL A   1      46.241  28.047  30.757  1.00  0.00     0.049 A 
ATOM     58  H   UNL A   1      44.224  28.263  30.171  1.00  0.00     0.167 HD
ATOM     59  C   UNL A   1      45.693  25.903  29.642  1.00  0.00     0.074 A 
ATOM     60  C   UNL A   1      46.028  24.576  29.168  1.00  0.00     0.031 C 
ATOM     61  C   UNL A   1      46.559  26.727  30.279  1.00  0.00     0.031 A 
BRANCH  48  62
ATOM     62  C   UNL A   1      44.150  32.210  31.792  1.00  0.00    -0.014 A 
ATOM     63  C   UNL A   1      44.023  32.432  33.172  1.00  0.00     0.009 A 
ATOM     64  C   UNL A   1      44.508  33.283  30.961  1.00  0.00     0.009 A 
ATOM     65  C   UNL A   1      44.209  33.710  33.702  1.00  0.00     0.001 A 
ATOM     66  C   UNL A   1      44.719  34.554  31.498  1.00  0.00     0.001 A 
ATOM     67  C   UNL A   1      44.559  34.769  32.866  1.00  0.00     0.000 A 
ENDBRANCH  48  62
BRANCH  49  68
ATOM     68  C   UNL A   1      42.341  23.386  27.527  1.00  0.00    -0.014 A 
ATOM     69  C   UNL A   1      41.831  22.322  28.287  1.00  0.00     0.009 A 
ATOM     70  C   UNL A   1      42.600  23.186  26.163  1.00  0.00     0.009 A 
ATOM     71  C   UNL A   1      41.605  21.077  27.698  1.00  0.00     0.001 A 
ATOM     72  C   UNL A   1      42.351  21.946  25.571  1.00  0.00     0.001 A 
ATOM     73  C   UNL A   1      41.861  20.891  26.340  1.00  0.00     0.000 A 
ENDBRANCH  49  68
BRANCH  61  74
ATOM     74  C   UNL A   1      47.944  26.203  30.527  1.00  0.00    -0.014 A 
ATOM     75  C   UNL A   1      48.927  26.244  29.528  1.00  0.00     0.009 A 
ATOM     76  C   UNL A   1      48.276  25.688  31.790  1.00  0.00     0.009 A 
ATOM     77  C   UNL A   1      50.210  25.753  29.780  1.00  0.00     0.001 A 
ATOM     78  C   UNL A   1      49.564  25.219  32.047  1.00  0.00     0.001 A 
ATOM     79  C   UNL A   1      50.527  25.244  31.039  1.00  0.00     0.000 A 
ENDBRANCH  61  74
ENDBRANCH  35  36
ENDBRANCH  27  30
ENDBRANCH  25  26
ENDBRANCH   1  25
TORSDOF 13
ENDMDL
