MODEL 1
REMARK VINA RESULT:     -12.4      0.000      0.000
REMARK SMILES CC(C)[C@H](NC(=O)[C@H]1CC(=O)N(c2ccc(F)cc2)C1)C(=O)N1CCC[C@@H]1C(=O)NCCCNC(=O)c1ccc(-c2c3nc(c(-c4ccccc4)c4ccc([nH]4)c(-c4ccccc4)c4nc(c(-c5ccccc5)c5ccc2[nH]5)C=C4)C=C3)cc1
REMARK SMILES IDX 28 1 29 2 30 3 27 5 23 6 24 7 25 8 26 9 21 10 22 11 4 12
REMARK SMILES IDX 2 13 1 14 3 15 5 16 6 17 7 19 8 20 9 21 20 22 10 23 12 24
REMARK SMILES IDX 11 25 13 26 14 27 19 28 15 29 18 30 16 31 17 32 31 33 32 34
REMARK SMILES IDX 33 35 34 36 35 37 36 39 37 40 38 41 84 42 39 43 83 44 40 45
REMARK SMILES IDX 41 46 42 47 77 48 43 49 82 50 76 51 78 52 44 53 81 54 75 55
REMARK SMILES IDX 74 56 45 58 67 59 52 60 66 61 53 62 56 63 65 64 79 65 54 66
REMARK SMILES IDX 55 67 64 69 80 70 57 71 46 72 47 73 51 74 48 75 50 76 49 77
REMARK SMILES IDX 68 78 69 79 73 80 70 81 72 82 71 83 58 84 59 85 63 86 60 87
REMARK SMILES IDX 62 88 61 89
REMARK H PARENT 30 4 5 18 34 38 78 57 56 68
REMARK Flexibility Score: inf
ROOT
ATOM      1  C   UNL A   1      33.260  28.960  24.142  1.00  0.00     0.242 C 
ATOM      2  O   UNL A   1      34.107  29.144  23.261  1.00  0.00    -0.273 OA
ATOM      3  N   UNL A   1      33.569  29.439  25.384  1.00  0.00    -0.354 N 
ATOM      4  H   UNL A   1      34.487  29.777  25.497  1.00  0.00     0.163 HD
ENDROOT
BRANCH   1   5
ATOM      5  C   UNL A   1      32.030  28.046  23.880  1.00  0.00     0.174 C 
ATOM      6  N   UNL A   1      31.973  27.212  22.660  1.00  0.00    -0.329 N 
ATOM      7  C   UNL A   1      30.672  27.333  22.030  1.00  0.00     0.120 C 
ATOM      8  C   UNL A   1      30.082  28.643  22.516  1.00  0.00     0.024 C 
ATOM      9  C   UNL A   1      30.749  28.902  23.860  1.00  0.00     0.037 C 
BRANCH   6  10
ATOM     10  C   UNL A   1      32.868  26.153  22.513  1.00  0.00     0.246 C 
ATOM     11  O   UNL A   1      33.653  26.156  21.557  1.00  0.00    -0.272 OA
BRANCH  10  12
ATOM     12  C   UNL A   1      32.722  24.807  23.339  1.00  0.00     0.174 C 
BRANCH  12  13
ATOM     13  C   UNL A   1      31.227  24.417  23.466  1.00  0.00     0.015 C 
ATOM     14  C   UNL A   1      30.927  22.981  23.129  1.00  0.00     0.010 C 
ATOM     15  C   UNL A   1      30.636  24.746  24.835  1.00  0.00     0.010 C 
ENDBRANCH  12  13
BRANCH  12  16
ATOM     16  N   UNL A   1      33.381  24.730  24.651  1.00  0.00    -0.344 N 
ATOM     17  C   UNL A   1      34.124  23.745  25.232  1.00  0.00     0.226 C 
ATOM     18  H   UNL A   1      33.265  25.532  25.210  1.00  0.00     0.164 HD
ATOM     19  O   UNL A   1      34.480  23.943  26.395  1.00  0.00    -0.275 OA
BRANCH  17  20
ATOM     20  C   UNL A   1      34.499  22.467  24.486  1.00  0.00     0.107 C 
ATOM     21  C   UNL A   1      35.897  21.991  24.901  1.00  0.00     0.116 C 
ATOM     22  C   UNL A   1      33.613  21.279  24.854  1.00  0.00     0.139 C 
ATOM     23  C   UNL A   1      35.810  20.487  24.930  1.00  0.00     0.227 C 
ATOM     24  N   UNL A   1      34.473  20.128  24.828  1.00  0.00    -0.312 N 
ATOM     25  O   UNL A   1      36.787  19.751  25.000  1.00  0.00    -0.274 OA
BRANCH  24  26
ATOM     26  C   UNL A   1      33.974  18.807  24.818  1.00  0.00     0.044 A 
ATOM     27  C   UNL A   1      33.009  18.408  25.751  1.00  0.00     0.029 A 
ATOM     28  C   UNL A   1      34.441  17.871  23.882  1.00  0.00     0.029 A 
ATOM     29  C   UNL A   1      32.506  17.104  25.738  1.00  0.00     0.041 A 
ATOM     30  C   UNL A   1      33.971  16.554  23.899  1.00  0.00     0.041 A 
ATOM     31  C   UNL A   1      33.000  16.186  24.821  1.00  0.00     0.123 A 
ATOM     32  F   UNL A   1      32.540  14.928  24.830  1.00  0.00    -0.207 F 
ENDBRANCH  24  26
ENDBRANCH  17  20
ENDBRANCH  12  16
ENDBRANCH  10  12
ENDBRANCH   6  10
ENDBRANCH   1   5
BRANCH   3  33
ATOM     33  C   UNL A   1      32.728  29.513  26.546  1.00  0.00     0.117 C 
BRANCH  33  34
ATOM     34  C   UNL A   1      32.148  30.870  26.867  1.00  0.00     0.042 C 
BRANCH  34  35
ATOM     35  C   UNL A   1      33.237  31.872  27.232  1.00  0.00     0.118 C 
BRANCH  35  36
ATOM     36  N   UNL A   1      32.726  33.204  27.592  1.00  0.00    -0.352 N 
ATOM     37  C   UNL A   1      33.178  34.117  28.514  1.00  0.00     0.251 C 
ATOM     38  H   UNL A   1      31.928  33.488  27.089  1.00  0.00     0.163 HD
ATOM     39  O   UNL A   1      32.530  35.129  28.755  1.00  0.00    -0.269 OA
BRANCH  37  40
ATOM     40  C   UNL A   1      34.433  33.842  29.230  1.00  0.00     0.039 A 
ATOM     41  C   UNL A   1      34.405  33.114  30.420  1.00  0.00     0.014 A 
ATOM     42  C   UNL A   1      35.644  34.236  28.663  1.00  0.00     0.014 A 
ATOM     43  C   UNL A   1      35.605  32.680  30.979  1.00  0.00     0.010 A 
ATOM     44  C   UNL A   1      36.821  33.689  29.140  1.00  0.00     0.010 A 
ATOM     45  C   UNL A   1      36.817  32.911  30.306  1.00  0.00    -0.014 A 
BRANCH  45  46
ATOM     46  C   UNL A   1      38.107  32.370  30.792  1.00  0.00     0.031 A 
ATOM     47  C   UNL A   1      38.666  31.126  30.160  1.00  0.00     0.074 A 
ATOM     48  C   UNL A   1      38.709  32.926  31.861  1.00  0.00     0.049 A 
ATOM     49  N   UNL A   1      39.697  30.407  30.524  1.00  0.00    -0.248 NA
ATOM     50  C   UNL A   1      37.945  30.592  28.991  1.00  0.00     0.031 C 
ATOM     51  C   UNL A   1      38.235  34.106  32.591  1.00  0.00     0.029 A 
ATOM     52  N   UNL A   1      39.848  32.560  32.532  1.00  0.00    -0.354 N 
ATOM     53  C   UNL A   1      39.724  29.327  29.650  1.00  0.00     0.074 A 
ATOM     54  C   UNL A   1      38.572  29.446  28.787  1.00  0.00     0.031 C 
ATOM     55  C   UNL A   1      39.097  34.386  33.582  1.00  0.00     0.029 A 
ATOM     56  C   UNL A   1      40.150  33.377  33.594  1.00  0.00     0.049 A 
ATOM     57  H   UNL A   1      40.399  31.785  32.274  1.00  0.00     0.167 HD
ATOM     58  C   UNL A   1      40.643  28.339  29.555  1.00  0.00     0.031 A 
ATOM     59  C   UNL A   1      41.157  33.311  34.484  1.00  0.00     0.031 A 
ATOM     60  C   UNL A   1      41.798  28.240  30.403  1.00  0.00     0.049 A 
ATOM     61  C   UNL A   1      42.160  32.197  34.366  1.00  0.00     0.074 A 
ATOM     62  C   UNL A   1      42.825  27.315  30.355  1.00  0.00     0.029 A 
ATOM     63  N   UNL A   1      42.080  29.101  31.454  1.00  0.00    -0.354 N 
ATOM     64  N   UNL A   1      42.210  31.219  33.493  1.00  0.00    -0.248 NA
ATOM     65  C   UNL A   1      43.252  32.183  35.350  1.00  0.00     0.031 C 
ATOM     66  C   UNL A   1      43.698  27.581  31.413  1.00  0.00     0.029 A 
ATOM     67  C   UNL A   1      43.253  28.714  32.076  1.00  0.00     0.049 A 
ATOM     68  H   UNL A   1      41.527  29.872  31.716  1.00  0.00     0.167 HD
ATOM     69  C   UNL A   1      43.357  30.498  33.798  1.00  0.00     0.074 A 
ATOM     70  C   UNL A   1      43.977  31.157  34.929  1.00  0.00     0.031 C 
ATOM     71  C   UNL A   1      43.856  29.391  33.195  1.00  0.00     0.031 A 
BRANCH  58  72
ATOM     72  C   UNL A   1      40.425  27.290  28.500  1.00  0.00    -0.014 A 
ATOM     73  C   UNL A   1      39.657  26.142  28.758  1.00  0.00     0.009 A 
ATOM     74  C   UNL A   1      40.980  27.461  27.222  1.00  0.00     0.009 A 
ATOM     75  C   UNL A   1      39.486  25.169  27.772  1.00  0.00     0.001 A 
ATOM     76  C   UNL A   1      40.776  26.503  26.227  1.00  0.00     0.001 A 
ATOM     77  C   UNL A   1      40.039  25.353  26.506  1.00  0.00     0.000 A 
ENDBRANCH  58  72
BRANCH  59  78
ATOM     78  C   UNL A   1      41.280  34.337  35.555  1.00  0.00    -0.014 A 
ATOM     79  C   UNL A   1      42.046  35.495  35.345  1.00  0.00     0.009 A 
ATOM     80  C   UNL A   1      40.644  34.163  36.793  1.00  0.00     0.009 A 
ATOM     81  C   UNL A   1      42.198  36.439  36.363  1.00  0.00     0.001 A 
ATOM     82  C   UNL A   1      40.771  35.125  37.798  1.00  0.00     0.001 A 
ATOM     83  C   UNL A   1      41.558  36.256  37.587  1.00  0.00     0.000 A 
ENDBRANCH  59  78
BRANCH  71  84
ATOM     84  C   UNL A   1      45.163  28.854  33.708  1.00  0.00    -0.014 A 
ATOM     85  C   UNL A   1      46.391  29.314  33.213  1.00  0.00     0.009 A 
ATOM     86  C   UNL A   1      45.156  27.910  34.747  1.00  0.00     0.009 A 
ATOM     87  C   UNL A   1      47.589  28.812  33.727  1.00  0.00     0.001 A 
ATOM     88  C   UNL A   1      46.355  27.436  35.282  1.00  0.00     0.001 A 
ATOM     89  C   UNL A   1      47.569  27.880  34.764  1.00  0.00     0.000 A 
ENDBRANCH  71  84
ENDBRANCH  45  46
ENDBRANCH  37  40
ENDBRANCH  35  36
ENDBRANCH  34  35
ENDBRANCH  33  34
ENDBRANCH   3  33
TORSDOF 16
ENDMDL
MODEL 2
REMARK VINA RESULT:     -12.2      1.360      5.863
REMARK SMILES CC(C)[C@H](NC(=O)[C@H]1CC(=O)N(c2ccc(F)cc2)C1)C(=O)N1CCC[C@@H]1C(=O)NCCCNC(=O)c1ccc(-c2c3nc(c(-c4ccccc4)c4ccc([nH]4)c(-c4ccccc4)c4nc(c(-c5ccccc5)c5ccc2[nH]5)C=C4)C=C3)cc1
REMARK SMILES IDX 28 1 29 2 30 3 27 5 23 6 24 7 25 8 26 9 21 10 22 11 4 12
REMARK SMILES IDX 2 13 1 14 3 15 5 16 6 17 7 19 8 20 9 21 20 22 10 23 12 24
REMARK SMILES IDX 11 25 13 26 14 27 19 28 15 29 18 30 16 31 17 32 31 33 32 34
REMARK SMILES IDX 33 35 34 36 35 37 36 39 37 40 38 41 84 42 39 43 83 44 40 45
REMARK SMILES IDX 41 46 42 47 77 48 43 49 82 50 76 51 78 52 44 53 81 54 75 55
REMARK SMILES IDX 74 56 45 58 67 59 52 60 66 61 53 62 56 63 65 64 79 65 54 66
REMARK SMILES IDX 55 67 64 69 80 70 57 71 46 72 47 73 51 74 48 75 50 76 49 77
REMARK SMILES IDX 68 78 69 79 73 80 70 81 72 82 71 83 58 84 59 85 63 86 60 87
REMARK SMILES IDX 62 88 61 89
REMARK H PARENT 30 4 5 18 34 38 78 57 56 68
REMARK Flexibility Score: inf
ROOT
ATOM      1  C   UNL A   1      32.193  29.520  24.489  1.00  0.00     0.242 C 
ATOM      2  O   UNL A   1      33.003  29.331  23.575  1.00  0.00    -0.273 OA
ATOM      3  N   UNL A   1      32.712  29.981  25.666  1.00  0.00    -0.354 N 
ATOM      4  H   UNL A   1      33.695  30.004  25.722  1.00  0.00     0.163 HD
ENDROOT
BRANCH   1   5
ATOM      5  C   UNL A   1      30.719  29.044  24.354  1.00  0.00     0.174 C 
ATOM      6  N   UNL A   1      30.398  27.846  23.549  1.00  0.00    -0.329 N 
ATOM      7  C   UNL A   1      29.269  28.114  22.678  1.00  0.00     0.120 C 
ATOM      8  C   UNL A   1      29.205  29.620  22.513  1.00  0.00     0.024 C 
ATOM      9  C   UNL A   1      29.865  30.183  23.764  1.00  0.00     0.037 C 
BRANCH   6  10
ATOM     10  C   UNL A   1      30.825  26.593  23.988  1.00  0.00     0.246 C 
ATOM     11  O   UNL A   1      30.476  25.585  23.363  1.00  0.00    -0.272 OA
BRANCH  10  12
ATOM     12  C   UNL A   1      31.486  26.381  25.414  1.00  0.00     0.174 C 
BRANCH  12  13
ATOM     13  C   UNL A   1      32.986  26.017  25.259  1.00  0.00     0.015 C 
ATOM     14  C   UNL A   1      33.509  26.117  23.851  1.00  0.00     0.010 C 
ATOM     15  C   UNL A   1      33.894  26.817  26.190  1.00  0.00     0.010 C 
ENDBRANCH  12  13
BRANCH  12  16
ATOM     16  N   UNL A   1      30.831  25.451  26.344  1.00  0.00    -0.344 N 
ATOM     17  C   UNL A   1      30.952  24.103  26.509  1.00  0.00     0.226 C 
ATOM     18  H   UNL A   1      30.191  25.878  26.958  1.00  0.00     0.164 HD
ATOM     19  O   UNL A   1      30.197  23.582  27.333  1.00  0.00    -0.275 OA
BRANCH  17  20
ATOM     20  C   UNL A   1      31.968  23.279  25.721  1.00  0.00     0.107 C 
ATOM     21  C   UNL A   1      33.267  23.118  26.520  1.00  0.00     0.116 C 
ATOM     22  C   UNL A   1      31.523  21.835  25.502  1.00  0.00     0.139 C 
ATOM     23  C   UNL A   1      33.742  21.719  26.224  1.00  0.00     0.227 C 
ATOM     24  N   UNL A   1      32.720  21.043  25.572  1.00  0.00    -0.312 N 
ATOM     25  O   UNL A   1      34.862  21.308  26.504  1.00  0.00    -0.274 OA
BRANCH  24  26
ATOM     26  C   UNL A   1      32.773  19.704  25.125  1.00  0.00     0.044 A 
ATOM     27  C   UNL A   1      32.807  18.651  26.046  1.00  0.00     0.029 A 
ATOM     28  C   UNL A   1      32.801  19.406  23.753  1.00  0.00     0.029 A 
ATOM     29  C   UNL A   1      32.850  17.324  25.609  1.00  0.00     0.041 A 
ATOM     30  C   UNL A   1      32.889  18.082  23.316  1.00  0.00     0.041 A 
ATOM     31  C   UNL A   1      32.904  17.052  24.248  1.00  0.00     0.123 A 
ATOM     32  F   UNL A   1      32.977  15.782  23.829  1.00  0.00    -0.207 F 
ENDBRANCH  24  26
ENDBRANCH  17  20
ENDBRANCH  12  16
ENDBRANCH  10  12
ENDBRANCH   6  10
ENDBRANCH   1   5
BRANCH   3  33
ATOM     33  C   UNL A   1      32.009  30.435  26.834  1.00  0.00     0.117 C 
BRANCH  33  34
ATOM     34  C   UNL A   1      31.643  31.899  26.866  1.00  0.00     0.042 C 
BRANCH  34  35
ATOM     35  C   UNL A   1      32.837  32.768  27.241  1.00  0.00     0.118 C 
BRANCH  35  36
ATOM     36  N   UNL A   1      32.479  34.142  27.627  1.00  0.00    -0.352 N 
ATOM     37  C   UNL A   1      32.996  34.961  28.601  1.00  0.00     0.251 C 
ATOM     38  H   UNL A   1      31.748  34.539  27.100  1.00  0.00     0.163 HD
ATOM     39  O   UNL A   1      32.468  36.039  28.851  1.00  0.00    -0.269 OA
BRANCH  37  40
ATOM     40  C   UNL A   1      34.171  34.508  29.362  1.00  0.00     0.039 A 
ATOM     41  C   UNL A   1      33.997  33.898  30.604  1.00  0.00     0.014 A 
ATOM     42  C   UNL A   1      35.438  34.614  28.789  1.00  0.00     0.014 A 
ATOM     43  C   UNL A   1      35.089  33.287  31.219  1.00  0.00     0.010 A 
ATOM     44  C   UNL A   1      36.484  33.890  29.330  1.00  0.00     0.010 A 
ATOM     45  C   UNL A   1      36.324  33.225  30.554  1.00  0.00    -0.014 A 
BRANCH  45  46
ATOM     46  C   UNL A   1      37.483  32.486  31.106  1.00  0.00     0.031 A 
ATOM     47  C   UNL A   1      38.159  33.001  32.347  1.00  0.00     0.074 A 
ATOM     48  C   UNL A   1      37.989  31.432  30.437  1.00  0.00     0.049 A 
ATOM     49  N   UNL A   1      39.265  32.595  32.913  1.00  0.00    -0.248 NA
ATOM     50  C   UNL A   1      37.531  34.154  33.016  1.00  0.00     0.031 C 
ATOM     51  C   UNL A   1      37.451  30.870  29.195  1.00  0.00     0.029 A 
ATOM     52  N   UNL A   1      39.085  30.651  30.704  1.00  0.00    -0.354 N 
ATOM     53  C   UNL A   1      39.478  33.461  33.978  1.00  0.00     0.074 A 
ATOM     54  C   UNL A   1      38.429  34.452  33.940  1.00  0.00     0.031 C 
ATOM     55  C   UNL A   1      38.197  29.815  28.830  1.00  0.00     0.029 A 
ATOM     56  C   UNL A   1      39.293  29.659  29.778  1.00  0.00     0.049 A 
ATOM     57  H   UNL A   1      39.665  30.788  31.488  1.00  0.00     0.167 HD
ATOM     58  C   UNL A   1      40.445  33.418  34.923  1.00  0.00     0.031 A 
ATOM     59  C   UNL A   1      40.269  28.735  29.697  1.00  0.00     0.031 A 
ATOM     60  C   UNL A   1      41.472  32.415  34.969  1.00  0.00     0.049 A 
ATOM     61  C   UNL A   1      41.340  28.714  30.753  1.00  0.00     0.074 A 
ATOM     62  C   UNL A   1      42.465  32.241  35.915  1.00  0.00     0.029 A 
ATOM     63  N   UNL A   1      41.637  31.414  34.023  1.00  0.00    -0.354 N 
ATOM     64  N   UNL A   1      41.491  29.499  31.792  1.00  0.00    -0.248 NA
ATOM     65  C   UNL A   1      42.369  27.672  30.629  1.00  0.00     0.031 C 
ATOM     66  C   UNL A   1      43.265  31.169  35.512  1.00  0.00     0.029 A 
ATOM     67  C   UNL A   1      42.729  30.632  34.352  1.00  0.00     0.049 A 
ATOM     68  H   UNL A   1      41.060  31.279  33.236  1.00  0.00     0.167 HD
ATOM     69  C   UNL A   1      42.608  29.022  32.467  1.00  0.00     0.074 A 
ATOM     70  C   UNL A   1      43.088  27.876  31.724  1.00  0.00     0.031 C 
ATOM     71  C   UNL A   1      43.183  29.489  33.602  1.00  0.00     0.031 A 
BRANCH  58  72
ATOM     72  C   UNL A   1      40.431  34.490  35.978  1.00  0.00    -0.014 A 
ATOM     73  C   UNL A   1      41.224  35.644  35.857  1.00  0.00     0.009 A 
ATOM     74  C   UNL A   1      39.598  34.356  37.098  1.00  0.00     0.009 A 
ATOM     75  C   UNL A   1      41.215  36.618  36.856  1.00  0.00     0.001 A 
ATOM     76  C   UNL A   1      39.564  35.349  38.080  1.00  0.00     0.001 A 
ATOM     77  C   UNL A   1      40.380  36.473  37.963  1.00  0.00     0.000 A 
ENDBRANCH  58  72
BRANCH  59  78
ATOM     78  C   UNL A   1      40.273  27.743  28.588  1.00  0.00    -0.014 A 
ATOM     79  C   UNL A   1      39.629  26.505  28.739  1.00  0.00     0.009 A 
ATOM     80  C   UNL A   1      40.925  28.022  27.377  1.00  0.00     0.009 A 
ATOM     81  C   UNL A   1      39.667  25.555  27.716  1.00  0.00     0.001 A 
ATOM     82  C   UNL A   1      40.934  27.082  26.343  1.00  0.00     0.001 A 
ATOM     83  C   UNL A   1      40.315  25.846  26.517  1.00  0.00     0.000 A 
ENDBRANCH  59  78
BRANCH  71  84
ATOM     84  C   UNL A   1      44.362  28.729  34.142  1.00  0.00    -0.014 A 
ATOM     85  C   UNL A   1      44.199  27.652  35.025  1.00  0.00     0.009 A 
ATOM     86  C   UNL A   1      45.654  29.068  33.710  1.00  0.00     0.009 A 
ATOM     87  C   UNL A   1      45.313  26.950  35.491  1.00  0.00     0.001 A 
ATOM     88  C   UNL A   1      46.762  28.343  34.151  1.00  0.00     0.001 A 
ATOM     89  C   UNL A   1      46.591  27.291  35.049  1.00  0.00     0.000 A 
ENDBRANCH  71  84
ENDBRANCH  45  46
ENDBRANCH  37  40
ENDBRANCH  35  36
ENDBRANCH  34  35
ENDBRANCH  33  34
ENDBRANCH   3  33
TORSDOF 16
ENDMDL
MODEL 3
REMARK VINA RESULT:     -12.2      3.280      6.852
REMARK SMILES CC(C)[C@H](NC(=O)[C@H]1CC(=O)N(c2ccc(F)cc2)C1)C(=O)N1CCC[C@@H]1C(=O)NCCCNC(=O)c1ccc(-c2c3nc(c(-c4ccccc4)c4ccc([nH]4)c(-c4ccccc4)c4nc(c(-c5ccccc5)c5ccc2[nH]5)C=C4)C=C3)cc1
REMARK SMILES IDX 28 1 29 2 30 3 27 5 23 6 24 7 25 8 26 9 21 10 22 11 4 12
REMARK SMILES IDX 2 13 1 14 3 15 5 16 6 17 7 19 8 20 9 21 20 22 10 23 12 24
REMARK SMILES IDX 11 25 13 26 14 27 19 28 15 29 18 30 16 31 17 32 31 33 32 34
REMARK SMILES IDX 33 35 34 36 35 37 36 39 37 40 38 41 84 42 39 43 83 44 40 45
REMARK SMILES IDX 41 46 42 47 77 48 43 49 82 50 76 51 78 52 44 53 81 54 75 55
REMARK SMILES IDX 74 56 45 58 67 59 52 60 66 61 53 62 56 63 65 64 79 65 54 66
REMARK SMILES IDX 55 67 64 69 80 70 57 71 46 72 47 73 51 74 48 75 50 76 49 77
REMARK SMILES IDX 68 78 69 79 73 80 70 81 72 82 71 83 58 84 59 85 63 86 60 87
REMARK SMILES IDX 62 88 61 89
REMARK H PARENT 30 4 5 18 34 38 78 57 56 68
REMARK Flexibility Score: inf
ROOT
ATOM      1  C   UNL A   1      33.419  28.963  24.104  1.00  0.00     0.242 C 
ATOM      2  O   UNL A   1      33.980  29.356  23.075  1.00  0.00    -0.273 OA
ATOM      3  N   UNL A   1      34.040  29.268  25.282  1.00  0.00    -0.354 N 
ATOM      4  H   UNL A   1      34.938  29.665  25.204  1.00  0.00     0.163 HD
ENDROOT
BRANCH   1   5
ATOM      5  C   UNL A   1      32.205  27.995  24.024  1.00  0.00     0.174 C 
ATOM      6  N   UNL A   1      32.044  27.104  22.855  1.00  0.00    -0.329 N 
ATOM      7  C   UNL A   1      30.675  27.150  22.375  1.00  0.00     0.120 C 
ATOM      8  C   UNL A   1      30.092  28.459  22.870  1.00  0.00     0.024 C 
ATOM      9  C   UNL A   1      30.897  28.803  24.115  1.00  0.00     0.037 C 
BRANCH   6  10
ATOM     10  C   UNL A   1      32.958  26.071  22.651  1.00  0.00     0.246 C 
ATOM     11  O   UNL A   1      33.648  26.072  21.624  1.00  0.00    -0.272 OA
BRANCH  10  12
ATOM     12  C   UNL A   1      32.939  24.746  23.522  1.00  0.00     0.174 C 
BRANCH  12  13
ATOM     13  C   UNL A   1      31.478  24.332  23.834  1.00  0.00     0.015 C 
ATOM     14  C   UNL A   1      31.143  22.910  23.474  1.00  0.00     0.010 C 
ATOM     15  C   UNL A   1      31.080  24.591  25.285  1.00  0.00     0.010 C 
ENDBRANCH  12  13
BRANCH  12  16
ATOM     16  N   UNL A   1      33.749  24.718  24.748  1.00  0.00    -0.344 N 
ATOM     17  C   UNL A   1      34.574  23.762  25.264  1.00  0.00     0.226 C 
ATOM     18  H   UNL A   1      33.684  25.533  25.295  1.00  0.00     0.164 HD
ATOM     19  O   UNL A   1      35.061  23.999  26.371  1.00  0.00    -0.275 OA
BRANCH  17  20
ATOM     20  C   UNL A   1      34.883  22.469  24.513  1.00  0.00     0.107 C 
ATOM     21  C   UNL A   1      36.262  21.929  24.915  1.00  0.00     0.116 C 
ATOM     22  C   UNL A   1      33.948  21.322  24.889  1.00  0.00     0.139 C 
ATOM     23  C   UNL A   1      36.107  20.430  24.943  1.00  0.00     0.227 C 
ATOM     24  N   UNL A   1      34.754  20.133  24.854  1.00  0.00    -0.312 N 
ATOM     25  O   UNL A   1      37.050  19.650  25.003  1.00  0.00    -0.274 OA
BRANCH  24  26
ATOM     26  C   UNL A   1      34.195  18.836  24.848  1.00  0.00     0.044 A 
ATOM     27  C   UNL A   1      34.918  17.756  24.329  1.00  0.00     0.029 A 
ATOM     28  C   UNL A   1      32.904  18.609  25.352  1.00  0.00     0.029 A 
ATOM     29  C   UNL A   1      34.373  16.469  24.330  1.00  0.00     0.041 A 
ATOM     30  C   UNL A   1      32.341  17.330  25.311  1.00  0.00     0.041 A 
ATOM     31  C   UNL A   1      33.084  16.270  24.808  1.00  0.00     0.123 A 
ATOM     32  F   UNL A   1      32.550  15.043  24.780  1.00  0.00    -0.207 F 
ENDBRANCH  24  26
ENDBRANCH  17  20
ENDBRANCH  12  16
ENDBRANCH  10  12
ENDBRANCH   6  10
ENDBRANCH   1   5
BRANCH   3  33
ATOM     33  C   UNL A   1      33.553  29.085  26.621  1.00  0.00     0.117 C 
BRANCH  33  34
ATOM     34  C   UNL A   1      33.150  30.337  27.363  1.00  0.00     0.042 C 
BRANCH  34  35
ATOM     35  C   UNL A   1      34.350  31.235  27.639  1.00  0.00     0.118 C 
BRANCH  35  36
ATOM     36  N   UNL A   1      34.403  31.755  29.014  1.00  0.00    -0.352 N 
ATOM     37  C   UNL A   1      35.306  31.524  30.024  1.00  0.00     0.251 C 
ATOM     38  H   UNL A   1      33.670  32.369  29.250  1.00  0.00     0.163 HD
ATOM     39  O   UNL A   1      35.101  31.959  31.152  1.00  0.00    -0.269 OA
BRANCH  37  40
ATOM     40  C   UNL A   1      36.503  30.720  29.737  1.00  0.00     0.039 A 
ATOM     41  C   UNL A   1      37.098  30.790  28.477  1.00  0.00     0.014 A 
ATOM     42  C   UNL A   1      37.081  29.966  30.758  1.00  0.00     0.014 A 
ATOM     43  C   UNL A   1      38.342  30.193  28.279  1.00  0.00     0.010 A 
ATOM     44  C   UNL A   1      38.371  29.496  30.601  1.00  0.00     0.010 A 
ATOM     45  C   UNL A   1      39.014  29.597  29.359  1.00  0.00    -0.014 A 
BRANCH  45  46
ATOM     46  C   UNL A   1      40.386  29.054  29.234  1.00  0.00     0.031 A 
ATOM     47  C   UNL A   1      41.560  29.973  29.428  1.00  0.00     0.074 A 
ATOM     48  C   UNL A   1      40.571  27.779  28.839  1.00  0.00     0.049 A 
ATOM     49  N   UNL A   1      42.831  29.742  29.225  1.00  0.00    -0.248 NA
ATOM     50  C   UNL A   1      41.263  31.348  29.866  1.00  0.00     0.031 C 
ATOM     51  C   UNL A   1      39.509  26.805  28.571  1.00  0.00     0.029 A 
ATOM     52  N   UNL A   1      41.726  27.086  28.581  1.00  0.00    -0.354 N 
ATOM     53  C   UNL A   1      43.473  30.947  29.479  1.00  0.00     0.074 A 
ATOM     54  C   UNL A   1      42.452  31.921  29.783  1.00  0.00     0.031 C 
ATOM     55  C   UNL A   1      40.064  25.633  28.222  1.00  0.00     0.029 A 
ATOM     56  C   UNL A   1      41.513  25.787  28.188  1.00  0.00     0.049 A 
ATOM     57  H   UNL A   1      42.623  27.483  28.671  1.00  0.00     0.167 HD
ATOM     58  C   UNL A   1      44.800  31.214  29.488  1.00  0.00     0.031 A 
ATOM     59  C   UNL A   1      42.391  24.831  27.829  1.00  0.00     0.031 A 
ATOM     60  C   UNL A   1      45.812  30.234  29.207  1.00  0.00     0.049 A 
ATOM     61  C   UNL A   1      43.860  25.154  27.835  1.00  0.00     0.074 A 
ATOM     62  C   UNL A   1      47.186  30.380  29.247  1.00  0.00     0.029 A 
ATOM     63  N   UNL A   1      45.556  28.923  28.834  1.00  0.00    -0.354 N 
ATOM     64  N   UNL A   1      44.458  26.281  28.142  1.00  0.00    -0.248 NA
ATOM     65  C   UNL A   1      44.776  24.070  27.456  1.00  0.00     0.031 C 
ATOM     66  C   UNL A   1      47.762  29.172  28.843  1.00  0.00     0.029 A 
ATOM     67  C   UNL A   1      46.748  28.255  28.619  1.00  0.00     0.049 A 
ATOM     68  H   UNL A   1      44.660  28.526  28.738  1.00  0.00     0.167 HD
ATOM     69  C   UNL A   1      45.819  26.030  28.030  1.00  0.00     0.074 A 
ATOM     70  C   UNL A   1      45.958  24.643  27.638  1.00  0.00     0.031 C 
ATOM     71  C   UNL A   1      46.862  26.870  28.237  1.00  0.00     0.031 A 
BRANCH  58  72
ATOM     72  C   UNL A   1      45.221  32.621  29.808  1.00  0.00    -0.014 A 
ATOM     73  C   UNL A   1      45.490  33.021  31.128  1.00  0.00     0.009 A 
ATOM     74  C   UNL A   1      45.372  33.556  28.774  1.00  0.00     0.009 A 
ATOM     75  C   UNL A   1      45.858  34.337  31.409  1.00  0.00     0.001 A 
ATOM     76  C   UNL A   1      45.776  34.864  29.053  1.00  0.00     0.001 A 
ATOM     77  C   UNL A   1      46.008  35.255  30.371  1.00  0.00     0.000 A 
ENDBRANCH  58  72
BRANCH  59  78
ATOM     78  C   UNL A   1      41.911  23.476  27.450  1.00  0.00    -0.014 A 
ATOM     79  C   UNL A   1      41.575  22.538  28.439  1.00  0.00     0.009 A 
ATOM     80  C   UNL A   1      41.791  23.107  26.101  1.00  0.00     0.009 A 
ATOM     81  C   UNL A   1      41.164  21.250  28.087  1.00  0.00     0.001 A 
ATOM     82  C   UNL A   1      41.349  21.829  25.751  1.00  0.00     0.001 A 
ATOM     83  C   UNL A   1      41.048  20.898  26.743  1.00  0.00     0.000 A 
ENDBRANCH  59  78
BRANCH  71  84
ATOM     84  C   UNL A   1      48.246  26.301  28.098  1.00  0.00    -0.014 A 
ATOM     85  C   UNL A   1      48.934  25.766  29.196  1.00  0.00     0.009 A 
ATOM     86  C   UNL A   1      48.844  26.252  26.828  1.00  0.00     0.009 A 
ATOM     87  C   UNL A   1      50.210  25.223  29.031  1.00  0.00     0.001 A 
ATOM     88  C   UNL A   1      50.104  25.678  26.660  1.00  0.00     0.001 A 
ATOM     89  C   UNL A   1      50.790  25.173  27.763  1.00  0.00     0.000 A 
ENDBRANCH  71  84
ENDBRANCH  45  46
ENDBRANCH  37  40
ENDBRANCH  35  36
ENDBRANCH  34  35
ENDBRANCH  33  34
ENDBRANCH   3  33
TORSDOF 16
ENDMDL
