MODEL 1
REMARK VINA RESULT:     -11.9      0.000      0.000
REMARK SMILES Cc1cc([C@H](C)NC(=O)N2CC[C@H](C(=O)NCCCNC(=O)c3ccc(-c4c5nc(c(-c6ccccc6)c6ccc([nH]6)c(-c6ccccc6)c6nc(c(-c7ccccc7)c7ccc4[nH]7)C=C6)C=C5)cc3)[C@@H]2C)c(C)s1
REMARK SMILES IDX 17 1 16 2 14 3 15 4 13 6 10 7 11 8 71 9 12 10 72 11 8 12
REMARK SMILES IDX 7 13 9 15 5 16 6 17 4 18 1 19 2 20 3 21 75 22 73 23 74 24
REMARK SMILES IDX 18 25 19 26 20 27 21 28 22 30 23 31 24 32 70 33 25 34 69 35
REMARK SMILES IDX 26 36 27 37 28 38 63 39 29 40 68 41 62 42 64 43 30 44 67 45
REMARK SMILES IDX 61 46 60 47 31 49 53 50 38 51 52 52 39 53 42 54 51 55 65 56
REMARK SMILES IDX 40 57 41 58 50 60 66 61 43 62 32 63 33 64 37 65 34 66 36 67
REMARK SMILES IDX 35 68 54 69 55 70 59 71 56 72 58 73 57 74 44 75 45 76 49 77
REMARK SMILES IDX 46 78 48 79 47 80
REMARK H PARENT 16 5 7 14 20 29 64 48 42 59
REMARK Flexibility Score: inf
ROOT
ATOM      1  C   UNL A   1      33.345  28.553  24.747  1.00  0.00     0.117 C 
ENDROOT
BRANCH   1   2
ATOM      2  N   UNL A   1      33.660  27.410  23.909  1.00  0.00    -0.356 N 
ATOM      3  C   UNL A   1      32.877  26.372  23.497  1.00  0.00     0.225 C 
ATOM      4  O   UNL A   1      33.254  25.727  22.519  1.00  0.00    -0.275 OA
ATOM      5  H   UNL A   1      34.590  27.379  23.585  1.00  0.00     0.163 HD
BRANCH   3   6
ATOM      6  C   UNL A   1      31.609  26.015  24.256  1.00  0.00     0.102 C 
ATOM      7  N   UNL A   1      31.084  23.996  25.437  1.00  0.00    -0.321 N 
ATOM      8  C   UNL A   1      30.865  23.721  24.033  1.00  0.00     0.122 C 
ATOM      9  C   UNL A   1      31.847  25.237  25.575  1.00  0.00     0.096 C 
ATOM     10  C   UNL A   1      30.702  25.099  23.418  1.00  0.00     0.037 C 
ATOM     11  C   UNL A   1      33.307  24.943  25.927  1.00  0.00     0.032 C 
BRANCH   7  12
ATOM     12  C   UNL A   1      30.935  23.002  26.363  1.00  0.00     0.318 C 
ATOM     13  N   UNL A   1      31.388  21.750  26.084  1.00  0.00    -0.331 N 
ATOM     14  H   UNL A   1      30.758  21.006  26.222  1.00  0.00     0.165 HD
ATOM     15  O   UNL A   1      30.390  23.189  27.451  1.00  0.00    -0.249 OA
BRANCH  13  16
ATOM     16  C   UNL A   1      32.718  21.411  25.599  1.00  0.00     0.112 C 
ATOM     17  C   UNL A   1      33.718  21.429  26.763  1.00  0.00     0.036 C 
BRANCH  16  18
ATOM     18  C   UNL A   1      32.639  20.070  24.881  1.00  0.00    -0.012 A 
ATOM     19  C   UNL A   1      33.018  16.278  24.891  1.00  0.00     0.056 C 
ATOM     20  C   UNL A   1      32.790  17.725  24.630  1.00  0.00     0.002 A 
ATOM     21  C   UNL A   1      32.853  18.786  25.508  1.00  0.00     0.021 A 
ATOM     22  S   UNL A   1      32.397  18.241  23.060  1.00  0.00    -0.146 S 
ATOM     23  C   UNL A   1      32.379  19.889  23.523  1.00  0.00     0.007 A 
ATOM     24  C   UNL A   1      32.091  20.889  22.456  1.00  0.00     0.057 C 
ENDBRANCH  16  18
ENDBRANCH  13  16
ENDBRANCH   7  12
ENDBRANCH   3   6
ENDBRANCH   1   2
BRANCH   1  25
ATOM     25  C   UNL A   1      34.243  28.691  25.971  1.00  0.00     0.042 C 
BRANCH  25  26
ATOM     26  C   UNL A   1      33.522  28.948  27.294  1.00  0.00     0.118 C 
BRANCH  26  27
ATOM     27  N   UNL A   1      33.635  30.318  27.776  1.00  0.00    -0.352 N 
ATOM     28  C   UNL A   1      34.685  30.972  28.378  1.00  0.00     0.251 C 
ATOM     29  H   UNL A   1      32.827  30.866  27.652  1.00  0.00     0.163 HD
ATOM     30  O   UNL A   1      34.532  32.123  28.775  1.00  0.00    -0.269 OA
BRANCH  28  31
ATOM     31  C   UNL A   1      35.985  30.295  28.592  1.00  0.00     0.039 A 
ATOM     32  C   UNL A   1      36.939  30.338  27.568  1.00  0.00     0.014 A 
ATOM     33  C   UNL A   1      36.269  29.613  29.777  1.00  0.00     0.014 A 
ATOM     34  C   UNL A   1      38.206  29.781  27.768  1.00  0.00     0.010 A 
ATOM     35  C   UNL A   1      37.552  29.116  30.000  1.00  0.00     0.010 A 
ATOM     36  C   UNL A   1      38.538  29.207  29.005  1.00  0.00    -0.014 A 
BRANCH  36  37
ATOM     37  C   UNL A   1      39.910  28.716  29.297  1.00  0.00     0.031 A 
ATOM     38  C   UNL A   1      40.924  29.632  29.924  1.00  0.00     0.074 A 
ATOM     39  C   UNL A   1      40.278  27.479  28.906  1.00  0.00     0.049 A 
ATOM     40  N   UNL A   1      42.207  29.443  30.108  1.00  0.00    -0.248 NA
ATOM     41  C   UNL A   1      40.435  30.942  30.382  1.00  0.00     0.031 C 
ATOM     42  C   UNL A   1      39.402  26.492  28.270  1.00  0.00     0.029 A 
ATOM     43  N   UNL A   1      41.497  26.849  28.969  1.00  0.00    -0.354 N 
ATOM     44  C   UNL A   1      42.683  30.620  30.673  1.00  0.00     0.074 A 
ATOM     45  C   UNL A   1      41.559  31.526  30.773  1.00  0.00     0.031 C 
ATOM     46  C   UNL A   1      40.109  25.380  28.010  1.00  0.00     0.029 A 
ATOM     47  C   UNL A   1      41.495  25.591  28.415  1.00  0.00     0.049 A 
ATOM     48  H   UNL A   1      42.295  27.258  29.372  1.00  0.00     0.167 HD
ATOM     49  C   UNL A   1      43.940  30.917  31.081  1.00  0.00     0.031 A 
ATOM     50  C   UNL A   1      42.499  24.713  28.231  1.00  0.00     0.031 A 
ATOM     51  C   UNL A   1      45.056  30.013  31.000  1.00  0.00     0.049 A 
ATOM     52  C   UNL A   1      43.890  25.074  28.672  1.00  0.00     0.074 A 
ATOM     53  C   UNL A   1      46.355  30.208  31.435  1.00  0.00     0.029 A 
ATOM     54  N   UNL A   1      45.005  28.743  30.449  1.00  0.00    -0.354 N 
ATOM     55  N   UNL A   1      44.314  26.175  29.241  1.00  0.00    -0.248 NA
ATOM     56  C   UNL A   1      44.940  24.069  28.445  1.00  0.00     0.031 C 
ATOM     57  C   UNL A   1      47.101  29.071  31.110  1.00  0.00     0.029 A 
ATOM     58  C   UNL A   1      46.254  28.150  30.516  1.00  0.00     0.049 A 
ATOM     59  H   UNL A   1      44.200  28.325  30.065  1.00  0.00     0.167 HD
ATOM     60  C   UNL A   1      45.670  25.982  29.472  1.00  0.00     0.074 A 
ATOM     61  C   UNL A   1      45.997  24.658  28.985  1.00  0.00     0.031 C 
ATOM     62  C   UNL A   1      46.563  26.828  30.039  1.00  0.00     0.031 A 
BRANCH  49  63
ATOM     63  C   UNL A   1      44.178  32.290  31.642  1.00  0.00    -0.014 A 
ATOM     64  C   UNL A   1      44.540  33.363  30.811  1.00  0.00     0.009 A 
ATOM     65  C   UNL A   1      44.001  32.523  33.014  1.00  0.00     0.009 A 
ATOM     66  C   UNL A   1      44.757  34.632  31.351  1.00  0.00     0.001 A 
ATOM     67  C   UNL A   1      44.192  33.799  33.547  1.00  0.00     0.001 A 
ATOM     68  C   UNL A   1      44.578  34.851  32.716  1.00  0.00     0.000 A 
ENDBRANCH  49  63
BRANCH  50  69
ATOM     69  C   UNL A   1      42.229  23.396  27.596  1.00  0.00    -0.014 A 
ATOM     70  C   UNL A   1      42.345  23.242  26.206  1.00  0.00     0.009 A 
ATOM     71  C   UNL A   1      41.848  22.292  28.374  1.00  0.00     0.009 A 
ATOM     72  C   UNL A   1      42.060  22.015  25.605  1.00  0.00     0.001 A 
ATOM     73  C   UNL A   1      41.589  21.058  27.771  1.00  0.00     0.001 A 
ATOM     74  C   UNL A   1      41.687  20.923  26.386  1.00  0.00     0.000 A 
ENDBRANCH  50  69
BRANCH  62  75
ATOM     75  C   UNL A   1      47.971  26.334  30.214  1.00  0.00    -0.014 A 
ATOM     76  C   UNL A   1      48.921  26.459  29.190  1.00  0.00     0.009 A 
ATOM     77  C   UNL A   1      48.365  25.790  31.447  1.00  0.00     0.009 A 
ATOM     78  C   UNL A   1      50.234  26.030  29.391  1.00  0.00     0.001 A 
ATOM     79  C   UNL A   1      49.683  25.385  31.653  1.00  0.00     0.001 A 
ATOM     80  C   UNL A   1      50.615  25.498  30.624  1.00  0.00     0.000 A 
ENDBRANCH  62  75
ENDBRANCH  36  37
ENDBRANCH  28  31
ENDBRANCH  26  27
ENDBRANCH  25  26
ENDBRANCH   1  25
TORSDOF 13
ENDMDL
MODEL 2
REMARK VINA RESULT:     -11.8      2.913      7.736
REMARK SMILES Cc1cc([C@H](C)NC(=O)N2CC[C@H](C(=O)NCCCNC(=O)c3ccc(-c4c5nc(c(-c6ccccc6)c6ccc([nH]6)c(-c6ccccc6)c6nc(c(-c7ccccc7)c7ccc4[nH]7)C=C6)C=C5)cc3)[C@@H]2C)c(C)s1
REMARK SMILES IDX 17 1 16 2 14 3 15 4 13 6 10 7 11 8 71 9 12 10 72 11 8 12
REMARK SMILES IDX 7 13 9 15 5 16 6 17 4 18 1 19 2 20 3 21 75 22 73 23 74 24
REMARK SMILES IDX 18 25 19 26 20 27 21 28 22 30 23 31 24 32 70 33 25 34 69 35
REMARK SMILES IDX 26 36 27 37 28 38 63 39 29 40 68 41 62 42 64 43 30 44 67 45
REMARK SMILES IDX 61 46 60 47 31 49 53 50 38 51 52 52 39 53 42 54 51 55 65 56
REMARK SMILES IDX 40 57 41 58 50 60 66 61 43 62 32 63 33 64 37 65 34 66 36 67
REMARK SMILES IDX 35 68 54 69 55 70 59 71 56 72 58 73 57 74 44 75 45 76 49 77
REMARK SMILES IDX 46 78 48 79 47 80
REMARK H PARENT 16 5 7 14 20 29 64 48 42 59
REMARK Flexibility Score: inf
ROOT
ATOM      1  C   UNL A   1      36.658  20.867  25.042  1.00  0.00     0.117 C 
ENDROOT
BRANCH   1   2
ATOM      2  N   UNL A   1      35.515  20.001  25.271  1.00  0.00    -0.356 N 
ATOM      3  C   UNL A   1      34.194  20.187  24.990  1.00  0.00     0.225 C 
ATOM      4  O   UNL A   1      33.475  19.189  24.945  1.00  0.00    -0.275 OA
ATOM      5  H   UNL A   1      35.729  19.139  25.698  1.00  0.00     0.163 HD
BRANCH   3   6
ATOM      6  C   UNL A   1      33.639  21.587  24.781  1.00  0.00     0.102 C 
ATOM      7  N   UNL A   1      31.885  22.701  25.977  1.00  0.00    -0.321 N 
ATOM      8  C   UNL A   1      31.242  21.813  25.032  1.00  0.00     0.122 C 
ATOM      9  C   UNL A   1      33.300  22.345  26.090  1.00  0.00     0.096 C 
ATOM     10  C   UNL A   1      32.319  21.549  23.996  1.00  0.00     0.037 C 
ATOM     11  C   UNL A   1      33.568  21.589  27.393  1.00  0.00     0.032 C 
BRANCH   7  12
ATOM     12  C   UNL A   1      31.134  23.425  26.861  1.00  0.00     0.318 C 
ATOM     13  N   UNL A   1      31.262  24.778  26.899  1.00  0.00    -0.331 N 
ATOM     14  H   UNL A   1      31.414  25.187  27.782  1.00  0.00     0.165 HD
ATOM     15  O   UNL A   1      30.344  22.897  27.643  1.00  0.00    -0.249 OA
BRANCH  13  16
ATOM     16  C   UNL A   1      31.194  25.676  25.756  1.00  0.00     0.112 C 
ATOM     17  C   UNL A   1      29.730  26.013  25.443  1.00  0.00     0.036 C 
BRANCH  16  18
ATOM     18  C   UNL A   1      32.053  26.897  26.053  1.00  0.00    -0.012 A 
ATOM     19  C   UNL A   1      32.370  30.569  27.027  1.00  0.00     0.056 C 
ATOM     20  C   UNL A   1      32.518  29.138  26.645  1.00  0.00     0.002 A 
ATOM     21  C   UNL A   1      31.545  28.170  26.510  1.00  0.00     0.021 A 
ATOM     22  S   UNL A   1      34.061  28.518  26.304  1.00  0.00    -0.146 S 
ATOM     23  C   UNL A   1      33.437  26.975  25.903  1.00  0.00     0.007 A 
ATOM     24  C   UNL A   1      34.417  25.941  25.466  1.00  0.00     0.057 C 
ENDBRANCH  16  18
ENDBRANCH  13  16
ENDBRANCH   7  12
ENDBRANCH   3   6
ENDBRANCH   1   2
BRANCH   1  25
ATOM     25  C   UNL A   1      37.960  20.119  24.784  1.00  0.00     0.042 C 
BRANCH  25  26
ATOM     26  C   UNL A   1      39.043  20.289  25.849  1.00  0.00     0.118 C 
BRANCH  26  27
ATOM     27  N   UNL A   1      40.061  19.247  25.835  1.00  0.00    -0.352 N 
ATOM     28  C   UNL A   1      41.407  19.306  26.113  1.00  0.00     0.251 C 
ATOM     29  H   UNL A   1      39.731  18.354  25.585  1.00  0.00     0.163 HD
ATOM     30  O   UNL A   1      42.098  18.302  25.963  1.00  0.00    -0.269 OA
BRANCH  28  31
ATOM     31  C   UNL A   1      42.042  20.570  26.548  1.00  0.00     0.039 A 
ATOM     32  C   UNL A   1      42.562  21.429  25.573  1.00  0.00     0.014 A 
ATOM     33  C   UNL A   1      42.142  20.912  27.899  1.00  0.00     0.014 A 
ATOM     34  C   UNL A   1      43.095  22.668  25.943  1.00  0.00     0.010 A 
ATOM     35  C   UNL A   1      42.612  22.173  28.261  1.00  0.00     0.010 A 
ATOM     36  C   UNL A   1      43.080  23.070  27.287  1.00  0.00    -0.014 A 
BRANCH  36  37
ATOM     37  C   UNL A   1      43.523  24.426  27.704  1.00  0.00     0.031 A 
ATOM     38  C   UNL A   1      42.510  25.465  28.096  1.00  0.00     0.074 A 
ATOM     39  C   UNL A   1      44.828  24.757  27.632  1.00  0.00     0.049 A 
ATOM     40  N   UNL A   1      42.685  26.741  28.333  1.00  0.00    -0.248 NA
ATOM     41  C   UNL A   1      41.115  25.015  28.214  1.00  0.00     0.031 C 
ATOM     42  C   UNL A   1      45.916  23.854  27.250  1.00  0.00     0.029 A 
ATOM     43  N   UNL A   1      45.459  25.957  27.859  1.00  0.00    -0.354 N 
ATOM     44  C   UNL A   1      41.420  27.252  28.596  1.00  0.00     0.074 A 
ATOM     45  C   UNL A   1      40.485  26.155  28.460  1.00  0.00     0.031 C 
ATOM     46  C   UNL A   1      47.077  24.527  27.278  1.00  0.00     0.029 A 
ATOM     47  C   UNL A   1      46.813  25.919  27.631  1.00  0.00     0.049 A 
ATOM     48  H   UNL A   1      44.985  26.767  28.157  1.00  0.00     0.167 HD
ATOM     49  C   UNL A   1      41.067  28.516  28.930  1.00  0.00     0.031 A 
ATOM     50  C   UNL A   1      47.737  26.896  27.678  1.00  0.00     0.031 A 
ATOM     51  C   UNL A   1      41.994  29.605  29.085  1.00  0.00     0.049 A 
ATOM     52  C   UNL A   1      47.319  28.296  28.030  1.00  0.00     0.074 A 
ATOM     53  C   UNL A   1      41.736  30.908  29.471  1.00  0.00     0.029 A 
ATOM     54  N   UNL A   1      43.359  29.517  28.862  1.00  0.00    -0.354 N 
ATOM     55  N   UNL A   1      46.125  28.752  28.316  1.00  0.00    -0.248 NA
ATOM     56  C   UNL A   1      48.379  29.316  28.067  1.00  0.00     0.031 C 
ATOM     57  C   UNL A   1      42.938  31.621  29.442  1.00  0.00     0.029 A 
ATOM     58  C   UNL A   1      43.953  30.748  29.084  1.00  0.00     0.049 A 
ATOM     59  H   UNL A   1      43.836  28.701  28.585  1.00  0.00     0.167 HD
ATOM     60  C   UNL A   1      46.293  30.102  28.599  1.00  0.00     0.074 A 
ATOM     61  C   UNL A   1      47.705  30.390  28.455  1.00  0.00     0.031 C 
ATOM     62  C   UNL A   1      45.360  31.018  28.950  1.00  0.00     0.031 A 
BRANCH  49  63
ATOM     63  C   UNL A   1      39.605  28.794  29.139  1.00  0.00    -0.014 A 
ATOM     64  C   UNL A   1      39.006  28.629  30.399  1.00  0.00     0.009 A 
ATOM     65  C   UNL A   1      38.825  29.262  28.072  1.00  0.00     0.009 A 
ATOM     66  C   UNL A   1      37.646  28.892  30.574  1.00  0.00     0.001 A 
ATOM     67  C   UNL A   1      37.471  29.550  28.256  1.00  0.00     0.001 A 
ATOM     68  C   UNL A   1      36.881  29.357  29.504  1.00  0.00     0.000 A 
ENDBRANCH  49  63
BRANCH  50  69
ATOM     69  C   UNL A   1      49.162  26.588  27.383  1.00  0.00    -0.014 A 
ATOM     70  C   UNL A   1      49.667  26.746  26.084  1.00  0.00     0.009 A 
ATOM     71  C   UNL A   1      50.019  26.130  28.396  1.00  0.00     0.009 A 
ATOM     72  C   UNL A   1      50.996  26.426  25.798  1.00  0.00     0.001 A 
ATOM     73  C   UNL A   1      51.355  25.836  28.112  1.00  0.00     0.001 A 
ATOM     74  C   UNL A   1      51.840  25.976  26.812  1.00  0.00     0.000 A 
ENDBRANCH  50  69
BRANCH  62  75
ATOM     75  C   UNL A   1      45.836  32.410  29.253  1.00  0.00    -0.014 A 
ATOM     76  C   UNL A   1      45.877  33.401  28.261  1.00  0.00     0.009 A 
ATOM     77  C   UNL A   1      46.189  32.748  30.570  1.00  0.00     0.009 A 
ATOM     78  C   UNL A   1      46.285  34.698  28.578  1.00  0.00     0.001 A 
ATOM     79  C   UNL A   1      46.571  34.051  30.888  1.00  0.00     0.001 A 
ATOM     80  C   UNL A   1      46.626  35.023  29.892  1.00  0.00     0.000 A 
ENDBRANCH  62  75
ENDBRANCH  36  37
ENDBRANCH  28  31
ENDBRANCH  26  27
ENDBRANCH  25  26
ENDBRANCH   1  25
TORSDOF 13
ENDMDL
MODEL 3
REMARK VINA RESULT:     -11.8      2.679      7.861
REMARK SMILES Cc1cc([C@H](C)NC(=O)N2CC[C@H](C(=O)NCCCNC(=O)c3ccc(-c4c5nc(c(-c6ccccc6)c6ccc([nH]6)c(-c6ccccc6)c6nc(c(-c7ccccc7)c7ccc4[nH]7)C=C6)C=C5)cc3)[C@@H]2C)c(C)s1
REMARK SMILES IDX 17 1 16 2 14 3 15 4 13 6 10 7 11 8 71 9 12 10 72 11 8 12
REMARK SMILES IDX 7 13 9 15 5 16 6 17 4 18 1 19 2 20 3 21 75 22 73 23 74 24
REMARK SMILES IDX 18 25 19 26 20 27 21 28 22 30 23 31 24 32 70 33 25 34 69 35
REMARK SMILES IDX 26 36 27 37 28 38 63 39 29 40 68 41 62 42 64 43 30 44 67 45
REMARK SMILES IDX 61 46 60 47 31 49 53 50 38 51 52 52 39 53 42 54 51 55 65 56
REMARK SMILES IDX 40 57 41 58 50 60 66 61 43 62 32 63 33 64 37 65 34 66 36 67
REMARK SMILES IDX 35 68 54 69 55 70 59 71 56 72 58 73 57 74 44 75 45 76 49 77
REMARK SMILES IDX 46 78 48 79 47 80
REMARK H PARENT 16 5 7 14 20 29 64 48 42 59
REMARK Flexibility Score: inf
ROOT
ATOM      1  C   UNL A   1      36.819  20.826  25.009  1.00  0.00     0.117 C 
ENDROOT
BRANCH   1   2
ATOM      2  N   UNL A   1      35.657  19.980  25.215  1.00  0.00    -0.356 N 
ATOM      3  C   UNL A   1      34.339  20.206  24.945  1.00  0.00     0.225 C 
ATOM      4  O   UNL A   1      33.597  19.227  24.872  1.00  0.00    -0.275 OA
ATOM      5  H   UNL A   1      35.852  19.101  25.614  1.00  0.00     0.163 HD
BRANCH   3   6
ATOM      6  C   UNL A   1      33.818  21.625  24.783  1.00  0.00     0.102 C 
ATOM      7  N   UNL A   1      32.027  22.709  25.953  1.00  0.00    -0.321 N 
ATOM      8  C   UNL A   1      31.415  21.882  24.935  1.00  0.00     0.122 C 
ATOM      9  C   UNL A   1      33.430  22.322  26.112  1.00  0.00     0.096 C 
ATOM     10  C   UNL A   1      32.535  21.651  23.937  1.00  0.00     0.037 C 
ATOM     11  C   UNL A   1      33.625  21.497  27.386  1.00  0.00     0.032 C 
BRANCH   7  12
ATOM     12  C   UNL A   1      31.248  23.402  26.836  1.00  0.00     0.318 C 
ATOM     13  N   UNL A   1      31.310  24.759  26.866  1.00  0.00    -0.331 N 
ATOM     14  H   UNL A   1      31.448  25.181  27.746  1.00  0.00     0.165 HD
ATOM     15  O   UNL A   1      30.489  22.841  27.627  1.00  0.00    -0.249 OA
BRANCH  13  16
ATOM     16  C   UNL A   1      31.192  25.646  25.718  1.00  0.00     0.112 C 
ATOM     17  C   UNL A   1      29.714  25.954  25.446  1.00  0.00     0.036 C 
BRANCH  16  18
ATOM     18  C   UNL A   1      32.038  26.885  25.980  1.00  0.00    -0.012 A 
ATOM     19  C   UNL A   1      32.313  30.581  26.875  1.00  0.00     0.056 C 
ATOM     20  C   UNL A   1      32.477  29.144  26.520  1.00  0.00     0.002 A 
ATOM     21  C   UNL A   1      31.517  28.160  26.416  1.00  0.00     0.021 A 
ATOM     22  S   UNL A   1      34.025  28.538  26.174  1.00  0.00    -0.146 S 
ATOM     23  C   UNL A   1      33.418  26.979  25.812  1.00  0.00     0.007 A 
ATOM     24  C   UNL A   1      34.408  25.950  25.386  1.00  0.00     0.057 C 
ENDBRANCH  16  18
ENDBRANCH  13  16
ENDBRANCH   7  12
ENDBRANCH   3   6
ENDBRANCH   1   2
BRANCH   1  25
ATOM     25  C   UNL A   1      38.127  20.057  24.860  1.00  0.00     0.042 C 
BRANCH  25  26
ATOM     26  C   UNL A   1      39.083  20.141  26.049  1.00  0.00     0.118 C 
BRANCH  26  27
ATOM     27  N   UNL A   1      40.225  19.241  25.960  1.00  0.00    -0.352 N 
ATOM     28  C   UNL A   1      41.569  19.481  26.124  1.00  0.00     0.251 C 
ATOM     29  H   UNL A   1      39.997  18.308  25.747  1.00  0.00     0.163 HD
ATOM     30  O   UNL A   1      42.373  18.573  25.927  1.00  0.00    -0.269 OA
BRANCH  28  31
ATOM     31  C   UNL A   1      42.066  20.826  26.492  1.00  0.00     0.039 A 
ATOM     32  C   UNL A   1      42.397  21.722  25.468  1.00  0.00     0.014 A 
ATOM     33  C   UNL A   1      42.220  21.211  27.826  1.00  0.00     0.014 A 
ATOM     34  C   UNL A   1      42.791  23.027  25.779  1.00  0.00     0.010 A 
ATOM     35  C   UNL A   1      42.548  22.529  28.134  1.00  0.00     0.010 A 
ATOM     36  C   UNL A   1      42.823  23.456  27.115  1.00  0.00    -0.014 A 
BRANCH  36  37
ATOM     37  C   UNL A   1      43.116  24.867  27.478  1.00  0.00     0.031 A 
ATOM     38  C   UNL A   1      44.538  25.323  27.649  1.00  0.00     0.074 A 
ATOM     39  C   UNL A   1      42.104  25.712  27.756  1.00  0.00     0.049 A 
ATOM     40  N   UNL A   1      44.991  26.460  28.116  1.00  0.00    -0.248 NA
ATOM     41  C   UNL A   1      45.589  24.367  27.266  1.00  0.00     0.031 C 
ATOM     42  C   UNL A   1      40.678  25.397  27.651  1.00  0.00     0.029 A 
ATOM     43  N   UNL A   1      42.123  27.010  28.207  1.00  0.00    -0.354 N 
ATOM     44  C   UNL A   1      46.375  26.344  28.113  1.00  0.00     0.074 A 
ATOM     45  C   UNL A   1      46.687  25.016  27.627  1.00  0.00     0.031 C 
ATOM     46  C   UNL A   1      39.961  26.472  28.017  1.00  0.00     0.029 A 
ATOM     47  C   UNL A   1      40.873  27.535  28.429  1.00  0.00     0.049 A 
ATOM     48  H   UNL A   1      42.954  27.516  28.358  1.00  0.00     0.167 HD
ATOM     49  C   UNL A   1      47.305  27.260  28.473  1.00  0.00     0.031 A 
ATOM     50  C   UNL A   1      40.499  28.727  28.929  1.00  0.00     0.031 A 
ATOM     51  C   UNL A   1      47.000  28.587  28.938  1.00  0.00     0.049 A 
ATOM     52  C   UNL A   1      41.548  29.721  29.342  1.00  0.00     0.074 A 
ATOM     53  C   UNL A   1      47.877  29.603  29.277  1.00  0.00     0.029 A 
ATOM     54  N   UNL A   1      45.721  29.082  29.130  1.00  0.00    -0.354 N 
ATOM     55  N   UNL A   1      42.853  29.609  29.293  1.00  0.00    -0.248 NA
ATOM     56  C   UNL A   1      41.072  31.006  29.876  1.00  0.00     0.031 C 
ATOM     57  C   UNL A   1      47.128  30.700  29.714  1.00  0.00     0.029 A 
ATOM     58  C   UNL A   1      45.785  30.383  29.600  1.00  0.00     0.049 A 
ATOM     59  H   UNL A   1      44.890  28.583  28.958  1.00  0.00     0.167 HD
ATOM     60  C   UNL A   1      43.352  30.819  29.758  1.00  0.00     0.074 A 
ATOM     61  C   UNL A   1      42.212  31.652  30.079  1.00  0.00     0.031 C 
ATOM     62  C   UNL A   1      44.643  31.204  29.903  1.00  0.00     0.031 A 
BRANCH  49  63
ATOM     63  C   UNL A   1      48.748  26.851  28.388  1.00  0.00    -0.014 A 
ATOM     64  C   UNL A   1      49.407  26.277  29.488  1.00  0.00     0.009 A 
ATOM     65  C   UNL A   1      49.448  27.008  27.183  1.00  0.00     0.009 A 
ATOM     66  C   UNL A   1      50.748  25.903  29.390  1.00  0.00     0.001 A 
ATOM     67  C   UNL A   1      50.782  26.608  27.080  1.00  0.00     0.001 A 
ATOM     68  C   UNL A   1      51.433  26.064  28.187  1.00  0.00     0.000 A 
ENDBRANCH  49  63
BRANCH  50  69
ATOM     69  C   UNL A   1      39.055  29.056  29.069  1.00  0.00    -0.014 A 
ATOM     70  C   UNL A   1      38.350  29.622  27.997  1.00  0.00     0.009 A 
ATOM     71  C   UNL A   1      38.380  28.811  30.275  1.00  0.00     0.009 A 
ATOM     72  C   UNL A   1      37.002  29.961  28.138  1.00  0.00     0.001 A 
ATOM     73  C   UNL A   1      37.025  29.127  30.404  1.00  0.00     0.001 A 
ATOM     74  C   UNL A   1      36.340  29.709  29.338  1.00  0.00     0.000 A 
ENDBRANCH  50  69
BRANCH  62  75
ATOM     75  C   UNL A   1      44.898  32.605  30.384  1.00  0.00    -0.014 A 
ATOM     76  C   UNL A   1      45.072  32.889  31.746  1.00  0.00     0.009 A 
ATOM     77  C   UNL A   1      45.024  33.644  29.448  1.00  0.00     0.009 A 
ATOM     78  C   UNL A   1      45.349  34.192  32.163  1.00  0.00     0.001 A 
ATOM     79  C   UNL A   1      45.325  34.940  29.866  1.00  0.00     0.001 A 
ATOM     80  C   UNL A   1      45.481  35.215  31.223  1.00  0.00     0.000 A 
ENDBRANCH  62  75
ENDBRANCH  36  37
ENDBRANCH  28  31
ENDBRANCH  26  27
ENDBRANCH  25  26
ENDBRANCH   1  25
TORSDOF 13
ENDMDL
