MODEL 1
REMARK VINA RESULT:     -12.2      0.000      0.000
REMARK SMILES COC(=O)C1=C(C)N(c2ccc(Br)cc2)C(=O)/C1=C\c1ccc(C(=O)NCCCNC(=O)c2ccc(-c3c4nc(c(-c5ccccc5)c5ccc([nH]5)c(-c5ccccc5)c5nc(c(-c6ccccc6)c6ccc3[nH]6)C=C5)C=C4)cc2)cc1
REMARK SMILES IDX 27 1 26 2 24 3 25 4 23 6 20 7 21 8 82 9 22 10 81 11 19 12
REMARK SMILES IDX 5 13 6 14 18 15 7 16 8 17 16 18 17 19 3 20 4 21 2 22 1 23
REMARK SMILES IDX 9 24 10 25 15 26 11 27 14 28 12 29 13 30 28 31 29 32 30 33
REMARK SMILES IDX 31 34 32 36 33 37 34 38 80 39 35 40 79 41 36 42 37 43 38 44
REMARK SMILES IDX 73 45 39 46 78 47 72 48 74 49 40 50 77 51 71 52 70 53 41 55
REMARK SMILES IDX 63 56 48 57 62 58 49 59 52 60 61 61 75 62 50 63 51 64 60 66
REMARK SMILES IDX 76 67 53 68 42 69 43 70 47 71 44 72 46 73 45 74 64 75 65 76
REMARK SMILES IDX 69 77 66 78 68 79 67 80 54 81 55 82 59 83 56 84 58 85 57 86
REMARK H PARENT 26 5 30 35 74 54 52 65
REMARK Flexibility Score: inf
ROOT
ATOM      1  C   UNL A   1      41.445  19.672  27.586  1.00  0.00     0.118 C 
ENDROOT
BRANCH   1   2
ATOM      2  N   UNL A   1      42.028  20.935  28.000  1.00  0.00    -0.352 N 
ATOM      3  C   UNL A   1      41.583  22.230  27.889  1.00  0.00     0.251 C 
ATOM      4  O   UNL A   1      42.267  23.117  28.400  1.00  0.00    -0.269 OA
ATOM      5  H   UNL A   1      42.904  20.850  28.442  1.00  0.00     0.163 HD
BRANCH   3   6
ATOM      6  C   UNL A   1      40.303  22.592  27.221  1.00  0.00     0.039 A 
ATOM      7  C   UNL A   1      37.849  23.362  26.089  1.00  0.00    -0.025 A 
ATOM      8  C   UNL A   1      38.455  24.176  27.045  1.00  0.00     0.009 A 
ATOM      9  C   UNL A   1      38.490  22.195  25.667  1.00  0.00     0.009 A 
ATOM     10  C   UNL A   1      39.676  23.787  27.612  1.00  0.00     0.014 A 
ATOM     11  C   UNL A   1      39.721  21.833  26.206  1.00  0.00     0.014 A 
BRANCH   7  12
ATOM     12  C   UNL A   1      36.583  23.698  25.446  1.00  0.00     0.023 C 
ATOM     13  C   UNL A   1      34.533  23.095  24.154  1.00  0.00     0.092 C 
ATOM     14  C   UNL A   1      33.836  21.951  23.976  1.00  0.00     0.039 C 
ATOM     15  C   UNL A   1      35.693  22.809  24.980  1.00  0.00     0.057 C 
ATOM     16  C   UNL A   1      32.538  21.844  23.244  1.00  0.00     0.066 C 
ATOM     17  N   UNL A   1      34.469  20.891  24.637  1.00  0.00    -0.280 N 
ATOM     18  C   UNL A   1      35.674  21.332  25.244  1.00  0.00     0.263 C 
ATOM     19  O   UNL A   1      36.518  20.695  25.843  1.00  0.00    -0.268 OA
BRANCH  13  20
ATOM     20  C   UNL A   1      34.268  24.419  23.565  1.00  0.00     0.340 C 
ATOM     21  O   UNL A   1      34.403  24.663  22.374  1.00  0.00    -0.246 OA
BRANCH  20  22
ATOM     22  O   UNL A   1      33.916  25.317  24.516  1.00  0.00    -0.465 OA
ATOM     23  C   UNL A   1      33.752  26.643  24.010  1.00  0.00     0.282 C 
ENDBRANCH  20  22
ENDBRANCH  13  20
BRANCH  17  24
ATOM     24  C   UNL A   1      34.030  19.547  24.802  1.00  0.00     0.049 A 
ATOM     25  C   UNL A   1      34.795  18.504  24.256  1.00  0.00     0.028 A 
ATOM     26  C   UNL A   1      32.877  19.217  25.524  1.00  0.00     0.028 A 
ATOM     27  C   UNL A   1      34.460  17.166  24.482  1.00  0.00     0.018 A 
ATOM     28  C   UNL A   1      32.530  17.878  25.743  1.00  0.00     0.018 A 
ATOM     29  C   UNL A   1      33.333  16.859  25.235  1.00  0.00     0.018 A 
ATOM     30  Br  UNL A   1      32.897  15.052  25.574  1.00  0.00    -0.051 Br
ENDBRANCH  17  24
ENDBRANCH   7  12
ENDBRANCH   3   6
ENDBRANCH   1   2
BRANCH   1  31
ATOM     31  C   UNL A   1      42.394  18.905  26.663  1.00  0.00     0.042 C 
BRANCH  31  32
ATOM     32  C   UNL A   1      42.569  19.560  25.296  1.00  0.00     0.118 C 
BRANCH  32  33
ATOM     33  N   UNL A   1      43.798  19.130  24.645  1.00  0.00    -0.352 N 
ATOM     34  C   UNL A   1      44.905  19.841  24.268  1.00  0.00     0.251 C 
ATOM     35  H   UNL A   1      43.839  18.168  24.442  1.00  0.00     0.163 HD
ATOM     36  O   UNL A   1      45.714  19.325  23.501  1.00  0.00    -0.269 OA
BRANCH  34  37
ATOM     37  C   UNL A   1      45.143  21.214  24.763  1.00  0.00     0.039 A 
ATOM     38  C   UNL A   1      45.094  22.265  23.843  1.00  0.00     0.014 A 
ATOM     39  C   UNL A   1      45.478  21.472  26.095  1.00  0.00     0.014 A 
ATOM     40  C   UNL A   1      45.338  23.571  24.266  1.00  0.00     0.010 A 
ATOM     41  C   UNL A   1      45.643  22.786  26.533  1.00  0.00     0.010 A 
ATOM     42  C   UNL A   1      45.582  23.848  25.622  1.00  0.00    -0.014 A 
BRANCH  42  43
ATOM     43  C   UNL A   1      45.732  25.252  26.080  1.00  0.00     0.031 A 
ATOM     44  C   UNL A   1      47.074  25.927  26.101  1.00  0.00     0.074 A 
ATOM     45  C   UNL A   1      44.638  25.916  26.504  1.00  0.00     0.049 A 
ATOM     46  N   UNL A   1      47.369  27.163  26.417  1.00  0.00    -0.248 NA
ATOM     47  C   UNL A   1      48.241  25.105  25.741  1.00  0.00     0.031 C 
ATOM     48  C   UNL A   1      43.289  25.351  26.590  1.00  0.00     0.029 A 
ATOM     49  N   UNL A   1      44.485  27.209  26.933  1.00  0.00    -0.354 N 
ATOM     50  C   UNL A   1      48.750  27.265  26.304  1.00  0.00     0.074 A 
ATOM     51  C   UNL A   1      49.240  25.954  25.941  1.00  0.00     0.031 C 
ATOM     52  C   UNL A   1      42.439  26.304  26.996  1.00  0.00     0.029 A 
ATOM     53  C   UNL A   1      43.187  27.533  27.241  1.00  0.00     0.049 A 
ATOM     54  H   UNL A   1      45.233  27.843  27.012  1.00  0.00     0.167 HD
ATOM     55  C   UNL A   1      49.538  28.356  26.471  1.00  0.00     0.031 A 
ATOM     56  C   UNL A   1      42.652  28.691  27.671  1.00  0.00     0.031 A 
ATOM     57  C   UNL A   1      49.046  29.658  26.842  1.00  0.00     0.049 A 
ATOM     58  C   UNL A   1      43.545  29.885  27.846  1.00  0.00     0.074 A 
ATOM     59  C   UNL A   1      49.752  30.841  26.977  1.00  0.00     0.029 A 
ATOM     60  N   UNL A   1      47.725  29.947  27.154  1.00  0.00    -0.354 N 
ATOM     61  N   UNL A   1      44.836  29.988  27.645  1.00  0.00    -0.248 NA
ATOM     62  C   UNL A   1      42.899  31.127  28.289  1.00  0.00     0.031 C 
ATOM     63  C   UNL A   1      48.872  31.828  27.436  1.00  0.00     0.029 A 
ATOM     64  C   UNL A   1      47.602  31.279  27.516  1.00  0.00     0.049 A 
ATOM     65  H   UNL A   1      46.984  29.299  27.122  1.00  0.00     0.167 HD
ATOM     66  C   UNL A   1      45.156  31.311  27.919  1.00  0.00     0.074 A 
ATOM     67  C   UNL A   1      43.917  31.976  28.267  1.00  0.00     0.031 C 
ATOM     68  C   UNL A   1      46.367  31.922  27.888  1.00  0.00     0.031 A 
BRANCH  55  69
ATOM     69  C   UNL A   1      51.021  28.179  26.277  1.00  0.00    -0.014 A 
ATOM     70  C   UNL A   1      51.646  28.502  25.060  1.00  0.00     0.009 A 
ATOM     71  C   UNL A   1      51.811  27.712  27.338  1.00  0.00     0.009 A 
ATOM     72  C   UNL A   1      53.021  28.320  24.899  1.00  0.00     0.001 A 
ATOM     73  C   UNL A   1      53.192  27.563  27.185  1.00  0.00     0.001 A 
ATOM     74  C   UNL A   1      53.794  27.855  25.963  1.00  0.00     0.000 A 
ENDBRANCH  55  69
BRANCH  56  75
ATOM     75  C   UNL A   1      41.194  28.775  27.950  1.00  0.00    -0.014 A 
ATOM     76  C   UNL A   1      40.294  29.183  26.954  1.00  0.00     0.009 A 
ATOM     77  C   UNL A   1      40.694  28.436  29.217  1.00  0.00     0.009 A 
ATOM     78  C   UNL A   1      38.929  29.277  27.229  1.00  0.00     0.001 A 
ATOM     79  C   UNL A   1      39.325  28.498  29.480  1.00  0.00     0.001 A 
ATOM     80  C   UNL A   1      38.444  28.928  28.489  1.00  0.00     0.000 A 
ENDBRANCH  56  75
BRANCH  68  81
ATOM     81  C   UNL A   1      46.395  33.388  28.227  1.00  0.00    -0.014 A 
ATOM     82  C   UNL A   1      46.222  34.373  27.240  1.00  0.00     0.009 A 
ATOM     83  C   UNL A   1      46.606  33.791  29.555  1.00  0.00     0.009 A 
ATOM     84  C   UNL A   1      46.320  35.728  27.567  1.00  0.00     0.001 A 
ATOM     85  C   UNL A   1      46.665  35.146  29.885  1.00  0.00     0.001 A 
ATOM     86  C   UNL A   1      46.539  36.112  28.889  1.00  0.00     0.000 A 
ENDBRANCH  68  81
ENDBRANCH  42  43
ENDBRANCH  34  37
ENDBRANCH  32  33
ENDBRANCH  31  32
ENDBRANCH   1  31
TORSDOF 14
ENDMDL
MODEL 2
REMARK VINA RESULT:     -12.1      4.097      6.597
REMARK SMILES COC(=O)C1=C(C)N(c2ccc(Br)cc2)C(=O)/C1=C\c1ccc(C(=O)NCCCNC(=O)c2ccc(-c3c4nc(c(-c5ccccc5)c5ccc([nH]5)c(-c5ccccc5)c5nc(c(-c6ccccc6)c6ccc3[nH]6)C=C5)C=C4)cc2)cc1
REMARK SMILES IDX 27 1 26 2 24 3 25 4 23 6 20 7 21 8 82 9 22 10 81 11 19 12
REMARK SMILES IDX 5 13 6 14 18 15 7 16 8 17 16 18 17 19 3 20 4 21 2 22 1 23
REMARK SMILES IDX 9 24 10 25 15 26 11 27 14 28 12 29 13 30 28 31 29 32 30 33
REMARK SMILES IDX 31 34 32 36 33 37 34 38 80 39 35 40 79 41 36 42 37 43 38 44
REMARK SMILES IDX 73 45 39 46 78 47 72 48 74 49 40 50 77 51 71 52 70 53 41 55
REMARK SMILES IDX 63 56 48 57 62 58 49 59 52 60 61 61 75 62 50 63 51 64 60 66
REMARK SMILES IDX 76 67 53 68 42 69 43 70 47 71 44 72 46 73 45 74 64 75 65 76
REMARK SMILES IDX 69 77 66 78 68 79 67 80 54 81 55 82 59 83 56 84 58 85 57 86
REMARK H PARENT 26 5 30 35 74 54 52 65
REMARK Flexibility Score: inf
ROOT
ATOM      1  C   UNL A   1      40.258  26.764  26.928  1.00  0.00     0.118 C 
ENDROOT
BRANCH   1   2
ATOM      2  N   UNL A   1      40.786  26.920  28.271  1.00  0.00    -0.352 N 
ATOM      3  C   UNL A   1      40.409  27.727  29.317  1.00  0.00     0.251 C 
ATOM      4  O   UNL A   1      41.007  27.599  30.384  1.00  0.00    -0.269 OA
ATOM      5  H   UNL A   1      41.558  26.341  28.471  1.00  0.00     0.163 HD
BRANCH   3   6
ATOM      6  C   UNL A   1      39.293  28.707  29.221  1.00  0.00     0.039 A 
ATOM      7  C   UNL A   1      37.094  30.452  29.118  1.00  0.00    -0.025 A 
ATOM      8  C   UNL A   1      37.172  29.498  30.132  1.00  0.00     0.009 A 
ATOM      9  C   UNL A   1      38.132  30.565  28.191  1.00  0.00     0.009 A 
ATOM     10  C   UNL A   1      38.267  28.626  30.178  1.00  0.00     0.014 A 
ATOM     11  C   UNL A   1      39.236  29.720  28.264  1.00  0.00     0.014 A 
BRANCH   7  12
ATOM     12  C   UNL A   1      35.991  31.402  29.005  1.00  0.00     0.023 C 
ATOM     13  C   UNL A   1      33.889  32.229  27.940  1.00  0.00     0.092 C 
ATOM     14  C   UNL A   1      32.903  31.644  27.226  1.00  0.00     0.039 C 
ATOM     15  C   UNL A   1      34.899  31.231  28.244  1.00  0.00     0.057 C 
ATOM     16  C   UNL A   1      31.647  32.321  26.783  1.00  0.00     0.066 C 
ATOM     17  N   UNL A   1      33.194  30.289  27.020  1.00  0.00    -0.280 N 
ATOM     18  C   UNL A   1      34.457  29.962  27.577  1.00  0.00     0.263 C 
ATOM     19  O   UNL A   1      35.072  28.914  27.541  1.00  0.00    -0.268 OA
BRANCH  13  20
ATOM     20  C   UNL A   1      34.024  33.651  28.304  1.00  0.00     0.340 C 
ATOM     21  O   UNL A   1      34.559  34.480  27.582  1.00  0.00    -0.246 OA
BRANCH  20  22
ATOM     22  O   UNL A   1      33.532  33.888  29.543  1.00  0.00    -0.465 OA
ATOM     23  C   UNL A   1      33.150  35.249  29.750  1.00  0.00     0.282 C 
ENDBRANCH  20  22
ENDBRANCH  13  20
BRANCH  17  24
ATOM     24  C   UNL A   1      32.390  29.281  26.417  1.00  0.00     0.049 A 
ATOM     25  C   UNL A   1      32.260  29.252  25.019  1.00  0.00     0.028 A 
ATOM     26  C   UNL A   1      31.747  28.287  27.165  1.00  0.00     0.028 A 
ATOM     27  C   UNL A   1      31.568  28.220  24.379  1.00  0.00     0.018 A 
ATOM     28  C   UNL A   1      31.042  27.258  26.528  1.00  0.00     0.018 A 
ATOM     29  C   UNL A   1      30.971  27.220  25.137  1.00  0.00     0.018 A 
ATOM     30  Br  UNL A   1      30.066  25.804  24.274  1.00  0.00    -0.051 Br
ENDBRANCH  17  24
ENDBRANCH   7  12
ENDBRANCH   3   6
ENDBRANCH   1   2
BRANCH   1  31
ATOM     31  C   UNL A   1      39.843  25.315  26.665  1.00  0.00     0.042 C 
BRANCH  31  32
ATOM     32  C   UNL A   1      40.367  24.336  27.711  1.00  0.00     0.118 C 
BRANCH  32  33
ATOM     33  N   UNL A   1      41.092  23.232  27.102  1.00  0.00    -0.352 N 
ATOM     34  C   UNL A   1      42.261  23.215  26.389  1.00  0.00     0.251 C 
ATOM     35  H   UNL A   1      40.671  22.350  27.220  1.00  0.00     0.163 HD
ATOM     36  O   UNL A   1      42.555  22.211  25.747  1.00  0.00    -0.269 OA
BRANCH  34  37
ATOM     37  C   UNL A   1      43.171  24.381  26.379  1.00  0.00     0.039 A 
ATOM     38  C   UNL A   1      43.775  24.756  27.583  1.00  0.00     0.014 A 
ATOM     39  C   UNL A   1      43.383  25.144  25.228  1.00  0.00     0.014 A 
ATOM     40  C   UNL A   1      44.619  25.865  27.621  1.00  0.00     0.010 A 
ATOM     41  C   UNL A   1      44.289  26.204  25.248  1.00  0.00     0.010 A 
ATOM     42  C   UNL A   1      44.911  26.580  26.447  1.00  0.00    -0.014 A 
BRANCH  42  43
ATOM     43  C   UNL A   1      45.895  27.691  26.475  1.00  0.00     0.031 A 
ATOM     44  C   UNL A   1      47.371  27.428  26.374  1.00  0.00     0.074 A 
ATOM     45  C   UNL A   1      45.444  28.953  26.616  1.00  0.00     0.049 A 
ATOM     46  N   UNL A   1      48.359  28.288  26.325  1.00  0.00    -0.248 NA
ATOM     47  C   UNL A   1      47.799  26.021  26.345  1.00  0.00     0.031 C 
ATOM     48  C   UNL A   1      44.039  29.333  26.785  1.00  0.00     0.029 A 
ATOM     49  N   UNL A   1      46.116  30.148  26.631  1.00  0.00    -0.354 N 
ATOM     50  C   UNL A   1      49.521  27.528  26.270  1.00  0.00     0.074 A 
ATOM     51  C   UNL A   1      49.120  26.140  26.343  1.00  0.00     0.031 C 
ATOM     52  C   UNL A   1      43.949  30.669  26.838  1.00  0.00     0.029 A 
ATOM     53  C   UNL A   1      45.290  31.238  26.751  1.00  0.00     0.049 A 
ATOM     54  H   UNL A   1      47.095  30.218  26.562  1.00  0.00     0.167 HD
ATOM     55  C   UNL A   1      50.805  27.947  26.152  1.00  0.00     0.031 A 
ATOM     56  C   UNL A   1      45.575  32.553  26.784  1.00  0.00     0.031 A 
ATOM     57  C   UNL A   1      51.200  29.331  26.089  1.00  0.00     0.049 A 
ATOM     58  C   UNL A   1      47.004  32.992  26.649  1.00  0.00     0.074 A 
ATOM     59  C   UNL A   1      52.467  29.859  25.907  1.00  0.00     0.029 A 
ATOM     60  N   UNL A   1      50.335  30.408  26.221  1.00  0.00    -0.354 N 
ATOM     61  N   UNL A   1      48.084  32.262  26.504  1.00  0.00    -0.248 NA
ATOM     62  C   UNL A   1      47.250  34.440  26.664  1.00  0.00     0.031 C 
ATOM     63  C   UNL A   1      52.378  31.253  25.999  1.00  0.00     0.029 A 
ATOM     64  C   UNL A   1      51.046  31.597  26.162  1.00  0.00     0.049 A 
ATOM     65  H   UNL A   1      49.361  30.338  26.339  1.00  0.00     0.167 HD
ATOM     66  C   UNL A   1      49.135  33.161  26.391  1.00  0.00     0.074 A 
ATOM     67  C   UNL A   1      48.557  34.488  26.450  1.00  0.00     0.031 C 
ATOM     68  C   UNL A   1      50.462  32.911  26.252  1.00  0.00     0.031 A 
BRANCH  55  69
ATOM     69  C   UNL A   1      51.879  26.892  26.107  1.00  0.00    -0.014 A 
ATOM     70  C   UNL A   1      52.197  26.217  24.917  1.00  0.00     0.009 A 
ATOM     71  C   UNL A   1      52.607  26.591  27.269  1.00  0.00     0.009 A 
ATOM     72  C   UNL A   1      53.191  25.235  24.902  1.00  0.00     0.001 A 
ATOM     73  C   UNL A   1      53.624  25.633  27.243  1.00  0.00     0.001 A 
ATOM     74  C   UNL A   1      53.906  24.947  26.063  1.00  0.00     0.000 A 
ENDBRANCH  55  69
BRANCH  56  75
ATOM     75  C   UNL A   1      44.479  33.546  26.938  1.00  0.00    -0.014 A 
ATOM     76  C   UNL A   1      44.013  33.908  28.211  1.00  0.00     0.009 A 
ATOM     77  C   UNL A   1      43.898  34.143  25.809  1.00  0.00     0.009 A 
ATOM     78  C   UNL A   1      42.970  34.827  28.347  1.00  0.00     0.001 A 
ATOM     79  C   UNL A   1      42.880  35.087  25.949  1.00  0.00     0.001 A 
ATOM     80  C   UNL A   1      42.409  35.420  27.217  1.00  0.00     0.000 A 
ENDBRANCH  56  75
BRANCH  68  81
ATOM     81  C   UNL A   1      51.368  34.109  26.141  1.00  0.00    -0.014 A 
ATOM     82  C   UNL A   1      51.963  34.686  27.275  1.00  0.00     0.009 A 
ATOM     83  C   UNL A   1      51.623  34.674  24.881  1.00  0.00     0.009 A 
ATOM     84  C   UNL A   1      52.744  35.838  27.155  1.00  0.00     0.001 A 
ATOM     85  C   UNL A   1      52.436  35.801  24.760  1.00  0.00     0.001 A 
ATOM     86  C   UNL A   1      52.981  36.392  25.898  1.00  0.00     0.000 A 
ENDBRANCH  68  81
ENDBRANCH  42  43
ENDBRANCH  34  37
ENDBRANCH  32  33
ENDBRANCH  31  32
ENDBRANCH   1  31
TORSDOF 14
ENDMDL
MODEL 3
REMARK VINA RESULT:     -12.1      6.939     13.304
REMARK SMILES COC(=O)C1=C(C)N(c2ccc(Br)cc2)C(=O)/C1=C\c1ccc(C(=O)NCCCNC(=O)c2ccc(-c3c4nc(c(-c5ccccc5)c5ccc([nH]5)c(-c5ccccc5)c5nc(c(-c6ccccc6)c6ccc3[nH]6)C=C5)C=C4)cc2)cc1
REMARK SMILES IDX 27 1 26 2 24 3 25 4 23 6 20 7 21 8 82 9 22 10 81 11 19 12
REMARK SMILES IDX 5 13 6 14 18 15 7 16 8 17 16 18 17 19 3 20 4 21 2 22 1 23
REMARK SMILES IDX 9 24 10 25 15 26 11 27 14 28 12 29 13 30 28 31 29 32 30 33
REMARK SMILES IDX 31 34 32 36 33 37 34 38 80 39 35 40 79 41 36 42 37 43 38 44
REMARK SMILES IDX 73 45 39 46 78 47 72 48 74 49 40 50 77 51 71 52 70 53 41 55
REMARK SMILES IDX 63 56 48 57 62 58 49 59 52 60 61 61 75 62 50 63 51 64 60 66
REMARK SMILES IDX 76 67 53 68 42 69 43 70 47 71 44 72 46 73 45 74 64 75 65 76
REMARK SMILES IDX 69 77 66 78 68 79 67 80 54 81 55 82 59 83 56 84 58 85 57 86
REMARK H PARENT 26 5 30 35 74 54 52 65
REMARK Flexibility Score: inf
ROOT
ATOM      1  C   UNL A   1      33.723  36.275  32.553  1.00  0.00     0.118 C 
ENDROOT
BRANCH   1   2
ATOM      2  N   UNL A   1      33.423  34.861  32.689  1.00  0.00    -0.352 N 
ATOM      3  C   UNL A   1      34.132  33.823  33.243  1.00  0.00     0.251 C 
ATOM      4  O   UNL A   1      33.594  32.717  33.280  1.00  0.00    -0.269 OA
ATOM      5  H   UNL A   1      32.552  34.596  32.315  1.00  0.00     0.163 HD
BRANCH   3   6
ATOM      6  C   UNL A   1      35.489  33.992  33.831  1.00  0.00     0.039 A 
ATOM      7  C   UNL A   1      37.981  34.335  35.082  1.00  0.00    -0.025 A 
ATOM      8  C   UNL A   1      36.889  33.892  35.827  1.00  0.00     0.009 A 
ATOM      9  C   UNL A   1      37.840  34.558  33.711  1.00  0.00     0.009 A 
ATOM     10  C   UNL A   1      35.646  33.727  35.202  1.00  0.00     0.014 A 
ATOM     11  C   UNL A   1      36.612  34.356  33.087  1.00  0.00     0.014 A 
BRANCH   7  12
ATOM     12  C   UNL A   1      39.310  34.524  35.656  1.00  0.00     0.023 C 
ATOM     13  C   UNL A   1      41.429  33.658  36.653  1.00  0.00     0.092 C 
ATOM     14  C   UNL A   1      42.085  32.479  36.589  1.00  0.00     0.039 C 
ATOM     15  C   UNL A   1      40.194  33.544  35.898  1.00  0.00     0.057 C 
ATOM     16  C   UNL A   1      43.433  32.215  37.179  1.00  0.00     0.066 C 
ATOM     17  N   UNL A   1      41.353  31.558  35.831  1.00  0.00    -0.280 N 
ATOM     18  C   UNL A   1      40.124  32.128  35.408  1.00  0.00     0.263 C 
ATOM     19  O   UNL A   1      39.205  31.621  34.795  1.00  0.00    -0.268 OA
BRANCH  13  20
ATOM     20  C   UNL A   1      41.802  34.863  37.414  1.00  0.00     0.340 C 
ATOM     21  O   UNL A   1      42.793  35.535  37.162  1.00  0.00    -0.246 OA
BRANCH  20  22
ATOM     22  O   UNL A   1      40.944  35.082  38.439  1.00  0.00    -0.465 OA
ATOM     23  C   UNL A   1      41.486  35.920  39.461  1.00  0.00     0.282 C 
ENDBRANCH  20  22
ENDBRANCH  13  20
BRANCH  17  24
ATOM     24  C   UNL A   1      41.714  30.243  35.422  1.00  0.00     0.049 A 
ATOM     25  C   UNL A   1      42.301  30.054  34.160  1.00  0.00     0.028 A 
ATOM     26  C   UNL A   1      41.542  29.126  36.248  1.00  0.00     0.028 A 
ATOM     27  C   UNL A   1      42.767  28.798  33.761  1.00  0.00     0.018 A 
ATOM     28  C   UNL A   1      41.996  27.863  35.847  1.00  0.00     0.018 A 
ATOM     29  C   UNL A   1      42.622  27.710  34.612  1.00  0.00     0.018 A 
ATOM     30  Br  UNL A   1      43.284  26.018  34.091  1.00  0.00    -0.051 Br
ENDBRANCH  17  24
ENDBRANCH   7  12
ENDBRANCH   3   6
ENDBRANCH   1   2
BRANCH   1  31
ATOM     31  C   UNL A   1      32.995  36.878  31.349  1.00  0.00     0.042 C 
BRANCH  31  32
ATOM     32  C   UNL A   1      33.615  36.489  30.011  1.00  0.00     0.118 C 
BRANCH  32  33
ATOM     33  N   UNL A   1      32.804  35.508  29.305  1.00  0.00    -0.352 N 
ATOM     34  C   UNL A   1      33.153  34.337  28.688  1.00  0.00     0.251 C 
ATOM     35  H   UNL A   1      31.844  35.723  29.265  1.00  0.00     0.163 HD
ATOM     36  O   UNL A   1      32.349  33.798  27.932  1.00  0.00    -0.269 OA
BRANCH  34  37
ATOM     37  C   UNL A   1      34.476  33.715  28.912  1.00  0.00     0.039 A 
ATOM     38  C   UNL A   1      35.492  33.974  27.988  1.00  0.00     0.014 A 
ATOM     39  C   UNL A   1      34.708  32.833  29.972  1.00  0.00     0.014 A 
ATOM     40  C   UNL A   1      36.745  33.385  28.150  1.00  0.00     0.010 A 
ATOM     41  C   UNL A   1      35.983  32.308  30.178  1.00  0.00     0.010 A 
ATOM     42  C   UNL A   1      37.013  32.573  29.266  1.00  0.00    -0.014 A 
BRANCH  42  43
ATOM     43  C   UNL A   1      38.380  32.039  29.488  1.00  0.00     0.031 A 
ATOM     44  C   UNL A   1      39.436  32.861  30.173  1.00  0.00     0.074 A 
ATOM     45  C   UNL A   1      38.673  30.801  29.043  1.00  0.00     0.049 A 
ATOM     46  N   UNL A   1      40.660  32.523  30.497  1.00  0.00    -0.248 NA
ATOM     47  C   UNL A   1      39.083  34.245  30.523  1.00  0.00     0.031 C 
ATOM     48  C   UNL A   1      37.753  29.928  28.310  1.00  0.00     0.029 A 
ATOM     49  N   UNL A   1      39.821  30.059  29.150  1.00  0.00    -0.354 N 
ATOM     50  C   UNL A   1      41.224  33.653  31.077  1.00  0.00     0.074 A 
ATOM     51  C   UNL A   1      40.228  34.700  31.014  1.00  0.00     0.031 C 
ATOM     52  C   UNL A   1      38.355  28.754  28.075  1.00  0.00     0.029 A 
ATOM     53  C   UNL A   1      39.715  28.805  28.602  1.00  0.00     0.049 A 
ATOM     54  H   UNL A   1      40.642  30.393  29.578  1.00  0.00     0.167 HD
ATOM     55  C   UNL A   1      42.455  33.800  31.626  1.00  0.00     0.031 A 
ATOM     56  C   UNL A   1      40.609  27.802  28.531  1.00  0.00     0.031 A 
ATOM     57  C   UNL A   1      43.447  32.757  31.677  1.00  0.00     0.049 A 
ATOM     58  C   UNL A   1      41.964  27.989  29.149  1.00  0.00     0.074 A 
ATOM     59  C   UNL A   1      44.700  32.786  32.267  1.00  0.00     0.029 A 
ATOM     60  N   UNL A   1      43.306  31.501  31.104  1.00  0.00    -0.354 N 
ATOM     61  N   UNL A   1      42.450  29.033  29.777  1.00  0.00    -0.248 NA
ATOM     62  C   UNL A   1      42.887  26.850  29.065  1.00  0.00     0.031 C 
ATOM     63  C   UNL A   1      45.342  31.574  31.990  1.00  0.00     0.029 A 
ATOM     64  C   UNL A   1      44.462  30.760  31.294  1.00  0.00     0.049 A 
ATOM     65  H   UNL A   1      42.502  31.184  30.632  1.00  0.00     0.167 HD
ATOM     66  C   UNL A   1      43.728  28.671  30.179  1.00  0.00     0.074 A 
ATOM     67  C   UNL A   1      43.926  27.300  29.753  1.00  0.00     0.031 C 
ATOM     68  C   UNL A   1      44.657  29.407  30.840  1.00  0.00     0.031 A 
BRANCH  55  69
ATOM     69  C   UNL A   1      42.804  35.150  32.196  1.00  0.00    -0.014 A 
ATOM     70  C   UNL A   1      42.438  35.513  33.503  1.00  0.00     0.009 A 
ATOM     71  C   UNL A   1      43.540  36.062  31.424  1.00  0.00     0.009 A 
ATOM     72  C   UNL A   1      42.764  36.775  34.007  1.00  0.00     0.001 A 
ATOM     73  C   UNL A   1      43.895  37.310  31.942  1.00  0.00     0.001 A 
ATOM     74  C   UNL A   1      43.496  37.670  33.228  1.00  0.00     0.000 A 
ENDBRANCH  55  69
BRANCH  56  75
ATOM     75  C   UNL A   1      40.242  26.528  27.859  1.00  0.00    -0.014 A 
ATOM     76  C   UNL A   1      40.686  26.248  26.558  1.00  0.00     0.009 A 
ATOM     77  C   UNL A   1      39.450  25.578  28.523  1.00  0.00     0.009 A 
ATOM     78  C   UNL A   1      40.321  25.058  25.926  1.00  0.00     0.001 A 
ATOM     79  C   UNL A   1      39.115  24.373  27.903  1.00  0.00     0.001 A 
ATOM     80  C   UNL A   1      39.542  24.118  26.601  1.00  0.00     0.000 A 
ENDBRANCH  56  75
BRANCH  68  81
ATOM     81  C   UNL A   1      45.963  28.726  31.151  1.00  0.00    -0.014 A 
ATOM     82  C   UNL A   1      46.147  27.998  32.339  1.00  0.00     0.009 A 
ATOM     83  C   UNL A   1      47.032  28.823  30.245  1.00  0.00     0.009 A 
ATOM     84  C   UNL A   1      47.389  27.433  32.638  1.00  0.00     0.001 A 
ATOM     85  C   UNL A   1      48.259  28.224  30.529  1.00  0.00     0.001 A 
ATOM     86  C   UNL A   1      48.442  27.545  31.732  1.00  0.00     0.000 A 
ENDBRANCH  68  81
ENDBRANCH  42  43
ENDBRANCH  34  37
ENDBRANCH  32  33
ENDBRANCH  31  32
ENDBRANCH   1  31
TORSDOF 14
ENDMDL
