MODEL 1
REMARK VINA RESULT:     -12.3      0.000      0.000
REMARK SMILES COc1ccc(Cl)c2c1N[C@@H](c1ccc(C(=O)NCCCNC(=O)c3ccc(-c4c5nc(c(-c6ccccc6)c6ccc([nH]6)c(-c6ccccc6)c6nc(c(-c7ccccc7)c7ccc4[nH]7)C=C6)C=C5)cc3)cc1)[C@@H]1CC=C[C@H]21
REMARK SMILES IDX 20 1 19 2 18 3 16 4 17 5 15 7 12 8 13 9 74 10 14 11 73 12
REMARK SMILES IDX 11 13 3 14 4 15 9 16 5 17 8 18 10 19 6 20 79 21 7 23 75 24
REMARK SMILES IDX 78 25 76 26 77 27 2 28 1 29 21 30 22 31 23 32 24 34 25 35
REMARK SMILES IDX 26 36 72 37 27 38 71 39 28 40 29 41 30 42 65 43 31 44 70 45
REMARK SMILES IDX 64 46 66 47 32 48 69 49 63 50 62 51 33 53 55 54 40 55 54 56
REMARK SMILES IDX 41 57 44 58 53 59 67 60 42 61 43 62 52 64 68 65 45 66 34 67
REMARK SMILES IDX 35 68 39 69 36 70 38 71 37 72 56 73 57 74 61 75 58 76 60 77
REMARK SMILES IDX 59 78 46 79 47 80 51 81 48 82 50 83 49 84
REMARK H PARENT 18 6 10 22 22 33 66 52 44 63
REMARK Flexibility Score: inf
ROOT
ATOM      1  C   UNL A   1      35.504  32.568  28.000  1.00  0.00     0.042 C 
ENDROOT
BRANCH   1   2
ATOM      2  C   UNL A   1      34.598  31.338  28.003  1.00  0.00     0.118 C 
BRANCH   2   3
ATOM      3  N   UNL A   1      33.317  31.652  27.403  1.00  0.00    -0.352 N 
ATOM      4  C   UNL A   1      32.427  30.892  26.690  1.00  0.00     0.251 C 
ATOM      5  O   UNL A   1      31.403  31.444  26.290  1.00  0.00    -0.269 OA
ATOM      6  H   UNL A   1      33.034  32.587  27.531  1.00  0.00     0.163 HD
BRANCH   4   7
ATOM      7  C   UNL A   1      32.613  29.436  26.450  1.00  0.00     0.039 A 
ATOM      8  C   UNL A   1      32.905  26.620  26.242  1.00  0.00    -0.025 A 
ATOM      9  C   UNL A   1      31.924  27.187  27.071  1.00  0.00     0.006 A 
ATOM     10  C   UNL A   1      33.690  27.491  25.474  1.00  0.00     0.006 A 
ATOM     11  C   UNL A   1      31.765  28.573  27.153  1.00  0.00     0.014 A 
ATOM     12  C   UNL A   1      33.548  28.878  25.578  1.00  0.00     0.014 A 
BRANCH   8  13
ATOM     13  C   UNL A   1      33.128  25.114  26.130  1.00  0.00     0.114 C 
ATOM     14  C   UNL A   1      36.319  23.269  25.595  1.00  0.00     0.142 A 
ATOM     15  C   UNL A   1      36.795  21.999  25.279  1.00  0.00     0.050 A 
ATOM     16  C   UNL A   1      34.946  23.572  25.504  1.00  0.00     0.083 A 
ATOM     17  C   UNL A   1      35.898  21.002  24.908  1.00  0.00     0.025 A 
ATOM     18  C   UNL A   1      34.031  22.561  25.150  1.00  0.00     0.005 A 
ATOM     19  N   UNL A   1      34.502  24.857  25.751  1.00  0.00    -0.375 N 
ATOM     20  C   UNL A   1      34.528  21.278  24.845  1.00  0.00     0.047 A 
ATOM     21  C   UNL A   1      32.564  22.901  25.018  1.00  0.00     0.051 C 
ATOM     22  H   UNL A   1      35.131  25.610  25.667  1.00  0.00     0.161 HD
ATOM     23  Cl  UNL A   1      33.495  19.990  24.325  1.00  0.00    -0.084 Cl
ATOM     24  C   UNL A   1      32.199  24.409  25.117  1.00  0.00     0.031 C 
ATOM     25  C   UNL A   1      31.677  22.313  26.089  1.00  0.00    -0.023 C 
ATOM     26  C   UNL A   1      30.721  24.373  25.551  1.00  0.00     0.034 C 
ATOM     27  C   UNL A   1      30.651  23.125  26.373  1.00  0.00    -0.030 C 
BRANCH  14  28
ATOM     28  O   UNL A   1      37.266  24.221  25.899  1.00  0.00    -0.495 OA
ATOM     29  C   UNL A   1      38.437  23.666  26.501  1.00  0.00     0.278 C 
ENDBRANCH  14  28
ENDBRANCH   8  13
ENDBRANCH   4   7
ENDBRANCH   2   3
ENDBRANCH   1   2
BRANCH   1  30
ATOM     30  C   UNL A   1      36.501  32.563  29.152  1.00  0.00     0.118 C 
BRANCH  30  31
ATOM     31  N   UNL A   1      36.085  31.657  30.211  1.00  0.00    -0.352 N 
ATOM     32  C   UNL A   1      36.589  30.424  30.538  1.00  0.00     0.251 C 
ATOM     33  H   UNL A   1      35.338  31.973  30.770  1.00  0.00     0.163 HD
ATOM     34  O   UNL A   1      35.961  29.668  31.267  1.00  0.00    -0.269 OA
BRANCH  32  35
ATOM     35  C   UNL A   1      37.905  30.022  30.005  1.00  0.00     0.039 A 
ATOM     36  C   UNL A   1      38.057  29.825  28.632  1.00  0.00     0.014 A 
ATOM     37  C   UNL A   1      38.976  29.815  30.880  1.00  0.00     0.014 A 
ATOM     38  C   UNL A   1      39.303  29.454  28.126  1.00  0.00     0.010 A 
ATOM     39  C   UNL A   1      40.228  29.505  30.372  1.00  0.00     0.010 A 
ATOM     40  C   UNL A   1      40.397  29.307  28.993  1.00  0.00    -0.014 A 
BRANCH  40  41
ATOM     41  C   UNL A   1      41.725  28.886  28.503  1.00  0.00     0.031 A 
ATOM     42  C   UNL A   1      41.958  27.441  28.171  1.00  0.00     0.074 A 
ATOM     43  C   UNL A   1      42.727  29.781  28.423  1.00  0.00     0.049 A 
ATOM     44  N   UNL A   1      43.073  26.842  27.843  1.00  0.00    -0.248 NA
ATOM     45  C   UNL A   1      40.788  26.546  28.230  1.00  0.00     0.031 C 
ATOM     46  C   UNL A   1      42.613  31.209  28.716  1.00  0.00     0.029 A 
ATOM     47  N   UNL A   1      44.043  29.613  28.077  1.00  0.00    -0.354 N 
ATOM     48  C   UNL A   1      42.740  25.507  27.663  1.00  0.00     0.074 A 
ATOM     49  C   UNL A   1      41.332  25.369  27.960  1.00  0.00     0.031 C 
ATOM     50  C   UNL A   1      43.807  31.791  28.519  1.00  0.00     0.029 A 
ATOM     51  C   UNL A   1      44.776  30.773  28.127  1.00  0.00     0.049 A 
ATOM     52  H   UNL A   1      44.426  28.743  27.818  1.00  0.00     0.167 HD
ATOM     53  C   UNL A   1      43.537  24.491  27.265  1.00  0.00     0.031 A 
ATOM     54  C   UNL A   1      46.084  30.986  27.889  1.00  0.00     0.031 A 
ATOM     55  C   UNL A   1      44.933  24.634  26.962  1.00  0.00     0.049 A 
ATOM     56  C   UNL A   1      46.959  29.829  27.497  1.00  0.00     0.074 A 
ATOM     57  C   UNL A   1      45.820  23.662  26.534  1.00  0.00     0.029 A 
ATOM     58  N   UNL A   1      45.639  25.822  27.041  1.00  0.00    -0.354 N 
ATOM     59  N   UNL A   1      46.632  28.571  27.331  1.00  0.00    -0.248 NA
ATOM     60  C   UNL A   1      48.378  30.120  27.251  1.00  0.00     0.031 C 
ATOM     61  C   UNL A   1      47.075  24.255  26.393  1.00  0.00     0.029 A 
ATOM     62  C   UNL A   1      46.955  25.607  26.676  1.00  0.00     0.049 A 
ATOM     63  H   UNL A   1      45.262  26.689  27.317  1.00  0.00     0.167 HD
ATOM     64  C   UNL A   1      47.793  27.928  26.926  1.00  0.00     0.074 A 
ATOM     65  C   UNL A   1      48.835  28.932  26.875  1.00  0.00     0.031 C 
ATOM     66  C   UNL A   1      47.974  26.622  26.616  1.00  0.00     0.031 A 
BRANCH  53  67
ATOM     67  C   UNL A   1      42.924  23.131  27.110  1.00  0.00    -0.014 A 
ATOM     68  C   UNL A   1      42.767  22.288  28.220  1.00  0.00     0.009 A 
ATOM     69  C   UNL A   1      42.396  22.738  25.870  1.00  0.00     0.009 A 
ATOM     70  C   UNL A   1      42.089  21.074  28.092  1.00  0.00     0.001 A 
ATOM     71  C   UNL A   1      41.701  21.533  25.751  1.00  0.00     0.001 A 
ATOM     72  C   UNL A   1      41.547  20.704  26.861  1.00  0.00     0.000 A 
ENDBRANCH  53  67
BRANCH  54  73
ATOM     73  C   UNL A   1      46.628  32.365  27.977  1.00  0.00    -0.014 A 
ATOM     74  C   UNL A   1      47.110  32.853  29.201  1.00  0.00     0.009 A 
ATOM     75  C   UNL A   1      46.707  33.182  26.839  1.00  0.00     0.009 A 
ATOM     76  C   UNL A   1      47.658  34.135  29.284  1.00  0.00     0.001 A 
ATOM     77  C   UNL A   1      47.276  34.456  26.921  1.00  0.00     0.001 A 
ATOM     78  C   UNL A   1      47.747  34.932  28.144  1.00  0.00     0.000 A 
ENDBRANCH  54  73
BRANCH  66  79
ATOM     79  C   UNL A   1      49.332  26.190  26.142  1.00  0.00    -0.014 A 
ATOM     80  C   UNL A   1      49.812  26.561  24.879  1.00  0.00     0.009 A 
ATOM     81  C   UNL A   1      50.184  25.513  27.029  1.00  0.00     0.009 A 
ATOM     82  C   UNL A   1      51.122  26.252  24.509  1.00  0.00     0.001 A 
ATOM     83  C   UNL A   1      51.501  25.229  26.666  1.00  0.00     0.001 A 
ATOM     84  C   UNL A   1      51.968  25.597  25.406  1.00  0.00     0.000 A 
ENDBRANCH  66  79
ENDBRANCH  40  41
ENDBRANCH  32  35
ENDBRANCH  30  31
ENDBRANCH   1  30
TORSDOF 12
ENDMDL
MODEL 2
REMARK VINA RESULT:     -12.3      4.546     10.227
REMARK SMILES COc1ccc(Cl)c2c1N[C@@H](c1ccc(C(=O)NCCCNC(=O)c3ccc(-c4c5nc(c(-c6ccccc6)c6ccc([nH]6)c(-c6ccccc6)c6nc(c(-c7ccccc7)c7ccc4[nH]7)C=C6)C=C5)cc3)cc1)[C@@H]1CC=C[C@H]21
REMARK SMILES IDX 20 1 19 2 18 3 16 4 17 5 15 7 12 8 13 9 74 10 14 11 73 12
REMARK SMILES IDX 11 13 3 14 4 15 9 16 5 17 8 18 10 19 6 20 79 21 7 23 75 24
REMARK SMILES IDX 78 25 76 26 77 27 2 28 1 29 21 30 22 31 23 32 24 34 25 35
REMARK SMILES IDX 26 36 72 37 27 38 71 39 28 40 29 41 30 42 65 43 31 44 70 45
REMARK SMILES IDX 64 46 66 47 32 48 69 49 63 50 62 51 33 53 55 54 40 55 54 56
REMARK SMILES IDX 41 57 44 58 53 59 67 60 42 61 43 62 52 64 68 65 45 66 34 67
REMARK SMILES IDX 35 68 39 69 36 70 38 71 37 72 56 73 57 74 61 75 58 76 60 77
REMARK SMILES IDX 59 78 46 79 47 80 51 81 48 82 50 83 49 84
REMARK H PARENT 18 6 10 22 22 33 66 52 44 63
REMARK Flexibility Score: inf
ROOT
ATOM      1  C   UNL A   1      40.455  22.214  27.569  1.00  0.00     0.042 C 
ENDROOT
BRANCH   1   2
ATOM      2  C   UNL A   1      39.528  22.585  26.413  1.00  0.00     0.118 C 
BRANCH   2   3
ATOM      3  N   UNL A   1      38.929  21.395  25.843  1.00  0.00    -0.352 N 
ATOM      4  C   UNL A   1      37.709  21.172  25.260  1.00  0.00     0.251 C 
ATOM      5  O   UNL A   1      37.468  20.031  24.867  1.00  0.00    -0.269 OA
ATOM      6  H   UNL A   1      39.507  20.599  25.882  1.00  0.00     0.163 HD
BRANCH   4   7
ATOM      7  C   UNL A   1      36.714  22.251  25.021  1.00  0.00     0.039 A 
ATOM      8  C   UNL A   1      34.966  24.390  24.370  1.00  0.00    -0.025 A 
ATOM      9  C   UNL A   1      35.673  23.703  23.370  1.00  0.00     0.006 A 
ATOM     10  C   UNL A   1      35.104  23.942  25.690  1.00  0.00     0.006 A 
ATOM     11  C   UNL A   1      36.514  22.634  23.690  1.00  0.00     0.014 A 
ATOM     12  C   UNL A   1      35.967  22.889  26.012  1.00  0.00     0.014 A 
BRANCH   8  13
ATOM     13  C   UNL A   1      34.048  25.574  24.074  1.00  0.00     0.114 C 
ATOM     14  C   UNL A   1      33.504  28.659  26.089  1.00  0.00     0.142 A 
ATOM     15  C   UNL A   1      32.652  29.757  26.179  1.00  0.00     0.050 A 
ATOM     16  C   UNL A   1      33.206  27.577  25.236  1.00  0.00     0.083 A 
ATOM     17  C   UNL A   1      31.511  29.807  25.385  1.00  0.00     0.025 A 
ATOM     18  C   UNL A   1      32.063  27.633  24.414  1.00  0.00     0.005 A 
ATOM     19  N   UNL A   1      34.025  26.465  25.215  1.00  0.00    -0.375 N 
ATOM     20  C   UNL A   1      31.217  28.756  24.509  1.00  0.00     0.047 A 
ATOM     21  C   UNL A   1      31.728  26.454  23.528  1.00  0.00     0.051 C 
ATOM     22  H   UNL A   1      34.602  26.274  25.990  1.00  0.00     0.161 HD
ATOM     23  Cl  UNL A   1      29.751  28.883  23.599  1.00  0.00    -0.084 Cl
ATOM     24  C   UNL A   1      32.595  25.179  23.729  1.00  0.00     0.031 C 
ATOM     25  C   UNL A   1      31.905  26.701  22.049  1.00  0.00    -0.023 C 
ATOM     26  C   UNL A   1      32.452  24.455  22.376  1.00  0.00     0.034 C 
ATOM     27  C   UNL A   1      32.295  25.589  21.414  1.00  0.00    -0.030 C 
BRANCH  14  28
ATOM     28  O   UNL A   1      34.584  28.648  26.943  1.00  0.00    -0.495 OA
ATOM     29  C   UNL A   1      34.928  29.950  27.419  1.00  0.00     0.278 C 
ENDBRANCH  14  28
ENDBRANCH   8  13
ENDBRANCH   4   7
ENDBRANCH   2   3
ENDBRANCH   1   2
BRANCH   1  30
ATOM     30  C   UNL A   1      41.657  23.143  27.678  1.00  0.00     0.118 C 
BRANCH  30  31
ATOM     31  N   UNL A   1      41.874  23.878  26.441  1.00  0.00    -0.352 N 
ATOM     32  C   UNL A   1      41.628  25.200  26.170  1.00  0.00     0.251 C 
ATOM     33  H   UNL A   1      42.249  23.354  25.696  1.00  0.00     0.163 HD
ATOM     34  O   UNL A   1      41.600  25.603  25.015  1.00  0.00    -0.269 OA
BRANCH  32  35
ATOM     35  C   UNL A   1      41.406  26.134  27.290  1.00  0.00     0.039 A 
ATOM     36  C   UNL A   1      42.240  27.243  27.432  1.00  0.00     0.014 A 
ATOM     37  C   UNL A   1      40.382  25.886  28.210  1.00  0.00     0.014 A 
ATOM     38  C   UNL A   1      42.024  28.133  28.485  1.00  0.00     0.010 A 
ATOM     39  C   UNL A   1      40.131  26.801  29.221  1.00  0.00     0.010 A 
ATOM     40  C   UNL A   1      40.959  27.923  29.375  1.00  0.00    -0.014 A 
BRANCH  40  41
ATOM     41  C   UNL A   1      40.715  28.823  30.520  1.00  0.00     0.031 A 
ATOM     42  C   UNL A   1      39.636  29.861  30.418  1.00  0.00     0.074 A 
ATOM     43  C   UNL A   1      41.502  28.753  31.610  1.00  0.00     0.049 A 
ATOM     44  N   UNL A   1      39.338  30.822  31.252  1.00  0.00    -0.248 NA
ATOM     45  C   UNL A   1      38.787  29.823  29.214  1.00  0.00     0.031 C 
ATOM     46  C   UNL A   1      42.577  27.783  31.818  1.00  0.00     0.029 A 
ATOM     47  N   UNL A   1      41.518  29.522  32.745  1.00  0.00    -0.354 N 
ATOM     48  C   UNL A   1      38.277  31.503  30.673  1.00  0.00     0.074 A 
ATOM     49  C   UNL A   1      38.008  30.878  29.398  1.00  0.00     0.031 C 
ATOM     50  C   UNL A   1      43.137  28.004  33.019  1.00  0.00     0.029 A 
ATOM     51  C   UNL A   1      42.489  29.153  33.644  1.00  0.00     0.049 A 
ATOM     52  H   UNL A   1      40.894  30.267  32.901  1.00  0.00     0.167 HD
ATOM     53  C   UNL A   1      37.577  32.546  31.172  1.00  0.00     0.031 A 
ATOM     54  C   UNL A   1      42.820  29.688  34.834  1.00  0.00     0.031 A 
ATOM     55  C   UNL A   1      37.842  33.157  32.444  1.00  0.00     0.049 A 
ATOM     56  C   UNL A   1      42.058  30.878  35.344  1.00  0.00     0.074 A 
ATOM     57  C   UNL A   1      37.174  34.211  33.042  1.00  0.00     0.029 A 
ATOM     58  N   UNL A   1      38.844  32.765  33.315  1.00  0.00    -0.354 N 
ATOM     59  N   UNL A   1      41.057  31.514  34.785  1.00  0.00    -0.248 NA
ATOM     60  C   UNL A   1      42.464  31.421  36.648  1.00  0.00     0.031 C 
ATOM     61  C   UNL A   1      37.798  34.482  34.261  1.00  0.00     0.029 A 
ATOM     62  C   UNL A   1      38.817  33.559  34.445  1.00  0.00     0.049 A 
ATOM     63  H   UNL A   1      39.481  32.030  33.153  1.00  0.00     0.167 HD
ATOM     64  C   UNL A   1      40.689  32.505  35.684  1.00  0.00     0.074 A 
ATOM     65  C   UNL A   1      41.576  32.392  36.822  1.00  0.00     0.031 C 
ATOM     66  C   UNL A   1      39.697  33.422  35.576  1.00  0.00     0.031 A 
BRANCH  53  67
ATOM     67  C   UNL A   1      36.439  33.087  30.359  1.00  0.00    -0.014 A 
ATOM     68  C   UNL A   1      36.669  34.039  29.355  1.00  0.00     0.009 A 
ATOM     69  C   UNL A   1      35.149  32.558  30.521  1.00  0.00     0.009 A 
ATOM     70  C   UNL A   1      35.626  34.451  28.523  1.00  0.00     0.001 A 
ATOM     71  C   UNL A   1      34.113  32.957  29.673  1.00  0.00     0.001 A 
ATOM     72  C   UNL A   1      34.353  33.901  28.676  1.00  0.00     0.000 A 
ENDBRANCH  53  67
BRANCH  54  73
ATOM     73  C   UNL A   1      43.901  29.066  35.639  1.00  0.00    -0.014 A 
ATOM     74  C   UNL A   1      43.601  28.037  36.544  1.00  0.00     0.009 A 
ATOM     75  C   UNL A   1      45.238  29.463  35.480  1.00  0.00     0.009 A 
ATOM     76  C   UNL A   1      44.616  27.420  37.278  1.00  0.00     0.001 A 
ATOM     77  C   UNL A   1      46.255  28.829  36.200  1.00  0.00     0.001 A 
ATOM     78  C   UNL A   1      45.942  27.811  37.100  1.00  0.00     0.000 A 
ENDBRANCH  54  73
BRANCH  66  79
ATOM     79  C   UNL A   1      39.468  34.353  36.730  1.00  0.00    -0.014 A 
ATOM     80  C   UNL A   1      38.754  33.943  37.864  1.00  0.00     0.009 A 
ATOM     81  C   UNL A   1      40.087  35.614  36.727  1.00  0.00     0.009 A 
ATOM     82  C   UNL A   1      38.658  34.784  38.974  1.00  0.00     0.001 A 
ATOM     83  C   UNL A   1      40.011  36.440  37.848  1.00  0.00     0.001 A 
ATOM     84  C   UNL A   1      39.295  36.026  38.969  1.00  0.00     0.000 A 
ENDBRANCH  66  79
ENDBRANCH  40  41
ENDBRANCH  32  35
ENDBRANCH  30  31
ENDBRANCH   1  30
TORSDOF 12
ENDMDL
MODEL 3
REMARK VINA RESULT:     -12.1      4.603      7.324
REMARK SMILES COc1ccc(Cl)c2c1N[C@@H](c1ccc(C(=O)NCCCNC(=O)c3ccc(-c4c5nc(c(-c6ccccc6)c6ccc([nH]6)c(-c6ccccc6)c6nc(c(-c7ccccc7)c7ccc4[nH]7)C=C6)C=C5)cc3)cc1)[C@@H]1CC=C[C@H]21
REMARK SMILES IDX 20 1 19 2 18 3 16 4 17 5 15 7 12 8 13 9 74 10 14 11 73 12
REMARK SMILES IDX 11 13 3 14 4 15 9 16 5 17 8 18 10 19 6 20 79 21 7 23 75 24
REMARK SMILES IDX 78 25 76 26 77 27 2 28 1 29 21 30 22 31 23 32 24 34 25 35
REMARK SMILES IDX 26 36 72 37 27 38 71 39 28 40 29 41 30 42 65 43 31 44 70 45
REMARK SMILES IDX 64 46 66 47 32 48 69 49 63 50 62 51 33 53 55 54 40 55 54 56
REMARK SMILES IDX 41 57 44 58 53 59 67 60 42 61 43 62 52 64 68 65 45 66 34 67
REMARK SMILES IDX 35 68 39 69 36 70 38 71 37 72 56 73 57 74 61 75 58 76 60 77
REMARK SMILES IDX 59 78 46 79 47 80 51 81 48 82 50 83 49 84
REMARK H PARENT 18 6 10 22 22 33 66 52 44 63
REMARK Flexibility Score: inf
ROOT
ATOM      1  C   UNL A   1      31.528  32.010  26.633  1.00  0.00     0.042 C 
ENDROOT
BRANCH   1   2
ATOM      2  C   UNL A   1      31.761  30.572  26.173  1.00  0.00     0.118 C 
BRANCH   2   3
ATOM      3  N   UNL A   1      31.132  30.344  24.888  1.00  0.00    -0.352 N 
ATOM      4  C   UNL A   1      31.082  29.243  24.074  1.00  0.00     0.251 C 
ATOM      5  O   UNL A   1      30.468  29.349  23.013  1.00  0.00    -0.269 OA
ATOM      6  H   UNL A   1      30.651  31.127  24.533  1.00  0.00     0.163 HD
BRANCH   4   7
ATOM      7  C   UNL A   1      31.668  27.928  24.449  1.00  0.00     0.039 A 
ATOM      8  C   UNL A   1      32.829  25.379  24.911  1.00  0.00    -0.025 A 
ATOM      9  C   UNL A   1      33.301  26.215  23.886  1.00  0.00     0.006 A 
ATOM     10  C   UNL A   1      31.809  25.873  25.735  1.00  0.00     0.006 A 
ATOM     11  C   UNL A   1      32.745  27.480  23.676  1.00  0.00     0.014 A 
ATOM     12  C   UNL A   1      31.235  27.128  25.507  1.00  0.00     0.014 A 
BRANCH   8  13
ATOM     13  C   UNL A   1      33.391  23.984  25.170  1.00  0.00     0.114 C 
ATOM     14  C   UNL A   1      36.951  22.926  25.462  1.00  0.00     0.142 A 
ATOM     15  C   UNL A   1      37.739  21.779  25.502  1.00  0.00     0.050 A 
ATOM     16  C   UNL A   1      35.581  22.854  25.137  1.00  0.00     0.083 A 
ATOM     17  C   UNL A   1      37.159  20.538  25.257  1.00  0.00     0.025 A 
ATOM     18  C   UNL A   1      34.984  21.598  24.910  1.00  0.00     0.005 A 
ATOM     19  N   UNL A   1      34.833  24.011  25.030  1.00  0.00    -0.375 N 
ATOM     20  C   UNL A   1      35.794  20.446  24.965  1.00  0.00     0.047 A 
ATOM     21  C   UNL A   1      33.524  21.530  24.525  1.00  0.00     0.051 C 
ATOM     22  H   UNL A   1      35.287  24.866  24.857  1.00  0.00     0.161 HD
ATOM     23  Cl  UNL A   1      35.172  18.867  24.626  1.00  0.00    -0.084 Cl
ATOM     24  C   UNL A   1      32.828  22.890  24.235  1.00  0.00     0.031 C 
ATOM     25  C   UNL A   1      32.615  20.953  25.584  1.00  0.00    -0.023 C 
ATOM     26  C   UNL A   1      31.341  22.569  24.482  1.00  0.00     0.034 C 
ATOM     27  C   UNL A   1      31.404  21.523  25.548  1.00  0.00    -0.030 C 
BRANCH  14  28
ATOM     28  O   UNL A   1      37.600  24.124  25.658  1.00  0.00    -0.495 OA
ATOM     29  C   UNL A   1      38.802  23.986  26.418  1.00  0.00     0.278 C 
ENDBRANCH  14  28
ENDBRANCH   8  13
ENDBRANCH   4   7
ENDBRANCH   2   3
ENDBRANCH   1   2
BRANCH   1  30
ATOM     30  C   UNL A   1      32.777  32.642  27.233  1.00  0.00     0.118 C 
BRANCH  30  31
ATOM     31  N   UNL A   1      32.536  34.021  27.629  1.00  0.00    -0.352 N 
ATOM     32  C   UNL A   1      33.068  34.721  28.682  1.00  0.00     0.251 C 
ATOM     33  H   UNL A   1      31.904  34.521  27.063  1.00  0.00     0.163 HD
ATOM     34  O   UNL A   1      32.563  35.775  29.047  1.00  0.00    -0.269 OA
BRANCH  32  35
ATOM     35  C   UNL A   1      34.263  34.193  29.365  1.00  0.00     0.039 A 
ATOM     36  C   UNL A   1      35.531  34.529  28.887  1.00  0.00     0.014 A 
ATOM     37  C   UNL A   1      34.117  33.341  30.465  1.00  0.00     0.014 A 
ATOM     38  C   UNL A   1      36.662  34.039  29.539  1.00  0.00     0.010 A 
ATOM     39  C   UNL A   1      35.241  32.902  31.148  1.00  0.00     0.010 A 
ATOM     40  C   UNL A   1      36.521  33.235  30.681  1.00  0.00    -0.014 A 
BRANCH  40  41
ATOM     41  C   UNL A   1      37.692  32.670  31.382  1.00  0.00     0.031 A 
ATOM     42  C   UNL A   1      38.492  31.588  30.716  1.00  0.00     0.074 A 
ATOM     43  C   UNL A   1      37.990  33.077  32.629  1.00  0.00     0.049 A 
ATOM     44  N   UNL A   1      39.475  30.877  31.200  1.00  0.00    -0.248 NA
ATOM     45  C   UNL A   1      38.129  31.249  29.328  1.00  0.00     0.031 C 
ATOM     46  C   UNL A   1      37.285  34.123  33.371  1.00  0.00     0.029 A 
ATOM     47  N   UNL A   1      38.963  32.650  33.495  1.00  0.00    -0.354 N 
ATOM     48  C   UNL A   1      39.843  30.008  30.183  1.00  0.00     0.074 A 
ATOM     49  C   UNL A   1      38.953  30.245  29.069  1.00  0.00     0.031 C 
ATOM     50  C   UNL A   1      37.862  34.269  34.574  1.00  0.00     0.029 A 
ATOM     51  C   UNL A   1      38.948  33.301  34.704  1.00  0.00     0.049 A 
ATOM     52  H   UNL A   1      39.612  31.943  33.271  1.00  0.00     0.167 HD
ATOM     53  C   UNL A   1      40.850  29.105  30.174  1.00  0.00     0.031 A 
ATOM     54  C   UNL A   1      39.719  33.131  35.794  1.00  0.00     0.031 A 
ATOM     55  C   UNL A   1      41.738  28.880  31.279  1.00  0.00     0.049 A 
ATOM     56  C   UNL A   1      40.799  32.086  35.775  1.00  0.00     0.074 A 
ATOM     57  C   UNL A   1      42.800  27.996  31.357  1.00  0.00     0.029 A 
ATOM     58  N   UNL A   1      41.677  29.548  32.489  1.00  0.00    -0.354 N 
ATOM     59  N   UNL A   1      41.136  31.270  34.807  1.00  0.00    -0.248 NA
ATOM     60  C   UNL A   1      41.609  31.943  36.993  1.00  0.00     0.031 C 
ATOM     61  C   UNL A   1      43.358  28.102  32.631  1.00  0.00     0.029 A 
ATOM     62  C   UNL A   1      42.679  29.093  33.325  1.00  0.00     0.049 A 
ATOM     63  H   UNL A   1      41.018  30.243  32.721  1.00  0.00     0.167 HD
ATOM     64  C   UNL A   1      42.218  30.543  35.283  1.00  0.00     0.074 A 
ATOM     65  C   UNL A   1      42.480  31.010  36.628  1.00  0.00     0.031 C 
ATOM     66  C   UNL A   1      42.935  29.581  34.654  1.00  0.00     0.031 A 
BRANCH  53  67
ATOM     67  C   UNL A   1      41.068  28.302  28.926  1.00  0.00    -0.014 A 
ATOM     68  C   UNL A   1      40.495  27.030  28.787  1.00  0.00     0.009 A 
ATOM     69  C   UNL A   1      41.753  28.868  27.839  1.00  0.00     0.009 A 
ATOM     70  C   UNL A   1      40.602  26.337  27.579  1.00  0.00     0.001 A 
ATOM     71  C   UNL A   1      41.839  28.182  26.627  1.00  0.00     0.001 A 
ATOM     72  C   UNL A   1      41.263  26.919  26.498  1.00  0.00     0.000 A 
ENDBRANCH  53  67
BRANCH  54  73
ATOM     73  C   UNL A   1      39.518  34.006  36.976  1.00  0.00    -0.014 A 
ATOM     74  C   UNL A   1      38.711  33.575  38.040  1.00  0.00     0.009 A 
ATOM     75  C   UNL A   1      40.159  35.251  37.069  1.00  0.00     0.009 A 
ATOM     76  C   UNL A   1      38.546  34.375  39.172  1.00  0.00     0.001 A 
ATOM     77  C   UNL A   1      40.010  36.039  38.214  1.00  0.00     0.001 A 
ATOM     78  C   UNL A   1      39.201  35.602  39.261  1.00  0.00     0.000 A 
ENDBRANCH  54  73
BRANCH  66  79
ATOM     79  C   UNL A   1      44.109  28.989  35.378  1.00  0.00    -0.014 A 
ATOM     80  C   UNL A   1      43.978  27.823  36.145  1.00  0.00     0.009 A 
ATOM     81  C   UNL A   1      45.386  29.541  35.181  1.00  0.00     0.009 A 
ATOM     82  C   UNL A   1      45.106  27.225  36.708  1.00  0.00     0.001 A 
ATOM     83  C   UNL A   1      46.514  28.925  35.723  1.00  0.00     0.001 A 
ATOM     84  C   UNL A   1      46.373  27.769  36.488  1.00  0.00     0.000 A 
ENDBRANCH  66  79
ENDBRANCH  40  41
ENDBRANCH  32  35
ENDBRANCH  30  31
ENDBRANCH   1  30
TORSDOF 12
ENDMDL
