MODEL 1
REMARK VINA RESULT:     -12.2      0.000      0.000
REMARK SMILES CCN(c1cccc(C)c1)c1nc(OCC(=O)NCCCNC(=O)c2ccc(-c3c4nc(c(-c5ccccc5)c5ccc([nH]5)c(-c5ccccc5)c5nc(c(-c6ccccc6)c6ccc3[nH]6)C=C5)C=C4)cc2)cc(-c2ccc(C)cc2)n1
REMARK SMILES IDX 19 1 18 2 16 3 17 4 15 6 14 7 13 8 11 9 12 10 82 11 74 12
REMARK SMILES IDX 73 13 3 14 2 15 1 16 4 17 5 18 10 19 6 20 8 21 7 22 9 23
REMARK SMILES IDX 75 24 76 25 81 26 77 27 80 28 78 29 79 30 20 31 21 32 22 33
REMARK SMILES IDX 23 34 24 36 25 37 26 38 72 39 27 40 71 41 28 42 29 43 30 44
REMARK SMILES IDX 65 45 31 46 70 47 64 48 66 49 32 50 69 51 63 52 62 53 33 55
REMARK SMILES IDX 55 56 40 57 54 58 41 59 44 60 53 61 67 62 42 63 43 64 52 66
REMARK SMILES IDX 68 67 45 68 34 69 35 70 39 71 36 72 38 73 37 74 56 75 57 76
REMARK SMILES IDX 61 77 58 78 60 79 59 80 46 81 47 82 51 83 48 84 50 85 49 86
REMARK H PARENT 18 5 22 35 66 54 44 65
REMARK Flexibility Score: inf
ROOT
ATOM      1  C   UNL A   1      33.768  28.737  25.880  1.00  0.00     0.117 C 
ENDROOT
BRANCH   1   2
ATOM      2  N   UNL A   1      32.848  27.784  26.473  1.00  0.00    -0.353 N 
ATOM      3  C   UNL A   1      32.517  26.536  26.026  1.00  0.00     0.258 C 
ATOM      4  O   UNL A   1      31.737  25.857  26.697  1.00  0.00    -0.271 OA
ATOM      5  H   UNL A   1      32.405  28.073  27.303  1.00  0.00     0.163 HD
BRANCH   3   6
ATOM      6  C   UNL A   1      33.117  25.999  24.717  1.00  0.00     0.331 C 
BRANCH   6   7
ATOM      7  O   UNL A   1      34.476  25.603  24.762  1.00  0.00    -0.467 OA
BRANCH   7   8
ATOM      8  C   UNL A   1      34.753  24.266  24.844  1.00  0.00     0.219 A 
ATOM      9  C   UNL A   1      33.776  22.169  24.916  1.00  0.00     0.233 A 
ATOM     10  N   UNL A   1      33.651  23.502  24.773  1.00  0.00    -0.177 NA
ATOM     11  N   UNL A   1      34.963  21.584  25.139  1.00  0.00    -0.212 NA
ATOM     12  C   UNL A   1      36.058  22.363  25.152  1.00  0.00     0.080 A 
ATOM     13  C   UNL A   1      36.001  23.728  24.994  1.00  0.00     0.097 A 
BRANCH   9  14
ATOM     14  N   UNL A   1      32.620  21.374  24.822  1.00  0.00    -0.311 N 
BRANCH  14  15
ATOM     15  C   UNL A   1      31.362  22.020  25.221  1.00  0.00     0.122 C 
ATOM     16  C   UNL A   1      31.355  22.520  26.662  1.00  0.00     0.028 C 
ENDBRANCH  14  15
BRANCH  14  17
ATOM     17  C   UNL A   1      32.592  20.055  24.327  1.00  0.00     0.044 A 
ATOM     18  C   UNL A   1      32.385  19.756  22.972  1.00  0.00     0.026 A 
ATOM     19  C   UNL A   1      32.783  18.968  25.202  1.00  0.00     0.029 A 
ATOM     20  C   UNL A   1      32.354  18.433  22.514  1.00  0.00     0.002 A 
ATOM     21  C   UNL A   1      32.746  17.636  24.759  1.00  0.00    -0.049 A 
ATOM     22  C   UNL A   1      32.527  17.377  23.405  1.00  0.00     0.003 A 
ATOM     23  C   UNL A   1      32.922  16.516  25.742  1.00  0.00     0.044 C 
ENDBRANCH  14  17
ENDBRANCH   9  14
BRANCH  12  24
ATOM     24  C   UNL A   1      37.349  21.689  25.320  1.00  0.00     0.000 A 
ATOM     25  C   UNL A   1      37.513  20.347  24.940  1.00  0.00     0.010 A 
ATOM     26  C   UNL A   1      38.425  22.340  25.941  1.00  0.00     0.010 A 
ATOM     27  C   UNL A   1      38.704  19.665  25.202  1.00  0.00     0.004 A 
ATOM     28  C   UNL A   1      39.614  21.656  26.214  1.00  0.00     0.004 A 
ATOM     29  C   UNL A   1      39.758  20.310  25.853  1.00  0.00    -0.051 A 
ATOM     30  C   UNL A   1      41.017  19.571  26.195  1.00  0.00     0.044 C 
ENDBRANCH  12  24
ENDBRANCH   7   8
ENDBRANCH   6   7
ENDBRANCH   3   6
ENDBRANCH   1   2
BRANCH   1  31
ATOM     31  C   UNL A   1      33.461  30.174  26.278  1.00  0.00     0.042 C 
BRANCH  31  32
ATOM     32  C   UNL A   1      33.400  30.395  27.783  1.00  0.00     0.118 C 
BRANCH  32  33
ATOM     33  N   UNL A   1      34.209  31.514  28.258  1.00  0.00    -0.352 N 
ATOM     34  C   UNL A   1      35.518  31.542  28.719  1.00  0.00     0.251 C 
ATOM     35  H   UNL A   1      33.754  32.387  28.251  1.00  0.00     0.163 HD
ATOM     36  O   UNL A   1      36.012  32.594  29.078  1.00  0.00    -0.269 OA
BRANCH  34  37
ATOM     37  C   UNL A   1      36.356  30.318  28.635  1.00  0.00     0.039 A 
ATOM     38  C   UNL A   1      36.545  29.575  29.809  1.00  0.00     0.014 A 
ATOM     39  C   UNL A   1      37.105  30.026  27.502  1.00  0.00     0.014 A 
ATOM     40  C   UNL A   1      37.662  28.755  29.925  1.00  0.00     0.010 A 
ATOM     41  C   UNL A   1      38.272  29.308  27.647  1.00  0.00     0.010 A 
ATOM     42  C   UNL A   1      38.586  28.739  28.884  1.00  0.00    -0.014 A 
BRANCH  42  43
ATOM     43  C   UNL A   1      39.963  28.297  29.038  1.00  0.00     0.031 A 
ATOM     44  C   UNL A   1      40.391  26.980  28.540  1.00  0.00     0.074 A 
ATOM     45  C   UNL A   1      40.873  29.178  29.509  1.00  0.00     0.049 A 
ATOM     46  N   UNL A   1      41.494  26.404  28.879  1.00  0.00    -0.248 NA
ATOM     47  C   UNL A   1      39.562  26.161  27.664  1.00  0.00     0.031 C 
ATOM     48  C   UNL A   1      42.328  29.106  29.411  1.00  0.00     0.029 A 
ATOM     49  N   UNL A   1      40.637  30.234  30.390  1.00  0.00    -0.354 N 
ATOM     50  C   UNL A   1      41.670  25.330  28.042  1.00  0.00     0.074 A 
ATOM     51  C   UNL A   1      40.391  25.148  27.398  1.00  0.00     0.031 C 
ATOM     52  C   UNL A   1      42.865  29.882  30.367  1.00  0.00     0.029 A 
ATOM     53  C   UNL A   1      41.773  30.334  31.213  1.00  0.00     0.049 A 
ATOM     54  H   UNL A   1      39.831  30.800  30.428  1.00  0.00     0.167 HD
ATOM     55  C   UNL A   1      42.924  24.821  27.882  1.00  0.00     0.031 A 
ATOM     56  C   UNL A   1      41.687  30.094  32.554  1.00  0.00     0.031 A 
ATOM     57  C   UNL A   1      43.866  25.402  28.843  1.00  0.00     0.049 A 
ATOM     58  C   UNL A   1      42.549  28.943  33.029  1.00  0.00     0.074 A 
ATOM     59  C   UNL A   1      44.882  26.339  28.741  1.00  0.00     0.029 A 
ATOM     60  N   UNL A   1      43.632  25.228  30.202  1.00  0.00    -0.354 N 
ATOM     61  N   UNL A   1      43.050  28.027  32.248  1.00  0.00    -0.248 NA
ATOM     62  C   UNL A   1      42.886  28.719  34.431  1.00  0.00     0.031 C 
ATOM     63  C   UNL A   1      45.218  26.768  30.055  1.00  0.00     0.029 A 
ATOM     64  C   UNL A   1      44.431  26.068  30.952  1.00  0.00     0.049 A 
ATOM     65  H   UNL A   1      42.984  24.590  30.580  1.00  0.00     0.167 HD
ATOM     66  C   UNL A   1      43.754  27.113  32.992  1.00  0.00     0.074 A 
ATOM     67  C   UNL A   1      43.631  27.602  34.353  1.00  0.00     0.031 C 
ATOM     68  C   UNL A   1      44.360  26.033  32.411  1.00  0.00     0.031 A 
BRANCH  55  69
ATOM     69  C   UNL A   1      43.358  23.994  26.689  1.00  0.00    -0.014 A 
ATOM     70  C   UNL A   1      43.251  22.591  26.743  1.00  0.00     0.009 A 
ATOM     71  C   UNL A   1      43.957  24.508  25.526  1.00  0.00     0.009 A 
ATOM     72  C   UNL A   1      43.770  21.762  25.737  1.00  0.00     0.001 A 
ATOM     73  C   UNL A   1      44.488  23.688  24.520  1.00  0.00     0.001 A 
ATOM     74  C   UNL A   1      44.404  22.310  24.631  1.00  0.00     0.000 A 
ENDBRANCH  55  69
BRANCH  56  75
ATOM     75  C   UNL A   1      40.370  30.472  33.143  1.00  0.00    -0.014 A 
ATOM     76  C   UNL A   1      40.034  31.841  33.201  1.00  0.00     0.009 A 
ATOM     77  C   UNL A   1      39.344  29.526  33.283  1.00  0.00     0.009 A 
ATOM     78  C   UNL A   1      38.699  32.250  33.270  1.00  0.00     0.001 A 
ATOM     79  C   UNL A   1      38.008  29.942  33.371  1.00  0.00     0.001 A 
ATOM     80  C   UNL A   1      37.685  31.299  33.326  1.00  0.00     0.000 A 
ENDBRANCH  56  75
BRANCH  68  81
ATOM     81  C   UNL A   1      44.986  24.839  33.110  1.00  0.00    -0.014 A 
ATOM     82  C   UNL A   1      46.284  24.790  33.630  1.00  0.00     0.009 A 
ATOM     83  C   UNL A   1      44.179  23.699  33.358  1.00  0.00     0.009 A 
ATOM     84  C   UNL A   1      46.756  23.667  34.330  1.00  0.00     0.001 A 
ATOM     85  C   UNL A   1      44.627  22.598  34.091  1.00  0.00     0.001 A 
ATOM     86  C   UNL A   1      45.926  22.578  34.571  1.00  0.00     0.000 A 
ENDBRANCH  68  81
ENDBRANCH  42  43
ENDBRANCH  34  37
ENDBRANCH  32  33
ENDBRANCH  31  32
ENDBRANCH   1  31
TORSDOF 16
ENDMDL
MODEL 2
REMARK VINA RESULT:     -11.4      3.070      6.310
REMARK SMILES CCN(c1cccc(C)c1)c1nc(OCC(=O)NCCCNC(=O)c2ccc(-c3c4nc(c(-c5ccccc5)c5ccc([nH]5)c(-c5ccccc5)c5nc(c(-c6ccccc6)c6ccc3[nH]6)C=C5)C=C4)cc2)cc(-c2ccc(C)cc2)n1
REMARK SMILES IDX 19 1 18 2 16 3 17 4 15 6 14 7 13 8 11 9 12 10 82 11 74 12
REMARK SMILES IDX 73 13 3 14 2 15 1 16 4 17 5 18 10 19 6 20 8 21 7 22 9 23
REMARK SMILES IDX 75 24 76 25 81 26 77 27 80 28 78 29 79 30 20 31 21 32 22 33
REMARK SMILES IDX 23 34 24 36 25 37 26 38 72 39 27 40 71 41 28 42 29 43 30 44
REMARK SMILES IDX 65 45 31 46 70 47 64 48 66 49 32 50 69 51 63 52 62 53 33 55
REMARK SMILES IDX 55 56 40 57 54 58 41 59 44 60 53 61 67 62 42 63 43 64 52 66
REMARK SMILES IDX 68 67 45 68 34 69 35 70 39 71 36 72 38 73 37 74 56 75 57 76
REMARK SMILES IDX 61 77 58 78 60 79 59 80 46 81 47 82 51 83 48 84 50 85 49 86
REMARK H PARENT 18 5 22 35 66 54 44 65
REMARK Flexibility Score: inf
ROOT
ATOM      1  C   UNL A   1      34.241  31.698  27.649  1.00  0.00     0.117 C 
ENDROOT
BRANCH   1   2
ATOM      2  N   UNL A   1      34.896  30.496  27.168  1.00  0.00    -0.353 N 
ATOM      3  C   UNL A   1      34.366  29.246  27.009  1.00  0.00     0.258 C 
ATOM      4  O   UNL A   1      35.081  28.356  26.545  1.00  0.00    -0.271 OA
ATOM      5  H   UNL A   1      35.845  30.592  26.923  1.00  0.00     0.163 HD
BRANCH   3   6
ATOM      6  C   UNL A   1      32.905  28.973  27.399  1.00  0.00     0.331 C 
BRANCH   6   7
ATOM      7  O   UNL A   1      32.319  27.799  26.865  1.00  0.00    -0.467 OA
BRANCH   7   8
ATOM      8  C   UNL A   1      31.798  27.858  25.602  1.00  0.00     0.219 A 
ATOM      9  C   UNL A   1      31.758  26.772  23.559  1.00  0.00     0.233 A 
ATOM     10  N   UNL A   1      32.143  26.801  24.849  1.00  0.00    -0.177 NA
ATOM     11  N   UNL A   1      31.053  27.769  23.002  1.00  0.00    -0.212 NA
ATOM     12  C   UNL A   1      30.673  28.790  23.789  1.00  0.00     0.080 A 
ATOM     13  C   UNL A   1      31.017  28.871  25.118  1.00  0.00     0.097 A 
BRANCH   9  14
ATOM     14  N   UNL A   1      32.107  25.653  22.780  1.00  0.00    -0.311 N 
BRANCH  14  15
ATOM     15  C   UNL A   1      31.644  25.672  21.386  1.00  0.00     0.122 C 
ATOM     16  C   UNL A   1      32.762  25.515  20.362  1.00  0.00     0.028 C 
ENDBRANCH  14  15
BRANCH  14  17
ATOM     17  C   UNL A   1      32.900  24.579  23.231  1.00  0.00     0.044 A 
ATOM     18  C   UNL A   1      34.276  24.700  23.475  1.00  0.00     0.026 A 
ATOM     19  C   UNL A   1      32.315  23.319  23.462  1.00  0.00     0.029 A 
ATOM     20  C   UNL A   1      35.036  23.609  23.913  1.00  0.00     0.002 A 
ATOM     21  C   UNL A   1      33.066  22.213  23.894  1.00  0.00    -0.049 A 
ATOM     22  C   UNL A   1      34.436  22.369  24.115  1.00  0.00     0.003 A 
ATOM     23  C   UNL A   1      32.396  20.886  24.091  1.00  0.00     0.044 C 
ENDBRANCH  14  17
ENDBRANCH   9  14
BRANCH  12  24
ATOM     24  C   UNL A   1      29.838  29.825  23.175  1.00  0.00     0.000 A 
ATOM     25  C   UNL A   1      29.419  29.711  21.839  1.00  0.00     0.010 A 
ATOM     26  C   UNL A   1      29.509  30.995  23.876  1.00  0.00     0.010 A 
ATOM     27  C   UNL A   1      28.721  30.746  21.213  1.00  0.00     0.004 A 
ATOM     28  C   UNL A   1      28.820  32.037  23.247  1.00  0.00     0.004 A 
ATOM     29  C   UNL A   1      28.428  31.923  21.908  1.00  0.00    -0.051 A 
ATOM     30  C   UNL A   1      27.735  33.065  21.227  1.00  0.00     0.044 C 
ENDBRANCH  12  24
ENDBRANCH   7   8
ENDBRANCH   6   7
ENDBRANCH   3   6
ENDBRANCH   1   2
BRANCH   1  31
ATOM     31  C   UNL A   1      35.176  32.598  28.444  1.00  0.00     0.042 C 
BRANCH  31  32
ATOM     32  C   UNL A   1      34.869  34.083  28.297  1.00  0.00     0.118 C 
BRANCH  32  33
ATOM     33  N   UNL A   1      33.809  34.565  29.177  1.00  0.00    -0.352 N 
ATOM     34  C   UNL A   1      33.691  34.500  30.559  1.00  0.00     0.251 C 
ATOM     35  H   UNL A   1      33.057  35.005  28.718  1.00  0.00     0.163 HD
ATOM     36  O   UNL A   1      32.710  34.965  31.106  1.00  0.00    -0.269 OA
BRANCH  34  37
ATOM     37  C   UNL A   1      34.828  33.996  31.373  1.00  0.00     0.039 A 
ATOM     38  C   UNL A   1      36.005  34.757  31.392  1.00  0.00     0.014 A 
ATOM     39  C   UNL A   1      34.817  32.720  31.923  1.00  0.00     0.014 A 
ATOM     40  C   UNL A   1      37.212  34.137  31.695  1.00  0.00     0.010 A 
ATOM     41  C   UNL A   1      36.018  32.072  32.112  1.00  0.00     0.010 A 
ATOM     42  C   UNL A   1      37.217  32.764  31.920  1.00  0.00    -0.014 A 
BRANCH  42  43
ATOM     43  C   UNL A   1      38.408  31.935  31.812  1.00  0.00     0.031 A 
ATOM     44  C   UNL A   1      38.360  30.638  31.117  1.00  0.00     0.074 A 
ATOM     45  C   UNL A   1      39.588  32.445  32.228  1.00  0.00     0.049 A 
ATOM     46  N   UNL A   1      39.272  29.732  31.219  1.00  0.00    -0.248 NA
ATOM     47  C   UNL A   1      37.228  30.224  30.297  1.00  0.00     0.031 C 
ATOM     48  C   UNL A   1      40.932  31.982  31.899  1.00  0.00     0.029 A 
ATOM     49  N   UNL A   1      39.782  33.384  33.241  1.00  0.00    -0.354 N 
ATOM     50  C   UNL A   1      39.020  28.787  30.256  1.00  0.00     0.074 A 
ATOM     51  C   UNL A   1      37.680  29.068  29.801  1.00  0.00     0.031 C 
ATOM     52  C   UNL A   1      41.784  32.427  32.837  1.00  0.00     0.029 A 
ATOM     53  C   UNL A   1      40.984  33.038  33.885  1.00  0.00     0.049 A 
ATOM     54  H   UNL A   1      39.193  34.141  33.463  1.00  0.00     0.167 HD
ATOM     55  C   UNL A   1      40.037  27.975  29.851  1.00  0.00     0.031 A 
ATOM     56  C   UNL A   1      40.987  32.638  35.190  1.00  0.00     0.031 A 
ATOM     57  C   UNL A   1      41.215  28.120  30.711  1.00  0.00     0.049 A 
ATOM     58  C   UNL A   1      41.514  31.234  35.401  1.00  0.00     0.074 A 
ATOM     59  C   UNL A   1      42.446  28.738  30.553  1.00  0.00     0.029 A 
ATOM     60  N   UNL A   1      41.099  27.821  32.064  1.00  0.00    -0.354 N 
ATOM     61  N   UNL A   1      41.624  30.339  34.459  1.00  0.00    -0.248 NA
ATOM     62  C   UNL A   1      41.931  30.722  36.702  1.00  0.00     0.031 C 
ATOM     63  C   UNL A   1      43.045  28.857  31.837  1.00  0.00     0.029 A 
ATOM     64  C   UNL A   1      42.195  28.283  32.766  1.00  0.00     0.049 A 
ATOM     65  H   UNL A   1      40.339  27.343  32.467  1.00  0.00     0.167 HD
ATOM     66  C   UNL A   1      42.104  29.166  34.985  1.00  0.00     0.074 A 
ATOM     67  C   UNL A   1      42.292  29.464  36.393  1.00  0.00     0.031 C 
ATOM     68  C   UNL A   1      42.287  28.056  34.206  1.00  0.00     0.031 A 
BRANCH  55  69
ATOM     69  C   UNL A   1      40.062  27.243  28.524  1.00  0.00    -0.014 A 
ATOM     70  C   UNL A   1      39.412  26.000  28.406  1.00  0.00     0.009 A 
ATOM     71  C   UNL A   1      40.769  27.663  27.384  1.00  0.00     0.009 A 
ATOM     72  C   UNL A   1      39.520  25.204  27.256  1.00  0.00     0.001 A 
ATOM     73  C   UNL A   1      40.893  26.871  26.233  1.00  0.00     0.001 A 
ATOM     74  C   UNL A   1      40.276  25.633  26.173  1.00  0.00     0.000 A 
ENDBRANCH  55  69
BRANCH  56  75
ATOM     75  C   UNL A   1      39.922  33.281  36.012  1.00  0.00    -0.014 A 
ATOM     76  C   UNL A   1      38.791  32.513  36.358  1.00  0.00     0.009 A 
ATOM     77  C   UNL A   1      40.181  34.452  36.739  1.00  0.00     0.009 A 
ATOM     78  C   UNL A   1      38.016  32.839  37.475  1.00  0.00     0.001 A 
ATOM     79  C   UNL A   1      39.389  34.785  37.847  1.00  0.00     0.001 A 
ATOM     80  C   UNL A   1      38.334  33.959  38.236  1.00  0.00     0.000 A 
ENDBRANCH  56  75
BRANCH  68  81
ATOM     81  C   UNL A   1      42.605  26.646  34.670  1.00  0.00    -0.014 A 
ATOM     82  C   UNL A   1      41.756  25.828  35.425  1.00  0.00     0.009 A 
ATOM     83  C   UNL A   1      43.813  26.044  34.234  1.00  0.00     0.009 A 
ATOM     84  C   UNL A   1      42.101  24.504  35.746  1.00  0.00     0.001 A 
ATOM     85  C   UNL A   1      44.142  24.715  34.512  1.00  0.00     0.001 A 
ATOM     86  C   UNL A   1      43.286  23.945  35.281  1.00  0.00     0.000 A 
ENDBRANCH  68  81
ENDBRANCH  42  43
ENDBRANCH  34  37
ENDBRANCH  32  33
ENDBRANCH  31  32
ENDBRANCH   1  31
TORSDOF 16
ENDMDL
MODEL 3
REMARK VINA RESULT:     -11.2      3.413      6.606
REMARK SMILES CCN(c1cccc(C)c1)c1nc(OCC(=O)NCCCNC(=O)c2ccc(-c3c4nc(c(-c5ccccc5)c5ccc([nH]5)c(-c5ccccc5)c5nc(c(-c6ccccc6)c6ccc3[nH]6)C=C5)C=C4)cc2)cc(-c2ccc(C)cc2)n1
REMARK SMILES IDX 19 1 18 2 16 3 17 4 15 6 14 7 13 8 11 9 12 10 82 11 74 12
REMARK SMILES IDX 73 13 3 14 2 15 1 16 4 17 5 18 10 19 6 20 8 21 7 22 9 23
REMARK SMILES IDX 75 24 76 25 81 26 77 27 80 28 78 29 79 30 20 31 21 32 22 33
REMARK SMILES IDX 23 34 24 36 25 37 26 38 72 39 27 40 71 41 28 42 29 43 30 44
REMARK SMILES IDX 65 45 31 46 70 47 64 48 66 49 32 50 69 51 63 52 62 53 33 55
REMARK SMILES IDX 55 56 40 57 54 58 41 59 44 60 53 61 67 62 42 63 43 64 52 66
REMARK SMILES IDX 68 67 45 68 34 69 35 70 39 71 36 72 38 73 37 74 56 75 57 76
REMARK SMILES IDX 61 77 58 78 60 79 59 80 46 81 47 82 51 83 48 84 50 85 49 86
REMARK H PARENT 18 5 22 35 66 54 44 65
REMARK Flexibility Score: inf
ROOT
ATOM      1  C   UNL A   1      34.326  31.997  28.065  1.00  0.00     0.117 C 
ENDROOT
BRANCH   1   2
ATOM      2  N   UNL A   1      34.705  30.600  27.952  1.00  0.00    -0.353 N 
ATOM      3  C   UNL A   1      34.255  29.669  27.059  1.00  0.00     0.258 C 
ATOM      4  O   UNL A   1      34.731  28.534  27.099  1.00  0.00    -0.271 OA
ATOM      5  H   UNL A   1      35.372  30.282  28.602  1.00  0.00     0.163 HD
BRANCH   3   6
ATOM      6  C   UNL A   1      33.181  30.046  26.026  1.00  0.00     0.331 C 
BRANCH   6   7
ATOM      7  O   UNL A   1      33.365  29.545  24.714  1.00  0.00    -0.467 OA
BRANCH   7   8
ATOM      8  C   UNL A   1      32.502  28.584  24.266  1.00  0.00     0.219 A 
ATOM      9  C   UNL A   1      30.340  28.232  23.518  1.00  0.00     0.233 A 
ATOM     10  N   UNL A   1      31.309  29.083  23.908  1.00  0.00    -0.177 NA
ATOM     11  N   UNL A   1      30.527  26.904  23.490  1.00  0.00    -0.212 NA
ATOM     12  C   UNL A   1      31.746  26.431  23.801  1.00  0.00     0.080 A 
ATOM     13  C   UNL A   1      32.783  27.247  24.188  1.00  0.00     0.097 A 
BRANCH   9  14
ATOM     14  N   UNL A   1      29.098  28.765  23.126  1.00  0.00    -0.311 N 
BRANCH  14  15
ATOM     15  C   UNL A   1      27.968  27.825  23.128  1.00  0.00     0.122 C 
ATOM     16  C   UNL A   1      26.652  28.444  23.584  1.00  0.00     0.028 C 
ENDBRANCH  14  15
BRANCH  14  17
ATOM     17  C   UNL A   1      28.872  30.116  22.800  1.00  0.00     0.044 A 
ATOM     18  C   UNL A   1      28.994  31.155  23.735  1.00  0.00     0.026 A 
ATOM     19  C   UNL A   1      28.514  30.475  21.486  1.00  0.00     0.029 A 
ATOM     20  C   UNL A   1      28.753  32.487  23.379  1.00  0.00     0.002 A 
ATOM     21  C   UNL A   1      28.262  31.806  21.116  1.00  0.00    -0.049 A 
ATOM     22  C   UNL A   1      28.381  32.811  22.076  1.00  0.00     0.003 A 
ATOM     23  C   UNL A   1      27.850  32.125  19.709  1.00  0.00     0.044 C 
ENDBRANCH  14  17
ENDBRANCH   9  14
BRANCH  12  24
ATOM     24  C   UNL A   1      31.945  24.984  23.687  1.00  0.00     0.000 A 
ATOM     25  C   UNL A   1      31.032  24.085  24.264  1.00  0.00     0.010 A 
ATOM     26  C   UNL A   1      33.094  24.461  23.074  1.00  0.00     0.010 A 
ATOM     27  C   UNL A   1      31.274  22.710  24.259  1.00  0.00     0.004 A 
ATOM     28  C   UNL A   1      33.343  23.084  23.077  1.00  0.00     0.004 A 
ATOM     29  C   UNL A   1      32.439  22.200  23.677  1.00  0.00    -0.051 A 
ATOM     30  C   UNL A   1      32.739  20.732  23.721  1.00  0.00     0.044 C 
ENDBRANCH  12  24
ENDBRANCH   7   8
ENDBRANCH   6   7
ENDBRANCH   3   6
ENDBRANCH   1   2
BRANCH   1  31
ATOM     31  C   UNL A   1      34.875  32.654  29.323  1.00  0.00     0.042 C 
BRANCH  31  32
ATOM     32  C   UNL A   1      34.546  34.137  29.434  1.00  0.00     0.118 C 
BRANCH  32  33
ATOM     33  N   UNL A   1      33.593  34.462  30.491  1.00  0.00    -0.352 N 
ATOM     34  C   UNL A   1      33.729  34.396  31.871  1.00  0.00     0.251 C 
ATOM     35  H   UNL A   1      32.715  34.777  30.176  1.00  0.00     0.163 HD
ATOM     36  O   UNL A   1      32.798  34.713  32.587  1.00  0.00    -0.269 OA
BRANCH  34  37
ATOM     37  C   UNL A   1      35.052  34.081  32.469  1.00  0.00     0.039 A 
ATOM     38  C   UNL A   1      36.158  34.824  32.032  1.00  0.00     0.014 A 
ATOM     39  C   UNL A   1      35.240  32.959  33.266  1.00  0.00     0.014 A 
ATOM     40  C   UNL A   1      37.433  34.282  32.154  1.00  0.00     0.010 A 
ATOM     41  C   UNL A   1      36.483  32.365  33.288  1.00  0.00     0.010 A 
ATOM     42  C   UNL A   1      37.563  32.993  32.661  1.00  0.00    -0.014 A 
BRANCH  42  43
ATOM     43  C   UNL A   1      38.734  32.157  32.444  1.00  0.00     0.031 A 
ATOM     44  C   UNL A   1      38.621  30.878  31.723  1.00  0.00     0.074 A 
ATOM     45  C   UNL A   1      39.947  32.646  32.782  1.00  0.00     0.049 A 
ATOM     46  N   UNL A   1      39.528  29.962  31.734  1.00  0.00    -0.248 NA
ATOM     47  C   UNL A   1      37.426  30.494  30.981  1.00  0.00     0.031 C 
ATOM     48  C   UNL A   1      41.258  32.180  32.341  1.00  0.00     0.029 A 
ATOM     49  N   UNL A   1      40.227  33.558  33.800  1.00  0.00    -0.354 N 
ATOM     50  C   UNL A   1      39.194  29.043  30.770  1.00  0.00     0.074 A 
ATOM     51  C   UNL A   1      37.827  29.348  30.425  1.00  0.00     0.031 C 
ATOM     52  C   UNL A   1      42.182  32.594  33.223  1.00  0.00     0.029 A 
ATOM     53  C   UNL A   1      41.470  33.186  34.343  1.00  0.00     0.049 A 
ATOM     54  H   UNL A   1      39.664  34.315  34.084  1.00  0.00     0.167 HD
ATOM     55  C   UNL A   1      40.170  28.233  30.270  1.00  0.00     0.031 A 
ATOM     56  C   UNL A   1      41.566  32.753  35.634  1.00  0.00     0.031 A 
ATOM     57  C   UNL A   1      41.410  28.346  31.042  1.00  0.00     0.049 A 
ATOM     58  C   UNL A   1      42.093  31.340  35.771  1.00  0.00     0.074 A 
ATOM     59  C   UNL A   1      42.632  28.957  30.808  1.00  0.00     0.029 A 
ATOM     60  N   UNL A   1      41.393  28.015  32.393  1.00  0.00    -0.354 N 
ATOM     61  N   UNL A   1      42.122  30.468  34.802  1.00  0.00    -0.248 NA
ATOM     62  C   UNL A   1      42.601  30.792  37.024  1.00  0.00     0.031 C 
ATOM     63  C   UNL A   1      43.327  29.039  32.046  1.00  0.00     0.029 A 
ATOM     64  C   UNL A   1      42.543  28.450  33.021  1.00  0.00     0.049 A 
ATOM     65  H   UNL A   1      40.661  27.533  32.840  1.00  0.00     0.167 HD
ATOM     66  C   UNL A   1      42.628  29.277  35.262  1.00  0.00     0.074 A 
ATOM     67  C   UNL A   1      42.925  29.539  36.658  1.00  0.00     0.031 C 
ATOM     68  C   UNL A   1      42.741  28.186  34.445  1.00  0.00     0.031 A 
BRANCH  55  69
ATOM     69  C   UNL A   1      40.087  27.534  28.928  1.00  0.00    -0.014 A 
ATOM     70  C   UNL A   1      39.390  26.316  28.823  1.00  0.00     0.009 A 
ATOM     71  C   UNL A   1      40.735  27.960  27.755  1.00  0.00     0.009 A 
ATOM     72  C   UNL A   1      39.400  25.546  27.650  1.00  0.00     0.001 A 
ATOM     73  C   UNL A   1      40.761  27.194  26.582  1.00  0.00     0.001 A 
ATOM     74  C   UNL A   1      40.101  25.977  26.532  1.00  0.00     0.000 A 
ENDBRANCH  55  69
BRANCH  56  75
ATOM     75  C   UNL A   1      40.572  33.385  36.549  1.00  0.00    -0.014 A 
ATOM     76  C   UNL A   1      39.431  32.641  36.910  1.00  0.00     0.009 A 
ATOM     77  C   UNL A   1      40.917  34.499  37.328  1.00  0.00     0.009 A 
ATOM     78  C   UNL A   1      38.729  32.927  38.085  1.00  0.00     0.001 A 
ATOM     79  C   UNL A   1      40.198  34.793  38.496  1.00  0.00     0.001 A 
ATOM     80  C   UNL A   1      39.132  33.986  38.892  1.00  0.00     0.000 A 
ENDBRANCH  56  75
BRANCH  68  81
ATOM     81  C   UNL A   1      43.077  26.762  34.849  1.00  0.00    -0.014 A 
ATOM     82  C   UNL A   1      42.179  25.839  35.396  1.00  0.00     0.009 A 
ATOM     83  C   UNL A   1      44.376  26.266  34.570  1.00  0.00     0.009 A 
ATOM     84  C   UNL A   1      42.559  24.514  35.672  1.00  0.00     0.001 A 
ATOM     85  C   UNL A   1      44.748  24.939  34.799  1.00  0.00     0.001 A 
ATOM     86  C   UNL A   1      43.837  24.062  35.362  1.00  0.00     0.000 A 
ENDBRANCH  68  81
ENDBRANCH  42  43
ENDBRANCH  34  37
ENDBRANCH  32  33
ENDBRANCH  31  32
ENDBRANCH   1  31
TORSDOF 16
ENDMDL
