MODEL 1
REMARK VINA RESULT:     -11.6      0.000      0.000
REMARK SMILES CO[C@@H]1C[NH2+][C@@H](O[C@@H]2C[C@@H](C(=O)NCCCNC(=O)c3ccc(-c4c5nc(c(-c6ccccc6)c6ccc([nH]6)c(-c6ccccc6)c6nc(c(-c7ccccc7)c7ccc4[nH]7)C=C6)C=C5)cc3)N(C(=O)OC(C)(C)C)C2)c2cc(Cl)ccc21
REMARK SMILES IDX 14 1 13 2 11 3 12 4 10 6 8 7 9 8 76 9 68 10 7 11 6 12 3 13
REMARK SMILES IDX 4 14 83 15 5 16 77 17 82 18 78 21 81 22 79 23 80 24 2 25
REMARK SMILES IDX 1 26 69 27 70 28 71 29 72 30 73 31 74 32 75 33 15 34 16 35
REMARK SMILES IDX 17 36 18 37 19 39 20 40 21 41 67 42 22 43 66 44 23 45 24 46
REMARK SMILES IDX 25 47 60 48 26 49 65 50 59 51 61 52 27 53 64 54 58 55 57 56
REMARK SMILES IDX 28 58 50 59 35 60 49 61 36 62 39 63 48 64 62 65 37 66 38 67
REMARK SMILES IDX 47 69 63 70 40 71 29 72 30 73 34 74 31 75 33 76 32 77 51 78
REMARK SMILES IDX 52 79 56 80 53 81 55 82 54 83 41 84 42 85 46 86 43 87 45 88
REMARK SMILES IDX 44 89
REMARK H PARENT 13 5 5 19 5 20 17 38 61 57 39 68
REMARK Flexibility Score: inf
ROOT
ATOM      1  C   UNL A   1      31.547  28.087  26.819  1.00  0.00     0.117 C 
ENDROOT
BRANCH   1   2
ATOM      2  N   UNL A   1      30.710  26.870  26.912  1.00  0.00    -0.354 N 
ATOM      3  C   UNL A   1      30.744  25.641  26.252  1.00  0.00     0.243 C 
ATOM      4  O   UNL A   1      30.267  24.668  26.842  1.00  0.00    -0.273 OA
ATOM      5  H   UNL A   1      29.983  26.943  27.571  1.00  0.00     0.163 HD
BRANCH   3   6
ATOM      6  C   UNL A   1      31.350  25.506  24.825  1.00  0.00     0.180 C 
ATOM      7  C   UNL A   1      33.298  25.734  23.326  1.00  0.00     0.147 C 
ATOM      8  C   UNL A   1      32.893  25.415  24.782  1.00  0.00     0.069 C 
ATOM      9  C   UNL A   1      32.184  26.675  22.859  1.00  0.00     0.156 C 
ATOM     10  N   UNL A   1      31.049  26.460  23.756  1.00  0.00    -0.293 N 
BRANCH   7  11
ATOM     11  O   UNL A   1      33.793  24.797  22.366  1.00  0.00    -0.320 OA
BRANCH  11  12
ATOM     12  C   UNL A   1      34.021  23.389  22.397  1.00  0.00     0.354 C 
ATOM     13  C   UNL A   1      32.266  22.091  24.327  1.00  0.00     0.203 C 
ATOM     14  C   UNL A   1      31.857  22.375  22.856  1.00  0.00     0.300 C 
ATOM     15  C   UNL A   1      33.728  22.441  24.655  1.00  0.00    -0.002 A 
ATOM     16  N   UNL A   1      32.927  22.584  21.897  1.00  0.00    -0.315 N 
ATOM     17  C   UNL A   1      34.608  22.863  23.670  1.00  0.00     0.046 A 
ATOM     18  C   UNL A   1      34.218  22.625  25.943  1.00  0.00     0.009 A 
ATOM     19  H   UNL A   1      32.535  23.050  21.078  1.00  0.00     0.349 HD
ATOM     20  H   UNL A   1      33.313  21.665  21.682  1.00  0.00     0.349 HD
ATOM     21  C   UNL A   1      35.992  23.015  23.934  1.00  0.00     0.033 A 
ATOM     22  C   UNL A   1      35.554  22.893  26.265  1.00  0.00     0.021 A 
ATOM     23  C   UNL A   1      36.466  22.989  25.239  1.00  0.00     0.041 A 
ATOM     24  Cl  UNL A   1      38.126  23.253  25.582  1.00  0.00    -0.084 Cl
BRANCH  13  25
ATOM     25  O   UNL A   1      31.880  20.789  24.797  1.00  0.00    -0.371 OA
ATOM     26  C   UNL A   1      32.565  19.739  24.094  1.00  0.00     0.196 C 
ENDBRANCH  13  25
ENDBRANCH  11  12
ENDBRANCH   7  11
BRANCH  10  27
ATOM     27  C   UNL A   1      29.797  26.894  23.383  1.00  0.00     0.411 C 
ATOM     28  O   UNL A   1      28.767  26.441  23.849  1.00  0.00    -0.224 OA
BRANCH  27  29
ATOM     29  O   UNL A   1      29.859  27.864  22.435  1.00  0.00    -0.444 OA
BRANCH  29  30
ATOM     30  C   UNL A   1      29.428  29.217  22.741  1.00  0.00     0.106 C 
ATOM     31  C   UNL A   1      27.904  29.302  22.885  1.00  0.00     0.056 C 
ATOM     32  C   UNL A   1      30.162  29.778  23.962  1.00  0.00     0.056 C 
ATOM     33  C   UNL A   1      29.827  30.048  21.513  1.00  0.00     0.056 C 
ENDBRANCH  29  30
ENDBRANCH  27  29
ENDBRANCH  10  27
ENDBRANCH   3   6
ENDBRANCH   1   2
BRANCH   1  34
ATOM     34  C   UNL A   1      33.078  27.976  27.013  1.00  0.00     0.042 C 
BRANCH  34  35
ATOM     35  C   UNL A   1      33.919  28.900  26.156  1.00  0.00     0.118 C 
BRANCH  35  36
ATOM     36  N   UNL A   1      33.758  30.273  26.596  1.00  0.00    -0.352 N 
ATOM     37  C   UNL A   1      34.415  30.947  27.599  1.00  0.00     0.251 C 
ATOM     38  H   UNL A   1      33.083  30.796  26.107  1.00  0.00     0.163 HD
ATOM     39  O   UNL A   1      33.905  31.958  28.072  1.00  0.00    -0.269 OA
BRANCH  37  40
ATOM     40  C   UNL A   1      35.725  30.470  28.110  1.00  0.00     0.039 A 
ATOM     41  C   UNL A   1      36.919  30.802  27.466  1.00  0.00     0.014 A 
ATOM     42  C   UNL A   1      35.771  29.719  29.291  1.00  0.00     0.014 A 
ATOM     43  C   UNL A   1      38.124  30.261  27.901  1.00  0.00     0.010 A 
ATOM     44  C   UNL A   1      37.000  29.273  29.794  1.00  0.00     0.010 A 
ATOM     45  C   UNL A   1      38.186  29.508  29.084  1.00  0.00    -0.014 A 
BRANCH  45  46
ATOM     46  C   UNL A   1      39.507  29.006  29.558  1.00  0.00     0.031 A 
ATOM     47  C   UNL A   1      40.249  29.710  30.663  1.00  0.00     0.074 A 
ATOM     48  C   UNL A   1      40.010  27.873  29.028  1.00  0.00     0.049 A 
ATOM     49  N   UNL A   1      41.391  29.387  31.219  1.00  0.00    -0.248 NA
ATOM     50  C   UNL A   1      39.642  30.932  31.215  1.00  0.00     0.031 C 
ATOM     51  C   UNL A   1      39.378  27.089  27.964  1.00  0.00     0.029 A 
ATOM     52  N   UNL A   1      41.144  27.158  29.330  1.00  0.00    -0.354 N 
ATOM     53  C   UNL A   1      41.643  30.370  32.168  1.00  0.00     0.074 A 
ATOM     54  C   UNL A   1      40.561  31.324  32.087  1.00  0.00     0.031 C 
ATOM     55  C   UNL A   1      40.087  25.972  27.757  1.00  0.00     0.029 A 
ATOM     56  C   UNL A   1      41.273  25.996  28.606  1.00  0.00     0.049 A 
ATOM     57  H   UNL A   1      41.803  27.451  30.002  1.00  0.00     0.167 HD
ATOM     58  C   UNL A   1      42.676  30.459  33.039  1.00  0.00     0.031 A 
ATOM     59  C   UNL A   1      42.238  25.056  28.608  1.00  0.00     0.031 A 
ATOM     60  C   UNL A   1      43.744  29.496  33.126  1.00  0.00     0.049 A 
ATOM     61  C   UNL A   1      43.402  25.207  29.546  1.00  0.00     0.074 A 
ATOM     62  C   UNL A   1      44.823  29.493  33.992  1.00  0.00     0.029 A 
ATOM     63  N   UNL A   1      43.867  28.369  32.328  1.00  0.00    -0.354 N 
ATOM     64  N   UNL A   1      43.614  26.135  30.447  1.00  0.00    -0.248 NA
ATOM     65  C   UNL A   1      44.456  24.187  29.472  1.00  0.00     0.031 C 
ATOM     66  C   UNL A   1      45.639  28.411  33.666  1.00  0.00     0.029 A 
ATOM     67  C   UNL A   1      45.022  27.683  32.661  1.00  0.00     0.049 A 
ATOM     68  H   UNL A   1      43.228  28.098  31.629  1.00  0.00     0.167 HD
ATOM     69  C   UNL A   1      44.811  25.798  31.065  1.00  0.00     0.074 A 
ATOM     70  C   UNL A   1      45.269  24.570  30.449  1.00  0.00     0.031 C 
ATOM     71  C   UNL A   1      45.468  26.455  32.052  1.00  0.00     0.031 A 
BRANCH  58  72
ATOM     72  C   UNL A   1      42.723  31.638  33.977  1.00  0.00    -0.014 A 
ATOM     73  C   UNL A   1      42.051  31.575  35.209  1.00  0.00     0.009 A 
ATOM     74  C   UNL A   1      43.329  32.847  33.599  1.00  0.00     0.009 A 
ATOM     75  C   UNL A   1      41.964  32.701  36.031  1.00  0.00     0.001 A 
ATOM     76  C   UNL A   1      43.271  33.961  34.439  1.00  0.00     0.001 A 
ATOM     77  C   UNL A   1      42.577  33.891  35.648  1.00  0.00     0.000 A 
ENDBRANCH  58  72
BRANCH  59  78
ATOM     78  C   UNL A   1      42.123  23.887  27.690  1.00  0.00    -0.014 A 
ATOM     79  C   UNL A   1      41.466  22.715  28.104  1.00  0.00     0.009 A 
ATOM     80  C   UNL A   1      42.722  23.908  26.422  1.00  0.00     0.009 A 
ATOM     81  C   UNL A   1      41.445  21.581  27.289  1.00  0.00     0.001 A 
ATOM     82  C   UNL A   1      42.665  22.785  25.592  1.00  0.00     0.001 A 
ATOM     83  C   UNL A   1      42.041  21.619  26.031  1.00  0.00     0.000 A 
ENDBRANCH  59  78
BRANCH  71  84
ATOM     84  C   UNL A   1      46.751  25.862  32.569  1.00  0.00    -0.014 A 
ATOM     85  C   UNL A   1      47.955  26.116  31.888  1.00  0.00     0.009 A 
ATOM     86  C   UNL A   1      46.756  24.952  33.636  1.00  0.00     0.009 A 
ATOM     87  C   UNL A   1      49.128  25.449  32.244  1.00  0.00     0.001 A 
ATOM     88  C   UNL A   1      47.939  24.313  34.014  1.00  0.00     0.001 A 
ATOM     89  C   UNL A   1      49.119  24.550  33.309  1.00  0.00     0.000 A 
ENDBRANCH  71  84
ENDBRANCH  45  46
ENDBRANCH  37  40
ENDBRANCH  35  36
ENDBRANCH  34  35
ENDBRANCH   1  34
TORSDOF 16
ENDMDL
MODEL 2
REMARK VINA RESULT:     -11.6      2.893      6.207
REMARK SMILES CO[C@@H]1C[NH2+][C@@H](O[C@@H]2C[C@@H](C(=O)NCCCNC(=O)c3ccc(-c4c5nc(c(-c6ccccc6)c6ccc([nH]6)c(-c6ccccc6)c6nc(c(-c7ccccc7)c7ccc4[nH]7)C=C6)C=C5)cc3)N(C(=O)OC(C)(C)C)C2)c2cc(Cl)ccc21
REMARK SMILES IDX 14 1 13 2 11 3 12 4 10 6 8 7 9 8 76 9 68 10 7 11 6 12 3 13
REMARK SMILES IDX 4 14 83 15 5 16 77 17 82 18 78 21 81 22 79 23 80 24 2 25
REMARK SMILES IDX 1 26 69 27 70 28 71 29 72 30 73 31 74 32 75 33 15 34 16 35
REMARK SMILES IDX 17 36 18 37 19 39 20 40 21 41 67 42 22 43 66 44 23 45 24 46
REMARK SMILES IDX 25 47 60 48 26 49 65 50 59 51 61 52 27 53 64 54 58 55 57 56
REMARK SMILES IDX 28 58 50 59 35 60 49 61 36 62 39 63 48 64 62 65 37 66 38 67
REMARK SMILES IDX 47 69 63 70 40 71 29 72 30 73 34 74 31 75 33 76 32 77 51 78
REMARK SMILES IDX 52 79 56 80 53 81 55 82 54 83 41 84 42 85 46 86 43 87 45 88
REMARK SMILES IDX 44 89
REMARK H PARENT 13 5 5 19 5 20 17 38 61 57 39 68
REMARK Flexibility Score: inf
ROOT
ATOM      1  C   UNL A   1      32.578  29.596  25.640  1.00  0.00     0.117 C 
ENDROOT
BRANCH   1   2
ATOM      2  N   UNL A   1      31.634  28.628  26.242  1.00  0.00    -0.354 N 
ATOM      3  C   UNL A   1      31.407  27.267  26.034  1.00  0.00     0.243 C 
ATOM      4  O   UNL A   1      30.931  26.622  26.972  1.00  0.00    -0.273 OA
ATOM      5  H   UNL A   1      31.048  29.025  26.927  1.00  0.00     0.163 HD
BRANCH   3   6
ATOM      6  C   UNL A   1      31.731  26.593  24.669  1.00  0.00     0.180 C 
ATOM      7  C   UNL A   1      33.350  26.165  22.855  1.00  0.00     0.147 C 
ATOM      8  C   UNL A   1      33.239  26.418  24.375  1.00  0.00     0.069 C 
ATOM      9  C   UNL A   1      32.145  26.924  22.293  1.00  0.00     0.156 C 
ATOM     10  N   UNL A   1      31.208  27.106  23.401  1.00  0.00    -0.293 N 
BRANCH   7  11
ATOM     11  O   UNL A   1      33.674  24.920  22.232  1.00  0.00    -0.320 OA
BRANCH  11  12
ATOM     12  C   UNL A   1      33.439  23.557  22.580  1.00  0.00     0.354 C 
ATOM     13  C   UNL A   1      31.686  23.363  24.900  1.00  0.00     0.203 C 
ATOM     14  C   UNL A   1      31.164  23.475  23.442  1.00  0.00     0.300 C 
ATOM     15  C   UNL A   1      33.216  23.237  25.015  1.00  0.00    -0.002 A 
ATOM     16  N   UNL A   1      32.079  23.104  22.378  1.00  0.00    -0.315 N 
ATOM     17  C   UNL A   1      34.018  23.122  23.890  1.00  0.00     0.046 A 
ATOM     18  C   UNL A   1      33.936  23.489  26.178  1.00  0.00     0.009 A 
ATOM     19  H   UNL A   1      31.734  23.506  21.505  1.00  0.00     0.349 HD
ATOM     20  H   UNL A   1      32.109  22.084  22.359  1.00  0.00     0.349 HD
ATOM     21  C   UNL A   1      35.400  22.830  23.997  1.00  0.00     0.033 A 
ATOM     22  C   UNL A   1      35.320  23.332  26.317  1.00  0.00     0.021 A 
ATOM     23  C   UNL A   1      36.040  22.897  25.228  1.00  0.00     0.041 A 
ATOM     24  Cl  UNL A   1      37.729  22.628  25.363  1.00  0.00    -0.084 Cl
BRANCH  13  25
ATOM     25  O   UNL A   1      30.981  22.398  25.698  1.00  0.00    -0.371 OA
ATOM     26  C   UNL A   1      30.270  23.016  26.783  1.00  0.00     0.196 C 
ENDBRANCH  13  25
ENDBRANCH  11  12
ENDBRANCH   7  11
BRANCH  10  27
ATOM     27  C   UNL A   1      29.898  27.435  23.137  1.00  0.00     0.411 C 
ATOM     28  O   UNL A   1      28.950  26.869  23.651  1.00  0.00    -0.224 OA
BRANCH  27  29
ATOM     29  O   UNL A   1      29.802  28.444  22.234  1.00  0.00    -0.444 OA
BRANCH  29  30
ATOM     30  C   UNL A   1      28.968  29.600  22.511  1.00  0.00     0.106 C 
ATOM     31  C   UNL A   1      29.517  30.422  23.682  1.00  0.00     0.056 C 
ATOM     32  C   UNL A   1      28.750  30.449  21.255  1.00  0.00     0.056 C 
ATOM     33  C   UNL A   1      27.614  29.019  22.943  1.00  0.00     0.056 C 
ENDBRANCH  29  30
ENDBRANCH  27  29
ENDBRANCH  10  27
ENDBRANCH   3   6
ENDBRANCH   1   2
BRANCH   1  34
ATOM     34  C   UNL A   1      34.091  29.471  25.938  1.00  0.00     0.042 C 
BRANCH  34  35
ATOM     35  C   UNL A   1      34.451  29.072  27.353  1.00  0.00     0.118 C 
BRANCH  35  36
ATOM     36  N   UNL A   1      34.479  30.241  28.211  1.00  0.00    -0.352 N 
ATOM     37  C   UNL A   1      35.454  30.653  29.089  1.00  0.00     0.251 C 
ATOM     38  H   UNL A   1      33.686  30.822  28.158  1.00  0.00     0.163 HD
ATOM     39  O   UNL A   1      35.158  31.438  29.985  1.00  0.00    -0.269 OA
BRANCH  37  40
ATOM     40  C   UNL A   1      36.851  30.165  28.963  1.00  0.00     0.039 A 
ATOM     41  C   UNL A   1      37.539  30.240  27.750  1.00  0.00     0.014 A 
ATOM     42  C   UNL A   1      37.512  29.673  30.095  1.00  0.00     0.014 A 
ATOM     43  C   UNL A   1      38.808  29.684  27.629  1.00  0.00     0.010 A 
ATOM     44  C   UNL A   1      38.834  29.221  29.997  1.00  0.00     0.010 A 
ATOM     45  C   UNL A   1      39.484  29.188  28.754  1.00  0.00    -0.014 A 
BRANCH  45  46
ATOM     46  C   UNL A   1      40.871  28.667  28.599  1.00  0.00     0.031 A 
ATOM     47  C   UNL A   1      41.121  27.223  28.255  1.00  0.00     0.074 A 
ATOM     48  C   UNL A   1      41.911  29.519  28.712  1.00  0.00     0.049 A 
ATOM     49  N   UNL A   1      42.263  26.615  28.050  1.00  0.00    -0.248 NA
ATOM     50  C   UNL A   1      39.947  26.345  28.128  1.00  0.00     0.031 C 
ATOM     51  C   UNL A   1      41.799  30.946  29.025  1.00  0.00     0.029 A 
ATOM     52  N   UNL A   1      43.261  29.327  28.540  1.00  0.00    -0.354 N 
ATOM     53  C   UNL A   1      41.945  25.287  27.787  1.00  0.00     0.074 A 
ATOM     54  C   UNL A   1      40.509  25.166  27.899  1.00  0.00     0.031 C 
ATOM     55  C   UNL A   1      43.011  31.512  28.949  1.00  0.00     0.029 A 
ATOM     56  C   UNL A   1      44.002  30.478  28.670  1.00  0.00     0.049 A 
ATOM     57  H   UNL A   1      43.659  28.448  28.344  1.00  0.00     0.167 HD
ATOM     58  C   UNL A   1      42.775  24.267  27.465  1.00  0.00     0.031 A 
ATOM     59  C   UNL A   1      45.331  30.688  28.589  1.00  0.00     0.031 A 
ATOM     60  C   UNL A   1      44.204  24.397  27.340  1.00  0.00     0.049 A 
ATOM     61  C   UNL A   1      46.235  29.527  28.285  1.00  0.00     0.074 A 
ATOM     62  C   UNL A   1      45.124  23.422  26.998  1.00  0.00     0.029 A 
ATOM     63  N   UNL A   1      44.918  25.569  27.544  1.00  0.00    -0.354 N 
ATOM     64  N   UNL A   1      45.913  28.283  28.023  1.00  0.00    -0.248 NA
ATOM     65  C   UNL A   1      47.679  29.794  28.262  1.00  0.00     0.031 C 
ATOM     66  C   UNL A   1      46.399  23.982  27.073  1.00  0.00     0.029 A 
ATOM     67  C   UNL A   1      46.269  25.330  27.368  1.00  0.00     0.049 A 
ATOM     68  H   UNL A   1      44.522  26.439  27.780  1.00  0.00     0.167 HD
ATOM     69  C   UNL A   1      47.111  27.625  27.781  1.00  0.00     0.074 A 
ATOM     70  C   UNL A   1      48.165  28.610  27.907  1.00  0.00     0.031 C 
ATOM     71  C   UNL A   1      47.313  26.318  27.483  1.00  0.00     0.031 A 
BRANCH  58  72
ATOM     72  C   UNL A   1      42.177  22.904  27.228  1.00  0.00    -0.014 A 
ATOM     73  C   UNL A   1      41.669  22.578  25.959  1.00  0.00     0.009 A 
ATOM     74  C   UNL A   1      42.007  21.989  28.279  1.00  0.00     0.009 A 
ATOM     75  C   UNL A   1      40.987  21.378  25.752  1.00  0.00     0.001 A 
ATOM     76  C   UNL A   1      41.355  20.773  28.060  1.00  0.00     0.001 A 
ATOM     77  C   UNL A   1      40.834  20.474  26.801  1.00  0.00     0.000 A 
ENDBRANCH  58  72
BRANCH  59  78
ATOM     78  C   UNL A   1      45.868  32.063  28.790  1.00  0.00    -0.014 A 
ATOM     79  C   UNL A   1      46.050  32.928  27.697  1.00  0.00     0.009 A 
ATOM     80  C   UNL A   1      46.264  32.499  30.064  1.00  0.00     0.009 A 
ATOM     81  C   UNL A   1      46.650  34.178  27.865  1.00  0.00     0.001 A 
ATOM     82  C   UNL A   1      46.827  33.767  30.236  1.00  0.00     0.001 A 
ATOM     83  C   UNL A   1      47.033  34.598  29.136  1.00  0.00     0.000 A 
ENDBRANCH  59  78
BRANCH  71  84
ATOM     84  C   UNL A   1      48.724  25.853  27.240  1.00  0.00    -0.014 A 
ATOM     85  C   UNL A   1      49.527  25.477  28.331  1.00  0.00     0.009 A 
ATOM     86  C   UNL A   1      49.302  25.915  25.963  1.00  0.00     0.009 A 
ATOM     87  C   UNL A   1      50.883  25.203  28.155  1.00  0.00     0.001 A 
ATOM     88  C   UNL A   1      50.652  25.605  25.784  1.00  0.00     0.001 A 
ATOM     89  C   UNL A   1      51.444  25.264  26.880  1.00  0.00     0.000 A 
ENDBRANCH  71  84
ENDBRANCH  45  46
ENDBRANCH  37  40
ENDBRANCH  35  36
ENDBRANCH  34  35
ENDBRANCH   1  34
TORSDOF 16
ENDMDL
MODEL 3
REMARK VINA RESULT:     -11.6      2.725      7.668
REMARK SMILES CO[C@@H]1C[NH2+][C@@H](O[C@@H]2C[C@@H](C(=O)NCCCNC(=O)c3ccc(-c4c5nc(c(-c6ccccc6)c6ccc([nH]6)c(-c6ccccc6)c6nc(c(-c7ccccc7)c7ccc4[nH]7)C=C6)C=C5)cc3)N(C(=O)OC(C)(C)C)C2)c2cc(Cl)ccc21
REMARK SMILES IDX 14 1 13 2 11 3 12 4 10 6 8 7 9 8 76 9 68 10 7 11 6 12 3 13
REMARK SMILES IDX 4 14 83 15 5 16 77 17 82 18 78 21 81 22 79 23 80 24 2 25
REMARK SMILES IDX 1 26 69 27 70 28 71 29 72 30 73 31 74 32 75 33 15 34 16 35
REMARK SMILES IDX 17 36 18 37 19 39 20 40 21 41 67 42 22 43 66 44 23 45 24 46
REMARK SMILES IDX 25 47 60 48 26 49 65 50 59 51 61 52 27 53 64 54 58 55 57 56
REMARK SMILES IDX 28 58 50 59 35 60 49 61 36 62 39 63 48 64 62 65 37 66 38 67
REMARK SMILES IDX 47 69 63 70 40 71 29 72 30 73 34 74 31 75 33 76 32 77 51 78
REMARK SMILES IDX 52 79 56 80 53 81 55 82 54 83 41 84 42 85 46 86 43 87 45 88
REMARK SMILES IDX 44 89
REMARK H PARENT 13 5 5 19 5 20 17 38 61 57 39 68
REMARK Flexibility Score: inf
ROOT
ATOM      1  C   UNL A   1      35.629  22.286  24.464  1.00  0.00     0.117 C 
ENDROOT
BRANCH   1   2
ATOM      2  N   UNL A   1      35.393  22.137  25.917  1.00  0.00    -0.354 N 
ATOM      3  C   UNL A   1      34.233  22.020  26.684  1.00  0.00     0.243 C 
ATOM      4  O   UNL A   1      34.325  21.435  27.766  1.00  0.00    -0.273 OA
ATOM      5  H   UNL A   1      36.220  22.116  26.450  1.00  0.00     0.163 HD
BRANCH   3   6
ATOM      6  C   UNL A   1      32.880  22.615  26.198  1.00  0.00     0.180 C 
ATOM      7  C   UNL A   1      30.644  23.507  26.746  1.00  0.00     0.147 C 
ATOM      8  C   UNL A   1      32.092  23.397  27.274  1.00  0.00     0.069 C 
ATOM      9  C   UNL A   1      30.493  22.242  25.897  1.00  0.00     0.156 C 
ATOM     10  N   UNL A   1      31.845  21.791  25.569  1.00  0.00    -0.293 N 
BRANCH   7  11
ATOM     11  O   UNL A   1      30.016  24.693  26.252  1.00  0.00    -0.320 OA
BRANCH  11  12
ATOM     12  C   UNL A   1      30.289  25.564  25.157  1.00  0.00     0.354 C 
ATOM     13  C   UNL A   1      32.210  24.363  23.324  1.00  0.00     0.203 C 
ATOM     14  C   UNL A   1      30.679  24.118  23.238  1.00  0.00     0.300 C 
ATOM     15  C   UNL A   1      32.626  25.396  24.385  1.00  0.00    -0.002 A 
ATOM     16  N   UNL A   1      29.813  25.095  23.873  1.00  0.00    -0.315 N 
ATOM     17  C   UNL A   1      31.682  26.112  25.106  1.00  0.00     0.046 A 
ATOM     18  C   UNL A   1      33.913  25.515  24.899  1.00  0.00     0.009 A 
ATOM     19  H   UNL A   1      28.896  24.669  24.009  1.00  0.00     0.349 HD
ATOM     20  H   UNL A   1      29.784  25.907  23.256  1.00  0.00     0.349 HD
ATOM     21  C   UNL A   1      32.058  27.184  25.952  1.00  0.00     0.033 A 
ATOM     22  C   UNL A   1      34.323  26.481  25.826  1.00  0.00     0.021 A 
ATOM     23  C   UNL A   1      33.392  27.389  26.278  1.00  0.00     0.041 A 
ATOM     24  Cl  UNL A   1      33.857  28.630  27.366  1.00  0.00    -0.084 Cl
BRANCH  13  25
ATOM     25  O   UNL A   1      32.835  24.582  22.049  1.00  0.00    -0.371 OA
ATOM     26  C   UNL A   1      32.431  25.828  21.459  1.00  0.00     0.196 C 
ENDBRANCH  13  25
ENDBRANCH  11  12
ENDBRANCH   7  11
BRANCH  10  27
ATOM     27  C   UNL A   1      32.032  20.898  24.539  1.00  0.00     0.411 C 
ATOM     28  O   UNL A   1      32.291  21.238  23.399  1.00  0.00    -0.224 OA
BRANCH  27  29
ATOM     29  O   UNL A   1      31.881  19.613  24.950  1.00  0.00    -0.444 OA
BRANCH  29  30
ATOM     30  C   UNL A   1      32.768  18.574  24.456  1.00  0.00     0.106 C 
ATOM     31  C   UNL A   1      32.405  18.157  23.027  1.00  0.00     0.056 C 
ATOM     32  C   UNL A   1      34.238  18.983  24.589  1.00  0.00     0.056 C 
ATOM     33  C   UNL A   1      32.518  17.368  25.372  1.00  0.00     0.056 C 
ENDBRANCH  29  30
ENDBRANCH  27  29
ENDBRANCH  10  27
ENDBRANCH   3   6
ENDBRANCH   1   2
BRANCH   1  34
ATOM     34  C   UNL A   1      36.834  23.120  23.968  1.00  0.00     0.042 C 
BRANCH  34  35
ATOM     35  C   UNL A   1      37.704  23.726  25.049  1.00  0.00     0.118 C 
BRANCH  35  36
ATOM     36  N   UNL A   1      38.678  22.754  25.511  1.00  0.00    -0.352 N 
ATOM     37  C   UNL A   1      39.875  22.961  26.154  1.00  0.00     0.251 C 
ATOM     38  H   UNL A   1      38.448  21.813  25.339  1.00  0.00     0.163 HD
ATOM     39  O   UNL A   1      40.725  22.076  26.134  1.00  0.00    -0.269 OA
BRANCH  37  40
ATOM     40  C   UNL A   1      40.149  24.235  26.868  1.00  0.00     0.039 A 
ATOM     41  C   UNL A   1      39.706  24.442  28.176  1.00  0.00     0.014 A 
ATOM     42  C   UNL A   1      40.914  25.225  26.240  1.00  0.00     0.014 A 
ATOM     43  C   UNL A   1      39.885  25.678  28.788  1.00  0.00     0.010 A 
ATOM     44  C   UNL A   1      41.193  26.426  26.904  1.00  0.00     0.010 A 
ATOM     45  C   UNL A   1      40.649  26.680  28.172  1.00  0.00    -0.014 A 
BRANCH  45  46
ATOM     46  C   UNL A   1      40.880  27.965  28.891  1.00  0.00     0.031 A 
ATOM     47  C   UNL A   1      39.800  29.010  28.971  1.00  0.00     0.074 A 
ATOM     48  C   UNL A   1      42.054  28.163  29.525  1.00  0.00     0.049 A 
ATOM     49  N   UNL A   1      39.823  30.168  29.584  1.00  0.00    -0.248 NA
ATOM     50  C   UNL A   1      38.534  28.731  28.273  1.00  0.00     0.031 C 
ATOM     51  C   UNL A   1      43.174  27.218  29.537  1.00  0.00     0.029 A 
ATOM     52  N   UNL A   1      42.492  29.200  30.313  1.00  0.00    -0.354 N 
ATOM     53  C   UNL A   1      38.589  30.756  29.333  1.00  0.00     0.074 A 
ATOM     54  C   UNL A   1      37.855  29.850  28.478  1.00  0.00     0.031 C 
ATOM     55  C   UNL A   1      44.133  27.681  30.350  1.00  0.00     0.029 A 
ATOM     56  C   UNL A   1      43.742  28.994  30.850  1.00  0.00     0.049 A 
ATOM     57  H   UNL A   1      41.962  30.014  30.478  1.00  0.00     0.167 HD
ATOM     58  C   UNL A   1      38.106  31.936  29.789  1.00  0.00     0.031 A 
ATOM     59  C   UNL A   1      44.502  29.772  31.645  1.00  0.00     0.031 A 
ATOM     60  C   UNL A   1      38.836  32.826  30.654  1.00  0.00     0.049 A 
ATOM     61  C   UNL A   1      43.964  31.103  32.092  1.00  0.00     0.074 A 
ATOM     62  C   UNL A   1      38.420  34.035  31.183  1.00  0.00     0.029 A 
ATOM     63  N   UNL A   1      40.124  32.606  31.120  1.00  0.00    -0.354 N 
ATOM     64  N   UNL A   1      42.788  31.633  31.858  1.00  0.00    -0.248 NA
ATOM     65  C   UNL A   1      44.850  31.940  32.911  1.00  0.00     0.031 C 
ATOM     66  C   UNL A   1      39.482  34.584  31.902  1.00  0.00     0.029 A 
ATOM     67  C   UNL A   1      40.528  33.674  31.902  1.00  0.00     0.049 A 
ATOM     68  H   UNL A   1      40.669  31.810  30.922  1.00  0.00     0.167 HD
ATOM     69  C   UNL A   1      42.784  32.854  32.519  1.00  0.00     0.074 A 
ATOM     70  C   UNL A   1      44.066  32.976  33.181  1.00  0.00     0.031 C 
ATOM     71  C   UNL A   1      41.801  33.786  32.568  1.00  0.00     0.031 A 
BRANCH  58  72
ATOM     72  C   UNL A   1      36.722  32.355  29.366  1.00  0.00    -0.014 A 
ATOM     73  C   UNL A   1      36.556  33.159  28.225  1.00  0.00     0.009 A 
ATOM     74  C   UNL A   1      35.597  32.059  30.152  1.00  0.00     0.009 A 
ATOM     75  C   UNL A   1      35.302  33.674  27.893  1.00  0.00     0.001 A 
ATOM     76  C   UNL A   1      34.337  32.548  29.798  1.00  0.00     0.001 A 
ATOM     77  C   UNL A   1      34.193  33.365  28.677  1.00  0.00     0.000 A 
ENDBRANCH  58  72
BRANCH  59  78
ATOM     78  C   UNL A   1      45.847  29.292  32.070  1.00  0.00    -0.014 A 
ATOM     79  C   UNL A   1      46.008  28.590  33.277  1.00  0.00     0.009 A 
ATOM     80  C   UNL A   1      46.987  29.587  31.308  1.00  0.00     0.009 A 
ATOM     81  C   UNL A   1      47.278  28.230  33.731  1.00  0.00     0.001 A 
ATOM     82  C   UNL A   1      48.254  29.190  31.745  1.00  0.00     0.001 A 
ATOM     83  C   UNL A   1      48.400  28.525  32.961  1.00  0.00     0.000 A 
ENDBRANCH  59  78
BRANCH  71  84
ATOM     84  C   UNL A   1      42.039  35.029  33.384  1.00  0.00    -0.014 A 
ATOM     85  C   UNL A   1      42.847  36.054  32.864  1.00  0.00     0.009 A 
ATOM     86  C   UNL A   1      41.585  35.130  34.707  1.00  0.00     0.009 A 
ATOM     87  C   UNL A   1      43.221  37.139  33.659  1.00  0.00     0.001 A 
ATOM     88  C   UNL A   1      41.930  36.234  35.489  1.00  0.00     0.001 A 
ATOM     89  C   UNL A   1      42.758  37.229  34.970  1.00  0.00     0.000 A 
ENDBRANCH  71  84
ENDBRANCH  45  46
ENDBRANCH  37  40
ENDBRANCH  35  36
ENDBRANCH  34  35
ENDBRANCH   1  34
TORSDOF 16
ENDMDL
