MODEL 1
REMARK VINA RESULT:     -11.2      0.000      0.000
REMARK SMILES CC(C)(C)[N@H+](CCC(=O)Nc1ccccc1F)CC(=O)NCCCNC(=O)c1ccc(-c2c3nc(c(-c4ccccc4)c4ccc([nH]4)c(-c4ccccc4)c4nc(c(-c5ccccc5)c5ccc2[nH]5)C=C4)C=C3)cc1
REMARK SMILES IDX 19 1 20 2 21 3 18 5 5 6 2 8 1 9 3 10 4 11 6 12 7 13 8 14
REMARK SMILES IDX 9 15 10 16 11 18 12 19 16 20 13 21 15 22 17 23 14 24 22 25
REMARK SMILES IDX 23 26 24 27 25 28 26 29 27 31 28 32 29 33 75 34 30 35 74 36
REMARK SMILES IDX 31 37 32 38 33 39 68 40 34 41 73 42 67 43 69 44 35 45 72 46
REMARK SMILES IDX 66 47 65 48 36 50 58 51 43 52 57 53 44 54 47 55 56 56 70 57
REMARK SMILES IDX 45 58 46 59 55 61 71 62 48 63 37 64 38 65 42 66 39 67 41 68
REMARK SMILES IDX 40 69 59 70 60 71 64 72 61 73 63 74 62 75 49 76 50 77 54 78
REMARK SMILES IDX 51 79 53 80 52 81
REMARK H PARENT 21 4 5 7 10 17 25 30 69 49 47 60
REMARK Flexibility Score: inf
ROOT
ATOM      1  C   UNL A   1      34.229  20.468  25.397  1.00  0.00     0.275 C 
ATOM      2  O   UNL A   1      33.393  19.556  25.331  1.00  0.00    -0.269 OA
ATOM      3  N   UNL A   1      35.502  20.108  25.097  1.00  0.00    -0.351 N 
ATOM      4  H   UNL A   1      35.573  19.178  24.781  1.00  0.00     0.163 HD
ENDROOT
BRANCH   1   5
ATOM      5  C   UNL A   1      33.749  21.902  25.553  1.00  0.00     0.363 C 
BRANCH   5   6
ATOM      6  N   UNL A   1      33.068  22.589  24.434  1.00  0.00    -0.323 N 
ATOM      7  H   UNL A   1      33.010  21.941  23.649  1.00  0.00     0.349 HD
BRANCH   6   8
ATOM      8  C   UNL A   1      33.871  23.808  23.975  1.00  0.00     0.090 C 
ATOM      9  C   UNL A   1      33.044  24.750  23.059  1.00  0.00     0.078 C 
ATOM     10  C   UNL A   1      35.082  23.346  23.126  1.00  0.00     0.078 C 
ATOM     11  C   UNL A   1      34.412  24.713  25.122  1.00  0.00     0.078 C 
ENDBRANCH   6   8
BRANCH   6  12
ATOM     12  C   UNL A   1      31.667  22.969  24.815  1.00  0.00     0.273 C 
BRANCH  12  13
ATOM     13  C   UNL A   1      31.132  22.937  26.272  1.00  0.00     0.161 C 
BRANCH  13  14
ATOM     14  C   UNL A   1      29.888  23.657  26.844  1.00  0.00     0.230 C 
ATOM     15  O   UNL A   1      29.156  23.031  27.626  1.00  0.00    -0.275 OA
ATOM     16  N   UNL A   1      29.547  24.959  26.628  1.00  0.00    -0.323 N 
ATOM     17  H   UNL A   1      28.893  25.327  27.265  1.00  0.00     0.170 HD
BRANCH  16  18
ATOM     18  C   UNL A   1      29.982  25.854  25.643  1.00  0.00     0.077 A 
ATOM     19  C   UNL A   1      29.202  26.000  24.487  1.00  0.00     0.029 A 
ATOM     20  C   UNL A   1      31.119  26.637  25.807  1.00  0.00     0.146 A 
ATOM     21  C   UNL A   1      29.494  27.023  23.581  1.00  0.00     0.002 A 
ATOM     22  C   UNL A   1      31.442  27.622  24.882  1.00  0.00     0.041 A 
ATOM     23  F   UNL A   1      31.910  26.466  26.875  1.00  0.00    -0.205 F 
ATOM     24  C   UNL A   1      30.611  27.836  23.782  1.00  0.00     0.003 A 
ENDBRANCH  16  18
ENDBRANCH  13  14
ENDBRANCH  12  13
ENDBRANCH   6  12
ENDBRANCH   5   6
ENDBRANCH   1   5
BRANCH   3  25
ATOM     25  C   UNL A   1      36.779  20.789  25.139  1.00  0.00     0.118 C 
BRANCH  25  26
ATOM     26  C   UNL A   1      37.955  19.856  24.929  1.00  0.00     0.042 C 
BRANCH  26  27
ATOM     27  C   UNL A   1      39.148  20.301  25.751  1.00  0.00     0.118 C 
BRANCH  27  28
ATOM     28  N   UNL A   1      40.122  19.225  25.910  1.00  0.00    -0.352 N 
ATOM     29  C   UNL A   1      41.475  19.355  26.125  1.00  0.00     0.251 C 
ATOM     30  H   UNL A   1      39.773  18.306  25.855  1.00  0.00     0.163 HD
ATOM     31  O   UNL A   1      42.244  18.424  25.981  1.00  0.00    -0.269 OA
BRANCH  29  32
ATOM     32  C   UNL A   1      41.952  20.682  26.552  1.00  0.00     0.039 A 
ATOM     33  C   UNL A   1      42.070  20.986  27.909  1.00  0.00     0.014 A 
ATOM     34  C   UNL A   1      42.371  21.578  25.566  1.00  0.00     0.014 A 
ATOM     35  C   UNL A   1      42.643  22.202  28.279  1.00  0.00     0.010 A 
ATOM     36  C   UNL A   1      43.049  22.721  25.938  1.00  0.00     0.010 A 
ATOM     37  C   UNL A   1      43.148  23.065  27.295  1.00  0.00    -0.014 A 
BRANCH  37  38
ATOM     38  C   UNL A   1      43.693  24.403  27.607  1.00  0.00     0.031 A 
ATOM     39  C   UNL A   1      42.728  25.481  28.017  1.00  0.00     0.074 A 
ATOM     40  C   UNL A   1      44.992  24.677  27.401  1.00  0.00     0.049 A 
ATOM     41  N   UNL A   1      42.920  26.769  28.126  1.00  0.00    -0.248 NA
ATOM     42  C   UNL A   1      41.340  25.055  28.274  1.00  0.00     0.031 C 
ATOM     43  C   UNL A   1      46.007  23.716  26.965  1.00  0.00     0.029 A 
ATOM     44  N   UNL A   1      45.673  25.861  27.504  1.00  0.00    -0.354 N 
ATOM     45  C   UNL A   1      41.669  27.305  28.408  1.00  0.00     0.074 A 
ATOM     46  C   UNL A   1      40.720  26.217  28.377  1.00  0.00     0.031 C 
ATOM     47  C   UNL A   1      47.186  24.348  26.853  1.00  0.00     0.029 A 
ATOM     48  C   UNL A   1      46.997  25.764  27.156  1.00  0.00     0.049 A 
ATOM     49  H   UNL A   1      45.252  26.702  27.800  1.00  0.00     0.167 HD
ATOM     50  C   UNL A   1      41.344  28.586  28.693  1.00  0.00     0.031 A 
ATOM     51  C   UNL A   1      47.943  26.718  27.072  1.00  0.00     0.031 A 
ATOM     52  C   UNL A   1      42.308  29.648  28.745  1.00  0.00     0.049 A 
ATOM     53  C   UNL A   1      47.571  28.137  27.404  1.00  0.00     0.074 A 
ATOM     54  C   UNL A   1      42.118  30.972  29.093  1.00  0.00     0.029 A 
ATOM     55  N   UNL A   1      43.654  29.498  28.439  1.00  0.00    -0.354 N 
ATOM     56  N   UNL A   1      46.400  28.628  27.732  1.00  0.00    -0.248 NA
ATOM     57  C   UNL A   1      48.652  29.131  27.368  1.00  0.00     0.031 C 
ATOM     58  C   UNL A   1      43.339  31.636  28.940  1.00  0.00     0.029 A 
ATOM     59  C   UNL A   1      44.303  30.711  28.569  1.00  0.00     0.049 A 
ATOM     60  H   UNL A   1      44.082  28.653  28.169  1.00  0.00     0.167 HD
ATOM     61  C   UNL A   1      46.606  29.979  27.976  1.00  0.00     0.074 A 
ATOM     62  C   UNL A   1      48.018  30.229  27.759  1.00  0.00     0.031 C 
ATOM     63  C   UNL A   1      45.713  30.926  28.355  1.00  0.00     0.031 A 
BRANCH  50  64
ATOM     64  C   UNL A   1      39.892  28.888  28.946  1.00  0.00    -0.014 A 
ATOM     65  C   UNL A   1      39.320  28.738  30.222  1.00  0.00     0.009 A 
ATOM     66  C   UNL A   1      39.072  29.302  27.887  1.00  0.00     0.009 A 
ATOM     67  C   UNL A   1      37.950  28.928  30.414  1.00  0.00     0.001 A 
ATOM     68  C   UNL A   1      37.710  29.534  28.089  1.00  0.00     0.001 A 
ATOM     69  C   UNL A   1      37.147  29.327  29.347  1.00  0.00     0.000 A 
ENDBRANCH  50  64
BRANCH  51  70
ATOM     70  C   UNL A   1      49.326  26.344  26.679  1.00  0.00    -0.014 A 
ATOM     71  C   UNL A   1      49.759  26.513  25.356  1.00  0.00     0.009 A 
ATOM     72  C   UNL A   1      50.237  25.867  27.635  1.00  0.00     0.009 A 
ATOM     73  C   UNL A   1      51.072  26.197  24.994  1.00  0.00     0.001 A 
ATOM     74  C   UNL A   1      51.556  25.580  27.277  1.00  0.00     0.001 A 
ATOM     75  C   UNL A   1      51.971  25.739  25.956  1.00  0.00     0.000 A 
ENDBRANCH  51  70
BRANCH  63  76
ATOM     76  C   UNL A   1      46.235  32.311  28.616  1.00  0.00    -0.014 A 
ATOM     77  C   UNL A   1      46.244  33.292  27.616  1.00  0.00     0.009 A 
ATOM     78  C   UNL A   1      46.632  32.657  29.919  1.00  0.00     0.009 A 
ATOM     79  C   UNL A   1      46.657  34.593  27.914  1.00  0.00     0.001 A 
ATOM     80  C   UNL A   1      47.013  33.963  30.219  1.00  0.00     0.001 A 
ATOM     81  C   UNL A   1      47.030  34.929  29.216  1.00  0.00     0.000 A 
ENDBRANCH  63  76
ENDBRANCH  37  38
ENDBRANCH  29  32
ENDBRANCH  27  28
ENDBRANCH  26  27
ENDBRANCH  25  26
ENDBRANCH   3  25
TORSDOF 16
ENDMDL
MODEL 2
REMARK VINA RESULT:     -10.8      1.425      2.302
REMARK SMILES CC(C)(C)[N@H+](CCC(=O)Nc1ccccc1F)CC(=O)NCCCNC(=O)c1ccc(-c2c3nc(c(-c4ccccc4)c4ccc([nH]4)c(-c4ccccc4)c4nc(c(-c5ccccc5)c5ccc2[nH]5)C=C4)C=C3)cc1
REMARK SMILES IDX 19 1 20 2 21 3 18 5 5 6 2 8 1 9 3 10 4 11 6 12 7 13 8 14
REMARK SMILES IDX 9 15 10 16 11 18 12 19 16 20 13 21 15 22 17 23 14 24 22 25
REMARK SMILES IDX 23 26 24 27 25 28 26 29 27 31 28 32 29 33 75 34 30 35 74 36
REMARK SMILES IDX 31 37 32 38 33 39 68 40 34 41 73 42 67 43 69 44 35 45 72 46
REMARK SMILES IDX 66 47 65 48 36 50 58 51 43 52 57 53 44 54 47 55 56 56 70 57
REMARK SMILES IDX 45 58 46 59 55 61 71 62 48 63 37 64 38 65 42 66 39 67 41 68
REMARK SMILES IDX 40 69 59 70 60 71 64 72 61 73 63 74 62 75 49 76 50 77 54 78
REMARK SMILES IDX 51 79 53 80 52 81
REMARK H PARENT 21 4 5 7 10 17 25 30 69 49 47 60
REMARK Flexibility Score: inf
ROOT
ATOM      1  C   UNL A   1      35.241  21.764  26.031  1.00  0.00     0.275 C 
ATOM      2  O   UNL A   1      34.784  22.061  27.143  1.00  0.00    -0.269 OA
ATOM      3  N   UNL A   1      36.591  21.851  25.920  1.00  0.00    -0.351 N 
ATOM      4  H   UNL A   1      37.033  22.058  26.775  1.00  0.00     0.163 HD
ENDROOT
BRANCH   1   5
ATOM      5  C   UNL A   1      34.329  21.114  25.004  1.00  0.00     0.363 C 
BRANCH   5   6
ATOM      6  N   UNL A   1      33.176  20.295  25.439  1.00  0.00    -0.323 N 
ATOM      7  H   UNL A   1      33.248  20.151  26.447  1.00  0.00     0.349 HD
BRANCH   6   8
ATOM      8  C   UNL A   1      33.204  18.919  24.769  1.00  0.00     0.090 C 
ATOM      9  C   UNL A   1      32.428  18.901  23.424  1.00  0.00     0.078 C 
ATOM     10  C   UNL A   1      32.500  17.881  25.679  1.00  0.00     0.078 C 
ATOM     11  C   UNL A   1      34.626  18.374  24.437  1.00  0.00     0.078 C 
ENDBRANCH   6   8
BRANCH   6  12
ATOM     12  C   UNL A   1      31.884  21.007  25.172  1.00  0.00     0.273 C 
BRANCH  12  13
ATOM     13  C   UNL A   1      31.693  22.538  25.346  1.00  0.00     0.161 C 
BRANCH  13  14
ATOM     14  C   UNL A   1      31.336  23.311  26.638  1.00  0.00     0.230 C 
ATOM     15  O   UNL A   1      30.825  22.680  27.576  1.00  0.00    -0.275 OA
ATOM     16  N   UNL A   1      31.599  24.626  26.884  1.00  0.00    -0.323 N 
ATOM     17  H   UNL A   1      31.555  24.887  27.831  1.00  0.00     0.170 HD
BRANCH  16  18
ATOM     18  C   UNL A   1      31.922  25.661  25.999  1.00  0.00     0.077 A 
ATOM     19  C   UNL A   1      33.276  25.970  25.803  1.00  0.00     0.029 A 
ATOM     20  C   UNL A   1      30.952  26.341  25.270  1.00  0.00     0.146 A 
ATOM     21  C   UNL A   1      33.643  26.853  24.785  1.00  0.00     0.002 A 
ATOM     22  C   UNL A   1      31.312  27.258  24.291  1.00  0.00     0.041 A 
ATOM     23  F   UNL A   1      29.651  26.103  25.491  1.00  0.00    -0.205 F 
ATOM     24  C   UNL A   1      32.661  27.492  24.027  1.00  0.00     0.003 A 
ENDBRANCH  16  18
ENDBRANCH  13  14
ENDBRANCH  12  13
ENDBRANCH   6  12
ENDBRANCH   5   6
ENDBRANCH   1   5
BRANCH   3  25
ATOM     25  C   UNL A   1      37.524  21.706  24.821  1.00  0.00     0.118 C 
BRANCH  25  26
ATOM     26  C   UNL A   1      38.335  20.427  24.898  1.00  0.00     0.042 C 
BRANCH  26  27
ATOM     27  C   UNL A   1      39.273  20.456  26.088  1.00  0.00     0.118 C 
BRANCH  27  28
ATOM     28  N   UNL A   1      40.276  19.399  26.006  1.00  0.00    -0.352 N 
ATOM     29  C   UNL A   1      41.644  19.549  26.017  1.00  0.00     0.251 C 
ATOM     30  H   UNL A   1      39.937  18.477  25.934  1.00  0.00     0.163 HD
ATOM     31  O   UNL A   1      42.395  18.654  25.681  1.00  0.00    -0.269 OA
BRANCH  29  32
ATOM     32  C   UNL A   1      42.162  20.852  26.468  1.00  0.00     0.039 A 
ATOM     33  C   UNL A   1      42.480  21.844  25.540  1.00  0.00     0.014 A 
ATOM     34  C   UNL A   1      42.230  21.093  27.843  1.00  0.00     0.014 A 
ATOM     35  C   UNL A   1      42.847  23.107  26.004  1.00  0.00     0.010 A 
ATOM     36  C   UNL A   1      42.471  22.375  28.292  1.00  0.00     0.010 A 
ATOM     37  C   UNL A   1      42.829  23.379  27.380  1.00  0.00    -0.014 A 
BRANCH  37  38
ATOM     38  C   UNL A   1      43.283  24.666  27.947  1.00  0.00     0.031 A 
ATOM     39  C   UNL A   1      42.241  25.697  28.284  1.00  0.00     0.074 A 
ATOM     40  C   UNL A   1      44.593  24.952  28.031  1.00  0.00     0.049 A 
ATOM     41  N   UNL A   1      42.388  26.961  28.578  1.00  0.00    -0.248 NA
ATOM     42  C   UNL A   1      40.836  25.254  28.214  1.00  0.00     0.031 C 
ATOM     43  C   UNL A   1      45.687  24.041  27.692  1.00  0.00     0.029 A 
ATOM     44  N   UNL A   1      45.223  26.111  28.402  1.00  0.00    -0.354 N 
ATOM     45  C   UNL A   1      41.099  27.470  28.672  1.00  0.00     0.074 A 
ATOM     46  C   UNL A   1      40.190  26.401  28.330  1.00  0.00     0.031 C 
ATOM     47  C   UNL A   1      46.856  24.673  27.886  1.00  0.00     0.029 A 
ATOM     48  C   UNL A   1      46.591  26.045  28.310  1.00  0.00     0.049 A 
ATOM     49  H   UNL A   1      44.740  26.914  28.706  1.00  0.00     0.167 HD
ATOM     50  C   UNL A   1      40.705  28.712  29.035  1.00  0.00     0.031 A 
ATOM     51  C   UNL A   1      47.520  26.994  28.523  1.00  0.00     0.031 A 
ATOM     52  C   UNL A   1      41.625  29.753  29.398  1.00  0.00     0.049 A 
ATOM     53  C   UNL A   1      47.070  28.367  28.940  1.00  0.00     0.074 A 
ATOM     54  C   UNL A   1      41.351  31.028  29.855  1.00  0.00     0.029 A 
ATOM     55  N   UNL A   1      43.006  29.628  29.345  1.00  0.00    -0.354 N 
ATOM     56  N   UNL A   1      45.850  28.825  29.089  1.00  0.00    -0.248 NA
ATOM     57  C   UNL A   1      48.122  29.350  29.231  1.00  0.00     0.031 C 
ATOM     58  C   UNL A   1      42.568  31.696  30.021  1.00  0.00     0.029 A 
ATOM     59  C   UNL A   1      43.600  30.813  29.739  1.00  0.00     0.049 A 
ATOM     60  H   UNL A   1      43.491  28.818  29.066  1.00  0.00     0.167 HD
ATOM     61  C   UNL A   1      45.985  30.137  29.524  1.00  0.00     0.074 A 
ATOM     62  C   UNL A   1      47.408  30.399  29.616  1.00  0.00     0.031 C 
ATOM     63  C   UNL A   1      45.021  31.040  29.830  1.00  0.00     0.031 A 
BRANCH  50  64
ATOM     64  C   UNL A   1      39.227  28.994  29.035  1.00  0.00    -0.014 A 
ATOM     65  C   UNL A   1      38.576  29.516  27.903  1.00  0.00     0.009 A 
ATOM     66  C   UNL A   1      38.474  28.762  30.196  1.00  0.00     0.009 A 
ATOM     67  C   UNL A   1      37.225  29.862  27.957  1.00  0.00     0.001 A 
ATOM     68  C   UNL A   1      37.113  29.069  30.234  1.00  0.00     0.001 A 
ATOM     69  C   UNL A   1      36.495  29.637  29.122  1.00  0.00     0.000 A 
ENDBRANCH  50  64
BRANCH  51  70
ATOM     70  C   UNL A   1      48.958  26.658  28.366  1.00  0.00    -0.014 A 
ATOM     71  C   UNL A   1      49.591  26.803  27.122  1.00  0.00     0.009 A 
ATOM     72  C   UNL A   1      49.720  26.240  29.469  1.00  0.00     0.009 A 
ATOM     73  C   UNL A   1      50.954  26.524  26.983  1.00  0.00     0.001 A 
ATOM     74  C   UNL A   1      51.088  25.989  29.333  1.00  0.00     0.001 A 
ATOM     75  C   UNL A   1      51.702  26.125  28.089  1.00  0.00     0.000 A 
ENDBRANCH  51  70
BRANCH  63  76
ATOM     76  C   UNL A   1      45.462  32.380  30.347  1.00  0.00    -0.014 A 
ATOM     77  C   UNL A   1      45.729  32.591  31.707  1.00  0.00     0.009 A 
ATOM     78  C   UNL A   1      45.706  33.419  29.433  1.00  0.00     0.009 A 
ATOM     79  C   UNL A   1      46.217  33.824  32.143  1.00  0.00     0.001 A 
ATOM     80  C   UNL A   1      46.224  34.637  29.867  1.00  0.00     0.001 A 
ATOM     81  C   UNL A   1      46.474  34.842  31.223  1.00  0.00     0.000 A 
ENDBRANCH  63  76
ENDBRANCH  37  38
ENDBRANCH  29  32
ENDBRANCH  27  28
ENDBRANCH  26  27
ENDBRANCH  25  26
ENDBRANCH   3  25
TORSDOF 16
ENDMDL
MODEL 3
REMARK VINA RESULT:     -10.8      5.420     10.291
REMARK SMILES CC(C)(C)[N@H+](CCC(=O)Nc1ccccc1F)CC(=O)NCCCNC(=O)c1ccc(-c2c3nc(c(-c4ccccc4)c4ccc([nH]4)c(-c4ccccc4)c4nc(c(-c5ccccc5)c5ccc2[nH]5)C=C4)C=C3)cc1
REMARK SMILES IDX 19 1 20 2 21 3 18 5 5 6 2 8 1 9 3 10 4 11 6 12 7 13 8 14
REMARK SMILES IDX 9 15 10 16 11 18 12 19 16 20 13 21 15 22 17 23 14 24 22 25
REMARK SMILES IDX 23 26 24 27 25 28 26 29 27 31 28 32 29 33 75 34 30 35 74 36
REMARK SMILES IDX 31 37 32 38 33 39 68 40 34 41 73 42 67 43 69 44 35 45 72 46
REMARK SMILES IDX 66 47 65 48 36 50 58 51 43 52 57 53 44 54 47 55 56 56 70 57
REMARK SMILES IDX 45 58 46 59 55 61 71 62 48 63 37 64 38 65 42 66 39 67 41 68
REMARK SMILES IDX 40 69 59 70 60 71 64 72 61 73 63 74 62 75 49 76 50 77 54 78
REMARK SMILES IDX 51 79 53 80 52 81
REMARK H PARENT 21 4 5 7 10 17 25 30 69 49 47 60
REMARK Flexibility Score: inf
ROOT
ATOM      1  C   UNL A   1      33.808  28.813  26.062  1.00  0.00     0.275 C 
ATOM      2  O   UNL A   1      34.725  28.550  26.852  1.00  0.00    -0.269 OA
ATOM      3  N   UNL A   1      33.029  29.867  26.411  1.00  0.00    -0.351 N 
ATOM      4  H   UNL A   1      33.356  30.337  27.212  1.00  0.00     0.163 HD
ENDROOT
BRANCH   1   5
ATOM      5  C   UNL A   1      33.784  28.131  24.703  1.00  0.00     0.363 C 
BRANCH   5   6
ATOM      6  N   UNL A   1      32.990  26.901  24.498  1.00  0.00    -0.323 N 
ATOM      7  H   UNL A   1      33.620  26.100  24.556  1.00  0.00     0.349 HD
BRANCH   6   8
ATOM      8  C   UNL A   1      32.352  26.891  23.106  1.00  0.00     0.090 C 
ATOM      9  C   UNL A   1      31.187  25.870  22.997  1.00  0.00     0.078 C 
ATOM     10  C   UNL A   1      33.401  26.454  22.053  1.00  0.00     0.078 C 
ATOM     11  C   UNL A   1      31.754  28.254  22.644  1.00  0.00     0.078 C 
ENDBRANCH   6   8
BRANCH   6  12
ATOM     12  C   UNL A   1      31.957  26.746  25.574  1.00  0.00     0.273 C 
BRANCH  12  13
ATOM     13  C   UNL A   1      32.043  25.684  26.703  1.00  0.00     0.161 C 
BRANCH  13  14
ATOM     14  C   UNL A   1      31.786  24.161  26.598  1.00  0.00     0.230 C 
ATOM     15  O   UNL A   1      30.818  23.686  27.212  1.00  0.00    -0.275 OA
ATOM     16  N   UNL A   1      32.485  23.283  25.825  1.00  0.00    -0.323 N 
ATOM     17  H   UNL A   1      32.035  22.422  25.665  1.00  0.00     0.170 HD
BRANCH  16  18
ATOM     18  C   UNL A   1      33.741  23.414  25.222  1.00  0.00     0.077 A 
ATOM     19  C   UNL A   1      34.840  23.722  26.036  1.00  0.00     0.029 A 
ATOM     20  C   UNL A   1      33.936  23.188  23.863  1.00  0.00     0.146 A 
ATOM     21  C   UNL A   1      36.132  23.663  25.506  1.00  0.00     0.002 A 
ATOM     22  C   UNL A   1      35.216  23.179  23.322  1.00  0.00     0.041 A 
ATOM     23  F   UNL A   1      32.889  22.956  23.059  1.00  0.00    -0.205 F 
ATOM     24  C   UNL A   1      36.318  23.386  24.151  1.00  0.00     0.003 A 
ENDBRANCH  16  18
ENDBRANCH  13  14
ENDBRANCH  12  13
ENDBRANCH   6  12
ENDBRANCH   5   6
ENDBRANCH   1   5
BRANCH   3  25
ATOM     25  C   UNL A   1      31.822  30.453  25.866  1.00  0.00     0.118 C 
BRANCH  25  26
ATOM     26  C   UNL A   1      31.423  31.740  26.560  1.00  0.00     0.042 C 
BRANCH  26  27
ATOM     27  C   UNL A   1      32.628  32.404  27.196  1.00  0.00     0.118 C 
BRANCH  27  28
ATOM     28  N   UNL A   1      32.375  33.814  27.482  1.00  0.00    -0.352 N 
ATOM     29  C   UNL A   1      33.001  34.594  28.426  1.00  0.00     0.251 C 
ATOM     30  H   UNL A   1      31.681  34.254  26.940  1.00  0.00     0.163 HD
ATOM     31  O   UNL A   1      32.553  35.669  28.777  1.00  0.00    -0.269 OA
BRANCH  29  32
ATOM     32  C   UNL A   1      34.256  34.069  28.993  1.00  0.00     0.039 A 
ATOM     33  C   UNL A   1      35.484  34.415  28.428  1.00  0.00     0.014 A 
ATOM     34  C   UNL A   1      34.181  33.303  30.158  1.00  0.00     0.014 A 
ATOM     35  C   UNL A   1      36.656  34.005  29.062  1.00  0.00     0.010 A 
ATOM     36  C   UNL A   1      35.340  33.007  30.847  1.00  0.00     0.010 A 
ATOM     37  C   UNL A   1      36.586  33.314  30.281  1.00  0.00    -0.014 A 
BRANCH  37  38
ATOM     38  C   UNL A   1      37.781  32.779  30.966  1.00  0.00     0.031 A 
ATOM     39  C   UNL A   1      38.454  31.571  30.374  1.00  0.00     0.074 A 
ATOM     40  C   UNL A   1      38.169  33.276  32.152  1.00  0.00     0.049 A 
ATOM     41  N   UNL A   1      39.364  30.790  30.892  1.00  0.00    -0.248 NA
ATOM     42  C   UNL A   1      37.986  31.149  29.041  1.00  0.00     0.031 C 
ATOM     43  C   UNL A   1      37.562  34.419  32.837  1.00  0.00     0.029 A 
ATOM     44  N   UNL A   1      39.156  32.858  33.006  1.00  0.00    -0.354 N 
ATOM     45  C   UNL A   1      39.533  29.762  29.973  1.00  0.00     0.074 A 
ATOM     46  C   UNL A   1      38.581  29.976  28.909  1.00  0.00     0.031 C 
ATOM     47  C   UNL A   1      38.202  34.619  34.001  1.00  0.00     0.029 A 
ATOM     48  C   UNL A   1      39.223  33.589  34.166  1.00  0.00     0.049 A 
ATOM     49  H   UNL A   1      39.759  32.105  32.807  1.00  0.00     0.167 HD
ATOM     50  C   UNL A   1      40.421  28.742  30.001  1.00  0.00     0.031 A 
ATOM     51  C   UNL A   1      40.008  33.429  35.247  1.00  0.00     0.031 A 
ATOM     52  C   UNL A   1      41.378  28.562  31.055  1.00  0.00     0.049 A 
ATOM     53  C   UNL A   1      41.001  32.299  35.260  1.00  0.00     0.074 A 
ATOM     54  C   UNL A   1      42.378  27.614  31.163  1.00  0.00     0.029 A 
ATOM     55  N   UNL A   1      41.451  29.360  32.189  1.00  0.00    -0.354 N 
ATOM     56  N   UNL A   1      41.199  31.365  34.359  1.00  0.00    -0.248 NA
ATOM     57  C   UNL A   1      41.885  32.206  36.428  1.00  0.00     0.031 C 
ATOM     58  C   UNL A   1      43.018  27.801  32.392  1.00  0.00     0.029 A 
ATOM     59  C   UNL A   1      42.466  28.911  33.014  1.00  0.00     0.049 A 
ATOM     60  H   UNL A   1      40.867  30.129  32.378  1.00  0.00     0.167 HD
ATOM     61  C   UNL A   1      42.253  30.595  34.834  1.00  0.00     0.074 A 
ATOM     62  C   UNL A   1      42.651  31.173  36.102  1.00  0.00     0.031 C 
ATOM     63  C   UNL A   1      42.845  29.514  34.268  1.00  0.00     0.031 A 
BRANCH  50  64
ATOM     64  C   UNL A   1      40.369  27.753  28.868  1.00  0.00    -0.014 A 
ATOM     65  C   UNL A   1      41.058  27.976  27.662  1.00  0.00     0.009 A 
ATOM     66  C   UNL A   1      39.596  26.590  28.994  1.00  0.00     0.009 A 
ATOM     67  C   UNL A   1      40.917  27.095  26.588  1.00  0.00     0.001 A 
ATOM     68  C   UNL A   1      39.490  25.687  27.934  1.00  0.00     0.001 A 
ATOM     69  C   UNL A   1      40.134  25.951  26.726  1.00  0.00     0.000 A 
ENDBRANCH  50  64
BRANCH  51  70
ATOM     70  C   UNL A   1      39.893  34.379  36.383  1.00  0.00    -0.014 A 
ATOM     71  C   UNL A   1      39.121  34.053  37.507  1.00  0.00     0.009 A 
ATOM     72  C   UNL A   1      40.595  35.595  36.372  1.00  0.00     0.009 A 
ATOM     73  C   UNL A   1      39.043  34.930  38.593  1.00  0.00     0.001 A 
ATOM     74  C   UNL A   1      40.539  36.457  37.470  1.00  0.00     0.001 A 
ATOM     75  C   UNL A   1      39.758  36.127  38.576  1.00  0.00     0.000 A 
ENDBRANCH  51  70
BRANCH  63  76
ATOM     76  C   UNL A   1      44.023  28.913  34.981  1.00  0.00    -0.014 A 
ATOM     77  C   UNL A   1      45.324  29.393  34.783  1.00  0.00     0.009 A 
ATOM     78  C   UNL A   1      43.801  27.911  35.941  1.00  0.00     0.009 A 
ATOM     79  C   UNL A   1      46.386  28.869  35.523  1.00  0.00     0.001 A 
ATOM     80  C   UNL A   1      44.858  27.413  36.701  1.00  0.00     0.001 A 
ATOM     81  C   UNL A   1      46.150  27.888  36.488  1.00  0.00     0.000 A 
ENDBRANCH  63  76
ENDBRANCH  37  38
ENDBRANCH  29  32
ENDBRANCH  27  28
ENDBRANCH  26  27
ENDBRANCH  25  26
ENDBRANCH   3  25
TORSDOF 16
ENDMDL
