MODEL 1
REMARK VINA RESULT:      -8.1      0.000      0.000
REMARK SMILES C[C@@H](CC(=O)NCCCNC(=O)c1ccc(-c2c3nc(c(-c4ccccc4)c4ccc([nH]4)c(-c4ccccc4)c4nc(c(-c5ccccc5)c5ccc2[nH]5)C=C4)C=C3)cc1)CC(=O)N(C)C[C@H]1CCC[N@H+]1C
REMARK SMILES IDX 4 1 5 2 6 3 3 5 2 6 1 7 61 8 62 9 63 10 64 11 65 12 66 13
REMARK SMILES IDX 67 14 68 15 71 16 69 17 70 18 72 19 7 21 8 22 9 23 10 24
REMARK SMILES IDX 11 25 12 27 13 28 14 29 60 30 15 31 59 32 16 33 17 34 18 35
REMARK SMILES IDX 53 36 19 37 58 38 52 39 54 40 20 41 57 42 51 43 50 44 21 46
REMARK SMILES IDX 43 47 28 48 42 49 29 50 32 51 41 52 55 53 30 54 31 55 40 57
REMARK SMILES IDX 56 58 33 59 22 60 23 61 27 62 24 63 26 64 25 65 44 66 45 67
REMARK SMILES IDX 49 68 46 69 48 70 47 71 34 72 35 73 39 74 36 75 38 76 37 77
REMARK H PARENT 6 4 71 20 10 26 54 45 32 56
REMARK Flexibility Score: inf
ROOT
ATOM      1  C   UNL A   1      35.558  32.671  31.470  1.00  0.00     0.220 C 
ATOM      2  O   UNL A   1      35.302  31.850  32.353  1.00  0.00    -0.275 OA
ATOM      3  N   UNL A   1      34.564  33.514  31.088  1.00  0.00    -0.356 N 
ATOM      4  H   UNL A   1      33.733  33.427  31.610  1.00  0.00     0.163 HD
ENDROOT
BRANCH   1   5
ATOM      5  C   UNL A   1      36.936  32.723  30.836  1.00  0.00     0.103 C 
BRANCH   5   6
ATOM      6  C   UNL A   1      37.703  34.060  30.933  1.00  0.00     0.004 C 
ATOM      7  C   UNL A   1      38.356  34.431  29.599  1.00  0.00     0.009 C 
BRANCH   6   8
ATOM      8  C   UNL A   1      38.661  34.134  32.139  1.00  0.00     0.104 C 
BRANCH   8   9
ATOM      9  C   UNL A   1      37.941  34.084  33.479  1.00  0.00     0.222 C 
ATOM     10  O   UNL A   1      37.157  34.992  33.771  1.00  0.00    -0.275 OA
BRANCH   9  11
ATOM     11  N   UNL A   1      38.228  33.057  34.374  1.00  0.00    -0.340 N 
ATOM     12  C   UNL A   1      37.448  32.691  35.547  1.00  0.00     0.147 C 
BRANCH  11  13
ATOM     13  C   UNL A   1      39.342  32.152  34.047  1.00  0.00     0.184 C 
BRANCH  13  14
ATOM     14  C   UNL A   1      39.001  30.667  34.365  1.00  0.00     0.203 C 
ATOM     15  C   UNL A   1      38.344  29.973  33.155  1.00  0.00     0.073 C 
ATOM     16  N   UNL A   1      40.093  29.744  34.737  1.00  0.00    -0.333 N 
ATOM     17  C   UNL A   1      39.174  28.724  32.895  1.00  0.00     0.068 C 
ATOM     18  C   UNL A   1      40.510  29.043  33.531  1.00  0.00     0.262 C 
ATOM     19  C   UNL A   1      41.187  30.276  35.521  1.00  0.00     0.333 C 
ATOM     20  H   UNL A   1      39.707  29.096  35.422  1.00  0.00     0.348 HD
ENDBRANCH  13  14
ENDBRANCH  11  13
ENDBRANCH   9  11
ENDBRANCH   8   9
ENDBRANCH   6   8
ENDBRANCH   5   6
ENDBRANCH   1   5
BRANCH   3  21
ATOM     21  C   UNL A   1      34.515  34.521  30.043  1.00  0.00     0.117 C 
BRANCH  21  22
ATOM     22  C   UNL A   1      33.845  33.985  28.780  1.00  0.00     0.042 C 
BRANCH  22  23
ATOM     23  C   UNL A   1      34.651  32.940  28.015  1.00  0.00     0.118 C 
BRANCH  23  24
ATOM     24  N   UNL A   1      33.922  31.699  27.831  1.00  0.00    -0.352 N 
ATOM     25  C   UNL A   1      34.371  30.399  27.794  1.00  0.00     0.251 C 
ATOM     26  H   UNL A   1      32.950  31.803  27.716  1.00  0.00     0.163 HD
ATOM     27  O   UNL A   1      33.595  29.514  27.439  1.00  0.00    -0.269 OA
BRANCH  25  28
ATOM     28  C   UNL A   1      35.767  30.040  28.153  1.00  0.00     0.039 A 
ATOM     29  C   UNL A   1      36.757  30.175  27.173  1.00  0.00     0.014 A 
ATOM     30  C   UNL A   1      36.105  29.501  29.397  1.00  0.00     0.014 A 
ATOM     31  C   UNL A   1      38.080  29.813  27.450  1.00  0.00     0.010 A 
ATOM     32  C   UNL A   1      37.437  29.201  29.696  1.00  0.00     0.010 A 
ATOM     33  C   UNL A   1      38.438  29.340  28.722  1.00  0.00    -0.014 A 
BRANCH  33  34
ATOM     34  C   UNL A   1      39.844  28.968  29.035  1.00  0.00     0.031 A 
ATOM     35  C   UNL A   1      40.390  27.626  28.622  1.00  0.00     0.074 A 
ATOM     36  C   UNL A   1      40.627  29.817  29.730  1.00  0.00     0.049 A 
ATOM     37  N   UNL A   1      41.575  27.110  28.847  1.00  0.00    -0.248 NA
ATOM     38  C   UNL A   1      39.482  26.738  27.879  1.00  0.00     0.031 C 
ATOM     39  C   UNL A   1      40.223  31.135  30.220  1.00  0.00     0.029 A 
ATOM     40  N   UNL A   1      41.929  29.690  30.149  1.00  0.00    -0.354 N 
ATOM     41  C   UNL A   1      41.544  25.835  28.298  1.00  0.00     0.074 A 
ATOM     42  C   UNL A   1      40.214  25.640  27.758  1.00  0.00     0.031 C 
ATOM     43  C   UNL A   1      41.261  31.702  30.859  1.00  0.00     0.029 A 
ATOM     44  C   UNL A   1      42.391  30.778  30.849  1.00  0.00     0.049 A 
ATOM     45  H   UNL A   1      42.479  28.895  29.966  1.00  0.00     0.167 HD
ATOM     46  C   UNL A   1      42.533  24.911  28.234  1.00  0.00     0.031 A 
ATOM     47  C   UNL A   1      43.586  31.008  31.425  1.00  0.00     0.031 A 
ATOM     48  C   UNL A   1      43.866  25.104  28.739  1.00  0.00     0.049 A 
ATOM     49  C   UNL A   1      44.672  29.973  31.330  1.00  0.00     0.074 A 
ATOM     50  C   UNL A   1      44.953  24.251  28.651  1.00  0.00     0.029 A 
ATOM     51  N   UNL A   1      44.295  26.229  29.424  1.00  0.00    -0.354 N 
ATOM     52  N   UNL A   1      44.643  28.800  30.747  1.00  0.00    -0.248 NA
ATOM     53  C   UNL A   1      45.958  30.300  31.964  1.00  0.00     0.031 C 
ATOM     54  C   UNL A   1      46.029  24.842  29.320  1.00  0.00     0.029 A 
ATOM     55  C   UNL A   1      45.623  26.082  29.786  1.00  0.00     0.049 A 
ATOM     56  H   UNL A   1      43.738  27.016  29.623  1.00  0.00     0.167 HD
ATOM     57  C   UNL A   1      45.911  28.261  30.922  1.00  0.00     0.074 A 
ATOM     58  C   UNL A   1      46.688  29.238  31.654  1.00  0.00     0.031 C 
ATOM     59  C   UNL A   1      46.387  27.060  30.513  1.00  0.00     0.031 A 
BRANCH  46  60
ATOM     60  C   UNL A   1      42.207  23.590  27.595  1.00  0.00    -0.014 A 
ATOM     61  C   UNL A   1      42.538  23.328  26.257  1.00  0.00     0.009 A 
ATOM     62  C   UNL A   1      41.603  22.579  28.358  1.00  0.00     0.009 A 
ATOM     63  C   UNL A   1      42.241  22.088  25.686  1.00  0.00     0.001 A 
ATOM     64  C   UNL A   1      41.330  21.332  27.791  1.00  0.00     0.001 A 
ATOM     65  C   UNL A   1      41.641  21.091  26.454  1.00  0.00     0.000 A 
ENDBRANCH  46  60
BRANCH  47  66
ATOM     66  C   UNL A   1      43.829  32.286  32.143  1.00  0.00    -0.014 A 
ATOM     67  C   UNL A   1      43.526  32.404  33.507  1.00  0.00     0.009 A 
ATOM     68  C   UNL A   1      44.357  33.395  31.464  1.00  0.00     0.009 A 
ATOM     69  C   UNL A   1      43.725  33.616  34.172  1.00  0.00     0.001 A 
ATOM     70  C   UNL A   1      44.579  34.597  32.138  1.00  0.00     0.001 A 
ATOM     71  C   UNL A   1      44.255  34.710  33.489  1.00  0.00     0.000 A 
ENDBRANCH  47  66
BRANCH  59  72
ATOM     72  C   UNL A   1      47.822  26.747  30.822  1.00  0.00    -0.014 A 
ATOM     73  C   UNL A   1      48.186  26.118  32.023  1.00  0.00     0.009 A 
ATOM     74  C   UNL A   1      48.820  27.053  29.882  1.00  0.00     0.009 A 
ATOM     75  C   UNL A   1      49.526  25.826  32.287  1.00  0.00     0.001 A 
ATOM     76  C   UNL A   1      50.155  26.738  30.140  1.00  0.00     0.001 A 
ATOM     77  C   UNL A   1      50.508  26.132  31.345  1.00  0.00     0.000 A 
ENDBRANCH  59  72
ENDBRANCH  33  34
ENDBRANCH  25  28
ENDBRANCH  23  24
ENDBRANCH  22  23
ENDBRANCH  21  22
ENDBRANCH   3  21
TORSDOF 16
ENDMDL
MODEL 2
REMARK VINA RESULT:      -8.1      3.545      9.095
REMARK SMILES C[C@@H](CC(=O)NCCCNC(=O)c1ccc(-c2c3nc(c(-c4ccccc4)c4ccc([nH]4)c(-c4ccccc4)c4nc(c(-c5ccccc5)c5ccc2[nH]5)C=C4)C=C3)cc1)CC(=O)N(C)C[C@H]1CCC[N@H+]1C
REMARK SMILES IDX 4 1 5 2 6 3 3 5 2 6 1 7 61 8 62 9 63 10 64 11 65 12 66 13
REMARK SMILES IDX 67 14 68 15 71 16 69 17 70 18 72 19 7 21 8 22 9 23 10 24
REMARK SMILES IDX 11 25 12 27 13 28 14 29 60 30 15 31 59 32 16 33 17 34 18 35
REMARK SMILES IDX 53 36 19 37 58 38 52 39 54 40 20 41 57 42 51 43 50 44 21 46
REMARK SMILES IDX 43 47 28 48 42 49 29 50 32 51 41 52 55 53 30 54 31 55 40 57
REMARK SMILES IDX 56 58 33 59 22 60 23 61 27 62 24 63 26 64 25 65 44 66 45 67
REMARK SMILES IDX 49 68 46 69 48 70 47 71 34 72 35 73 39 74 36 75 38 76 37 77
REMARK H PARENT 6 4 71 20 10 26 54 45 32 56
REMARK Flexibility Score: inf
ROOT
ATOM      1  C   UNL A   1      31.112  29.251  24.368  1.00  0.00     0.220 C 
ATOM      2  O   UNL A   1      30.772  29.319  23.186  1.00  0.00    -0.275 OA
ATOM      3  N   UNL A   1      31.285  30.419  25.041  1.00  0.00    -0.356 N 
ATOM      4  H   UNL A   1      31.056  31.224  24.524  1.00  0.00     0.163 HD
ENDROOT
BRANCH   1   5
ATOM      5  C   UNL A   1      31.334  27.906  25.036  1.00  0.00     0.103 C 
BRANCH   5   6
ATOM      6  C   UNL A   1      32.788  27.385  25.098  1.00  0.00     0.004 C 
ATOM      7  C   UNL A   1      33.302  26.988  23.712  1.00  0.00     0.009 C 
BRANCH   6   8
ATOM      8  C   UNL A   1      33.009  26.308  26.180  1.00  0.00     0.104 C 
BRANCH   8   9
ATOM      9  C   UNL A   1      32.003  25.168  26.106  1.00  0.00     0.222 C 
ATOM     10  O   UNL A   1      30.953  25.256  26.749  1.00  0.00    -0.275 OA
BRANCH   9  11
ATOM     11  N   UNL A   1      32.312  24.027  25.373  1.00  0.00    -0.340 N 
ATOM     12  C   UNL A   1      31.721  23.628  24.105  1.00  0.00     0.147 C 
BRANCH  11  13
ATOM     13  C   UNL A   1      33.442  23.201  25.832  1.00  0.00     0.184 C 
BRANCH  13  14
ATOM     14  C   UNL A   1      34.530  23.035  24.731  1.00  0.00     0.203 C 
ATOM     15  C   UNL A   1      35.670  24.057  24.913  1.00  0.00     0.073 C 
ATOM     16  N   UNL A   1      35.241  21.746  24.615  1.00  0.00    -0.333 N 
ATOM     17  C   UNL A   1      36.953  23.240  24.952  1.00  0.00     0.068 C 
ATOM     18  C   UNL A   1      36.487  21.858  25.360  1.00  0.00     0.262 C 
ATOM     19  C   UNL A   1      34.495  20.537  24.889  1.00  0.00     0.333 C 
ATOM     20  H   UNL A   1      35.421  21.600  23.622  1.00  0.00     0.348 HD
ENDBRANCH  13  14
ENDBRANCH  11  13
ENDBRANCH   9  11
ENDBRANCH   8   9
ENDBRANCH   6   8
ENDBRANCH   5   6
ENDBRANCH   1   5
BRANCH   3  21
ATOM     21  C   UNL A   1      31.750  30.683  26.391  1.00  0.00     0.117 C 
BRANCH  21  22
ATOM     22  C   UNL A   1      31.468  32.125  26.808  1.00  0.00     0.042 C 
BRANCH  22  23
ATOM     23  C   UNL A   1      32.700  33.017  26.920  1.00  0.00     0.118 C 
BRANCH  23  24
ATOM     24  N   UNL A   1      32.487  34.155  27.793  1.00  0.00    -0.352 N 
ATOM     25  C   UNL A   1      33.166  34.553  28.921  1.00  0.00     0.251 C 
ATOM     26  H   UNL A   1      31.736  34.738  27.537  1.00  0.00     0.163 HD
ATOM     27  O   UNL A   1      32.692  35.451  29.613  1.00  0.00    -0.269 OA
BRANCH  25  28
ATOM     28  C   UNL A   1      34.442  33.915  29.334  1.00  0.00     0.039 A 
ATOM     29  C   UNL A   1      35.598  34.214  28.603  1.00  0.00     0.014 A 
ATOM     30  C   UNL A   1      34.510  32.973  30.364  1.00  0.00     0.014 A 
ATOM     31  C   UNL A   1      36.817  33.608  28.928  1.00  0.00     0.010 A 
ATOM     32  C   UNL A   1      35.739  32.417  30.731  1.00  0.00     0.010 A 
ATOM     33  C   UNL A   1      36.904  32.717  30.009  1.00  0.00    -0.014 A 
BRANCH  33  34
ATOM     34  C   UNL A   1      38.198  32.080  30.375  1.00  0.00     0.031 A 
ATOM     35  C   UNL A   1      39.144  32.763  31.328  1.00  0.00     0.074 A 
ATOM     36  C   UNL A   1      38.551  30.904  29.820  1.00  0.00     0.049 A 
ATOM     37  N   UNL A   1      40.333  32.382  31.729  1.00  0.00    -0.248 NA
ATOM     38  C   UNL A   1      38.708  34.052  31.889  1.00  0.00     0.031 C 
ATOM     39  C   UNL A   1      37.749  30.144  28.859  1.00  0.00     0.029 A 
ATOM     40  N   UNL A   1      39.683  30.144  29.983  1.00  0.00    -0.354 N 
ATOM     41  C   UNL A   1      40.794  33.392  32.563  1.00  0.00     0.074 A 
ATOM     42  C   UNL A   1      39.774  34.419  32.586  1.00  0.00     0.031 C 
ATOM     43  C   UNL A   1      38.407  29.020  28.532  1.00  0.00     0.029 A 
ATOM     44  C   UNL A   1      39.687  28.992  29.234  1.00  0.00     0.049 A 
ATOM     45  H   UNL A   1      40.422  30.399  30.580  1.00  0.00     0.167 HD
ATOM     46  C   UNL A   1      41.955  33.458  33.259  1.00  0.00     0.031 A 
ATOM     47  C   UNL A   1      40.615  28.024  29.117  1.00  0.00     0.031 A 
ATOM     48  C   UNL A   1      42.962  32.430  33.268  1.00  0.00     0.049 A 
ATOM     49  C   UNL A   1      41.890  28.114  29.909  1.00  0.00     0.074 A 
ATOM     50  C   UNL A   1      44.135  32.380  34.002  1.00  0.00     0.029 A 
ATOM     51  N   UNL A   1      42.916  31.274  32.508  1.00  0.00    -0.354 N 
ATOM     52  N   UNL A   1      42.277  29.045  30.745  1.00  0.00    -0.248 NA
ATOM     53  C   UNL A   1      42.849  27.011  29.748  1.00  0.00     0.031 C 
ATOM     54  C   UNL A   1      44.819  31.211  33.655  1.00  0.00     0.029 A 
ATOM     55  C   UNL A   1      44.051  30.514  32.738  1.00  0.00     0.049 A 
ATOM     56  H   UNL A   1      42.185  31.028  31.897  1.00  0.00     0.167 HD
ATOM     57  C   UNL A   1      43.511  28.630  31.227  1.00  0.00     0.074 A 
ATOM     58  C   UNL A   1      43.803  27.357  30.602  1.00  0.00     0.031 C 
ATOM     59  C   UNL A   1      44.331  29.250  32.111  1.00  0.00     0.031 A 
BRANCH  46  60
ATOM     60  C   UNL A   1      42.206  34.696  34.073  1.00  0.00    -0.014 A 
ATOM     61  C   UNL A   1      42.802  35.832  33.505  1.00  0.00     0.009 A 
ATOM     62  C   UNL A   1      41.798  34.740  35.415  1.00  0.00     0.009 A 
ATOM     63  C   UNL A   1      43.013  36.979  34.274  1.00  0.00     0.001 A 
ATOM     64  C   UNL A   1      41.988  35.897  36.175  1.00  0.00     0.001 A 
ATOM     65  C   UNL A   1      42.603  37.011  35.607  1.00  0.00     0.000 A 
ENDBRANCH  46  60
BRANCH  47  66
ATOM     66  C   UNL A   1      40.373  26.870  28.215  1.00  0.00    -0.014 A 
ATOM     67  C   UNL A   1      39.618  25.771  28.651  1.00  0.00     0.009 A 
ATOM     68  C   UNL A   1      40.904  26.858  26.915  1.00  0.00     0.009 A 
ATOM     69  C   UNL A   1      39.420  24.672  27.813  1.00  0.00     0.001 A 
ATOM     70  C   UNL A   1      40.682  25.769  26.070  1.00  0.00     0.001 A 
ATOM     71  C   UNL A   1      39.948  24.673  26.522  1.00  0.00     0.000 A 
ENDBRANCH  47  66
BRANCH  59  72
ATOM     72  C   UNL A   1      45.607  28.549  32.475  1.00  0.00    -0.014 A 
ATOM     73  C   UNL A   1      46.770  28.711  31.705  1.00  0.00     0.009 A 
ATOM     74  C   UNL A   1      45.656  27.744  33.624  1.00  0.00     0.009 A 
ATOM     75  C   UNL A   1      47.950  28.059  32.066  1.00  0.00     0.001 A 
ATOM     76  C   UNL A   1      46.845  27.113  33.995  1.00  0.00     0.001 A 
ATOM     77  C   UNL A   1      47.988  27.264  33.212  1.00  0.00     0.000 A 
ENDBRANCH  59  72
ENDBRANCH  33  34
ENDBRANCH  25  28
ENDBRANCH  23  24
ENDBRANCH  22  23
ENDBRANCH  21  22
ENDBRANCH   3  21
TORSDOF 16
ENDMDL
MODEL 3
REMARK VINA RESULT:      -8.0      4.548     10.216
REMARK SMILES C[C@@H](CC(=O)NCCCNC(=O)c1ccc(-c2c3nc(c(-c4ccccc4)c4ccc([nH]4)c(-c4ccccc4)c4nc(c(-c5ccccc5)c5ccc2[nH]5)C=C4)C=C3)cc1)CC(=O)N(C)C[C@H]1CCC[N@H+]1C
REMARK SMILES IDX 4 1 5 2 6 3 3 5 2 6 1 7 61 8 62 9 63 10 64 11 65 12 66 13
REMARK SMILES IDX 67 14 68 15 71 16 69 17 70 18 72 19 7 21 8 22 9 23 10 24
REMARK SMILES IDX 11 25 12 27 13 28 14 29 60 30 15 31 59 32 16 33 17 34 18 35
REMARK SMILES IDX 53 36 19 37 58 38 52 39 54 40 20 41 57 42 51 43 50 44 21 46
REMARK SMILES IDX 43 47 28 48 42 49 29 50 32 51 41 52 55 53 30 54 31 55 40 57
REMARK SMILES IDX 56 58 33 59 22 60 23 61 27 62 24 63 26 64 25 65 44 66 45 67
REMARK SMILES IDX 49 68 46 69 48 70 47 71 34 72 35 73 39 74 36 75 38 76 37 77
REMARK H PARENT 6 4 71 20 10 26 54 45 32 56
REMARK Flexibility Score: inf
ROOT
ATOM      1  C   UNL A   1      37.635  23.216  25.809  1.00  0.00     0.220 C 
ATOM      2  O   UNL A   1      38.398  24.130  26.126  1.00  0.00    -0.275 OA
ATOM      3  N   UNL A   1      38.184  22.100  25.262  1.00  0.00    -0.356 N 
ATOM      4  H   UNL A   1      39.168  22.105  25.228  1.00  0.00     0.163 HD
ENDROOT
BRANCH   1   5
ATOM      5  C   UNL A   1      36.138  23.346  26.021  1.00  0.00     0.103 C 
BRANCH   5   6
ATOM      6  C   UNL A   1      35.358  24.215  25.008  1.00  0.00     0.004 C 
ATOM      7  C   UNL A   1      34.155  24.897  25.663  1.00  0.00     0.009 C 
BRANCH   6   8
ATOM      8  C   UNL A   1      35.023  23.478  23.696  1.00  0.00     0.104 C 
BRANCH   8   9
ATOM      9  C   UNL A   1      33.928  22.433  23.859  1.00  0.00     0.222 C 
ATOM     10  O   UNL A   1      34.135  21.461  24.591  1.00  0.00    -0.275 OA
BRANCH   9  11
ATOM     11  N   UNL A   1      32.749  22.556  23.132  1.00  0.00    -0.340 N 
ATOM     12  C   UNL A   1      32.079  21.501  22.386  1.00  0.00     0.147 C 
BRANCH  11  13
ATOM     13  C   UNL A   1      32.013  23.828  23.225  1.00  0.00     0.184 C 
BRANCH  13  14
ATOM     14  C   UNL A   1      30.726  23.698  24.092  1.00  0.00     0.203 C 
ATOM     15  C   UNL A   1      31.013  22.945  25.408  1.00  0.00     0.073 C 
ATOM     16  N   UNL A   1      30.038  24.924  24.543  1.00  0.00    -0.333 N 
ATOM     17  C   UNL A   1      30.513  23.854  26.520  1.00  0.00     0.068 C 
ATOM     18  C   UNL A   1      30.511  25.229  25.886  1.00  0.00     0.262 C 
ATOM     19  C   UNL A   1      30.028  26.060  23.647  1.00  0.00     0.333 C 
ATOM     20  H   UNL A   1      29.041  24.714  24.546  1.00  0.00     0.348 HD
ENDBRANCH  13  14
ENDBRANCH  11  13
ENDBRANCH   9  11
ENDBRANCH   8   9
ENDBRANCH   6   8
ENDBRANCH   5   6
ENDBRANCH   1   5
BRANCH   3  21
ATOM     21  C   UNL A   1      37.569  20.902  24.719  1.00  0.00     0.117 C 
BRANCH  21  22
ATOM     22  C   UNL A   1      38.427  19.665  24.981  1.00  0.00     0.042 C 
BRANCH  22  23
ATOM     23  C   UNL A   1      39.412  19.796  26.139  1.00  0.00     0.118 C 
BRANCH  23  24
ATOM     24  N   UNL A   1      40.631  19.040  25.921  1.00  0.00    -0.352 N 
ATOM     25  C   UNL A   1      41.945  19.447  25.932  1.00  0.00     0.251 C 
ATOM     26  H   UNL A   1      40.497  18.083  25.738  1.00  0.00     0.163 HD
ATOM     27  O   UNL A   1      42.809  18.668  25.536  1.00  0.00    -0.269 OA
BRANCH  25  28
ATOM     28  C   UNL A   1      42.344  20.802  26.391  1.00  0.00     0.039 A 
ATOM     29  C   UNL A   1      42.327  21.066  27.765  1.00  0.00     0.014 A 
ATOM     30  C   UNL A   1      42.650  21.834  25.500  1.00  0.00     0.014 A 
ATOM     31  C   UNL A   1      42.656  22.340  28.244  1.00  0.00     0.010 A 
ATOM     32  C   UNL A   1      43.042  23.087  25.981  1.00  0.00     0.010 A 
ATOM     33  C   UNL A   1      43.036  23.359  27.358  1.00  0.00    -0.014 A 
BRANCH  33  34
ATOM     34  C   UNL A   1      43.405  24.711  27.856  1.00  0.00     0.031 A 
ATOM     35  C   UNL A   1      42.339  25.730  28.164  1.00  0.00     0.074 A 
ATOM     36  C   UNL A   1      44.703  25.048  27.993  1.00  0.00     0.049 A 
ATOM     37  N   UNL A   1      42.472  26.971  28.564  1.00  0.00    -0.248 NA
ATOM     38  C   UNL A   1      40.941  25.306  27.981  1.00  0.00     0.031 C 
ATOM     39  C   UNL A   1      45.842  24.176  27.702  1.00  0.00     0.029 A 
ATOM     40  N   UNL A   1      45.281  26.223  28.407  1.00  0.00    -0.354 N 
ATOM     41  C   UNL A   1      41.183  27.481  28.653  1.00  0.00     0.074 A 
ATOM     42  C   UNL A   1      40.282  26.427  28.235  1.00  0.00     0.031 C 
ATOM     43  C   UNL A   1      46.980  24.839  27.963  1.00  0.00     0.029 A 
ATOM     44  C   UNL A   1      46.655  26.191  28.410  1.00  0.00     0.049 A 
ATOM     45  H   UNL A   1      44.761  27.014  28.677  1.00  0.00     0.167 HD
ATOM     46  C   UNL A   1      40.779  28.709  29.059  1.00  0.00     0.031 A 
ATOM     47  C   UNL A   1      47.554  27.140  28.729  1.00  0.00     0.031 A 
ATOM     48  C   UNL A   1      41.662  29.754  29.505  1.00  0.00     0.049 A 
ATOM     49  C   UNL A   1      47.081  28.492  29.188  1.00  0.00     0.074 A 
ATOM     50  C   UNL A   1      41.335  31.004  30.004  1.00  0.00     0.029 A 
ATOM     51  N   UNL A   1      43.044  29.671  29.508  1.00  0.00    -0.354 N 
ATOM     52  N   UNL A   1      45.855  28.931  29.331  1.00  0.00    -0.248 NA
ATOM     53  C   UNL A   1      48.119  29.472  29.541  1.00  0.00     0.031 C 
ATOM     54  C   UNL A   1      42.522  31.693  30.270  1.00  0.00     0.029 A 
ATOM     55  C   UNL A   1      43.586  30.856  29.978  1.00  0.00     0.049 A 
ATOM     56  H   UNL A   1      43.564  28.886  29.221  1.00  0.00     0.167 HD
ATOM     57  C   UNL A   1      45.973  30.229  29.811  1.00  0.00     0.074 A 
ATOM     58  C   UNL A   1      47.389  30.501  29.949  1.00  0.00     0.031 C 
ATOM     59  C   UNL A   1      44.994  31.116  30.111  1.00  0.00     0.031 A 
BRANCH  46  60
ATOM     60  C   UNL A   1      39.304  28.998  29.032  1.00  0.00    -0.014 A 
ATOM     61  C   UNL A   1      38.500  28.785  30.162  1.00  0.00     0.009 A 
ATOM     62  C   UNL A   1      38.722  29.536  27.874  1.00  0.00     0.009 A 
ATOM     63  C   UNL A   1      37.134  29.074  30.122  1.00  0.00     0.001 A 
ATOM     64  C   UNL A   1      37.360  29.847  27.845  1.00  0.00     0.001 A 
ATOM     65  C   UNL A   1      36.567  29.607  28.966  1.00  0.00     0.000 A 
ENDBRANCH  46  60
BRANCH  47  66
ATOM     66  C   UNL A   1      49.007  26.846  28.636  1.00  0.00    -0.014 A 
ATOM     67  C   UNL A   1      49.701  26.330  29.740  1.00  0.00     0.009 A 
ATOM     68  C   UNL A   1      49.708  27.091  27.445  1.00  0.00     0.009 A 
ATOM     69  C   UNL A   1      51.074  26.086  29.660  1.00  0.00     0.001 A 
ATOM     70  C   UNL A   1      51.074  26.821  27.360  1.00  0.00     0.001 A 
ATOM     71  C   UNL A   1      51.759  26.328  28.470  1.00  0.00     0.000 A 
ENDBRANCH  47  66
BRANCH  59  72
ATOM     72  C   UNL A   1      45.417  32.454  30.643  1.00  0.00    -0.014 A 
ATOM     73  C   UNL A   1      45.637  32.654  32.015  1.00  0.00     0.009 A 
ATOM     74  C   UNL A   1      45.636  33.520  29.755  1.00  0.00     0.009 A 
ATOM     75  C   UNL A   1      46.041  33.903  32.490  1.00  0.00     0.001 A 
ATOM     76  C   UNL A   1      46.062  34.761  30.231  1.00  0.00     0.001 A 
ATOM     77  C   UNL A   1      46.257  34.954  31.598  1.00  0.00     0.000 A 
ENDBRANCH  59  72
ENDBRANCH  33  34
ENDBRANCH  25  28
ENDBRANCH  23  24
ENDBRANCH  22  23
ENDBRANCH  21  22
ENDBRANCH   3  21
TORSDOF 16
ENDMDL
