MODEL 1
REMARK VINA RESULT:     -13.0      0.000      0.000
REMARK SMILES O=C(NCCCNC(=O)c1[nH]ncc1C[N@H+]1CCC[C@H](C(=O)c2ccc3ccccc3c2)C1)c1ccc(-c2c3nc(c(-c4ccccc4)c4ccc([nH]4)c(-c4ccccc4)c4nc(c(-c5ccccc5)c5ccc2[nH]5)C=C4)C=C3)cc1
REMARK SMILES IDX 6 1 5 2 4 3 3 4 1 5 2 6 34 8 35 9 81 10 36 11 80 12 37 13
REMARK SMILES IDX 38 14 39 15 74 16 40 17 79 18 73 19 75 20 41 21 78 22 72 23
REMARK SMILES IDX 71 24 42 26 64 27 49 28 63 29 50 30 53 31 62 32 76 33 51 34
REMARK SMILES IDX 52 35 61 37 77 38 54 39 43 40 44 41 48 42 45 43 47 44 46 45
REMARK SMILES IDX 65 46 66 47 70 48 67 49 69 50 68 51 55 52 56 53 60 54 57 55
REMARK SMILES IDX 59 56 58 57 7 58 8 59 9 61 10 62 11 63 14 64 12 65 13 67
REMARK SMILES IDX 15 68 16 69 17 70 33 71 18 73 20 74 19 75 21 76 22 77 23 78
REMARK SMILES IDX 24 79 32 80 25 81 31 82 26 83 30 84 27 85 29 86 28 87
REMARK H PARENT 3 7 75 25 53 36 7 60 11 66 16 72
REMARK Flexibility Score: inf
ROOT
ATOM      1  C   UNL A   1      32.826  29.750  25.363  1.00  0.00     0.118 C 
ENDROOT
BRANCH   1   2
ATOM      2  C   UNL A   1      32.824  28.708  26.477  1.00  0.00     0.042 C 
BRANCH   2   3
ATOM      3  C   UNL A   1      34.047  28.768  27.386  1.00  0.00     0.118 C 
BRANCH   3   4
ATOM      4  N   UNL A   1      34.157  30.040  28.087  1.00  0.00    -0.352 N 
ATOM      5  O   UNL A   1      34.979  31.586  29.486  1.00  0.00    -0.269 OA
ATOM      6  C   UNL A   1      35.197  30.601  28.786  1.00  0.00     0.251 C 
ATOM      7  H   UNL A   1      33.344  30.594  28.053  1.00  0.00     0.163 HD
BRANCH   6   8
ATOM      8  C   UNL A   1      36.569  30.045  28.723  1.00  0.00     0.039 A 
ATOM      9  C   UNL A   1      37.357  30.160  27.577  1.00  0.00     0.014 A 
ATOM     10  C   UNL A   1      37.118  29.480  29.882  1.00  0.00     0.014 A 
ATOM     11  C   UNL A   1      38.638  29.612  27.551  1.00  0.00     0.010 A 
ATOM     12  C   UNL A   1      38.429  28.990  29.878  1.00  0.00     0.010 A 
ATOM     13  C   UNL A   1      39.191  29.030  28.704  1.00  0.00    -0.014 A 
BRANCH  13  14
ATOM     14  C   UNL A   1      40.586  28.523  28.660  1.00  0.00     0.031 A 
ATOM     15  C   UNL A   1      40.887  27.105  28.268  1.00  0.00     0.074 A 
ATOM     16  C   UNL A   1      41.598  29.373  28.920  1.00  0.00     0.049 A 
ATOM     17  N   UNL A   1      42.053  26.534  28.091  1.00  0.00    -0.248 NA
ATOM     18  C   UNL A   1      39.740  26.212  28.053  1.00  0.00     0.031 C 
ATOM     19  C   UNL A   1      41.446  30.772  29.327  1.00  0.00     0.029 A 
ATOM     20  N   UNL A   1      42.955  29.197  28.832  1.00  0.00    -0.354 N 
ATOM     21  C   UNL A   1      41.782  25.211  27.772  1.00  0.00     0.074 A 
ATOM     22  C   UNL A   1      40.342  25.061  27.779  1.00  0.00     0.031 C 
ATOM     23  C   UNL A   1      42.656  31.348  29.373  1.00  0.00     0.029 A 
ATOM     24  C   UNL A   1      43.667  30.354  29.030  1.00  0.00     0.049 A 
ATOM     25  H   UNL A   1      43.378  28.327  28.646  1.00  0.00     0.167 HD
ATOM     26  C   UNL A   1      42.651  24.208  27.500  1.00  0.00     0.031 A 
ATOM     27  C   UNL A   1      44.986  30.598  28.923  1.00  0.00     0.031 A 
ATOM     28  C   UNL A   1      44.081  24.346  27.458  1.00  0.00     0.049 A 
ATOM     29  C   UNL A   1      45.923  29.487  28.564  1.00  0.00     0.074 A 
ATOM     30  C   UNL A   1      45.034  23.381  27.182  1.00  0.00     0.029 A 
ATOM     31  N   UNL A   1      44.763  25.529  27.688  1.00  0.00    -0.354 N 
ATOM     32  N   UNL A   1      45.647  28.240  28.275  1.00  0.00    -0.248 NA
ATOM     33  C   UNL A   1      47.355  29.817  28.529  1.00  0.00     0.031 C 
ATOM     34  C   UNL A   1      46.298  23.982  27.250  1.00  0.00     0.029 A 
ATOM     35  C   UNL A   1      46.126  25.320  27.560  1.00  0.00     0.049 A 
ATOM     36  H   UNL A   1      44.342  26.390  27.910  1.00  0.00     0.167 HD
ATOM     37  C   UNL A   1      46.870  27.631  28.035  1.00  0.00     0.074 A 
ATOM     38  C   UNL A   1      47.889  28.651  28.192  1.00  0.00     0.031 C 
ATOM     39  C   UNL A   1      47.125  26.339  27.725  1.00  0.00     0.031 A 
BRANCH  26  40
ATOM     40  C   UNL A   1      42.065  22.856  27.236  1.00  0.00    -0.014 A 
ATOM     41  C   UNL A   1      41.706  22.010  28.295  1.00  0.00     0.009 A 
ATOM     42  C   UNL A   1      41.846  22.435  25.916  1.00  0.00     0.009 A 
ATOM     43  C   UNL A   1      41.151  20.755  28.035  1.00  0.00     0.001 A 
ATOM     44  C   UNL A   1      41.285  21.183  25.660  1.00  0.00     0.001 A 
ATOM     45  C   UNL A   1      40.942  20.343  26.719  1.00  0.00     0.000 A 
ENDBRANCH  26  40
BRANCH  27  46
ATOM     46  C   UNL A   1      45.490  31.975  29.125  1.00  0.00    -0.014 A 
ATOM     47  C   UNL A   1      45.569  32.857  28.038  1.00  0.00     0.009 A 
ATOM     48  C   UNL A   1      45.864  32.419  30.401  1.00  0.00     0.009 A 
ATOM     49  C   UNL A   1      46.022  34.164  28.224  1.00  0.00     0.001 A 
ATOM     50  C   UNL A   1      46.309  33.729  30.585  1.00  0.00     0.001 A 
ATOM     51  C   UNL A   1      46.389  34.599  29.497  1.00  0.00     0.000 A 
ENDBRANCH  27  46
BRANCH  39  52
ATOM     52  C   UNL A   1      48.562  25.958  27.553  1.00  0.00    -0.014 A 
ATOM     53  C   UNL A   1      49.335  25.597  28.666  1.00  0.00     0.009 A 
ATOM     54  C   UNL A   1      49.142  25.946  26.277  1.00  0.00     0.009 A 
ATOM     55  C   UNL A   1      50.675  25.245  28.505  1.00  0.00     0.001 A 
ATOM     56  C   UNL A   1      50.482  25.588  26.119  1.00  0.00     0.001 A 
ATOM     57  C   UNL A   1      51.248  25.242  27.233  1.00  0.00     0.000 A 
ENDBRANCH  39  52
ENDBRANCH  13  14
ENDBRANCH   6   8
ENDBRANCH   3   4
ENDBRANCH   2   3
ENDBRANCH   1   2
BRANCH   1  58
ATOM     58  N   UNL A   1      33.495  29.273  24.162  1.00  0.00    -0.351 N 
ATOM     59  C   UNL A   1      32.967  28.714  23.027  1.00  0.00     0.269 C 
ATOM     60  H   UNL A   1      34.475  29.366  24.165  1.00  0.00     0.163 HD
ATOM     61  O   UNL A   1      33.723  28.084  22.289  1.00  0.00    -0.268 OA
BRANCH  59  62
ATOM     62  C   UNL A   1      31.564  28.835  22.758  1.00  0.00     0.131 A 
ATOM     63  N   UNL A   1      31.092  29.700  21.807  1.00  0.00    -0.272 N 
ATOM     64  C   UNL A   1      30.433  28.300  23.365  1.00  0.00     0.057 A 
ATOM     65  N   UNL A   1      29.763  29.638  21.631  1.00  0.00    -0.183 NA
ATOM     66  H   UNL A   1      31.673  30.310  21.300  1.00  0.00     0.190 HD
ATOM     67  C   UNL A   1      29.362  28.800  22.587  1.00  0.00     0.145 A 
BRANCH  64  68
ATOM     68  C   UNL A   1      30.365  27.393  24.550  1.00  0.00     0.303 C 
BRANCH  68  69
ATOM     69  N   UNL A   1      30.821  26.026  24.309  1.00  0.00    -0.330 N 
ATOM     70  C   UNL A   1      30.371  25.043  25.294  1.00  0.00     0.262 C 
ATOM     71  C   UNL A   1      30.651  25.557  22.938  1.00  0.00     0.274 C 
ATOM     72  H   UNL A   1      31.828  26.104  24.447  1.00  0.00     0.348 HD
ATOM     73  C   UNL A   1      31.220  23.779  25.189  1.00  0.00     0.062 C 
ATOM     74  C   UNL A   1      31.480  24.295  22.681  1.00  0.00     0.116 C 
ATOM     75  C   UNL A   1      31.297  23.227  23.766  1.00  0.00     0.023 C 
BRANCH  74  76
ATOM     76  C   UNL A   1      32.929  24.634  22.324  1.00  0.00     0.171 C 
ATOM     77  O   UNL A   1      33.224  25.147  21.245  1.00  0.00    -0.294 OA
BRANCH  76  78
ATOM     78  C   UNL A   1      34.017  24.435  23.302  1.00  0.00     0.019 A 
ATOM     79  C   UNL A   1      34.134  25.279  24.404  1.00  0.00     0.012 A 
ATOM     80  C   UNL A   1      34.861  23.329  23.161  1.00  0.00     0.020 A 
ATOM     81  C   UNL A   1      35.149  25.056  25.337  1.00  0.00     0.009 A 
ATOM     82  C   UNL A   1      35.877  23.087  24.102  1.00  0.00    -0.018 A 
ATOM     83  C   UNL A   1      36.028  23.969  25.198  1.00  0.00    -0.018 A 
ATOM     84  C   UNL A   1      36.739  21.985  23.984  1.00  0.00     0.009 A 
ATOM     85  C   UNL A   1      37.046  23.732  26.136  1.00  0.00     0.009 A 
ATOM     86  C   UNL A   1      37.742  21.760  24.928  1.00  0.00     0.001 A 
ATOM     87  C   UNL A   1      37.897  22.634  26.000  1.00  0.00     0.001 A 
ENDBRANCH  76  78
ENDBRANCH  74  76
ENDBRANCH  68  69
ENDBRANCH  64  68
ENDBRANCH  59  62
ENDBRANCH   1  58
TORSDOF 14
ENDMDL
MODEL 2
REMARK VINA RESULT:     -12.8      4.816      9.318
REMARK SMILES O=C(NCCCNC(=O)c1[nH]ncc1C[N@H+]1CCC[C@H](C(=O)c2ccc3ccccc3c2)C1)c1ccc(-c2c3nc(c(-c4ccccc4)c4ccc([nH]4)c(-c4ccccc4)c4nc(c(-c5ccccc5)c5ccc2[nH]5)C=C4)C=C3)cc1
REMARK SMILES IDX 6 1 5 2 4 3 3 4 1 5 2 6 34 8 35 9 81 10 36 11 80 12 37 13
REMARK SMILES IDX 38 14 39 15 74 16 40 17 79 18 73 19 75 20 41 21 78 22 72 23
REMARK SMILES IDX 71 24 42 26 64 27 49 28 63 29 50 30 53 31 62 32 76 33 51 34
REMARK SMILES IDX 52 35 61 37 77 38 54 39 43 40 44 41 48 42 45 43 47 44 46 45
REMARK SMILES IDX 65 46 66 47 70 48 67 49 69 50 68 51 55 52 56 53 60 54 57 55
REMARK SMILES IDX 59 56 58 57 7 58 8 59 9 61 10 62 11 63 14 64 12 65 13 67
REMARK SMILES IDX 15 68 16 69 17 70 33 71 18 73 20 74 19 75 21 76 22 77 23 78
REMARK SMILES IDX 24 79 32 80 25 81 31 82 26 83 30 84 27 85 29 86 28 87
REMARK H PARENT 3 7 75 25 53 36 7 60 11 66 16 72
REMARK Flexibility Score: inf
ROOT
ATOM      1  C   UNL A   1      36.343  21.729  25.760  1.00  0.00     0.118 C 
ENDROOT
BRANCH   1   2
ATOM      2  C   UNL A   1      36.912  22.992  25.122  1.00  0.00     0.042 C 
BRANCH   2   3
ATOM      3  C   UNL A   1      37.799  23.813  26.053  1.00  0.00     0.118 C 
BRANCH   3   4
ATOM      4  N   UNL A   1      39.194  23.402  25.999  1.00  0.00    -0.352 N 
ATOM      5  O   UNL A   1      41.426  23.577  26.105  1.00  0.00    -0.269 OA
ATOM      6  C   UNL A   1      40.333  24.004  26.470  1.00  0.00     0.251 C 
ATOM      7  H   UNL A   1      39.346  22.540  25.547  1.00  0.00     0.163 HD
BRANCH   6   8
ATOM      8  C   UNL A   1      40.280  25.157  27.399  1.00  0.00     0.039 A 
ATOM      9  C   UNL A   1      39.436  25.168  28.510  1.00  0.00     0.014 A 
ATOM     10  C   UNL A   1      41.176  26.218  27.204  1.00  0.00     0.014 A 
ATOM     11  C   UNL A   1      39.403  26.278  29.353  1.00  0.00     0.010 A 
ATOM     12  C   UNL A   1      41.191  27.302  28.090  1.00  0.00     0.010 A 
ATOM     13  C   UNL A   1      40.287  27.352  29.157  1.00  0.00    -0.014 A 
BRANCH  13  14
ATOM     14  C   UNL A   1      40.274  28.483  30.119  1.00  0.00     0.031 A 
ATOM     15  C   UNL A   1      39.221  29.552  30.050  1.00  0.00     0.074 A 
ATOM     16  C   UNL A   1      41.191  28.512  31.105  1.00  0.00     0.049 A 
ATOM     17  N   UNL A   1      39.015  30.553  30.869  1.00  0.00    -0.248 NA
ATOM     18  C   UNL A   1      38.284  29.497  28.918  1.00  0.00     0.031 C 
ATOM     19  C   UNL A   1      42.277  27.546  31.280  1.00  0.00     0.029 A 
ATOM     20  N   UNL A   1      41.323  29.361  32.174  1.00  0.00    -0.354 N 
ATOM     21  C   UNL A   1      37.946  31.262  30.339  1.00  0.00     0.074 A 
ATOM     22  C   UNL A   1      37.544  30.579  29.127  1.00  0.00     0.031 C 
ATOM     23  C   UNL A   1      42.914  27.807  32.432  1.00  0.00     0.029 A 
ATOM     24  C   UNL A   1      42.301  28.973  33.058  1.00  0.00     0.049 A 
ATOM     25  H   UNL A   1      40.774  30.168  32.296  1.00  0.00     0.167 HD
ATOM     26  C   UNL A   1      37.352  32.383  30.814  1.00  0.00     0.031 A 
ATOM     27  C   UNL A   1      42.650  29.482  34.253  1.00  0.00     0.031 A 
ATOM     28  C   UNL A   1      37.717  33.057  32.030  1.00  0.00     0.049 A 
ATOM     29  C   UNL A   1      41.941  30.688  34.786  1.00  0.00     0.074 A 
ATOM     30  C   UNL A   1      37.161  34.195  32.587  1.00  0.00     0.029 A 
ATOM     31  N   UNL A   1      38.727  32.645  32.883  1.00  0.00    -0.354 N 
ATOM     32  N   UNL A   1      40.938  31.349  34.265  1.00  0.00    -0.248 NA
ATOM     33  C   UNL A   1      42.421  31.222  36.068  1.00  0.00     0.031 C 
ATOM     34  C   UNL A   1      37.840  34.476  33.780  1.00  0.00     0.029 A 
ATOM     35  C   UNL A   1      38.811  33.506  33.964  1.00  0.00     0.049 A 
ATOM     36  H   UNL A   1      39.301  31.858  32.742  1.00  0.00     0.167 HD
ATOM     37  C   UNL A   1      40.674  32.386  35.147  1.00  0.00     0.074 A 
ATOM     38  C   UNL A   1      41.608  32.254  36.248  1.00  0.00     0.031 C 
ATOM     39  C   UNL A   1      39.747  33.367  35.045  1.00  0.00     0.031 A 
BRANCH  26  40
ATOM     40  C   UNL A   1      36.240  32.961  29.994  1.00  0.00    -0.014 A 
ATOM     41  C   UNL A   1      34.906  32.609  30.245  1.00  0.00     0.009 A 
ATOM     42  C   UNL A   1      36.529  33.886  28.980  1.00  0.00     0.009 A 
ATOM     43  C   UNL A   1      33.878  33.164  29.479  1.00  0.00     0.001 A 
ATOM     44  C   UNL A   1      35.498  34.443  28.222  1.00  0.00     0.001 A 
ATOM     45  C   UNL A   1      34.175  34.079  28.469  1.00  0.00     0.000 A 
ENDBRANCH  26  40
BRANCH  27  46
ATOM     46  C   UNL A   1      43.709  28.817  35.045  1.00  0.00    -0.014 A 
ATOM     47  C   UNL A   1      43.369  27.813  35.963  1.00  0.00     0.009 A 
ATOM     48  C   UNL A   1      45.057  29.161  34.868  1.00  0.00     0.009 A 
ATOM     49  C   UNL A   1      44.364  27.166  36.697  1.00  0.00     0.001 A 
ATOM     50  C   UNL A   1      46.049  28.506  35.599  1.00  0.00     0.001 A 
ATOM     51  C   UNL A   1      45.702  27.512  36.513  1.00  0.00     0.000 A 
ENDBRANCH  27  46
BRANCH  39  52
ATOM     52  C   UNL A   1      39.714  34.379  36.147  1.00  0.00    -0.014 A 
ATOM     53  C   UNL A   1      39.002  34.116  37.327  1.00  0.00     0.009 A 
ATOM     54  C   UNL A   1      40.403  35.592  36.014  1.00  0.00     0.009 A 
ATOM     55  C   UNL A   1      38.969  35.061  38.352  1.00  0.00     0.001 A 
ATOM     56  C   UNL A   1      40.372  36.533  37.044  1.00  0.00     0.001 A 
ATOM     57  C   UNL A   1      39.653  36.269  38.210  1.00  0.00     0.000 A 
ENDBRANCH  39  52
ENDBRANCH  13  14
ENDBRANCH   6   8
ENDBRANCH   3   4
ENDBRANCH   2   3
ENDBRANCH   1   2
BRANCH   1  58
ATOM     58  N   UNL A   1      35.400  22.028  26.827  1.00  0.00    -0.351 N 
ATOM     59  C   UNL A   1      34.049  21.805  26.892  1.00  0.00     0.269 C 
ATOM     60  H   UNL A   1      35.791  22.454  27.624  1.00  0.00     0.163 HD
ATOM     61  O   UNL A   1      33.400  22.430  27.731  1.00  0.00    -0.268 OA
BRANCH  59  62
ATOM     62  C   UNL A   1      33.428  20.903  25.966  1.00  0.00     0.131 A 
ATOM     63  N   UNL A   1      33.068  19.636  26.338  1.00  0.00    -0.272 N 
ATOM     64  C   UNL A   1      33.166  20.977  24.603  1.00  0.00     0.057 A 
ATOM     65  N   UNL A   1      32.436  18.947  25.375  1.00  0.00    -0.183 NA
ATOM     66  H   UNL A   1      33.255  19.264  27.230  1.00  0.00     0.190 HD
ATOM     67  C   UNL A   1      32.510  19.756  24.317  1.00  0.00     0.145 A 
BRANCH  64  68
ATOM     68  C   UNL A   1      33.484  22.093  23.662  1.00  0.00     0.303 C 
BRANCH  68  69
ATOM     69  N   UNL A   1      32.589  23.245  23.744  1.00  0.00    -0.330 N 
ATOM     70  C   UNL A   1      32.538  24.073  22.540  1.00  0.00     0.262 C 
ATOM     71  C   UNL A   1      31.262  22.952  24.275  1.00  0.00     0.274 C 
ATOM     72  H   UNL A   1      33.044  23.824  24.450  1.00  0.00     0.348 HD
ATOM     73  C   UNL A   1      31.925  25.431  22.872  1.00  0.00     0.062 C 
ATOM     74  C   UNL A   1      30.536  24.238  24.681  1.00  0.00     0.116 C 
ATOM     75  C   UNL A   1      30.583  25.320  23.595  1.00  0.00     0.023 C 
BRANCH  74  76
ATOM     76  C   UNL A   1      30.935  24.692  26.086  1.00  0.00     0.171 C 
ATOM     77  O   UNL A   1      30.532  24.108  27.091  1.00  0.00    -0.294 OA
BRANCH  76  78
ATOM     78  C   UNL A   1      31.889  25.802  26.282  1.00  0.00     0.019 A 
ATOM     79  C   UNL A   1      33.248  25.608  26.048  1.00  0.00     0.012 A 
ATOM     80  C   UNL A   1      31.397  27.071  26.604  1.00  0.00     0.020 A 
ATOM     81  C   UNL A   1      34.133  26.677  26.206  1.00  0.00     0.009 A 
ATOM     82  C   UNL A   1      32.277  28.157  26.751  1.00  0.00    -0.018 A 
ATOM     83  C   UNL A   1      33.664  27.953  26.560  1.00  0.00    -0.018 A 
ATOM     84  C   UNL A   1      31.810  29.441  27.075  1.00  0.00     0.009 A 
ATOM     85  C   UNL A   1      34.544  29.036  26.712  1.00  0.00     0.009 A 
ATOM     86  C   UNL A   1      32.698  30.508  27.217  1.00  0.00     0.001 A 
ATOM     87  C   UNL A   1      34.063  30.305  27.039  1.00  0.00     0.001 A 
ENDBRANCH  76  78
ENDBRANCH  74  76
ENDBRANCH  68  69
ENDBRANCH  64  68
ENDBRANCH  59  62
ENDBRANCH   1  58
TORSDOF 14
ENDMDL
MODEL 3
REMARK VINA RESULT:     -12.5      1.602      2.255
REMARK SMILES O=C(NCCCNC(=O)c1[nH]ncc1C[N@H+]1CCC[C@H](C(=O)c2ccc3ccccc3c2)C1)c1ccc(-c2c3nc(c(-c4ccccc4)c4ccc([nH]4)c(-c4ccccc4)c4nc(c(-c5ccccc5)c5ccc2[nH]5)C=C4)C=C3)cc1
REMARK SMILES IDX 6 1 5 2 4 3 3 4 1 5 2 6 34 8 35 9 81 10 36 11 80 12 37 13
REMARK SMILES IDX 38 14 39 15 74 16 40 17 79 18 73 19 75 20 41 21 78 22 72 23
REMARK SMILES IDX 71 24 42 26 64 27 49 28 63 29 50 30 53 31 62 32 76 33 51 34
REMARK SMILES IDX 52 35 61 37 77 38 54 39 43 40 44 41 48 42 45 43 47 44 46 45
REMARK SMILES IDX 65 46 66 47 70 48 67 49 69 50 68 51 55 52 56 53 60 54 57 55
REMARK SMILES IDX 59 56 58 57 7 58 8 59 9 61 10 62 11 63 14 64 12 65 13 67
REMARK SMILES IDX 15 68 16 69 17 70 33 71 18 73 20 74 19 75 21 76 22 77 23 78
REMARK SMILES IDX 24 79 32 80 25 81 31 82 26 83 30 84 27 85 29 86 28 87
REMARK H PARENT 3 7 75 25 53 36 7 60 11 66 16 72
REMARK Flexibility Score: inf
ROOT
ATOM      1  C   UNL A   1      32.468  29.893  25.576  1.00  0.00     0.118 C 
ENDROOT
BRANCH   1   2
ATOM      2  C   UNL A   1      32.654  28.839  26.663  1.00  0.00     0.042 C 
BRANCH   2   3
ATOM      3  C   UNL A   1      33.967  28.963  27.430  1.00  0.00     0.118 C 
BRANCH   3   4
ATOM      4  N   UNL A   1      34.072  30.221  28.155  1.00  0.00    -0.352 N 
ATOM      5  O   UNL A   1      34.874  31.737  29.598  1.00  0.00    -0.269 OA
ATOM      6  C   UNL A   1      35.099  30.762  28.886  1.00  0.00     0.251 C 
ATOM      7  H   UNL A   1      33.263  30.783  28.112  1.00  0.00     0.163 HD
BRANCH   6   8
ATOM      8  C   UNL A   1      36.468  30.197  28.845  1.00  0.00     0.039 A 
ATOM      9  C   UNL A   1      37.268  30.290  27.705  1.00  0.00     0.014 A 
ATOM     10  C   UNL A   1      37.002  29.644  30.017  1.00  0.00     0.014 A 
ATOM     11  C   UNL A   1      38.545  29.732  27.699  1.00  0.00     0.010 A 
ATOM     12  C   UNL A   1      38.310  29.146  30.032  1.00  0.00     0.010 A 
ATOM     13  C   UNL A   1      39.084  29.163  28.865  1.00  0.00    -0.014 A 
BRANCH  13  14
ATOM     14  C   UNL A   1      40.475  28.647  28.842  1.00  0.00     0.031 A 
ATOM     15  C   UNL A   1      40.774  27.234  28.429  1.00  0.00     0.074 A 
ATOM     16  C   UNL A   1      41.487  29.484  29.140  1.00  0.00     0.049 A 
ATOM     17  N   UNL A   1      41.940  26.657  28.267  1.00  0.00    -0.248 NA
ATOM     18  C   UNL A   1      39.625  26.354  28.172  1.00  0.00     0.031 C 
ATOM     19  C   UNL A   1      41.337  30.875  29.571  1.00  0.00     0.029 A 
ATOM     20  N   UNL A   1      42.845  29.298  29.078  1.00  0.00    -0.354 N 
ATOM     21  C   UNL A   1      41.666  25.342  27.917  1.00  0.00     0.074 A 
ATOM     22  C   UNL A   1      40.225  25.203  27.889  1.00  0.00     0.031 C 
ATOM     23  C   UNL A   1      42.550  31.441  29.655  1.00  0.00     0.029 A 
ATOM     24  C   UNL A   1      43.561  30.446  29.315  1.00  0.00     0.049 A 
ATOM     25  H   UNL A   1      43.265  28.429  28.885  1.00  0.00     0.167 HD
ATOM     26  C   UNL A   1      42.533  24.339  27.644  1.00  0.00     0.031 A 
ATOM     27  C   UNL A   1      44.883  30.681  29.241  1.00  0.00     0.031 A 
ATOM     28  C   UNL A   1      43.964  24.466  27.636  1.00  0.00     0.049 A 
ATOM     29  C   UNL A   1      45.820  29.570  28.882  1.00  0.00     0.074 A 
ATOM     30  C   UNL A   1      44.917  23.499  27.363  1.00  0.00     0.029 A 
ATOM     31  N   UNL A   1      44.650  25.638  27.904  1.00  0.00    -0.354 N 
ATOM     32  N   UNL A   1      45.541  28.331  28.563  1.00  0.00    -0.248 NA
ATOM     33  C   UNL A   1      47.255  29.890  28.884  1.00  0.00     0.031 C 
ATOM     34  C   UNL A   1      46.183  24.088  27.470  1.00  0.00     0.029 A 
ATOM     35  C   UNL A   1      46.013  25.422  27.802  1.00  0.00     0.049 A 
ATOM     36  H   UNL A   1      44.230  26.499  28.133  1.00  0.00     0.167 HD
ATOM     37  C   UNL A   1      46.765  27.718  28.338  1.00  0.00     0.074 A 
ATOM     38  C   UNL A   1      47.787  28.726  28.536  1.00  0.00     0.031 C 
ATOM     39  C   UNL A   1      47.016  26.429  28.008  1.00  0.00     0.031 A 
BRANCH  26  40
ATOM     40  C   UNL A   1      41.943  22.996  27.342  1.00  0.00    -0.014 A 
ATOM     41  C   UNL A   1      41.611  22.637  26.028  1.00  0.00     0.009 A 
ATOM     42  C   UNL A   1      41.743  22.072  28.378  1.00  0.00     0.009 A 
ATOM     43  C   UNL A   1      41.071  21.377  25.759  1.00  0.00     0.001 A 
ATOM     44  C   UNL A   1      41.209  20.811  28.104  1.00  0.00     0.001 A 
ATOM     45  C   UNL A   1      40.870  20.467  26.796  1.00  0.00     0.000 A 
ENDBRANCH  26  40
BRANCH  27  46
ATOM     46  C   UNL A   1      45.393  32.050  29.481  1.00  0.00    -0.014 A 
ATOM     47  C   UNL A   1      45.478  32.961  28.417  1.00  0.00     0.009 A 
ATOM     48  C   UNL A   1      45.767  32.458  30.769  1.00  0.00     0.009 A 
ATOM     49  C   UNL A   1      45.936  34.260  28.640  1.00  0.00     0.001 A 
ATOM     50  C   UNL A   1      46.218  33.761  30.988  1.00  0.00     0.001 A 
ATOM     51  C   UNL A   1      46.303  34.659  29.924  1.00  0.00     0.000 A 
ENDBRANCH  27  46
BRANCH  39  52
ATOM     52  C   UNL A   1      48.454  26.041  27.860  1.00  0.00    -0.014 A 
ATOM     53  C   UNL A   1      49.070  26.081  26.600  1.00  0.00     0.009 A 
ATOM     54  C   UNL A   1      49.199  25.645  28.979  1.00  0.00     0.009 A 
ATOM     55  C   UNL A   1      50.409  25.716  26.462  1.00  0.00     0.001 A 
ATOM     56  C   UNL A   1      50.540  25.286  28.838  1.00  0.00     0.001 A 
ATOM     57  C   UNL A   1      51.143  25.318  27.579  1.00  0.00     0.000 A 
ENDBRANCH  39  52
ENDBRANCH  13  14
ENDBRANCH   6   8
ENDBRANCH   3   4
ENDBRANCH   2   3
ENDBRANCH   1   2
BRANCH   1  58
ATOM     58  N   UNL A   1      33.349  29.673  24.438  1.00  0.00    -0.351 N 
ATOM     59  C   UNL A   1      33.085  29.093  23.224  1.00  0.00     0.269 C 
ATOM     60  H   UNL A   1      34.273  29.990  24.558  1.00  0.00     0.163 HD
ATOM     61  O   UNL A   1      34.039  28.711  22.549  1.00  0.00    -0.268 OA
BRANCH  59  62
ATOM     62  C   UNL A   1      31.727  28.906  22.802  1.00  0.00     0.131 A 
ATOM     63  N   UNL A   1      31.090  29.831  22.020  1.00  0.00    -0.272 N 
ATOM     64  C   UNL A   1      30.762  27.954  23.112  1.00  0.00     0.057 A 
ATOM     65  N   UNL A   1      29.850  29.470  21.655  1.00  0.00    -0.183 NA
ATOM     66  H   UNL A   1      31.503  30.682  21.750  1.00  0.00     0.190 HD
ATOM     67  C   UNL A   1      29.646  28.338  22.331  1.00  0.00     0.145 A 
BRANCH  64  68
ATOM     68  C   UNL A   1      30.880  26.787  24.037  1.00  0.00     0.303 C 
BRANCH  68  69
ATOM     69  N   UNL A   1      31.866  25.784  23.643  1.00  0.00    -0.330 N 
ATOM     70  C   UNL A   1      32.175  25.753  22.214  1.00  0.00     0.262 C 
ATOM     71  C   UNL A   1      33.066  25.745  24.472  1.00  0.00     0.274 C 
ATOM     72  H   UNL A   1      31.376  24.910  23.831  1.00  0.00     0.348 HD
ATOM     73  C   UNL A   1      32.868  24.439  21.863  1.00  0.00     0.062 C 
ATOM     74  C   UNL A   1      33.853  24.451  24.241  1.00  0.00     0.116 C 
ATOM     75  C   UNL A   1      34.074  24.142  22.756  1.00  0.00     0.023 C 
BRANCH  74  76
ATOM     76  C   UNL A   1      33.303  23.299  25.083  1.00  0.00     0.171 C 
ATOM     77  O   UNL A   1      32.400  23.471  25.902  1.00  0.00    -0.294 OA
BRANCH  76  78
ATOM     78  C   UNL A   1      33.782  21.916  24.880  1.00  0.00     0.019 A 
ATOM     79  C   UNL A   1      35.065  21.552  25.280  1.00  0.00     0.012 A 
ATOM     80  C   UNL A   1      32.895  20.958  24.379  1.00  0.00     0.020 A 
ATOM     81  C   UNL A   1      35.491  20.233  25.112  1.00  0.00     0.009 A 
ATOM     82  C   UNL A   1      33.308  19.625  24.218  1.00  0.00    -0.018 A 
ATOM     83  C   UNL A   1      34.627  19.261  24.580  1.00  0.00    -0.018 A 
ATOM     84  C   UNL A   1      32.438  18.643  23.716  1.00  0.00     0.009 A 
ATOM     85  C   UNL A   1      35.042  17.930  24.415  1.00  0.00     0.009 A 
ATOM     86  C   UNL A   1      32.865  17.323  23.564  1.00  0.00     0.001 A 
ATOM     87  C   UNL A   1      34.166  16.968  23.910  1.00  0.00     0.001 A 
ENDBRANCH  76  78
ENDBRANCH  74  76
ENDBRANCH  68  69
ENDBRANCH  64  68
ENDBRANCH  59  62
ENDBRANCH   1  58
TORSDOF 14
ENDMDL
