MODEL 1
REMARK VINA RESULT:     -10.9      0.000      0.000
REMARK SMILES CCn1nc(C(C)C)cc1C(=O)N[C@@H](CC(N)=O)C(=O)NCCCNC(=O)c1ccc(-c2c3nc(c(-c4ccccc4)c4ccc([nH]4)c(-c4ccccc4)c4nc(c(-c5ccccc5)c5ccc2[nH]5)C=C4)C=C3)cc1
REMARK SMILES IDX 22 1 21 2 19 3 20 4 14 6 13 7 11 8 12 9 10 11 3 12 4 13 5 14
REMARK SMILES IDX 9 15 2 16 1 17 6 18 7 19 8 20 15 21 16 22 17 23 18 24 23 27
REMARK SMILES IDX 24 28 25 29 26 30 27 32 28 33 29 34 75 35 30 36 74 37 31 38
REMARK SMILES IDX 32 39 33 40 68 41 34 42 73 43 67 44 69 45 35 46 72 47 66 48
REMARK SMILES IDX 65 49 36 51 58 52 43 53 57 54 44 55 47 56 56 57 70 58 45 59
REMARK SMILES IDX 46 60 55 62 71 63 48 64 37 65 38 66 42 67 39 68 41 69 40 70
REMARK SMILES IDX 59 71 60 72 64 73 61 74 63 75 62 76 49 77 50 78 54 79 51 80
REMARK SMILES IDX 53 81 52 82
REMARK H PARENT 21 5 13 10 17 25 17 26 25 31 69 50 47 61
REMARK Flexibility Score: inf
ROOT
ATOM      1  C   UNL A   1      33.380  27.790  26.019  1.00  0.00     0.117 C 
ENDROOT
BRANCH   1   2
ATOM      2  N   UNL A   1      32.311  28.108  25.089  1.00  0.00    -0.354 N 
ATOM      3  C   UNL A   1      31.493  27.270  24.387  1.00  0.00     0.243 C 
ATOM      4  O   UNL A   1      30.442  27.746  23.942  1.00  0.00    -0.273 OA
ATOM      5  H   UNL A   1      32.153  29.069  24.942  1.00  0.00     0.163 HD
BRANCH   3   6
ATOM      6  C   UNL A   1      31.800  25.770  24.198  1.00  0.00     0.181 C 
BRANCH   6   7
ATOM      7  N   UNL A   1      31.332  24.997  25.349  1.00  0.00    -0.338 N 
ATOM      8  C   UNL A   1      31.982  24.137  26.204  1.00  0.00     0.270 C 
ATOM      9  O   UNL A   1      31.391  23.912  27.262  1.00  0.00    -0.268 OA
ATOM     10  H   UNL A   1      30.375  25.114  25.547  1.00  0.00     0.164 HD
BRANCH   8  11
ATOM     11  C   UNL A   1      33.217  23.472  25.841  1.00  0.00     0.126 A 
ATOM     12  N   UNL A   1      33.274  22.222  25.238  1.00  0.00    -0.260 N 
ATOM     13  N   UNL A   1      34.513  21.891  24.807  1.00  0.00    -0.177 NA
ATOM     14  C   UNL A   1      35.292  22.882  25.239  1.00  0.00     0.066 A 
ATOM     15  C   UNL A   1      34.551  23.809  25.997  1.00  0.00     0.059 A 
BRANCH  12  16
ATOM     16  C   UNL A   1      32.192  21.261  25.078  1.00  0.00     0.142 C 
ATOM     17  C   UNL A   1      32.588  19.926  24.456  1.00  0.00     0.029 C 
ENDBRANCH  12  16
BRANCH  14  18
ATOM     18  C   UNL A   1      36.755  22.955  24.918  1.00  0.00     0.034 C 
ATOM     19  C   UNL A   1      37.544  23.674  26.008  1.00  0.00     0.014 C 
ATOM     20  C   UNL A   1      37.354  21.579  24.617  1.00  0.00     0.014 C 
ENDBRANCH  14  18
ENDBRANCH   8  11
ENDBRANCH   6   7
BRANCH   6  21
ATOM     21  C   UNL A   1      31.512  25.197  22.812  1.00  0.00     0.134 C 
BRANCH  21  22
ATOM     22  C   UNL A   1      32.668  25.097  21.858  1.00  0.00     0.220 C 
ATOM     23  N   UNL A   1      32.823  23.897  21.232  1.00  0.00    -0.370 N 
ATOM     24  O   UNL A   1      33.456  26.015  21.661  1.00  0.00    -0.275 OA
ATOM     25  H   UNL A   1      32.182  23.168  21.399  1.00  0.00     0.159 HD
ATOM     26  H   UNL A   1      33.575  23.758  20.612  1.00  0.00     0.159 HD
ENDBRANCH  21  22
ENDBRANCH   6  21
ENDBRANCH   3   6
ENDBRANCH   1   2
BRANCH   1  27
ATOM     27  C   UNL A   1      33.565  28.778  27.157  1.00  0.00     0.042 C 
BRANCH  27  28
ATOM     28  C   UNL A   1      35.004  29.217  27.321  1.00  0.00     0.118 C 
BRANCH  28  29
ATOM     29  N   UNL A   1      35.238  30.063  28.494  1.00  0.00    -0.352 N 
ATOM     30  C   UNL A   1      36.359  30.069  29.309  1.00  0.00     0.251 C 
ATOM     31  H   UNL A   1      34.521  30.695  28.729  1.00  0.00     0.163 HD
ATOM     32  O   UNL A   1      36.387  30.662  30.369  1.00  0.00    -0.269 OA
BRANCH  30  33
ATOM     33  C   UNL A   1      37.517  29.286  28.842  1.00  0.00     0.039 A 
ATOM     34  C   UNL A   1      38.249  29.707  27.731  1.00  0.00     0.014 A 
ATOM     35  C   UNL A   1      37.985  28.280  29.678  1.00  0.00     0.014 A 
ATOM     36  C   UNL A   1      39.528  29.187  27.539  1.00  0.00     0.010 A 
ATOM     37  C   UNL A   1      39.303  27.898  29.574  1.00  0.00     0.010 A 
ATOM     38  C   UNL A   1      40.082  28.315  28.492  1.00  0.00    -0.014 A 
BRANCH  38  39
ATOM     39  C   UNL A   1      41.491  27.915  28.396  1.00  0.00     0.031 A 
ATOM     40  C   UNL A   1      41.806  26.662  27.637  1.00  0.00     0.074 A 
ATOM     41  C   UNL A   1      42.527  28.686  28.792  1.00  0.00     0.049 A 
ATOM     42  N   UNL A   1      42.353  25.581  28.092  1.00  0.00    -0.248 NA
ATOM     43  C   UNL A   1      41.449  26.591  26.212  1.00  0.00     0.031 C 
ATOM     44  C   UNL A   1      42.520  30.068  29.289  1.00  0.00     0.029 A 
ATOM     45  N   UNL A   1      43.858  28.404  28.718  1.00  0.00    -0.354 N 
ATOM     46  C   UNL A   1      42.544  24.738  26.998  1.00  0.00     0.074 A 
ATOM     47  C   UNL A   1      41.891  25.375  25.880  1.00  0.00     0.031 C 
ATOM     48  C   UNL A   1      43.765  30.582  29.217  1.00  0.00     0.029 A 
ATOM     49  C   UNL A   1      44.678  29.506  28.885  1.00  0.00     0.049 A 
ATOM     50  H   UNL A   1      44.205  27.497  28.562  1.00  0.00     0.167 HD
ATOM     51  C   UNL A   1      43.362  23.648  27.045  1.00  0.00     0.031 A 
ATOM     52  C   UNL A   1      46.021  29.551  28.771  1.00  0.00     0.031 A 
ATOM     53  C   UNL A   1      43.715  23.285  28.390  1.00  0.00     0.049 A 
ATOM     54  C   UNL A   1      46.533  28.180  28.962  1.00  0.00     0.074 A 
ATOM     55  C   UNL A   1      43.017  22.888  29.514  1.00  0.00     0.029 A 
ATOM     56  N   UNL A   1      44.963  23.643  28.838  1.00  0.00    -0.354 N 
ATOM     57  N   UNL A   1      46.450  27.535  30.091  1.00  0.00    -0.248 NA
ATOM     58  C   UNL A   1      46.790  27.358  27.793  1.00  0.00     0.031 C 
ATOM     59  C   UNL A   1      43.697  23.513  30.603  1.00  0.00     0.029 A 
ATOM     60  C   UNL A   1      44.787  24.210  30.074  1.00  0.00     0.049 A 
ATOM     61  H   UNL A   1      45.817  23.516  28.366  1.00  0.00     0.167 HD
ATOM     62  C   UNL A   1      46.216  26.217  29.731  1.00  0.00     0.074 A 
ATOM     63  C   UNL A   1      46.564  26.149  28.314  1.00  0.00     0.031 C 
ATOM     64  C   UNL A   1      45.502  25.378  30.540  1.00  0.00     0.031 A 
BRANCH  51  65
ATOM     65  C   UNL A   1      44.110  23.090  25.863  1.00  0.00    -0.014 A 
ATOM     66  C   UNL A   1      43.981  21.724  25.545  1.00  0.00     0.009 A 
ATOM     67  C   UNL A   1      45.144  23.795  25.220  1.00  0.00     0.009 A 
ATOM     68  C   UNL A   1      44.870  21.089  24.666  1.00  0.00     0.001 A 
ATOM     69  C   UNL A   1      46.009  23.174  24.313  1.00  0.00     0.001 A 
ATOM     70  C   UNL A   1      45.886  21.816  24.054  1.00  0.00     0.000 A 
ENDBRANCH  51  65
BRANCH  52  71
ATOM     71  C   UNL A   1      46.842  30.673  28.288  1.00  0.00    -0.014 A 
ATOM     72  C   UNL A   1      46.539  31.332  27.091  1.00  0.00     0.009 A 
ATOM     73  C   UNL A   1      47.794  31.259  29.146  1.00  0.00     0.009 A 
ATOM     74  C   UNL A   1      47.146  32.555  26.778  1.00  0.00     0.001 A 
ATOM     75  C   UNL A   1      48.399  32.478  28.834  1.00  0.00     0.001 A 
ATOM     76  C   UNL A   1      48.063  33.134  27.655  1.00  0.00     0.000 A 
ENDBRANCH  52  71
BRANCH  64  77
ATOM     77  C   UNL A   1      45.174  25.848  31.939  1.00  0.00    -0.014 A 
ATOM     78  C   UNL A   1      45.995  25.564  33.046  1.00  0.00     0.009 A 
ATOM     79  C   UNL A   1      44.105  26.737  32.118  1.00  0.00     0.009 A 
ATOM     80  C   UNL A   1      45.734  26.128  34.299  1.00  0.00     0.001 A 
ATOM     81  C   UNL A   1      43.856  27.317  33.365  1.00  0.00     0.001 A 
ATOM     82  C   UNL A   1      44.667  27.009  34.456  1.00  0.00     0.000 A 
ENDBRANCH  64  77
ENDBRANCH  38  39
ENDBRANCH  30  33
ENDBRANCH  28  29
ENDBRANCH  27  28
ENDBRANCH   1  27
TORSDOF 16
ENDMDL
MODEL 2
REMARK VINA RESULT:     -10.8      2.343      6.805
REMARK SMILES CCn1nc(C(C)C)cc1C(=O)N[C@@H](CC(N)=O)C(=O)NCCCNC(=O)c1ccc(-c2c3nc(c(-c4ccccc4)c4ccc([nH]4)c(-c4ccccc4)c4nc(c(-c5ccccc5)c5ccc2[nH]5)C=C4)C=C3)cc1
REMARK SMILES IDX 22 1 21 2 19 3 20 4 14 6 13 7 11 8 12 9 10 11 3 12 4 13 5 14
REMARK SMILES IDX 9 15 2 16 1 17 6 18 7 19 8 20 15 21 16 22 17 23 18 24 23 27
REMARK SMILES IDX 24 28 25 29 26 30 27 32 28 33 29 34 75 35 30 36 74 37 31 38
REMARK SMILES IDX 32 39 33 40 68 41 34 42 73 43 67 44 69 45 35 46 72 47 66 48
REMARK SMILES IDX 65 49 36 51 58 52 43 53 57 54 44 55 47 56 56 57 70 58 45 59
REMARK SMILES IDX 46 60 55 62 71 63 48 64 37 65 38 66 42 67 39 68 41 69 40 70
REMARK SMILES IDX 59 71 60 72 64 73 61 74 63 75 62 76 49 77 50 78 54 79 51 80
REMARK SMILES IDX 53 81 52 82
REMARK H PARENT 21 5 13 10 17 25 17 26 25 31 69 50 47 61
REMARK Flexibility Score: inf
ROOT
ATOM      1  C   UNL A   1      31.834  28.178  26.767  1.00  0.00     0.117 C 
ENDROOT
BRANCH   1   2
ATOM      2  N   UNL A   1      32.954  27.269  26.599  1.00  0.00    -0.354 N 
ATOM      3  C   UNL A   1      32.983  26.019  26.051  1.00  0.00     0.243 C 
ATOM      4  O   UNL A   1      34.084  25.584  25.692  1.00  0.00    -0.273 OA
ATOM      5  H   UNL A   1      33.820  27.603  26.930  1.00  0.00     0.163 HD
BRANCH   3   6
ATOM      6  C   UNL A   1      31.708  25.186  25.807  1.00  0.00     0.181 C 
BRANCH   6   7
ATOM      7  N   UNL A   1      31.601  24.803  24.399  1.00  0.00    -0.338 N 
ATOM      8  C   UNL A   1      31.501  25.551  23.249  1.00  0.00     0.270 C 
ATOM      9  O   UNL A   1      31.764  24.944  22.209  1.00  0.00    -0.268 OA
ATOM     10  H   UNL A   1      31.600  23.831  24.247  1.00  0.00     0.164 HD
BRANCH   8  11
ATOM     11  C   UNL A   1      31.026  26.920  23.255  1.00  0.00     0.126 A 
ATOM     12  N   UNL A   1      31.772  28.000  22.803  1.00  0.00    -0.260 N 
ATOM     13  N   UNL A   1      31.058  29.146  22.712  1.00  0.00    -0.177 NA
ATOM     14  C   UNL A   1      29.866  28.836  23.223  1.00  0.00     0.066 A 
ATOM     15  C   UNL A   1      29.850  27.508  23.691  1.00  0.00     0.059 A 
BRANCH  12  16
ATOM     16  C   UNL A   1      33.192  28.029  22.480  1.00  0.00     0.142 C 
ATOM     17  C   UNL A   1      34.096  28.625  23.553  1.00  0.00     0.029 C 
ENDBRANCH  12  16
BRANCH  14  18
ATOM     18  C   UNL A   1      28.725  29.810  23.254  1.00  0.00     0.034 C 
ATOM     19  C   UNL A   1      29.041  31.085  22.479  1.00  0.00     0.014 C 
ATOM     20  C   UNL A   1      27.413  29.183  22.779  1.00  0.00     0.014 C 
ENDBRANCH  14  18
ENDBRANCH   8  11
ENDBRANCH   6   7
BRANCH   6  21
ATOM     21  C   UNL A   1      31.406  24.106  26.845  1.00  0.00     0.134 C 
BRANCH  21  22
ATOM     22  C   UNL A   1      30.820  22.819  26.342  1.00  0.00     0.220 C 
ATOM     23  N   UNL A   1      29.617  22.462  26.873  1.00  0.00    -0.370 N 
ATOM     24  O   UNL A   1      31.384  22.098  25.525  1.00  0.00    -0.275 OA
ATOM     25  H   UNL A   1      29.175  23.049  27.528  1.00  0.00     0.159 HD
ATOM     26  H   UNL A   1      29.190  21.618  26.603  1.00  0.00     0.159 HD
ENDBRANCH  21  22
ENDBRANCH   6  21
ENDBRANCH   3   6
ENDBRANCH   1   2
BRANCH   1  27
ATOM     27  C   UNL A   1      32.192  29.654  26.777  1.00  0.00     0.042 C 
BRANCH  27  28
ATOM     28  C   UNL A   1      33.570  29.917  27.345  1.00  0.00     0.118 C 
BRANCH  28  29
ATOM     29  N   UNL A   1      34.057  31.280  27.118  1.00  0.00    -0.352 N 
ATOM     30  C   UNL A   1      35.188  31.865  27.666  1.00  0.00     0.251 C 
ATOM     31  H   UNL A   1      33.522  31.841  26.511  1.00  0.00     0.163 HD
ATOM     32  O   UNL A   1      35.408  33.057  27.578  1.00  0.00    -0.269 OA
BRANCH  30  33
ATOM     33  C   UNL A   1      36.103  30.971  28.398  1.00  0.00     0.039 A 
ATOM     34  C   UNL A   1      36.281  29.652  27.979  1.00  0.00     0.014 A 
ATOM     35  C   UNL A   1      36.942  31.552  29.340  1.00  0.00     0.014 A 
ATOM     36  C   UNL A   1      37.401  28.955  28.431  1.00  0.00     0.010 A 
ATOM     37  C   UNL A   1      38.124  30.917  29.647  1.00  0.00     0.010 A 
ATOM     38  C   UNL A   1      38.357  29.605  29.229  1.00  0.00    -0.014 A 
BRANCH  38  39
ATOM     39  C   UNL A   1      39.627  28.940  29.549  1.00  0.00     0.031 A 
ATOM     40  C   UNL A   1      39.921  28.665  30.993  1.00  0.00     0.074 A 
ATOM     41  C   UNL A   1      40.458  28.408  28.627  1.00  0.00     0.049 A 
ATOM     42  N   UNL A   1      40.899  29.129  31.701  1.00  0.00    -0.248 NA
ATOM     43  C   UNL A   1      39.007  27.791  31.745  1.00  0.00     0.031 C 
ATOM     44  C   UNL A   1      40.271  28.273  27.177  1.00  0.00     0.029 A 
ATOM     45  N   UNL A   1      41.636  27.757  28.837  1.00  0.00    -0.354 N 
ATOM     46  C   UNL A   1      40.821  28.511  32.947  1.00  0.00     0.074 A 
ATOM     47  C   UNL A   1      39.587  27.762  32.949  1.00  0.00     0.031 C 
ATOM     48  C   UNL A   1      41.147  27.370  26.690  1.00  0.00     0.029 A 
ATOM     49  C   UNL A   1      42.086  27.040  27.743  1.00  0.00     0.049 A 
ATOM     50  H   UNL A   1      42.124  27.795  29.691  1.00  0.00     0.167 HD
ATOM     51  C   UNL A   1      41.852  28.525  33.840  1.00  0.00     0.031 A 
ATOM     52  C   UNL A   1      43.163  26.229  27.683  1.00  0.00     0.031 A 
ATOM     53  C   UNL A   1      42.852  29.502  33.507  1.00  0.00     0.049 A 
ATOM     54  C   UNL A   1      44.079  26.619  28.773  1.00  0.00     0.074 A 
ATOM     55  C   UNL A   1      42.872  30.875  33.366  1.00  0.00     0.029 A 
ATOM     56  N   UNL A   1      44.006  29.053  32.913  1.00  0.00    -0.354 N 
ATOM     57  N   UNL A   1      44.695  27.766  28.814  1.00  0.00    -0.248 NA
ATOM     58  C   UNL A   1      44.017  25.900  30.033  1.00  0.00     0.031 C 
ATOM     59  C   UNL A   1      43.750  31.114  32.266  1.00  0.00     0.029 A 
ATOM     60  C   UNL A   1      44.240  29.876  31.841  1.00  0.00     0.049 A 
ATOM     61  H   UNL A   1      44.558  28.290  33.200  1.00  0.00     0.167 HD
ATOM     62  C   UNL A   1      44.718  28.110  30.157  1.00  0.00     0.074 A 
ATOM     63  C   UNL A   1      44.407  26.871  30.865  1.00  0.00     0.031 C 
ATOM     64  C   UNL A   1      44.715  29.417  30.554  1.00  0.00     0.031 A 
BRANCH  51  65
ATOM     65  C   UNL A   1      42.125  27.438  34.847  1.00  0.00    -0.014 A 
ATOM     66  C   UNL A   1      42.680  26.218  34.414  1.00  0.00     0.009 A 
ATOM     67  C   UNL A   1      41.604  27.469  36.154  1.00  0.00     0.009 A 
ATOM     68  C   UNL A   1      42.672  25.079  35.231  1.00  0.00     0.001 A 
ATOM     69  C   UNL A   1      41.629  26.345  36.985  1.00  0.00     0.001 A 
ATOM     70  C   UNL A   1      42.142  25.143  36.515  1.00  0.00     0.000 A 
ENDBRANCH  51  65
BRANCH  52  71
ATOM     71  C   UNL A   1      43.320  25.007  26.877  1.00  0.00    -0.014 A 
ATOM     72  C   UNL A   1      42.667  23.819  27.224  1.00  0.00     0.009 A 
ATOM     73  C   UNL A   1      43.932  25.084  25.610  1.00  0.00     0.009 A 
ATOM     74  C   UNL A   1      42.599  22.754  26.318  1.00  0.00     0.001 A 
ATOM     75  C   UNL A   1      43.864  24.021  24.706  1.00  0.00     0.001 A 
ATOM     76  C   UNL A   1      43.184  22.861  25.056  1.00  0.00     0.000 A 
ENDBRANCH  52  71
BRANCH  64  77
ATOM     77  C   UNL A   1      44.919  30.481  29.500  1.00  0.00    -0.014 A 
ATOM     78  C   UNL A   1      46.178  31.046  29.229  1.00  0.00     0.009 A 
ATOM     79  C   UNL A   1      43.852  30.800  28.648  1.00  0.00     0.009 A 
ATOM     80  C   UNL A   1      46.356  31.927  28.157  1.00  0.00     0.001 A 
ATOM     81  C   UNL A   1      44.034  31.664  27.564  1.00  0.00     0.001 A 
ATOM     82  C   UNL A   1      45.284  32.232  27.322  1.00  0.00     0.000 A 
ENDBRANCH  64  77
ENDBRANCH  38  39
ENDBRANCH  30  33
ENDBRANCH  28  29
ENDBRANCH  27  28
ENDBRANCH   1  27
TORSDOF 16
ENDMDL
MODEL 3
REMARK VINA RESULT:     -10.8      3.018      7.527
REMARK SMILES CCn1nc(C(C)C)cc1C(=O)N[C@@H](CC(N)=O)C(=O)NCCCNC(=O)c1ccc(-c2c3nc(c(-c4ccccc4)c4ccc([nH]4)c(-c4ccccc4)c4nc(c(-c5ccccc5)c5ccc2[nH]5)C=C4)C=C3)cc1
REMARK SMILES IDX 22 1 21 2 19 3 20 4 14 6 13 7 11 8 12 9 10 11 3 12 4 13 5 14
REMARK SMILES IDX 9 15 2 16 1 17 6 18 7 19 8 20 15 21 16 22 17 23 18 24 23 27
REMARK SMILES IDX 24 28 25 29 26 30 27 32 28 33 29 34 75 35 30 36 74 37 31 38
REMARK SMILES IDX 32 39 33 40 68 41 34 42 73 43 67 44 69 45 35 46 72 47 66 48
REMARK SMILES IDX 65 49 36 51 58 52 43 53 57 54 44 55 47 56 56 57 70 58 45 59
REMARK SMILES IDX 46 60 55 62 71 63 48 64 37 65 38 66 42 67 39 68 41 69 40 70
REMARK SMILES IDX 59 71 60 72 64 73 61 74 63 75 62 76 49 77 50 78 54 79 51 80
REMARK SMILES IDX 53 81 52 82
REMARK H PARENT 21 5 13 10 17 25 17 26 25 31 69 50 47 61
REMARK Flexibility Score: inf
ROOT
ATOM      1  C   UNL A   1      36.003  23.378  26.114  1.00  0.00     0.117 C 
ENDROOT
BRANCH   1   2
ATOM      2  N   UNL A   1      35.163  22.467  25.357  1.00  0.00    -0.354 N 
ATOM      3  C   UNL A   1      34.102  22.738  24.542  1.00  0.00     0.243 C 
ATOM      4  O   UNL A   1      33.770  21.862  23.735  1.00  0.00    -0.273 OA
ATOM      5  H   UNL A   1      35.392  21.513  25.445  1.00  0.00     0.163 HD
BRANCH   3   6
ATOM      6  C   UNL A   1      33.371  24.097  24.549  1.00  0.00     0.181 C 
BRANCH   6   7
ATOM      7  N   UNL A   1      33.339  24.674  23.205  1.00  0.00    -0.338 N 
ATOM      8  C   UNL A   1      33.423  25.973  22.761  1.00  0.00     0.270 C 
ATOM      9  O   UNL A   1      33.700  26.098  21.567  1.00  0.00    -0.268 OA
ATOM     10  H   UNL A   1      33.238  24.010  22.486  1.00  0.00     0.164 HD
BRANCH   8  11
ATOM     11  C   UNL A   1      33.110  27.104  23.612  1.00  0.00     0.126 A 
ATOM     12  N   UNL A   1      31.819  27.540  23.876  1.00  0.00    -0.260 N 
ATOM     13  N   UNL A   1      31.757  28.475  24.852  1.00  0.00    -0.177 NA
ATOM     14  C   UNL A   1      33.031  28.737  25.143  1.00  0.00     0.066 A 
ATOM     15  C   UNL A   1      33.897  28.008  24.306  1.00  0.00     0.059 A 
BRANCH  12  16
ATOM     16  C   UNL A   1      30.590  27.142  23.203  1.00  0.00     0.142 C 
ATOM     17  C   UNL A   1      29.509  26.556  24.104  1.00  0.00     0.029 C 
ENDBRANCH  12  16
BRANCH  14  18
ATOM     18  C   UNL A   1      33.429  29.681  26.239  1.00  0.00     0.034 C 
ATOM     19  C   UNL A   1      32.221  30.211  27.005  1.00  0.00     0.014 C 
ATOM     20  C   UNL A   1      34.462  29.069  27.187  1.00  0.00     0.014 C 
ENDBRANCH  14  18
ENDBRANCH   8  11
ENDBRANCH   6   7
BRANCH   6  21
ATOM     21  C   UNL A   1      32.080  24.157  25.363  1.00  0.00     0.134 C 
BRANCH  21  22
ATOM     22  C   UNL A   1      31.881  23.100  26.411  1.00  0.00     0.220 C 
ATOM     23  N   UNL A   1      30.865  22.221  26.187  1.00  0.00    -0.370 N 
ATOM     24  O   UNL A   1      32.560  23.029  27.430  1.00  0.00    -0.275 OA
ATOM     25  H   UNL A   1      30.328  22.289  25.365  1.00  0.00     0.159 HD
ATOM     26  H   UNL A   1      30.667  21.518  26.847  1.00  0.00     0.159 HD
ENDBRANCH  21  22
ENDBRANCH   6  21
ENDBRANCH   3   6
ENDBRANCH   1   2
BRANCH   1  27
ATOM     27  C   UNL A   1      37.340  23.712  25.474  1.00  0.00     0.042 C 
BRANCH  27  28
ATOM     28  C   UNL A   1      38.457  23.835  26.488  1.00  0.00     0.118 C 
BRANCH  28  29
ATOM     29  N   UNL A   1      39.505  22.821  26.344  1.00  0.00    -0.352 N 
ATOM     30  C   UNL A   1      40.875  23.031  26.336  1.00  0.00     0.251 C 
ATOM     31  H   UNL A   1      39.202  21.890  26.243  1.00  0.00     0.163 HD
ATOM     32  O   UNL A   1      41.662  22.163  26.017  1.00  0.00    -0.269 OA
BRANCH  30  33
ATOM     33  C   UNL A   1      41.336  24.383  26.701  1.00  0.00     0.039 A 
ATOM     34  C   UNL A   1      41.136  25.453  25.829  1.00  0.00     0.014 A 
ATOM     35  C   UNL A   1      41.739  24.584  28.015  1.00  0.00     0.014 A 
ATOM     36  C   UNL A   1      41.227  26.750  26.333  1.00  0.00     0.010 A 
ATOM     37  C   UNL A   1      41.663  25.856  28.538  1.00  0.00     0.010 A 
ATOM     38  C   UNL A   1      41.441  26.955  27.707  1.00  0.00    -0.014 A 
BRANCH  38  39
ATOM     39  C   UNL A   1      41.348  28.306  28.274  1.00  0.00     0.031 A 
ATOM     40  C   UNL A   1      42.467  29.259  27.983  1.00  0.00     0.074 A 
ATOM     41  C   UNL A   1      40.249  28.796  28.889  1.00  0.00     0.049 A 
ATOM     42  N   UNL A   1      43.269  29.817  28.832  1.00  0.00    -0.248 NA
ATOM     43  C   UNL A   1      42.744  29.617  26.583  1.00  0.00     0.031 C 
ATOM     44  C   UNL A   1      38.923  28.187  29.045  1.00  0.00     0.029 A 
ATOM     45  N   UNL A   1      40.071  30.038  29.420  1.00  0.00    -0.354 N 
ATOM     46  C   UNL A   1      44.066  30.702  28.108  1.00  0.00     0.074 A 
ATOM     47  C   UNL A   1      43.759  30.476  26.716  1.00  0.00     0.031 C 
ATOM     48  C   UNL A   1      38.025  29.136  29.380  1.00  0.00     0.029 A 
ATOM     49  C   UNL A   1      38.748  30.357  29.675  1.00  0.00     0.049 A 
ATOM     50  H   UNL A   1      40.816  30.653  29.608  1.00  0.00     0.167 HD
ATOM     51  C   UNL A   1      44.812  31.676  28.705  1.00  0.00     0.031 A 
ATOM     52  C   UNL A   1      38.260  31.538  30.108  1.00  0.00     0.031 A 
ATOM     53  C   UNL A   1      44.948  31.470  30.121  1.00  0.00     0.049 A 
ATOM     54  C   UNL A   1      39.364  32.264  30.767  1.00  0.00     0.074 A 
ATOM     55  C   UNL A   1      45.485  30.481  30.921  1.00  0.00     0.029 A 
ATOM     56  N   UNL A   1      44.163  32.232  30.953  1.00  0.00    -0.354 N 
ATOM     57  N   UNL A   1      39.926  31.862  31.871  1.00  0.00    -0.248 NA
ATOM     58  C   UNL A   1      40.124  33.233  29.998  1.00  0.00     0.031 C 
ATOM     59  C   UNL A   1      44.600  30.397  32.038  1.00  0.00     0.029 A 
ATOM     60  C   UNL A   1      43.612  31.370  31.866  1.00  0.00     0.049 A 
ATOM     61  H   UNL A   1      44.024  33.204  30.904  1.00  0.00     0.167 HD
ATOM     62  C   UNL A   1      41.267  32.187  31.727  1.00  0.00     0.074 A 
ATOM     63  C   UNL A   1      41.303  33.139  30.620  1.00  0.00     0.031 C 
ATOM     64  C   UNL A   1      42.244  31.447  32.331  1.00  0.00     0.031 A 
BRANCH  51  65
ATOM     65  C   UNL A   1      45.158  32.997  28.070  1.00  0.00    -0.014 A 
ATOM     66  C   UNL A   1      44.137  33.935  27.823  1.00  0.00     0.009 A 
ATOM     67  C   UNL A   1      46.402  33.239  27.458  1.00  0.00     0.009 A 
ATOM     68  C   UNL A   1      44.338  35.031  26.973  1.00  0.00     0.001 A 
ATOM     69  C   UNL A   1      46.618  34.353  26.640  1.00  0.00     0.001 A 
ATOM     70  C   UNL A   1      45.579  35.236  26.379  1.00  0.00     0.000 A 
ENDBRANCH  51  65
BRANCH  52  71
ATOM     71  C   UNL A   1      36.960  32.145  29.780  1.00  0.00    -0.014 A 
ATOM     72  C   UNL A   1      36.602  32.421  28.456  1.00  0.00     0.009 A 
ATOM     73  C   UNL A   1      35.961  32.226  30.770  1.00  0.00     0.009 A 
ATOM     74  C   UNL A   1      35.277  32.737  28.129  1.00  0.00     0.001 A 
ATOM     75  C   UNL A   1      34.640  32.541  30.444  1.00  0.00     0.001 A 
ATOM     76  C   UNL A   1      34.296  32.782  29.119  1.00  0.00     0.000 A 
ENDBRANCH  52  71
BRANCH  64  77
ATOM     77  C   UNL A   1      41.825  30.410  33.347  1.00  0.00    -0.014 A 
ATOM     78  C   UNL A   1      41.487  29.092  32.991  1.00  0.00     0.009 A 
ATOM     79  C   UNL A   1      41.934  30.720  34.711  1.00  0.00     0.009 A 
ATOM     80  C   UNL A   1      41.236  28.123  33.968  1.00  0.00     0.001 A 
ATOM     81  C   UNL A   1      41.703  29.747  35.688  1.00  0.00     0.001 A 
ATOM     82  C   UNL A   1      41.349  28.451  35.317  1.00  0.00     0.000 A 
ENDBRANCH  64  77
ENDBRANCH  38  39
ENDBRANCH  30  33
ENDBRANCH  28  29
ENDBRANCH  27  28
ENDBRANCH   1  27
TORSDOF 16
ENDMDL
