MODEL 1
REMARK VINA RESULT:     -12.9      0.000      0.000
REMARK SMILES Cc1nn([C@@H](C)C(=O)NCCCNC(=O)c2ccc(-c3c4nc(c(-c5ccccc5)c5ccc([nH]5)c(-c5ccccc5)c5nc(c(-c6ccccc6)c6ccc3[nH]6)C=C5)C=C4)cc2)c(=O)c2cc3cc(F)ccc3n12
REMARK SMILES IDX 11 1 10 2 9 3 7 4 8 5 5 7 6 8 4 9 1 10 2 11 3 12 75 13 66 14
REMARK SMILES IDX 74 15 64 16 67 17 68 18 73 19 65 20 69 21 72 22 70 23 71 24
REMARK SMILES IDX 12 25 13 26 14 27 15 29 16 30 17 31 63 32 18 33 62 34 19 35
REMARK SMILES IDX 20 36 21 37 56 38 22 39 61 40 55 41 57 42 23 43 60 44 54 45
REMARK SMILES IDX 53 46 24 48 46 49 31 50 45 51 32 52 35 53 44 54 58 55 33 56
REMARK SMILES IDX 34 57 43 59 59 60 36 61 25 62 26 63 30 64 27 65 29 66 28 67
REMARK SMILES IDX 47 68 48 69 52 70 49 71 51 72 50 73 37 74 38 75 42 76 39 77
REMARK SMILES IDX 41 78 40 79
REMARK H PARENT 9 6 13 28 57 47 35 58
REMARK Flexibility Score: inf
ROOT
ATOM      1  C   UNL A   1      31.847  30.337  26.374  1.00  0.00     0.042 C 
ENDROOT
BRANCH   1   2
ATOM      2  C   UNL A   1      31.675  29.482  25.111  1.00  0.00     0.117 C 
BRANCH   2   3
ATOM      3  N   UNL A   1      32.889  29.409  24.319  1.00  0.00    -0.354 N 
ATOM      4  C   UNL A   1      33.251  28.669  23.238  1.00  0.00     0.244 C 
ATOM      5  O   UNL A   1      34.362  28.953  22.763  1.00  0.00    -0.273 OA
ATOM      6  H   UNL A   1      33.594  30.022  24.627  1.00  0.00     0.163 HD
BRANCH   4   7
ATOM      7  C   UNL A   1      32.389  27.576  22.555  1.00  0.00     0.197 C 
ATOM      8  C   UNL A   1      30.924  27.966  22.398  1.00  0.00     0.044 C 
BRANCH   7   9
ATOM      9  N   UNL A   1      32.644  26.203  23.034  1.00  0.00    -0.214 N 
ATOM     10  C   UNL A   1      32.899  24.666  26.409  1.00  0.00     0.090 C 
ATOM     11  C   UNL A   1      32.768  24.843  24.932  1.00  0.00     0.131 A 
ATOM     12  N   UNL A   1      32.653  26.040  24.425  1.00  0.00    -0.155 NA
ATOM     13  N   UNL A   1      32.784  23.695  24.124  1.00  0.00    -0.291 N 
ATOM     14  C   UNL A   1      32.789  23.858  22.762  1.00  0.00     0.115 A 
ATOM     15  C   UNL A   1      32.776  22.323  24.397  1.00  0.00     0.055 A 
ATOM     16  C   UNL A   1      32.946  25.154  22.166  1.00  0.00     0.291 A 
ATOM     17  C   UNL A   1      32.578  22.647  22.153  1.00  0.00     0.043 A 
ATOM     18  C   UNL A   1      32.553  21.669  23.169  1.00  0.00     0.004 A 
ATOM     19  C   UNL A   1      32.923  21.569  25.578  1.00  0.00     0.030 A 
ATOM     20  O   UNL A   1      33.281  25.278  21.001  1.00  0.00    -0.265 OA
ATOM     21  C   UNL A   1      32.394  20.273  23.126  1.00  0.00     0.049 A 
ATOM     22  C   UNL A   1      32.801  20.174  25.505  1.00  0.00     0.041 A 
ATOM     23  C   UNL A   1      32.525  19.547  24.301  1.00  0.00     0.123 A 
ATOM     24  F   UNL A   1      32.403  18.214  24.264  1.00  0.00    -0.207 F 
ENDBRANCH   7   9
ENDBRANCH   4   7
ENDBRANCH   2   3
ENDBRANCH   1   2
BRANCH   1  25
ATOM     25  C   UNL A   1      33.173  30.106  27.097  1.00  0.00     0.118 C 
BRANCH  25  26
ATOM     26  N   UNL A   1      33.662  31.287  27.778  1.00  0.00    -0.352 N 
ATOM     27  C   UNL A   1      34.848  31.705  28.306  1.00  0.00     0.251 C 
ATOM     28  H   UNL A   1      32.955  31.963  27.890  1.00  0.00     0.163 HD
ATOM     29  O   UNL A   1      34.833  32.842  28.789  1.00  0.00    -0.269 OA
BRANCH  27  30
ATOM     30  C   UNL A   1      36.111  30.922  28.391  1.00  0.00     0.039 A 
ATOM     31  C   UNL A   1      36.280  29.572  28.086  1.00  0.00     0.014 A 
ATOM     32  C   UNL A   1      37.224  31.639  28.882  1.00  0.00     0.014 A 
ATOM     33  C   UNL A   1      37.499  28.941  28.358  1.00  0.00     0.010 A 
ATOM     34  C   UNL A   1      38.438  31.018  29.147  1.00  0.00     0.010 A 
ATOM     35  C   UNL A   1      38.559  29.653  28.936  1.00  0.00    -0.014 A 
BRANCH  35  36
ATOM     36  C   UNL A   1      39.817  28.959  29.215  1.00  0.00     0.031 A 
ATOM     37  C   UNL A   1      40.109  28.748  30.661  1.00  0.00     0.074 A 
ATOM     38  C   UNL A   1      40.631  28.437  28.270  1.00  0.00     0.049 A 
ATOM     39  N   UNL A   1      41.096  29.229  31.343  1.00  0.00    -0.248 NA
ATOM     40  C   UNL A   1      39.132  27.999  31.465  1.00  0.00     0.031 C 
ATOM     41  C   UNL A   1      40.394  28.295  26.831  1.00  0.00     0.029 A 
ATOM     42  N   UNL A   1      41.842  27.831  28.435  1.00  0.00    -0.354 N 
ATOM     43  C   UNL A   1      40.953  28.736  32.637  1.00  0.00     0.074 A 
ATOM     44  C   UNL A   1      39.672  28.078  32.682  1.00  0.00     0.031 C 
ATOM     45  C   UNL A   1      41.310  27.446  26.305  1.00  0.00     0.029 A 
ATOM     46  C   UNL A   1      42.286  27.115  27.328  1.00  0.00     0.049 A 
ATOM     47  H   UNL A   1      42.360  27.895  29.269  1.00  0.00     0.167 HD
ATOM     48  C   UNL A   1      41.974  28.768  33.538  1.00  0.00     0.031 A 
ATOM     49  C   UNL A   1      43.360  26.283  27.275  1.00  0.00     0.031 A 
ATOM     50  C   UNL A   1      43.009  29.686  33.144  1.00  0.00     0.049 A 
ATOM     51  C   UNL A   1      44.262  26.650  28.389  1.00  0.00     0.074 A 
ATOM     52  C   UNL A   1      43.056  31.051  32.944  1.00  0.00     0.029 A 
ATOM     53  N   UNL A   1      44.115  29.175  32.510  1.00  0.00    -0.354 N 
ATOM     54  N   UNL A   1      44.910  27.777  28.447  1.00  0.00    -0.248 NA
ATOM     55  C   UNL A   1      44.094  25.952  29.653  1.00  0.00     0.031 C 
ATOM     56  C   UNL A   1      43.872  31.219  31.790  1.00  0.00     0.029 A 
ATOM     57  C   UNL A   1      44.346  29.961  31.409  1.00  0.00     0.049 A 
ATOM     58  H   UNL A   1      44.642  28.392  32.791  1.00  0.00     0.167 HD
ATOM     59  C   UNL A   1      44.832  28.152  29.778  1.00  0.00     0.074 A 
ATOM     60  C   UNL A   1      44.395  26.951  30.489  1.00  0.00     0.031 C 
ATOM     61  C   UNL A   1      44.852  29.467  30.148  1.00  0.00     0.031 A 
BRANCH  48  62
ATOM     62  C   UNL A   1      42.175  27.740  34.619  1.00  0.00    -0.014 A 
ATOM     63  C   UNL A   1      41.659  27.888  35.920  1.00  0.00     0.009 A 
ATOM     64  C   UNL A   1      42.673  26.470  34.278  1.00  0.00     0.009 A 
ATOM     65  C   UNL A   1      41.634  26.831  36.833  1.00  0.00     0.001 A 
ATOM     66  C   UNL A   1      42.614  25.396  35.178  1.00  0.00     0.001 A 
ATOM     67  C   UNL A   1      42.092  25.578  36.454  1.00  0.00     0.000 A 
ENDBRANCH  48  62
BRANCH  49  68
ATOM     68  C   UNL A   1      43.472  24.967  26.601  1.00  0.00    -0.014 A 
ATOM     69  C   UNL A   1      44.147  24.864  25.373  1.00  0.00     0.009 A 
ATOM     70  C   UNL A   1      42.648  23.894  26.984  1.00  0.00     0.009 A 
ATOM     71  C   UNL A   1      43.963  23.760  24.531  1.00  0.00     0.001 A 
ATOM     72  C   UNL A   1      42.463  22.787  26.141  1.00  0.00     0.001 A 
ATOM     73  C   UNL A   1      43.106  22.731  24.907  1.00  0.00     0.000 A 
ENDBRANCH  49  68
BRANCH  61  74
ATOM     74  C   UNL A   1      45.157  30.514  29.096  1.00  0.00    -0.014 A 
ATOM     75  C   UNL A   1      44.137  30.860  28.195  1.00  0.00     0.009 A 
ATOM     76  C   UNL A   1      46.451  31.006  28.847  1.00  0.00     0.009 A 
ATOM     77  C   UNL A   1      44.402  31.648  27.072  1.00  0.00     0.001 A 
ATOM     78  C   UNL A   1      46.711  31.820  27.738  1.00  0.00     0.001 A 
ATOM     79  C   UNL A   1      45.688  32.128  26.844  1.00  0.00     0.000 A 
ENDBRANCH  61  74
ENDBRANCH  35  36
ENDBRANCH  27  30
ENDBRANCH  25  26
ENDBRANCH   1  25
TORSDOF 11
ENDMDL
MODEL 2
REMARK VINA RESULT:     -12.8      3.221      7.953
REMARK SMILES Cc1nn([C@@H](C)C(=O)NCCCNC(=O)c2ccc(-c3c4nc(c(-c5ccccc5)c5ccc([nH]5)c(-c5ccccc5)c5nc(c(-c6ccccc6)c6ccc3[nH]6)C=C5)C=C4)cc2)c(=O)c2cc3cc(F)ccc3n12
REMARK SMILES IDX 11 1 10 2 9 3 7 4 8 5 5 7 6 8 4 9 1 10 2 11 3 12 75 13 66 14
REMARK SMILES IDX 74 15 64 16 67 17 68 18 73 19 65 20 69 21 72 22 70 23 71 24
REMARK SMILES IDX 12 25 13 26 14 27 15 29 16 30 17 31 63 32 18 33 62 34 19 35
REMARK SMILES IDX 20 36 21 37 56 38 22 39 61 40 55 41 57 42 23 43 60 44 54 45
REMARK SMILES IDX 53 46 24 48 46 49 31 50 45 51 32 52 35 53 44 54 58 55 33 56
REMARK SMILES IDX 34 57 43 59 59 60 36 61 25 62 26 63 30 64 27 65 29 66 28 67
REMARK SMILES IDX 47 68 48 69 52 70 49 71 51 72 50 73 37 74 38 75 42 76 39 77
REMARK SMILES IDX 41 78 40 79
REMARK H PARENT 9 6 13 28 57 47 35 58
REMARK Flexibility Score: inf
ROOT
ATOM      1  C   UNL A   1      37.233  20.807  25.052  1.00  0.00     0.042 C 
ENDROOT
BRANCH   1   2
ATOM      2  C   UNL A   1      35.710  20.977  25.133  1.00  0.00     0.117 C 
BRANCH   2   3
ATOM      3  N   UNL A   1      35.268  21.419  26.443  1.00  0.00    -0.354 N 
ATOM      4  C   UNL A   1      34.053  21.760  26.950  1.00  0.00     0.244 C 
ATOM      5  O   UNL A   1      34.047  22.000  28.167  1.00  0.00    -0.273 OA
ATOM      6  H   UNL A   1      35.998  21.483  27.101  1.00  0.00     0.163 HD
BRANCH   4   7
ATOM      7  C   UNL A   1      32.722  21.816  26.157  1.00  0.00     0.197 C 
ATOM      8  C   UNL A   1      32.519  20.631  25.221  1.00  0.00     0.044 C 
BRANCH   7   9
ATOM      9  N   UNL A   1      32.397  23.143  25.597  1.00  0.00    -0.214 N 
ATOM     10  C   UNL A   1      33.912  25.251  22.936  1.00  0.00     0.090 C 
ATOM     11  C   UNL A   1      32.962  24.704  23.950  1.00  0.00     0.131 A 
ATOM     12  N   UNL A   1      33.238  23.590  24.570  1.00  0.00    -0.155 NA
ATOM     13  N   UNL A   1      31.786  25.425  24.211  1.00  0.00    -0.291 N 
ATOM     14  C   UNL A   1      30.971  24.994  25.226  1.00  0.00     0.115 A 
ATOM     15  C   UNL A   1      31.195  26.551  23.628  1.00  0.00     0.055 A 
ATOM     16  C   UNL A   1      31.377  23.942  26.114  1.00  0.00     0.291 A 
ATOM     17  C   UNL A   1      29.781  25.676  25.183  1.00  0.00     0.043 A 
ATOM     18  C   UNL A   1      29.899  26.652  24.172  1.00  0.00     0.004 A 
ATOM     19  C   UNL A   1      31.632  27.491  22.673  1.00  0.00     0.030 A 
ATOM     20  O   UNL A   1      30.833  23.778  27.192  1.00  0.00    -0.265 OA
ATOM     21  C   UNL A   1      29.009  27.638  23.709  1.00  0.00     0.049 A 
ATOM     22  C   UNL A   1      30.741  28.489  22.256  1.00  0.00     0.041 A 
ATOM     23  C   UNL A   1      29.451  28.545  22.756  1.00  0.00     0.123 A 
ATOM     24  F   UNL A   1      28.618  29.503  22.330  1.00  0.00    -0.207 F 
ENDBRANCH   7   9
ENDBRANCH   4   7
ENDBRANCH   2   3
ENDBRANCH   1   2
BRANCH   1  25
ATOM     25  C   UNL A   1      38.012  22.067  25.427  1.00  0.00     0.118 C 
BRANCH  25  26
ATOM     26  N   UNL A   1      39.399  21.802  25.750  1.00  0.00    -0.352 N 
ATOM     27  C   UNL A   1      40.374  22.400  26.494  1.00  0.00     0.251 C 
ATOM     28  H   UNL A   1      39.723  20.977  25.321  1.00  0.00     0.163 HD
ATOM     29  O   UNL A   1      41.452  21.798  26.522  1.00  0.00    -0.269 OA
BRANCH  27  30
ATOM     30  C   UNL A   1      40.274  23.697  27.216  1.00  0.00     0.039 A 
ATOM     31  C   UNL A   1      39.200  24.586  27.193  1.00  0.00     0.014 A 
ATOM     32  C   UNL A   1      41.423  24.058  27.953  1.00  0.00     0.014 A 
ATOM     33  C   UNL A   1      39.315  25.838  27.809  1.00  0.00     0.010 A 
ATOM     34  C   UNL A   1      41.538  25.296  28.572  1.00  0.00     0.010 A 
ATOM     35  C   UNL A   1      40.503  26.211  28.453  1.00  0.00    -0.014 A 
BRANCH  35  36
ATOM     36  C   UNL A   1      40.592  27.531  29.079  1.00  0.00     0.031 A 
ATOM     37  C   UNL A   1      41.515  28.484  28.402  1.00  0.00     0.074 A 
ATOM     38  C   UNL A   1      39.837  27.936  30.125  1.00  0.00     0.049 A 
ATOM     39  N   UNL A   1      42.590  29.016  28.884  1.00  0.00    -0.248 NA
ATOM     40  C   UNL A   1      41.270  28.804  26.988  1.00  0.00     0.031 C 
ATOM     41  C   UNL A   1      38.696  27.261  30.749  1.00  0.00     0.029 A 
ATOM     42  N   UNL A   1      39.894  29.118  30.804  1.00  0.00    -0.354 N 
ATOM     43  C   UNL A   1      43.094  29.849  27.890  1.00  0.00     0.074 A 
ATOM     44  C   UNL A   1      42.306  29.596  26.709  1.00  0.00     0.031 C 
ATOM     45  C   UNL A   1      38.035  28.137  31.544  1.00  0.00     0.029 A 
ATOM     46  C   UNL A   1      38.791  29.375  31.610  1.00  0.00     0.049 A 
ATOM     47  H   UNL A   1      40.654  29.738  30.729  1.00  0.00     0.167 HD
ATOM     48  C   UNL A   1      44.024  30.809  28.154  1.00  0.00     0.031 A 
ATOM     49  C   UNL A   1      38.507  30.538  32.254  1.00  0.00     0.031 A 
ATOM     50  C   UNL A   1      44.679  30.586  29.416  1.00  0.00     0.049 A 
ATOM     51  C   UNL A   1      39.773  31.291  32.388  1.00  0.00     0.074 A 
ATOM     52  C   UNL A   1      45.477  29.579  29.919  1.00  0.00     0.029 A 
ATOM     53  N   UNL A   1      44.227  31.288  30.507  1.00  0.00    -0.354 N 
ATOM     54  N   UNL A   1      40.762  30.906  33.141  1.00  0.00    -0.248 NA
ATOM     55  C   UNL A   1      40.111  32.240  31.340  1.00  0.00     0.031 C 
ATOM     56  C   UNL A   1      45.047  29.415  31.266  1.00  0.00     0.029 A 
ATOM     57  C   UNL A   1      44.079  30.387  31.531  1.00  0.00     0.049 A 
ATOM     58  H   UNL A   1      44.043  32.255  30.547  1.00  0.00     0.167 HD
ATOM     59  C   UNL A   1      41.895  31.192  32.397  1.00  0.00     0.074 A 
ATOM     60  C   UNL A   1      41.438  32.091  31.337  1.00  0.00     0.031 C 
ATOM     61  C   UNL A   1      43.038  30.458  32.533  1.00  0.00     0.031 A 
BRANCH  48  62
ATOM     62  C   UNL A   1      44.123  32.114  27.412  1.00  0.00    -0.014 A 
ATOM     63  C   UNL A   1      44.301  32.189  26.019  1.00  0.00     0.009 A 
ATOM     64  C   UNL A   1      43.778  33.308  28.070  1.00  0.00     0.009 A 
ATOM     65  C   UNL A   1      44.142  33.385  25.313  1.00  0.00     0.001 A 
ATOM     66  C   UNL A   1      43.578  34.501  27.362  1.00  0.00     0.001 A 
ATOM     67  C   UNL A   1      43.758  34.538  25.983  1.00  0.00     0.000 A 
ENDBRANCH  48  62
BRANCH  49  68
ATOM     68  C   UNL A   1      37.195  31.215  32.398  1.00  0.00    -0.014 A 
ATOM     69  C   UNL A   1      36.387  31.425  31.267  1.00  0.00     0.009 A 
ATOM     70  C   UNL A   1      36.888  31.940  33.562  1.00  0.00     0.009 A 
ATOM     71  C   UNL A   1      35.350  32.364  31.278  1.00  0.00     0.001 A 
ATOM     72  C   UNL A   1      35.847  32.882  33.574  1.00  0.00     0.001 A 
ATOM     73  C   UNL A   1      35.092  33.107  32.426  1.00  0.00     0.000 A 
ENDBRANCH  49  68
BRANCH  61  74
ATOM     74  C   UNL A   1      43.120  29.439  33.652  1.00  0.00    -0.014 A 
ATOM     75  C   UNL A   1      44.057  29.657  34.675  1.00  0.00     0.009 A 
ATOM     76  C   UNL A   1      42.457  28.199  33.618  1.00  0.00     0.009 A 
ATOM     77  C   UNL A   1      44.342  28.666  35.616  1.00  0.00     0.001 A 
ATOM     78  C   UNL A   1      42.722  27.215  34.579  1.00  0.00     0.001 A 
ATOM     79  C   UNL A   1      43.674  27.445  35.569  1.00  0.00     0.000 A 
ENDBRANCH  61  74
ENDBRANCH  35  36
ENDBRANCH  27  30
ENDBRANCH  25  26
ENDBRANCH   1  25
TORSDOF 11
ENDMDL
MODEL 3
REMARK VINA RESULT:     -12.6      3.569      5.518
REMARK SMILES Cc1nn([C@@H](C)C(=O)NCCCNC(=O)c2ccc(-c3c4nc(c(-c5ccccc5)c5ccc([nH]5)c(-c5ccccc5)c5nc(c(-c6ccccc6)c6ccc3[nH]6)C=C5)C=C4)cc2)c(=O)c2cc3cc(F)ccc3n12
REMARK SMILES IDX 11 1 10 2 9 3 7 4 8 5 5 7 6 8 4 9 1 10 2 11 3 12 75 13 66 14
REMARK SMILES IDX 74 15 64 16 67 17 68 18 73 19 65 20 69 21 72 22 70 23 71 24
REMARK SMILES IDX 12 25 13 26 14 27 15 29 16 30 17 31 63 32 18 33 62 34 19 35
REMARK SMILES IDX 20 36 21 37 56 38 22 39 61 40 55 41 57 42 23 43 60 44 54 45
REMARK SMILES IDX 53 46 24 48 46 49 31 50 45 51 32 52 35 53 44 54 58 55 33 56
REMARK SMILES IDX 34 57 43 59 59 60 36 61 25 62 26 63 30 64 27 65 29 66 28 67
REMARK SMILES IDX 47 68 48 69 52 70 49 71 51 72 50 73 37 74 38 75 42 76 39 77
REMARK SMILES IDX 41 78 40 79
REMARK H PARENT 9 6 13 28 57 47 35 58
REMARK Flexibility Score: inf
ROOT
ATOM      1  C   UNL A   1      35.927  33.888  33.103  1.00  0.00     0.042 C 
ENDROOT
BRANCH   1   2
ATOM      2  C   UNL A   1      35.153  33.190  31.976  1.00  0.00     0.117 C 
BRANCH   2   3
ATOM      3  N   UNL A   1      34.041  33.987  31.490  1.00  0.00    -0.354 N 
ATOM      4  C   UNL A   1      33.703  34.461  30.261  1.00  0.00     0.244 C 
ATOM      5  O   UNL A   1      32.606  35.037  30.211  1.00  0.00    -0.273 OA
ATOM      6  H   UNL A   1      33.399  34.232  32.194  1.00  0.00     0.163 HD
BRANCH   4   7
ATOM      7  C   UNL A   1      34.535  34.295  28.963  1.00  0.00     0.197 C 
ATOM      8  C   UNL A   1      34.554  35.542  28.087  1.00  0.00     0.044 C 
BRANCH   7   9
ATOM      9  N   UNL A   1      34.326  33.015  28.259  1.00  0.00    -0.214 N 
ATOM     10  C   UNL A   1      36.520  30.112  27.497  1.00  0.00     0.090 C 
ATOM     11  C   UNL A   1      35.316  30.977  27.680  1.00  0.00     0.131 A 
ATOM     12  N   UNL A   1      35.441  32.170  28.194  1.00  0.00    -0.155 NA
ATOM     13  N   UNL A   1      34.071  30.471  27.277  1.00  0.00    -0.291 N 
ATOM     14  C   UNL A   1      32.983  31.304  27.328  1.00  0.00     0.115 A 
ATOM     15  C   UNL A   1      33.639  29.221  26.820  1.00  0.00     0.055 A 
ATOM     16  C   UNL A   1      33.126  32.702  27.619  1.00  0.00     0.291 A 
ATOM     17  C   UNL A   1      31.837  30.579  27.117  1.00  0.00     0.043 A 
ATOM     18  C   UNL A   1      32.231  29.261  26.809  1.00  0.00     0.004 A 
ATOM     19  C   UNL A   1      34.313  28.047  26.426  1.00  0.00     0.030 A 
ATOM     20  O   UNL A   1      32.246  33.499  27.346  1.00  0.00    -0.265 OA
ATOM     21  C   UNL A   1      31.490  28.110  26.486  1.00  0.00     0.049 A 
ATOM     22  C   UNL A   1      33.553  26.924  26.069  1.00  0.00     0.041 A 
ATOM     23  C   UNL A   1      32.169  26.957  26.116  1.00  0.00     0.123 A 
ATOM     24  F   UNL A   1      31.470  25.866  25.780  1.00  0.00    -0.207 F 
ENDBRANCH   7   9
ENDBRANCH   4   7
ENDBRANCH   2   3
ENDBRANCH   1   2
BRANCH   1  25
ATOM     25  C   UNL A   1      37.381  34.194  32.750  1.00  0.00     0.118 C 
BRANCH  25  26
ATOM     26  N   UNL A   1      37.584  34.437  31.337  1.00  0.00    -0.352 N 
ATOM     27  C   UNL A   1      38.219  33.810  30.306  1.00  0.00     0.251 C 
ATOM     28  H   UNL A   1      37.153  35.273  31.045  1.00  0.00     0.163 HD
ATOM     29  O   UNL A   1      38.116  34.371  29.210  1.00  0.00    -0.269 OA
BRANCH  27  30
ATOM     30  C   UNL A   1      39.040  32.571  30.387  1.00  0.00     0.039 A 
ATOM     31  C   UNL A   1      40.431  32.486  30.349  1.00  0.00     0.014 A 
ATOM     32  C   UNL A   1      38.300  31.371  30.460  1.00  0.00     0.014 A 
ATOM     33  C   UNL A   1      41.054  31.233  30.289  1.00  0.00     0.010 A 
ATOM     34  C   UNL A   1      38.914  30.126  30.407  1.00  0.00     0.010 A 
ATOM     35  C   UNL A   1      40.292  30.057  30.265  1.00  0.00    -0.014 A 
BRANCH  35  36
ATOM     36  C   UNL A   1      40.976  28.765  30.192  1.00  0.00     0.031 A 
ATOM     37  C   UNL A   1      41.690  28.364  31.436  1.00  0.00     0.074 A 
ATOM     38  C   UNL A   1      40.906  27.919  29.140  1.00  0.00     0.049 A 
ATOM     39  N   UNL A   1      42.959  28.176  31.590  1.00  0.00    -0.248 NA
ATOM     40  C   UNL A   1      40.912  28.258  32.680  1.00  0.00     0.031 C 
ATOM     41  C   UNL A   1      40.050  27.998  27.953  1.00  0.00     0.029 A 
ATOM     42  N   UNL A   1      41.553  26.731  28.963  1.00  0.00    -0.354 N 
ATOM     43  C   UNL A   1      43.140  27.793  32.915  1.00  0.00     0.074 A 
ATOM     44  C   UNL A   1      41.865  27.966  33.566  1.00  0.00     0.031 C 
ATOM     45  C   UNL A   1      40.061  26.805  27.310  1.00  0.00     0.029 A 
ATOM     46  C   UNL A   1      41.040  25.938  27.942  1.00  0.00     0.049 A 
ATOM     47  H   UNL A   1      42.321  26.456  29.514  1.00  0.00     0.167 HD
ATOM     48  C   UNL A   1      44.291  27.206  33.347  1.00  0.00     0.031 A 
ATOM     49  C   UNL A   1      41.375  24.651  27.664  1.00  0.00     0.031 A 
ATOM     50  C   UNL A   1      45.372  27.401  32.419  1.00  0.00     0.049 A 
ATOM     51  C   UNL A   1      42.704  24.399  28.264  1.00  0.00     0.074 A 
ATOM     52  C   UNL A   1      46.040  28.512  31.942  1.00  0.00     0.029 A 
ATOM     53  N   UNL A   1      45.655  26.386  31.538  1.00  0.00    -0.354 N 
ATOM     54  N   UNL A   1      43.799  24.963  27.847  1.00  0.00    -0.248 NA
ATOM     55  C   UNL A   1      42.746  23.860  29.614  1.00  0.00     0.031 C 
ATOM     56  C   UNL A   1      46.246  28.243  30.560  1.00  0.00     0.029 A 
ATOM     57  C   UNL A   1      45.776  26.955  30.295  1.00  0.00     0.049 A 
ATOM     58  H   UNL A   1      45.752  25.430  31.756  1.00  0.00     0.167 HD
ATOM     59  C   UNL A   1      44.499  25.259  29.006  1.00  0.00     0.074 A 
ATOM     60  C   UNL A   1      43.844  24.479  30.056  1.00  0.00     0.031 C 
ATOM     61  C   UNL A   1      45.360  26.317  29.065  1.00  0.00     0.031 A 
BRANCH  48  62
ATOM     62  C   UNL A   1      44.355  26.196  34.461  1.00  0.00    -0.014 A 
ATOM     63  C   UNL A   1      44.769  26.522  35.766  1.00  0.00     0.009 A 
ATOM     64  C   UNL A   1      43.750  24.938  34.287  1.00  0.00     0.009 A 
ATOM     65  C   UNL A   1      44.589  25.650  36.842  1.00  0.00     0.001 A 
ATOM     66  C   UNL A   1      43.532  24.076  35.370  1.00  0.00     0.001 A 
ATOM     67  C   UNL A   1      43.950  24.434  36.648  1.00  0.00     0.000 A 
ENDBRANCH  48  62
BRANCH  49  68
ATOM     68  C   UNL A   1      40.484  23.530  27.281  1.00  0.00    -0.014 A 
ATOM     69  C   UNL A   1      41.029  22.263  27.010  1.00  0.00     0.009 A 
ATOM     70  C   UNL A   1      39.164  23.775  26.861  1.00  0.00     0.009 A 
ATOM     71  C   UNL A   1      40.307  21.298  26.297  1.00  0.00     0.001 A 
ATOM     72  C   UNL A   1      38.441  22.808  26.147  1.00  0.00     0.001 A 
ATOM     73  C   UNL A   1      39.020  21.577  25.849  1.00  0.00     0.000 A 
ENDBRANCH  49  68
BRANCH  61  74
ATOM     74  C   UNL A   1      45.692  27.058  27.785  1.00  0.00    -0.014 A 
ATOM     75  C   UNL A   1      46.923  26.787  27.168  1.00  0.00     0.009 A 
ATOM     76  C   UNL A   1      44.932  28.136  27.297  1.00  0.00     0.009 A 
ATOM     77  C   UNL A   1      47.393  27.578  26.116  1.00  0.00     0.001 A 
ATOM     78  C   UNL A   1      45.389  28.911  26.225  1.00  0.00     0.001 A 
ATOM     79  C   UNL A   1      46.626  28.639  25.644  1.00  0.00     0.000 A 
ENDBRANCH  61  74
ENDBRANCH  35  36
ENDBRANCH  27  30
ENDBRANCH  25  26
ENDBRANCH   1  25
TORSDOF 11
ENDMDL
