MODEL 1
REMARK VINA RESULT:     -10.4      0.000      0.000
REMARK SMILES CCCC1(C(=O)NCCCNC(=O)c2ccc(-c3c4nc(c(-c5ccccc5)c5ccc([nH]5)c(-c5ccccc5)c5nc(c(-c6ccccc6)c6ccc3[nH]6)C=C5)C=C4)cc2)CC[NH+]([C@H](C)[C@H](C)O)CC1
REMARK SMILES IDX 8 1 7 2 5 3 6 4 4 6 62 7 71 8 63 9 70 10 64 11 3 13 2 14
REMARK SMILES IDX 1 15 65 16 66 17 67 18 68 19 69 20 9 22 10 23 11 24 12 25
REMARK SMILES IDX 13 27 14 28 15 29 61 30 16 31 60 32 17 33 18 34 19 35 54 36
REMARK SMILES IDX 20 37 59 38 53 39 55 40 21 41 58 42 52 43 51 44 22 46 44 47
REMARK SMILES IDX 29 48 43 49 30 50 33 51 42 52 56 53 31 54 32 55 41 57 57 58
REMARK SMILES IDX 34 59 23 60 24 61 28 62 25 63 27 64 26 65 45 66 46 67 50 68
REMARK SMILES IDX 47 69 49 70 48 71 35 72 36 73 40 74 37 75 39 76 38 77
REMARK H PARENT 7 5 64 12 69 21 11 26 55 45 33 56
REMARK Flexibility Score: inf
ROOT
ATOM      1  C   UNL A   1      31.308  27.132  26.574  1.00  0.00     0.117 C 
ENDROOT
BRANCH   1   2
ATOM      2  N   UNL A   1      31.129  25.758  26.999  1.00  0.00    -0.356 N 
ATOM      3  C   UNL A   1      31.541  24.572  26.469  1.00  0.00     0.226 C 
ATOM      4  O   UNL A   1      31.300  23.591  27.184  1.00  0.00    -0.274 OA
ATOM      5  H   UNL A   1      30.610  25.663  27.830  1.00  0.00     0.163 HD
BRANCH   3   6
ATOM      6  C   UNL A   1      32.223  24.413  25.062  1.00  0.00     0.060 C 
ATOM      7  C   UNL A   1      31.145  24.727  23.990  1.00  0.00     0.078 C 
ATOM      8  C   UNL A   1      33.500  25.307  24.990  1.00  0.00     0.078 C 
ATOM      9  C   UNL A   1      31.693  25.353  22.712  1.00  0.00     0.263 C 
ATOM     10  C   UNL A   1      33.677  26.159  23.723  1.00  0.00     0.263 C 
ATOM     11  N   UNL A   1      32.373  26.544  23.179  1.00  0.00    -0.331 N 
ATOM     12  H   UNL A   1      31.756  26.903  23.908  1.00  0.00     0.348 HD
BRANCH   6  13
ATOM     13  C   UNL A   1      32.622  22.895  24.969  1.00  0.00     0.017 C 
BRANCH  13  14
ATOM     14  C   UNL A   1      32.120  22.005  23.827  1.00  0.00    -0.002 C 
ATOM     15  C   UNL A   1      32.651  20.585  23.807  1.00  0.00     0.004 C 
ENDBRANCH  13  14
ENDBRANCH   6  13
BRANCH  11  16
ATOM     16  C   UNL A   1      32.365  27.783  22.387  1.00  0.00     0.209 C 
ATOM     17  C   UNL A   1      33.800  28.331  22.511  1.00  0.00     0.078 C 
BRANCH  16  18
ATOM     18  C   UNL A   1      31.387  28.947  22.774  1.00  0.00     0.169 C 
ATOM     19  C   UNL A   1      30.027  28.523  23.339  1.00  0.00     0.045 C 
BRANCH  18  20
ATOM     20  O   UNL A   1      31.231  29.861  21.684  1.00  0.00    -0.387 OA
ATOM     21  H   UNL A   1      30.519  29.553  21.102  1.00  0.00     0.211 HD
ENDBRANCH  18  20
ENDBRANCH  16  18
ENDBRANCH  11  16
ENDBRANCH   3   6
ENDBRANCH   1   2
BRANCH   1  22
ATOM     22  C   UNL A   1      31.972  28.000  27.636  1.00  0.00     0.042 C 
BRANCH  22  23
ATOM     23  C   UNL A   1      33.302  28.603  27.210  1.00  0.00     0.118 C 
BRANCH  23  24
ATOM     24  N   UNL A   1      33.369  30.040  27.456  1.00  0.00    -0.352 N 
ATOM     25  C   UNL A   1      34.337  30.816  28.049  1.00  0.00     0.251 C 
ATOM     26  H   UNL A   1      32.582  30.543  27.142  1.00  0.00     0.163 HD
ATOM     27  O   UNL A   1      34.078  31.979  28.341  1.00  0.00    -0.269 OA
BRANCH  25  28
ATOM     28  C   UNL A   1      35.682  30.271  28.351  1.00  0.00     0.039 A 
ATOM     29  C   UNL A   1      36.656  30.269  27.346  1.00  0.00     0.014 A 
ATOM     30  C   UNL A   1      35.980  29.718  29.597  1.00  0.00     0.014 A 
ATOM     31  C   UNL A   1      37.936  29.775  27.612  1.00  0.00     0.010 A 
ATOM     32  C   UNL A   1      37.282  29.334  29.897  1.00  0.00     0.010 A 
ATOM     33  C   UNL A   1      38.270  29.337  28.903  1.00  0.00    -0.014 A 
BRANCH  33  34
ATOM     34  C   UNL A   1      39.631  28.848  29.237  1.00  0.00     0.031 A 
ATOM     35  C   UNL A   1      40.588  29.735  29.987  1.00  0.00     0.074 A 
ATOM     36  C   UNL A   1      40.032  27.638  28.804  1.00  0.00     0.049 A 
ATOM     37  N   UNL A   1      41.839  29.520  30.309  1.00  0.00    -0.248 NA
ATOM     38  C   UNL A   1      40.083  31.054  30.403  1.00  0.00     0.031 C 
ATOM     39  C   UNL A   1      39.215  26.697  28.035  1.00  0.00     0.029 A 
ATOM     40  N   UNL A   1      41.234  26.993  28.947  1.00  0.00    -0.354 N 
ATOM     41  C   UNL A   1      42.271  30.680  30.938  1.00  0.00     0.074 A 
ATOM     42  C   UNL A   1      41.173  31.620  30.895  1.00  0.00     0.031 C 
ATOM     43  C   UNL A   1      39.924  25.579  27.811  1.00  0.00     0.029 A 
ATOM     44  C   UNL A   1      41.260  25.744  28.376  1.00  0.00     0.049 A 
ATOM     45  H   UNL A   1      42.007  27.388  29.413  1.00  0.00     0.167 HD
ATOM     46  C   UNL A   1      43.465  30.937  31.525  1.00  0.00     0.031 A 
ATOM     47  C   UNL A   1      42.248  24.832  28.314  1.00  0.00     0.031 A 
ATOM     48  C   UNL A   1      44.555  29.999  31.572  1.00  0.00     0.049 A 
ATOM     49  C   UNL A   1      43.575  25.147  28.947  1.00  0.00     0.074 A 
ATOM     50  C   UNL A   1      45.788  30.138  32.184  1.00  0.00     0.029 A 
ATOM     51  N   UNL A   1      44.541  28.747  30.976  1.00  0.00    -0.354 N 
ATOM     52  N   UNL A   1      43.947  26.223  29.594  1.00  0.00    -0.248 NA
ATOM     53  C   UNL A   1      44.613  24.111  28.848  1.00  0.00     0.031 C 
ATOM     54  C   UNL A   1      46.542  28.992  31.908  1.00  0.00     0.029 A 
ATOM     55  C   UNL A   1      45.755  28.112  31.181  1.00  0.00     0.049 A 
ATOM     56  H   UNL A   1      43.781  28.366  30.479  1.00  0.00     0.167 HD
ATOM     57  C   UNL A   1      45.252  25.984  30.009  1.00  0.00     0.074 A 
ATOM     58  C   UNL A   1      45.598  24.655  29.549  1.00  0.00     0.031 C 
ATOM     59  C   UNL A   1      46.085  26.790  30.711  1.00  0.00     0.031 A 
BRANCH  46  60
ATOM     60  C   UNL A   1      43.648  32.296  32.147  1.00  0.00    -0.014 A 
ATOM     61  C   UNL A   1      43.327  32.533  33.495  1.00  0.00     0.009 A 
ATOM     62  C   UNL A   1      44.144  33.358  31.376  1.00  0.00     0.009 A 
ATOM     63  C   UNL A   1      43.444  33.815  34.038  1.00  0.00     0.001 A 
ATOM     64  C   UNL A   1      44.295  34.630  31.931  1.00  0.00     0.001 A 
ATOM     65  C   UNL A   1      43.931  34.861  33.257  1.00  0.00     0.000 A 
ENDBRANCH  46  60
BRANCH  47  66
ATOM     66  C   UNL A   1      42.006  23.520  27.659  1.00  0.00    -0.014 A 
ATOM     67  C   UNL A   1      41.367  22.486  28.361  1.00  0.00     0.009 A 
ATOM     68  C   UNL A   1      42.392  23.297  26.328  1.00  0.00     0.009 A 
ATOM     69  C   UNL A   1      41.140  21.251  27.752  1.00  0.00     0.001 A 
ATOM     70  C   UNL A   1      42.137  22.070  25.712  1.00  0.00     0.001 A 
ATOM     71  C   UNL A   1      41.518  21.046  26.426  1.00  0.00     0.000 A 
ENDBRANCH  47  66
BRANCH  59  72
ATOM     72  C   UNL A   1      47.441  26.240  31.059  1.00  0.00    -0.014 A 
ATOM     73  C   UNL A   1      48.512  26.302  30.154  1.00  0.00     0.009 A 
ATOM     74  C   UNL A   1      47.655  25.684  32.330  1.00  0.00     0.009 A 
ATOM     75  C   UNL A   1      49.761  25.784  30.504  1.00  0.00     0.001 A 
ATOM     76  C   UNL A   1      48.913  25.197  32.688  1.00  0.00     0.001 A 
ATOM     77  C   UNL A   1      49.962  25.238  31.771  1.00  0.00     0.000 A 
ENDBRANCH  59  72
ENDBRANCH  33  34
ENDBRANCH  25  28
ENDBRANCH  23  24
ENDBRANCH  22  23
ENDBRANCH   1  22
TORSDOF 15
ENDMDL
MODEL 2
REMARK VINA RESULT:     -10.3      3.033      8.157
REMARK SMILES CCCC1(C(=O)NCCCNC(=O)c2ccc(-c3c4nc(c(-c5ccccc5)c5ccc([nH]5)c(-c5ccccc5)c5nc(c(-c6ccccc6)c6ccc3[nH]6)C=C5)C=C4)cc2)CC[NH+]([C@H](C)[C@H](C)O)CC1
REMARK SMILES IDX 8 1 7 2 5 3 6 4 4 6 62 7 71 8 63 9 70 10 64 11 3 13 2 14
REMARK SMILES IDX 1 15 65 16 66 17 67 18 68 19 69 20 9 22 10 23 11 24 12 25
REMARK SMILES IDX 13 27 14 28 15 29 61 30 16 31 60 32 17 33 18 34 19 35 54 36
REMARK SMILES IDX 20 37 59 38 53 39 55 40 21 41 58 42 52 43 51 44 22 46 44 47
REMARK SMILES IDX 29 48 43 49 30 50 33 51 42 52 56 53 31 54 32 55 41 57 57 58
REMARK SMILES IDX 34 59 23 60 24 61 28 62 25 63 27 64 26 65 45 66 46 67 50 68
REMARK SMILES IDX 47 69 49 70 48 71 35 72 36 73 40 74 37 75 39 76 38 77
REMARK H PARENT 7 5 64 12 69 21 11 26 55 45 33 56
REMARK Flexibility Score: inf
ROOT
ATOM      1  C   UNL A   1      37.401  20.463  24.579  1.00  0.00     0.117 C 
ENDROOT
BRANCH   1   2
ATOM      2  N   UNL A   1      37.661  21.782  25.125  1.00  0.00    -0.356 N 
ATOM      3  C   UNL A   1      36.840  22.743  25.631  1.00  0.00     0.226 C 
ATOM      4  O   UNL A   1      37.439  23.708  26.124  1.00  0.00    -0.274 OA
ATOM      5  H   UNL A   1      38.613  22.028  25.131  1.00  0.00     0.163 HD
BRANCH   3   6
ATOM      6  C   UNL A   1      35.270  22.696  25.576  1.00  0.00     0.060 C 
ATOM      7  C   UNL A   1      34.871  22.320  24.124  1.00  0.00     0.078 C 
ATOM      8  C   UNL A   1      34.732  21.728  26.676  1.00  0.00     0.078 C 
ATOM      9  C   UNL A   1      33.580  21.516  24.013  1.00  0.00     0.263 C 
ATOM     10  C   UNL A   1      33.651  20.722  26.244  1.00  0.00     0.263 C 
ATOM     11  N   UNL A   1      33.831  20.352  24.838  1.00  0.00    -0.331 N 
ATOM     12  H   UNL A   1      34.802  20.117  24.635  1.00  0.00     0.348 HD
BRANCH   6  13
ATOM     13  C   UNL A   1      34.804  24.166  25.878  1.00  0.00     0.017 C 
BRANCH  13  14
ATOM     14  C   UNL A   1      33.337  24.495  26.181  1.00  0.00    -0.002 C 
ATOM     15  C   UNL A   1      32.899  25.916  25.885  1.00  0.00     0.004 C 
ENDBRANCH  13  14
ENDBRANCH   6  13
BRANCH  11  16
ATOM     16  C   UNL A   1      33.303  19.030  24.466  1.00  0.00     0.209 C 
ATOM     17  C   UNL A   1      32.596  18.524  25.740  1.00  0.00     0.078 C 
BRANCH  16  18
ATOM     18  C   UNL A   1      34.289  17.903  24.001  1.00  0.00     0.169 C 
ATOM     19  C   UNL A   1      33.643  16.591  23.543  1.00  0.00     0.045 C 
BRANCH  18  20
ATOM     20  O   UNL A   1      35.293  17.666  24.993  1.00  0.00    -0.387 OA
ATOM     21  H   UNL A   1      36.024  17.166  24.600  1.00  0.00     0.211 HD
ENDBRANCH  18  20
ENDBRANCH  16  18
ENDBRANCH  11  16
ENDBRANCH   3   6
ENDBRANCH   1   2
BRANCH   1  22
ATOM     22  C   UNL A   1      38.430  19.427  25.013  1.00  0.00     0.042 C 
BRANCH  22  23
ATOM     23  C   UNL A   1      39.408  19.921  26.068  1.00  0.00     0.118 C 
BRANCH  23  24
ATOM     24  N   UNL A   1      40.668  19.184  26.049  1.00  0.00    -0.352 N 
ATOM     25  C   UNL A   1      41.970  19.608  26.181  1.00  0.00     0.251 C 
ATOM     26  H   UNL A   1      40.569  18.213  25.921  1.00  0.00     0.163 HD
ATOM     27  O   UNL A   1      42.882  18.832  25.915  1.00  0.00    -0.269 OA
BRANCH  25  28
ATOM     28  C   UNL A   1      42.290  20.985  26.627  1.00  0.00     0.039 A 
ATOM     29  C   UNL A   1      42.630  21.948  25.669  1.00  0.00     0.014 A 
ATOM     30  C   UNL A   1      42.304  21.326  27.979  1.00  0.00     0.014 A 
ATOM     31  C   UNL A   1      42.919  23.257  26.065  1.00  0.00     0.010 A 
ATOM     32  C   UNL A   1      42.478  22.651  28.363  1.00  0.00     0.010 A 
ATOM     33  C   UNL A   1      42.809  23.628  27.414  1.00  0.00    -0.014 A 
BRANCH  33  34
ATOM     34  C   UNL A   1      43.062  25.018  27.867  1.00  0.00     0.031 A 
ATOM     35  C   UNL A   1      44.471  25.483  28.121  1.00  0.00     0.074 A 
ATOM     36  C   UNL A   1      42.025  25.840  28.120  1.00  0.00     0.049 A 
ATOM     37  N   UNL A   1      44.894  26.632  28.588  1.00  0.00    -0.248 NA
ATOM     38  C   UNL A   1      45.548  24.518  27.847  1.00  0.00     0.031 C 
ATOM     39  C   UNL A   1      40.612  25.499  27.951  1.00  0.00     0.029 A 
ATOM     40  N   UNL A   1      42.003  27.132  28.578  1.00  0.00    -0.354 N 
ATOM     41  C   UNL A   1      46.275  26.514  28.683  1.00  0.00     0.074 A 
ATOM     42  C   UNL A   1      46.613  25.165  28.291  1.00  0.00     0.031 C 
ATOM     43  C   UNL A   1      39.862  26.569  28.259  1.00  0.00     0.029 A 
ATOM     44  C   UNL A   1      40.737  27.653  28.695  1.00  0.00     0.049 A 
ATOM     45  H   UNL A   1      42.817  27.639  28.804  1.00  0.00     0.167 HD
ATOM     46  C   UNL A   1      47.186  27.451  29.040  1.00  0.00     0.031 A 
ATOM     47  C   UNL A   1      40.326  28.866  29.106  1.00  0.00     0.031 A 
ATOM     48  C   UNL A   1      46.848  28.795  29.426  1.00  0.00     0.049 A 
ATOM     49  C   UNL A   1      41.352  29.883  29.524  1.00  0.00     0.074 A 
ATOM     50  C   UNL A   1      47.695  29.838  29.756  1.00  0.00     0.029 A 
ATOM     51  N   UNL A   1      45.553  29.279  29.536  1.00  0.00    -0.354 N 
ATOM     52  N   UNL A   1      42.658  29.778  29.548  1.00  0.00    -0.248 NA
ATOM     53  C   UNL A   1      40.842  31.190  29.962  1.00  0.00     0.031 C 
ATOM     54  C   UNL A   1      46.910  30.937  30.124  1.00  0.00     0.029 A 
ATOM     55  C   UNL A   1      45.576  30.599  29.957  1.00  0.00     0.049 A 
ATOM     56  H   UNL A   1      44.738  28.761  29.344  1.00  0.00     0.167 HD
ATOM     57  C   UNL A   1      43.129  31.015  29.972  1.00  0.00     0.074 A 
ATOM     58  C   UNL A   1      41.968  31.855  30.180  1.00  0.00     0.031 C 
ATOM     59  C   UNL A   1      44.409  31.419  30.165  1.00  0.00     0.031 A 
BRANCH  46  60
ATOM     60  C   UNL A   1      48.634  27.037  29.041  1.00  0.00    -0.014 A 
ATOM     61  C   UNL A   1      49.240  26.501  30.190  1.00  0.00     0.009 A 
ATOM     62  C   UNL A   1      49.407  27.189  27.879  1.00  0.00     0.009 A 
ATOM     63  C   UNL A   1      50.600  26.181  30.192  1.00  0.00     0.001 A 
ATOM     64  C   UNL A   1      50.757  26.834  27.872  1.00  0.00     0.001 A 
ATOM     65  C   UNL A   1      51.356  26.345  29.032  1.00  0.00     0.000 A 
ENDBRANCH  46  60
BRANCH  47  66
ATOM     66  C   UNL A   1      38.877  29.198  29.106  1.00  0.00    -0.014 A 
ATOM     67  C   UNL A   1      38.258  29.657  27.934  1.00  0.00     0.009 A 
ATOM     68  C   UNL A   1      38.102  29.041  30.266  1.00  0.00     0.009 A 
ATOM     69  C   UNL A   1      36.897  29.973  27.929  1.00  0.00     0.001 A 
ATOM     70  C   UNL A   1      36.736  29.330  30.250  1.00  0.00     0.001 A 
ATOM     71  C   UNL A   1      36.137  29.803  29.084  1.00  0.00     0.000 A 
ENDBRANCH  47  66
BRANCH  59  72
ATOM     72  C   UNL A   1      44.621  32.846  30.589  1.00  0.00    -0.014 A 
ATOM     73  C   UNL A   1      44.747  33.880  29.648  1.00  0.00     0.009 A 
ATOM     74  C   UNL A   1      44.659  33.163  31.956  1.00  0.00     0.009 A 
ATOM     75  C   UNL A   1      44.942  35.197  30.069  1.00  0.00     0.001 A 
ATOM     76  C   UNL A   1      44.822  34.484  32.374  1.00  0.00     0.001 A 
ATOM     77  C   UNL A   1      44.974  35.498  31.430  1.00  0.00     0.000 A 
ENDBRANCH  59  72
ENDBRANCH  33  34
ENDBRANCH  25  28
ENDBRANCH  23  24
ENDBRANCH  22  23
ENDBRANCH   1  22
TORSDOF 15
ENDMDL
MODEL 3
REMARK VINA RESULT:     -10.2      3.107      8.117
REMARK SMILES CCCC1(C(=O)NCCCNC(=O)c2ccc(-c3c4nc(c(-c5ccccc5)c5ccc([nH]5)c(-c5ccccc5)c5nc(c(-c6ccccc6)c6ccc3[nH]6)C=C5)C=C4)cc2)CC[NH+]([C@H](C)[C@H](C)O)CC1
REMARK SMILES IDX 8 1 7 2 5 3 6 4 4 6 62 7 71 8 63 9 70 10 64 11 3 13 2 14
REMARK SMILES IDX 1 15 65 16 66 17 67 18 68 19 69 20 9 22 10 23 11 24 12 25
REMARK SMILES IDX 13 27 14 28 15 29 61 30 16 31 60 32 17 33 18 34 19 35 54 36
REMARK SMILES IDX 20 37 59 38 53 39 55 40 21 41 58 42 52 43 51 44 22 46 44 47
REMARK SMILES IDX 29 48 43 49 30 50 33 51 42 52 56 53 31 54 32 55 41 57 57 58
REMARK SMILES IDX 34 59 23 60 24 61 28 62 25 63 27 64 26 65 45 66 46 67 50 68
REMARK SMILES IDX 47 69 49 70 48 71 35 72 36 73 40 74 37 75 39 76 38 77
REMARK H PARENT 7 5 64 12 69 21 11 26 55 45 33 56
REMARK Flexibility Score: inf
ROOT
ATOM      1  C   UNL A   1      37.348  20.457  24.762  1.00  0.00     0.117 C 
ENDROOT
BRANCH   1   2
ATOM      2  N   UNL A   1      37.584  21.806  25.240  1.00  0.00    -0.356 N 
ATOM      3  C   UNL A   1      36.743  22.785  25.675  1.00  0.00     0.226 C 
ATOM      4  O   UNL A   1      37.322  23.782  26.126  1.00  0.00    -0.274 OA
ATOM      5  H   UNL A   1      38.534  22.062  25.252  1.00  0.00     0.163 HD
BRANCH   3   6
ATOM      6  C   UNL A   1      35.175  22.718  25.590  1.00  0.00     0.060 C 
ATOM      7  C   UNL A   1      34.810  22.311  24.137  1.00  0.00     0.078 C 
ATOM      8  C   UNL A   1      34.627  21.763  26.696  1.00  0.00     0.078 C 
ATOM      9  C   UNL A   1      33.530  21.490  24.016  1.00  0.00     0.263 C 
ATOM     10  C   UNL A   1      33.567  20.738  26.262  1.00  0.00     0.263 C 
ATOM     11  N   UNL A   1      33.778  20.344  24.867  1.00  0.00    -0.331 N 
ATOM     12  H   UNL A   1      34.756  20.118  24.687  1.00  0.00     0.348 HD
BRANCH   6  13
ATOM     13  C   UNL A   1      34.686  24.188  25.856  1.00  0.00     0.017 C 
BRANCH  13  14
ATOM     14  C   UNL A   1      33.256  24.484  26.324  1.00  0.00    -0.002 C 
ATOM     15  C   UNL A   1      32.707  25.850  25.964  1.00  0.00     0.004 C 
ENDBRANCH  13  14
ENDBRANCH   6  13
BRANCH  11  16
ATOM     16  C   UNL A   1      33.273  19.010  24.509  1.00  0.00     0.209 C 
ATOM     17  C   UNL A   1      32.630  18.479  25.806  1.00  0.00     0.078 C 
BRANCH  16  18
ATOM     18  C   UNL A   1      34.271  17.912  24.000  1.00  0.00     0.169 C 
ATOM     19  C   UNL A   1      33.642  16.601  23.520  1.00  0.00     0.045 C 
BRANCH  18  20
ATOM     20  O   UNL A   1      35.294  17.668  24.972  1.00  0.00    -0.387 OA
ATOM     21  H   UNL A   1      35.023  16.940  25.551  1.00  0.00     0.211 HD
ENDBRANCH  18  20
ENDBRANCH  16  18
ENDBRANCH  11  16
ENDBRANCH   3   6
ENDBRANCH   1   2
BRANCH   1  22
ATOM     22  C   UNL A   1      38.555  19.546  24.937  1.00  0.00     0.042 C 
BRANCH  22  23
ATOM     23  C   UNL A   1      39.472  19.935  26.088  1.00  0.00     0.118 C 
BRANCH  23  24
ATOM     24  N   UNL A   1      40.749  19.228  26.047  1.00  0.00    -0.352 N 
ATOM     25  C   UNL A   1      42.042  19.680  26.180  1.00  0.00     0.251 C 
ATOM     26  H   UNL A   1      40.672  18.258  25.900  1.00  0.00     0.163 HD
ATOM     27  O   UNL A   1      42.970  18.932  25.894  1.00  0.00    -0.269 OA
BRANCH  25  28
ATOM     28  C   UNL A   1      42.331  21.056  26.651  1.00  0.00     0.039 A 
ATOM     29  C   UNL A   1      42.318  21.319  28.026  1.00  0.00     0.014 A 
ATOM     30  C   UNL A   1      42.568  22.097  25.754  1.00  0.00     0.014 A 
ATOM     31  C   UNL A   1      42.604  22.605  28.494  1.00  0.00     0.010 A 
ATOM     32  C   UNL A   1      42.965  23.345  26.222  1.00  0.00     0.010 A 
ATOM     33  C   UNL A   1      42.967  23.620  27.596  1.00  0.00    -0.014 A 
BRANCH  33  34
ATOM     34  C   UNL A   1      43.322  24.985  28.058  1.00  0.00     0.031 A 
ATOM     35  C   UNL A   1      42.239  25.996  28.327  1.00  0.00     0.074 A 
ATOM     36  C   UNL A   1      44.617  25.340  28.165  1.00  0.00     0.049 A 
ATOM     37  N   UNL A   1      42.348  27.256  28.666  1.00  0.00    -0.248 NA
ATOM     38  C   UNL A   1      40.849  25.539  28.161  1.00  0.00     0.031 C 
ATOM     39  C   UNL A   1      45.761  24.467  27.898  1.00  0.00     0.029 A 
ATOM     40  N   UNL A   1      45.187  26.534  28.526  1.00  0.00    -0.354 N 
ATOM     41  C   UNL A   1      41.048  27.742  28.728  1.00  0.00     0.074 A 
ATOM     42  C   UNL A   1      40.172  26.663  28.329  1.00  0.00     0.031 C 
ATOM     43  C   UNL A   1      46.896  25.141  28.145  1.00  0.00     0.029 A 
ATOM     44  C   UNL A   1      46.560  26.505  28.539  1.00  0.00     0.049 A 
ATOM     45  H   UNL A   1      44.663  27.336  28.754  1.00  0.00     0.167 HD
ATOM     46  C   UNL A   1      40.614  28.968  29.109  1.00  0.00     0.031 A 
ATOM     47  C   UNL A   1      47.451  27.470  28.835  1.00  0.00     0.031 A 
ATOM     48  C   UNL A   1      41.487  30.040  29.511  1.00  0.00     0.049 A 
ATOM     49  C   UNL A   1      46.951  28.832  29.229  1.00  0.00     0.074 A 
ATOM     50  C   UNL A   1      41.151  31.303  29.963  1.00  0.00     0.029 A 
ATOM     51  N   UNL A   1      42.872  29.970  29.503  1.00  0.00    -0.354 N 
ATOM     52  N   UNL A   1      45.717  29.258  29.345  1.00  0.00    -0.248 NA
ATOM     53  C   UNL A   1      47.971  29.842  29.542  1.00  0.00     0.031 C 
ATOM     54  C   UNL A   1      42.335  32.019  30.173  1.00  0.00     0.029 A 
ATOM     55  C   UNL A   1      43.408  31.179  29.917  1.00  0.00     0.049 A 
ATOM     56  H   UNL A   1      43.397  29.179  29.242  1.00  0.00     0.167 HD
ATOM     57  C   UNL A   1      45.810  30.575  29.776  1.00  0.00     0.074 A 
ATOM     58  C   UNL A   1      47.222  30.871  29.912  1.00  0.00     0.031 C 
ATOM     59  C   UNL A   1      44.816  31.459  30.041  1.00  0.00     0.031 A 
BRANCH  46  60
ATOM     60  C   UNL A   1      39.128  29.210  29.089  1.00  0.00    -0.014 A 
ATOM     61  C   UNL A   1      38.471  29.625  27.919  1.00  0.00     0.009 A 
ATOM     62  C   UNL A   1      38.373  29.025  30.257  1.00  0.00     0.009 A 
ATOM     63  C   UNL A   1      37.102  29.905  27.934  1.00  0.00     0.001 A 
ATOM     64  C   UNL A   1      36.998  29.269  30.261  1.00  0.00     0.001 A 
ATOM     65  C   UNL A   1      36.367  29.724  29.104  1.00  0.00     0.000 A 
ENDBRANCH  46  60
BRANCH  47  66
ATOM     66  C   UNL A   1      48.906  27.169  28.808  1.00  0.00    -0.014 A 
ATOM     67  C   UNL A   1      49.647  27.367  27.632  1.00  0.00     0.009 A 
ATOM     68  C   UNL A   1      49.567  26.699  29.954  1.00  0.00     0.009 A 
ATOM     69  C   UNL A   1      51.014  27.082  27.599  1.00  0.00     0.001 A 
ATOM     70  C   UNL A   1      50.940  26.444  29.926  1.00  0.00     0.001 A 
ATOM     71  C   UNL A   1      51.660  26.628  28.747  1.00  0.00     0.000 A 
ENDBRANCH  47  66
BRANCH  59  72
ATOM     72  C   UNL A   1      45.220  32.817  30.541  1.00  0.00    -0.014 A 
ATOM     73  C   UNL A   1      45.409  33.070  31.909  1.00  0.00     0.009 A 
ATOM     74  C   UNL A   1      45.452  33.852  29.621  1.00  0.00     0.009 A 
ATOM     75  C   UNL A   1      45.785  34.341  32.347  1.00  0.00     0.001 A 
ATOM     76  C   UNL A   1      45.860  35.113  30.059  1.00  0.00     0.001 A 
ATOM     77  C   UNL A   1      46.016  35.359  31.422  1.00  0.00     0.000 A 
ENDBRANCH  59  72
ENDBRANCH  33  34
ENDBRANCH  25  28
ENDBRANCH  23  24
ENDBRANCH  22  23
ENDBRANCH   1  22
TORSDOF 15
ENDMDL
