MODEL 1
REMARK VINA RESULT:     -11.7      0.000      0.000
REMARK SMILES C[C@@H](C(=O)NCCCNC(=O)c1ccc(-c2c3nc(c(-c4ccccc4)c4ccc([nH]4)c(-c4ccccc4)c4nc(c(-c5ccccc5)c5ccc2[nH]5)C=C4)C=C3)cc1)c1ccc(-c2ccn(C(F)F)c(=O)c2)cc1
REMARK SMILES IDX 6 1 5 2 3 3 4 4 2 6 1 7 60 8 61 9 75 10 62 11 74 12 63 13
REMARK SMILES IDX 64 14 65 15 73 16 66 17 71 18 67 19 72 20 68 21 69 22 70 23
REMARK SMILES IDX 7 24 8 25 9 26 10 27 11 29 12 30 13 31 59 32 14 33 58 34
REMARK SMILES IDX 15 35 16 36 17 37 52 38 18 39 57 40 51 41 53 42 19 43 56 44
REMARK SMILES IDX 50 45 49 46 20 48 42 49 27 50 41 51 28 52 31 53 40 54 54 55
REMARK SMILES IDX 29 56 30 57 39 59 55 60 32 61 21 62 22 63 26 64 23 65 25 66
REMARK SMILES IDX 24 67 43 68 44 69 48 70 45 71 47 72 46 73 33 74 34 75 38 76
REMARK SMILES IDX 35 77 37 78 36 79
REMARK H PARENT 5 5 9 28 53 47 31 58
REMARK Flexibility Score: inf
ROOT
ATOM      1  C   UNL A   1      31.789  27.153  26.766  1.00  0.00     0.117 C 
ENDROOT
BRANCH   1   2
ATOM      2  N   UNL A   1      31.156  27.119  25.459  1.00  0.00    -0.356 N 
ATOM      3  C   UNL A   1      31.690  26.965  24.211  1.00  0.00     0.227 C 
ATOM      4  O   UNL A   1      30.917  27.119  23.263  1.00  0.00    -0.274 OA
ATOM      5  H   UNL A   1      30.178  27.226  25.475  1.00  0.00     0.163 HD
BRANCH   3   6
ATOM      6  C   UNL A   1      33.176  26.589  24.038  1.00  0.00     0.105 C 
ATOM      7  C   UNL A   1      33.692  27.146  22.705  1.00  0.00     0.023 C 
BRANCH   6   8
ATOM      8  C   UNL A   1      33.429  25.083  24.201  1.00  0.00    -0.036 A 
ATOM      9  C   UNL A   1      34.059  24.595  25.362  1.00  0.00     0.005 A 
ATOM     10  C   UNL A   1      33.067  24.149  23.217  1.00  0.00     0.005 A 
ATOM     11  C   UNL A   1      34.272  23.222  25.552  1.00  0.00     0.009 A 
ATOM     12  C   UNL A   1      33.291  22.784  23.399  1.00  0.00     0.009 A 
ATOM     13  C   UNL A   1      33.881  22.307  24.572  1.00  0.00    -0.018 A 
BRANCH  13  14
ATOM     14  C   UNL A   1      34.027  20.851  24.737  1.00  0.00    -0.011 A 
ATOM     15  C   UNL A   1      35.321  20.196  24.757  1.00  0.00     0.027 A 
ATOM     16  C   UNL A   1      32.913  20.099  24.738  1.00  0.00     0.080 A 
ATOM     17  C   UNL A   1      35.408  18.861  24.714  1.00  0.00     0.095 A 
ATOM     18  C   UNL A   1      32.994  18.612  24.721  1.00  0.00     0.255 A 
ATOM     19  N   UNL A   1      34.271  18.076  24.680  1.00  0.00    -0.258 N 
ATOM     20  O   UNL A   1      31.949  17.967  24.716  1.00  0.00    -0.269 OA
BRANCH  19  21
ATOM     21  C   UNL A   1      34.376  16.644  24.568  1.00  0.00     0.451 C 
ATOM     22  F   UNL A   1      34.425  16.251  23.273  1.00  0.00    -0.185 F 
ATOM     23  F   UNL A   1      35.494  16.192  25.188  1.00  0.00    -0.185 F 
ENDBRANCH  19  21
ENDBRANCH  13  14
ENDBRANCH   6   8
ENDBRANCH   3   6
ENDBRANCH   1   2
BRANCH   1  24
ATOM     24  C   UNL A   1      32.002  28.590  27.250  1.00  0.00     0.042 C 
BRANCH  24  25
ATOM     25  C   UNL A   1      33.460  29.044  27.258  1.00  0.00     0.118 C 
BRANCH  25  26
ATOM     26  N   UNL A   1      33.617  30.418  27.709  1.00  0.00    -0.352 N 
ATOM     27  C   UNL A   1      34.658  31.021  28.367  1.00  0.00     0.251 C 
ATOM     28  H   UNL A   1      32.855  31.009  27.511  1.00  0.00     0.163 HD
ATOM     29  O   UNL A   1      34.510  32.153  28.828  1.00  0.00    -0.269 OA
BRANCH  27  30
ATOM     30  C   UNL A   1      35.946  30.319  28.559  1.00  0.00     0.039 A 
ATOM     31  C   UNL A   1      36.860  30.294  27.502  1.00  0.00     0.014 A 
ATOM     32  C   UNL A   1      36.253  29.671  29.759  1.00  0.00     0.014 A 
ATOM     33  C   UNL A   1      38.114  29.705  27.678  1.00  0.00     0.010 A 
ATOM     34  C   UNL A   1      37.529  29.139  29.956  1.00  0.00     0.010 A 
ATOM     35  C   UNL A   1      38.478  29.170  28.924  1.00  0.00    -0.014 A 
BRANCH  35  36
ATOM     36  C   UNL A   1      39.868  28.714  29.188  1.00  0.00     0.031 A 
ATOM     37  C   UNL A   1      40.896  29.654  29.755  1.00  0.00     0.074 A 
ATOM     38  C   UNL A   1      40.224  27.462  28.833  1.00  0.00     0.049 A 
ATOM     39  N   UNL A   1      42.172  29.445  29.969  1.00  0.00    -0.248 NA
ATOM     40  C   UNL A   1      40.441  31.006  30.113  1.00  0.00     0.031 C 
ATOM     41  C   UNL A   1      39.331  26.463  28.240  1.00  0.00     0.029 A 
ATOM     42  N   UNL A   1      41.436  26.819  28.904  1.00  0.00    -0.354 N 
ATOM     43  C   UNL A   1      42.674  30.639  30.468  1.00  0.00     0.074 A 
ATOM     44  C   UNL A   1      41.573  31.579  30.501  1.00  0.00     0.031 C 
ATOM     45  C   UNL A   1      40.020  25.334  28.012  1.00  0.00     0.029 A 
ATOM     46  C   UNL A   1      41.412  25.542  28.396  1.00  0.00     0.049 A 
ATOM     47  H   UNL A   1      42.244  27.234  29.283  1.00  0.00     0.167 HD
ATOM     48  C   UNL A   1      43.935  30.923  30.871  1.00  0.00     0.031 A 
ATOM     49  C   UNL A   1      42.403  24.644  28.231  1.00  0.00     0.031 A 
ATOM     50  C   UNL A   1      45.026  29.985  30.851  1.00  0.00     0.049 A 
ATOM     51  C   UNL A   1      43.800  25.005  28.653  1.00  0.00     0.074 A 
ATOM     52  C   UNL A   1      46.318  30.161  31.318  1.00  0.00     0.029 A 
ATOM     53  N   UNL A   1      44.962  28.705  30.327  1.00  0.00    -0.354 N 
ATOM     54  N   UNL A   1      44.234  26.107  29.214  1.00  0.00    -0.248 NA
ATOM     55  C   UNL A   1      44.844  23.998  28.419  1.00  0.00     0.031 C 
ATOM     56  C   UNL A   1      47.054  29.011  31.016  1.00  0.00     0.029 A 
ATOM     57  C   UNL A   1      46.204  28.097  30.415  1.00  0.00     0.049 A 
ATOM     58  H   UNL A   1      44.153  28.289  29.948  1.00  0.00     0.167 HD
ATOM     59  C   UNL A   1      45.594  25.918  29.416  1.00  0.00     0.074 A 
ATOM     60  C   UNL A   1      45.910  24.587  28.944  1.00  0.00     0.031 C 
ATOM     61  C   UNL A   1      46.504  26.774  29.938  1.00  0.00     0.031 A 
BRANCH  48  62
ATOM     62  C   UNL A   1      44.226  32.313  31.365  1.00  0.00    -0.014 A 
ATOM     63  C   UNL A   1      44.608  33.334  30.482  1.00  0.00     0.009 A 
ATOM     64  C   UNL A   1      44.016  32.626  32.718  1.00  0.00     0.009 A 
ATOM     65  C   UNL A   1      44.788  34.639  30.948  1.00  0.00     0.001 A 
ATOM     66  C   UNL A   1      44.174  33.935  33.176  1.00  0.00     0.001 A 
ATOM     67  C   UNL A   1      44.563  34.940  32.291  1.00  0.00     0.000 A 
ENDBRANCH  48  62
BRANCH  49  68
ATOM     68  C   UNL A   1      42.127  23.323  27.605  1.00  0.00    -0.014 A 
ATOM     69  C   UNL A   1      42.298  23.135  26.226  1.00  0.00     0.009 A 
ATOM     70  C   UNL A   1      41.649  22.255  28.382  1.00  0.00     0.009 A 
ATOM     71  C   UNL A   1      41.957  21.918  25.629  1.00  0.00     0.001 A 
ATOM     72  C   UNL A   1      41.342  21.029  27.788  1.00  0.00     0.001 A 
ATOM     73  C   UNL A   1      41.483  20.866  26.412  1.00  0.00     0.000 A 
ENDBRANCH  49  68
BRANCH  61  74
ATOM     74  C   UNL A   1      47.923  26.292  30.040  1.00  0.00    -0.014 A 
ATOM     75  C   UNL A   1      48.807  26.409  28.956  1.00  0.00     0.009 A 
ATOM     76  C   UNL A   1      48.394  25.753  31.248  1.00  0.00     0.009 A 
ATOM     77  C   UNL A   1      50.127  25.968  29.071  1.00  0.00     0.001 A 
ATOM     78  C   UNL A   1      49.721  25.341  31.369  1.00  0.00     0.001 A 
ATOM     79  C   UNL A   1      50.584  25.441  30.279  1.00  0.00     0.000 A 
ENDBRANCH  61  74
ENDBRANCH  35  36
ENDBRANCH  27  30
ENDBRANCH  25  26
ENDBRANCH  24  25
ENDBRANCH   1  24
TORSDOF 13
ENDMDL
MODEL 2
REMARK VINA RESULT:     -11.7      3.524      8.335
REMARK SMILES C[C@@H](C(=O)NCCCNC(=O)c1ccc(-c2c3nc(c(-c4ccccc4)c4ccc([nH]4)c(-c4ccccc4)c4nc(c(-c5ccccc5)c5ccc2[nH]5)C=C4)C=C3)cc1)c1ccc(-c2ccn(C(F)F)c(=O)c2)cc1
REMARK SMILES IDX 6 1 5 2 3 3 4 4 2 6 1 7 60 8 61 9 75 10 62 11 74 12 63 13
REMARK SMILES IDX 64 14 65 15 73 16 66 17 71 18 67 19 72 20 68 21 69 22 70 23
REMARK SMILES IDX 7 24 8 25 9 26 10 27 11 29 12 30 13 31 59 32 14 33 58 34
REMARK SMILES IDX 15 35 16 36 17 37 52 38 18 39 57 40 51 41 53 42 19 43 56 44
REMARK SMILES IDX 50 45 49 46 20 48 42 49 27 50 41 51 28 52 31 53 40 54 54 55
REMARK SMILES IDX 29 56 30 57 39 59 55 60 32 61 21 62 22 63 26 64 23 65 25 66
REMARK SMILES IDX 24 67 43 68 44 69 48 70 45 71 47 72 46 73 33 74 34 75 38 76
REMARK SMILES IDX 35 77 37 78 36 79
REMARK H PARENT 5 5 9 28 53 47 31 58
REMARK Flexibility Score: inf
ROOT
ATOM      1  C   UNL A   1      35.747  21.463  25.466  1.00  0.00     0.117 C 
ENDROOT
BRANCH   1   2
ATOM      2  N   UNL A   1      34.558  21.340  24.642  1.00  0.00    -0.356 N 
ATOM      3  C   UNL A   1      33.377  22.027  24.667  1.00  0.00     0.227 C 
ATOM      4  O   UNL A   1      32.484  21.605  23.930  1.00  0.00    -0.274 OA
ATOM      5  H   UNL A   1      34.610  20.643  23.948  1.00  0.00     0.163 HD
BRANCH   3   6
ATOM      6  C   UNL A   1      33.218  23.274  25.560  1.00  0.00     0.105 C 
ATOM      7  C   UNL A   1      32.712  22.850  26.945  1.00  0.00     0.023 C 
BRANCH   6   8
ATOM      8  C   UNL A   1      32.352  24.363  24.909  1.00  0.00    -0.036 A 
ATOM      9  C   UNL A   1      31.058  24.622  25.400  1.00  0.00     0.005 A 
ATOM     10  C   UNL A   1      32.794  25.120  23.812  1.00  0.00     0.005 A 
ATOM     11  C   UNL A   1      30.259  25.634  24.847  1.00  0.00     0.009 A 
ATOM     12  C   UNL A   1      31.995  26.117  23.253  1.00  0.00     0.009 A 
ATOM     13  C   UNL A   1      30.729  26.393  23.773  1.00  0.00    -0.018 A 
BRANCH  13  14
ATOM     14  C   UNL A   1      29.960  27.504  23.185  1.00  0.00    -0.011 A 
ATOM     15  C   UNL A   1      30.592  28.595  22.469  1.00  0.00     0.027 A 
ATOM     16  C   UNL A   1      28.642  27.564  23.439  1.00  0.00     0.080 A 
ATOM     17  C   UNL A   1      29.887  29.677  22.119  1.00  0.00     0.095 A 
ATOM     18  C   UNL A   1      27.838  28.750  23.030  1.00  0.00     0.255 A 
ATOM     19  N   UNL A   1      28.538  29.769  22.405  1.00  0.00    -0.258 N 
ATOM     20  O   UNL A   1      26.638  28.764  23.290  1.00  0.00    -0.269 OA
BRANCH  19  21
ATOM     21  C   UNL A   1      27.803  30.965  22.084  1.00  0.00     0.451 C 
ATOM     22  F   UNL A   1      27.476  31.660  23.199  1.00  0.00    -0.185 F 
ATOM     23  F   UNL A   1      28.533  31.778  21.279  1.00  0.00    -0.185 F 
ENDBRANCH  19  21
ENDBRANCH  13  14
ENDBRANCH   6   8
ENDBRANCH   3   6
ENDBRANCH   1   2
BRANCH   1  24
ATOM     24  C   UNL A   1      36.859  20.524  24.991  1.00  0.00     0.042 C 
BRANCH  24  25
ATOM     25  C   UNL A   1      38.270  20.976  25.364  1.00  0.00     0.118 C 
BRANCH  25  26
ATOM     26  N   UNL A   1      39.204  19.866  25.468  1.00  0.00    -0.352 N 
ATOM     27  C   UNL A   1      40.508  19.842  25.895  1.00  0.00     0.251 C 
ATOM     28  H   UNL A   1      38.845  18.994  25.187  1.00  0.00     0.163 HD
ATOM     29  O   UNL A   1      41.183  18.827  25.724  1.00  0.00    -0.269 OA
BRANCH  27  30
ATOM     30  C   UNL A   1      41.122  21.029  26.529  1.00  0.00     0.039 A 
ATOM     31  C   UNL A   1      41.785  21.954  25.718  1.00  0.00     0.014 A 
ATOM     32  C   UNL A   1      41.068  21.228  27.911  1.00  0.00     0.014 A 
ATOM     33  C   UNL A   1      42.309  23.122  26.277  1.00  0.00     0.010 A 
ATOM     34  C   UNL A   1      41.536  22.424  28.460  1.00  0.00     0.010 A 
ATOM     35  C   UNL A   1      42.142  23.391  27.645  1.00  0.00    -0.014 A 
BRANCH  35  36
ATOM     36  C   UNL A   1      42.519  24.708  28.221  1.00  0.00     0.031 A 
ATOM     37  C   UNL A   1      41.491  25.784  28.433  1.00  0.00     0.074 A 
ATOM     38  C   UNL A   1      43.820  24.961  28.477  1.00  0.00     0.049 A 
ATOM     39  N   UNL A   1      41.662  27.016  28.846  1.00  0.00    -0.248 NA
ATOM     40  C   UNL A   1      40.092  25.443  28.127  1.00  0.00     0.031 C 
ATOM     41  C   UNL A   1      44.922  24.015  28.281  1.00  0.00     0.029 A 
ATOM     42  N   UNL A   1      44.439  26.096  28.941  1.00  0.00    -0.354 N 
ATOM     43  C   UNL A   1      40.402  27.599  28.834  1.00  0.00     0.074 A 
ATOM     44  C   UNL A   1      39.477  26.598  28.346  1.00  0.00     0.031 C 
ATOM     45  C   UNL A   1      46.076  24.602  28.631  1.00  0.00     0.029 A 
ATOM     46  C   UNL A   1      45.806  25.979  29.031  1.00  0.00     0.049 A 
ATOM     47  H   UNL A   1      43.951  26.913  29.187  1.00  0.00     0.167 HD
ATOM     48  C   UNL A   1      40.048  28.853  29.204  1.00  0.00     0.031 A 
ATOM     49  C   UNL A   1      46.744  26.885  29.370  1.00  0.00     0.031 A 
ATOM     50  C   UNL A   1      40.965  29.844  29.702  1.00  0.00     0.049 A 
ATOM     51  C   UNL A   1      46.320  28.279  29.738  1.00  0.00     0.074 A 
ATOM     52  C   UNL A   1      40.681  31.113  30.178  1.00  0.00     0.029 A 
ATOM     53  N   UNL A   1      42.338  29.688  29.773  1.00  0.00    -0.354 N 
ATOM     54  N   UNL A   1      45.112  28.782  29.814  1.00  0.00    -0.248 NA
ATOM     55  C   UNL A   1      47.390  29.232  30.069  1.00  0.00     0.031 C 
ATOM     56  C   UNL A   1      41.890  31.749  30.476  1.00  0.00     0.029 A 
ATOM     57  C   UNL A   1      42.921  30.855  30.241  1.00  0.00     0.049 A 
ATOM     58  H   UNL A   1      42.828  28.870  29.528  1.00  0.00     0.167 HD
ATOM     59  C   UNL A   1      45.277  30.100  30.217  1.00  0.00     0.074 A 
ATOM     60  C   UNL A   1      46.696  30.313  30.397  1.00  0.00     0.031 C 
ATOM     61  C   UNL A   1      44.335  31.054  30.412  1.00  0.00     0.031 A 
BRANCH  48  62
ATOM     62  C   UNL A   1      38.602  29.246  29.081  1.00  0.00    -0.014 A 
ATOM     63  C   UNL A   1      37.725  29.148  30.172  1.00  0.00     0.009 A 
ATOM     64  C   UNL A   1      38.138  29.816  27.885  1.00  0.00     0.009 A 
ATOM     65  C   UNL A   1      36.408  29.600  30.062  1.00  0.00     0.001 A 
ATOM     66  C   UNL A   1      36.828  30.289  27.785  1.00  0.00     0.001 A 
ATOM     67  C   UNL A   1      35.964  30.177  28.873  1.00  0.00     0.000 A 
ENDBRANCH  48  62
BRANCH  49  68
ATOM     68  C   UNL A   1      48.186  26.522  29.347  1.00  0.00    -0.014 A 
ATOM     69  C   UNL A   1      48.934  26.632  28.165  1.00  0.00     0.009 A 
ATOM     70  C   UNL A   1      48.811  26.021  30.501  1.00  0.00     0.009 A 
ATOM     71  C   UNL A   1      50.265  26.210  28.127  1.00  0.00     0.001 A 
ATOM     72  C   UNL A   1      50.152  25.632  30.468  1.00  0.00     0.001 A 
ATOM     73  C   UNL A   1      50.873  25.714  29.279  1.00  0.00     0.000 A 
ENDBRANCH  49  68
BRANCH  61  74
ATOM     74  C   UNL A   1      44.809  32.408  30.857  1.00  0.00    -0.014 A 
ATOM     75  C   UNL A   1      45.163  33.394  29.923  1.00  0.00     0.009 A 
ATOM     76  C   UNL A   1      44.862  32.716  32.226  1.00  0.00     0.009 A 
ATOM     77  C   UNL A   1      45.589  34.652  30.353  1.00  0.00     0.001 A 
ATOM     78  C   UNL A   1      45.260  33.984  32.651  1.00  0.00     0.001 A 
ATOM     79  C   UNL A   1      45.631  34.948  31.715  1.00  0.00     0.000 A 
ENDBRANCH  61  74
ENDBRANCH  35  36
ENDBRANCH  27  30
ENDBRANCH  25  26
ENDBRANCH  24  25
ENDBRANCH   1  24
TORSDOF 13
ENDMDL
MODEL 3
REMARK VINA RESULT:     -11.7      2.198      3.335
REMARK SMILES C[C@@H](C(=O)NCCCNC(=O)c1ccc(-c2c3nc(c(-c4ccccc4)c4ccc([nH]4)c(-c4ccccc4)c4nc(c(-c5ccccc5)c5ccc2[nH]5)C=C4)C=C3)cc1)c1ccc(-c2ccn(C(F)F)c(=O)c2)cc1
REMARK SMILES IDX 6 1 5 2 3 3 4 4 2 6 1 7 60 8 61 9 75 10 62 11 74 12 63 13
REMARK SMILES IDX 64 14 65 15 73 16 66 17 71 18 67 19 72 20 68 21 69 22 70 23
REMARK SMILES IDX 7 24 8 25 9 26 10 27 11 29 12 30 13 31 59 32 14 33 58 34
REMARK SMILES IDX 15 35 16 36 17 37 52 38 18 39 57 40 51 41 53 42 19 43 56 44
REMARK SMILES IDX 50 45 49 46 20 48 42 49 27 50 41 51 28 52 31 53 40 54 54 55
REMARK SMILES IDX 29 56 30 57 39 59 55 60 32 61 21 62 22 63 26 64 23 65 25 66
REMARK SMILES IDX 24 67 43 68 44 69 48 70 45 71 47 72 46 73 33 74 34 75 38 76
REMARK SMILES IDX 35 77 37 78 36 79
REMARK H PARENT 5 5 9 28 53 47 31 58
REMARK Flexibility Score: inf
ROOT
ATOM      1  C   UNL A   1      32.026  29.399  26.459  1.00  0.00     0.117 C 
ENDROOT
BRANCH   1   2
ATOM      2  N   UNL A   1      31.400  28.947  25.229  1.00  0.00    -0.356 N 
ATOM      3  C   UNL A   1      31.942  28.419  24.091  1.00  0.00     0.227 C 
ATOM      4  O   UNL A   1      31.171  28.256  23.144  1.00  0.00    -0.274 OA
ATOM      5  H   UNL A   1      30.420  29.036  25.212  1.00  0.00     0.163 HD
BRANCH   3   6
ATOM      6  C   UNL A   1      33.434  28.034  24.043  1.00  0.00     0.105 C 
ATOM      7  C   UNL A   1      34.063  28.587  22.757  1.00  0.00     0.023 C 
BRANCH   6   8
ATOM      8  C   UNL A   1      33.664  26.527  24.227  1.00  0.00    -0.036 A 
ATOM      9  C   UNL A   1      33.845  25.993  25.517  1.00  0.00     0.005 A 
ATOM     10  C   UNL A   1      33.718  25.637  23.142  1.00  0.00     0.005 A 
ATOM     11  C   UNL A   1      34.022  24.616  25.717  1.00  0.00     0.009 A 
ATOM     12  C   UNL A   1      33.908  24.269  23.338  1.00  0.00     0.009 A 
ATOM     13  C   UNL A   1      34.047  23.744  24.625  1.00  0.00    -0.018 A 
BRANCH  13  14
ATOM     14  C   UNL A   1      34.174  22.284  24.774  1.00  0.00    -0.011 A 
ATOM     15  C   UNL A   1      35.460  21.621  24.866  1.00  0.00     0.027 A 
ATOM     16  C   UNL A   1      33.058  21.540  24.691  1.00  0.00     0.080 A 
ATOM     17  C   UNL A   1      35.543  20.287  24.805  1.00  0.00     0.095 A 
ATOM     18  C   UNL A   1      33.132  20.053  24.653  1.00  0.00     0.255 A 
ATOM     19  N   UNL A   1      34.406  19.509  24.685  1.00  0.00    -0.258 N 
ATOM     20  O   UNL A   1      32.086  19.415  24.570  1.00  0.00    -0.269 OA
BRANCH  19  21
ATOM     21  C   UNL A   1      34.510  18.079  24.555  1.00  0.00     0.451 C 
ATOM     22  F   UNL A   1      34.151  17.667  23.316  1.00  0.00    -0.185 F 
ATOM     23  F   UNL A   1      35.781  17.665  24.785  1.00  0.00    -0.185 F 
ENDBRANCH  19  21
ENDBRANCH  13  14
ENDBRANCH   6   8
ENDBRANCH   3   6
ENDBRANCH   1   2
BRANCH   1  24
ATOM     24  C   UNL A   1      31.674  30.857  26.765  1.00  0.00     0.042 C 
BRANCH  24  25
ATOM     25  C   UNL A   1      32.879  31.791  26.861  1.00  0.00     0.118 C 
BRANCH  25  26
ATOM     26  N   UNL A   1      32.529  33.107  27.372  1.00  0.00    -0.352 N 
ATOM     27  C   UNL A   1      33.145  33.883  28.321  1.00  0.00     0.251 C 
ATOM     28  H   UNL A   1      31.722  33.505  26.973  1.00  0.00     0.163 HD
ATOM     29  O   UNL A   1      32.576  34.888  28.745  1.00  0.00    -0.269 OA
BRANCH  27  30
ATOM     30  C   UNL A   1      34.469  33.510  28.865  1.00  0.00     0.039 A 
ATOM     31  C   UNL A   1      34.525  32.823  30.081  1.00  0.00     0.014 A 
ATOM     32  C   UNL A   1      35.653  33.845  28.201  1.00  0.00     0.014 A 
ATOM     33  C   UNL A   1      35.755  32.390  30.582  1.00  0.00     0.010 A 
ATOM     34  C   UNL A   1      36.875  33.358  28.669  1.00  0.00     0.010 A 
ATOM     35  C   UNL A   1      36.935  32.608  29.852  1.00  0.00    -0.014 A 
BRANCH  35  36
ATOM     36  C   UNL A   1      38.222  31.992  30.270  1.00  0.00     0.031 A 
ATOM     37  C   UNL A   1      39.183  32.734  31.157  1.00  0.00     0.074 A 
ATOM     38  C   UNL A   1      38.559  30.784  29.774  1.00  0.00     0.049 A 
ATOM     39  N   UNL A   1      40.382  32.379  31.548  1.00  0.00    -0.248 NA
ATOM     40  C   UNL A   1      38.754  34.050  31.657  1.00  0.00     0.031 C 
ATOM     41  C   UNL A   1      37.731  29.976  28.874  1.00  0.00     0.029 A 
ATOM     42  N   UNL A   1      39.695  30.030  29.942  1.00  0.00    -0.354 N 
ATOM     43  C   UNL A   1      40.856  33.430  32.323  1.00  0.00     0.074 A 
ATOM     44  C   UNL A   1      39.828  34.449  32.325  1.00  0.00     0.031 C 
ATOM     45  C   UNL A   1      38.380  28.839  28.579  1.00  0.00     0.029 A 
ATOM     46  C   UNL A   1      39.687  28.856  29.227  1.00  0.00     0.049 A 
ATOM     47  H   UNL A   1      40.443  30.305  30.519  1.00  0.00     0.167 HD
ATOM     48  C   UNL A   1      42.036  33.531  32.979  1.00  0.00     0.031 A 
ATOM     49  C   UNL A   1      40.634  27.909  29.084  1.00  0.00     0.031 A 
ATOM     50  C   UNL A   1      43.052  32.511  32.988  1.00  0.00     0.049 A 
ATOM     51  C   UNL A   1      41.948  28.070  29.796  1.00  0.00     0.074 A 
ATOM     52  C   UNL A   1      44.244  32.494  33.693  1.00  0.00     0.029 A 
ATOM     53  N   UNL A   1      43.007  31.341  32.250  1.00  0.00    -0.354 N 
ATOM     54  N   UNL A   1      42.338  29.027  30.602  1.00  0.00    -0.248 NA
ATOM     55  C   UNL A   1      42.954  27.020  29.577  1.00  0.00     0.031 C 
ATOM     56  C   UNL A   1      44.950  31.343  33.330  1.00  0.00     0.029 A 
ATOM     57  C   UNL A   1      44.171  30.616  32.445  1.00  0.00     0.049 A 
ATOM     58  H   UNL A   1      42.258  31.065  31.672  1.00  0.00     0.167 HD
ATOM     59  C   UNL A   1      43.623  28.684  31.000  1.00  0.00     0.074 A 
ATOM     60  C   UNL A   1      43.938  27.420  30.370  1.00  0.00     0.031 C 
ATOM     61  C   UNL A   1      44.472  29.362  31.809  1.00  0.00     0.031 A 
BRANCH  48  62
ATOM     62  C   UNL A   1      42.315  34.793  33.745  1.00  0.00    -0.014 A 
ATOM     63  C   UNL A   1      42.923  35.898  33.130  1.00  0.00     0.009 A 
ATOM     64  C   UNL A   1      41.871  34.912  35.072  1.00  0.00     0.009 A 
ATOM     65  C   UNL A   1      43.094  37.093  33.834  1.00  0.00     0.001 A 
ATOM     66  C   UNL A   1      42.023  36.114  35.766  1.00  0.00     0.001 A 
ATOM     67  C   UNL A   1      42.637  37.202  35.147  1.00  0.00     0.000 A 
ENDBRANCH  48  62
BRANCH  49  68
ATOM     68  C   UNL A   1      40.398  26.732  28.205  1.00  0.00    -0.014 A 
ATOM     69  C   UNL A   1      40.918  26.696  26.903  1.00  0.00     0.009 A 
ATOM     70  C   UNL A   1      39.612  25.658  28.651  1.00  0.00     0.009 A 
ATOM     71  C   UNL A   1      40.624  25.627  26.052  1.00  0.00     0.001 A 
ATOM     72  C   UNL A   1      39.347  24.575  27.810  1.00  0.00     0.001 A 
ATOM     73  C   UNL A   1      39.841  24.567  26.507  1.00  0.00     0.000 A 
ENDBRANCH  49  68
BRANCH  61  74
ATOM     74  C   UNL A   1      45.816  28.742  32.070  1.00  0.00    -0.014 A 
ATOM     75  C   UNL A   1      46.923  29.049  31.264  1.00  0.00     0.009 A 
ATOM     76  C   UNL A   1      45.986  27.874  33.160  1.00  0.00     0.009 A 
ATOM     77  C   UNL A   1      48.168  28.475  31.528  1.00  0.00     0.001 A 
ATOM     78  C   UNL A   1      47.238  27.326  33.439  1.00  0.00     0.001 A 
ATOM     79  C   UNL A   1      48.326  27.620  32.618  1.00  0.00     0.000 A 
ENDBRANCH  61  74
ENDBRANCH  35  36
ENDBRANCH  27  30
ENDBRANCH  25  26
ENDBRANCH  24  25
ENDBRANCH   1  24
TORSDOF 13
ENDMDL
