MODEL 1
REMARK VINA RESULT:     -10.7      0.000      0.000
REMARK SMILES CC(C)n1ccc(C#CC(=O)NCCCNC(=O)c2ccc(-c3c4nc(c(-c5ccccc5)c5ccc([nH]5)c(-c5ccccc5)c5nc(c(-c6ccccc6)c6ccc3[nH]6)C=C5)C=C4)cc2)n1
REMARK SMILES IDX 14 1 13 2 12 3 10 4 11 5 9 7 8 8 7 9 4 10 5 11 67 12 6 13
REMARK SMILES IDX 2 14 1 15 3 16 15 17 16 18 17 19 18 21 19 22 20 23 66 24
REMARK SMILES IDX 21 25 65 26 22 27 23 28 24 29 59 30 25 31 64 32 58 33 60 34
REMARK SMILES IDX 26 35 63 36 57 37 56 38 27 40 49 41 34 42 48 43 35 44 38 45
REMARK SMILES IDX 47 46 61 47 36 48 37 49 46 51 62 52 39 53 28 54 29 55 33 56
REMARK SMILES IDX 30 57 32 58 31 59 50 60 51 61 55 62 52 63 54 64 53 65 40 66
REMARK SMILES IDX 41 67 45 68 42 69 44 70 43 71
REMARK H PARENT 12 6 16 20 60 39 38 50
REMARK Flexibility Score: inf
ROOT
ATOM      1  C   UNL A   1      31.468  31.783  26.518  1.00  0.00     0.042 C 
ENDROOT
BRANCH   1   2
ATOM      2  C   UNL A   1      31.771  30.405  25.925  1.00  0.00     0.118 C 
BRANCH   2   3
ATOM      3  N   UNL A   1      31.031  30.141  24.697  1.00  0.00    -0.345 N 
ATOM      4  C   UNL A   1      30.892  28.944  24.046  1.00  0.00     0.296 C 
ATOM      5  O   UNL A   1      30.225  28.861  23.020  1.00  0.00    -0.260 OA
ATOM      6  H   UNL A   1      30.578  30.913  24.288  1.00  0.00     0.164 HD
BRANCH   4   7
ATOM      7  C   UNL A   1      31.543  27.780  24.569  1.00  0.00     0.002 C 
ATOM      8  C   UNL A   1      32.100  26.783  24.969  1.00  0.00    -0.034 C 
BRANCH   8   9
ATOM      9  C   UNL A   1      32.738  25.587  25.376  1.00  0.00     0.135 A 
ATOM     10  N   UNL A   1      34.161  24.031  25.356  1.00  0.00    -0.269 N 
ATOM     11  C   UNL A   1      33.270  23.684  26.337  1.00  0.00     0.110 A 
ATOM     12  N   UNL A   1      33.852  25.197  24.751  1.00  0.00    -0.164 NA
ATOM     13  C   UNL A   1      32.330  24.687  26.373  1.00  0.00     0.059 A 
BRANCH  10  14
ATOM     14  C   UNL A   1      35.360  23.282  24.990  1.00  0.00     0.101 C 
ATOM     15  C   UNL A   1      35.614  23.242  23.482  1.00  0.00     0.033 C 
ATOM     16  C   UNL A   1      36.578  23.824  25.737  1.00  0.00     0.033 C 
ENDBRANCH  10  14
ENDBRANCH   8   9
ENDBRANCH   4   7
ENDBRANCH   2   3
ENDBRANCH   1   2
BRANCH   1  17
ATOM     17  C   UNL A   1      32.646  32.375  27.276  1.00  0.00     0.118 C 
BRANCH  17  18
ATOM     18  N   UNL A   1      32.489  33.793  27.625  1.00  0.00    -0.352 N 
ATOM     19  C   UNL A   1      33.145  34.504  28.622  1.00  0.00     0.251 C 
ATOM     20  H   UNL A   1      31.840  34.302  27.086  1.00  0.00     0.163 HD
ATOM     21  O   UNL A   1      32.698  35.563  29.044  1.00  0.00    -0.269 OA
BRANCH  19  22
ATOM     22  C   UNL A   1      34.421  33.971  29.139  1.00  0.00     0.039 A 
ATOM     23  C   UNL A   1      34.517  33.139  30.259  1.00  0.00     0.014 A 
ATOM     24  C   UNL A   1      35.556  34.295  28.409  1.00  0.00     0.014 A 
ATOM     25  C   UNL A   1      35.773  32.629  30.602  1.00  0.00     0.010 A 
ATOM     26  C   UNL A   1      36.690  33.558  28.564  1.00  0.00     0.010 A 
ATOM     27  C   UNL A   1      36.860  32.849  29.736  1.00  0.00    -0.014 A 
BRANCH  27  28
ATOM     28  C   UNL A   1      38.156  32.197  29.885  1.00  0.00     0.031 A 
ATOM     29  C   UNL A   1      38.088  30.784  29.441  1.00  0.00     0.074 A 
ATOM     30  C   UNL A   1      39.307  32.877  30.129  1.00  0.00     0.049 A 
ATOM     31  N   UNL A   1      38.042  29.743  30.202  1.00  0.00    -0.248 NA
ATOM     32  C   UNL A   1      37.779  30.494  28.026  1.00  0.00     0.031 C 
ATOM     33  C   UNL A   1      39.484  34.331  30.281  1.00  0.00     0.029 A 
ATOM     34  N   UNL A   1      40.595  32.433  30.207  1.00  0.00    -0.354 N 
ATOM     35  C   UNL A   1      38.023  28.657  29.333  1.00  0.00     0.074 A 
ATOM     36  C   UNL A   1      37.588  29.172  28.064  1.00  0.00     0.031 C 
ATOM     37  C   UNL A   1      40.798  34.655  30.192  1.00  0.00     0.029 A 
ATOM     38  C   UNL A   1      41.575  33.431  30.143  1.00  0.00     0.049 A 
ATOM     39  H   UNL A   1      40.821  31.478  30.300  1.00  0.00     0.167 HD
ATOM     40  C   UNL A   1      38.767  27.554  29.628  1.00  0.00     0.031 A 
ATOM     41  C   UNL A   1      42.924  33.264  30.074  1.00  0.00     0.031 A 
ATOM     42  C   UNL A   1      39.212  27.608  31.002  1.00  0.00     0.049 A 
ATOM     43  C   UNL A   1      43.205  31.906  30.579  1.00  0.00     0.074 A 
ATOM     44  C   UNL A   1      38.632  27.546  32.250  1.00  0.00     0.029 A 
ATOM     45  N   UNL A   1      40.411  28.261  31.139  1.00  0.00    -0.354 N 
ATOM     46  N   UNL A   1      43.001  31.560  31.818  1.00  0.00    -0.248 NA
ATOM     47  C   UNL A   1      43.290  30.813  29.625  1.00  0.00     0.031 C 
ATOM     48  C   UNL A   1      39.430  28.382  33.091  1.00  0.00     0.029 A 
ATOM     49  C   UNL A   1      40.526  28.849  32.365  1.00  0.00     0.049 A 
ATOM     50  H   UNL A   1      41.103  28.299  30.441  1.00  0.00     0.167 HD
ATOM     51  C   UNL A   1      42.461  30.291  31.727  1.00  0.00     0.074 A 
ATOM     52  C   UNL A   1      42.818  29.821  30.388  1.00  0.00     0.031 C 
ATOM     53  C   UNL A   1      41.504  29.886  32.616  1.00  0.00     0.031 A 
BRANCH  40  54
ATOM     54  C   UNL A   1      39.599  26.813  28.591  1.00  0.00    -0.014 A 
ATOM     55  C   UNL A   1      40.473  27.566  27.784  1.00  0.00     0.009 A 
ATOM     56  C   UNL A   1      39.336  25.497  28.160  1.00  0.00     0.009 A 
ATOM     57  C   UNL A   1      40.989  27.058  26.585  1.00  0.00     0.001 A 
ATOM     58  C   UNL A   1      39.872  24.976  26.979  1.00  0.00     0.001 A 
ATOM     59  C   UNL A   1      40.680  25.765  26.178  1.00  0.00     0.000 A 
ENDBRANCH  40  54
BRANCH  41  60
ATOM     60  C   UNL A   1      43.976  34.052  29.378  1.00  0.00    -0.014 A 
ATOM     61  C   UNL A   1      44.486  33.667  28.122  1.00  0.00     0.009 A 
ATOM     62  C   UNL A   1      44.247  35.364  29.804  1.00  0.00     0.009 A 
ATOM     63  C   UNL A   1      45.204  34.569  27.316  1.00  0.00     0.001 A 
ATOM     64  C   UNL A   1      44.957  36.266  28.998  1.00  0.00     0.001 A 
ATOM     65  C   UNL A   1      45.426  35.874  27.748  1.00  0.00     0.000 A 
ENDBRANCH  41  60
BRANCH  53  66
ATOM     66  C   UNL A   1      41.369  30.663  33.898  1.00  0.00    -0.014 A 
ATOM     67  C   UNL A   1      40.517  31.768  34.076  1.00  0.00     0.009 A 
ATOM     68  C   UNL A   1      42.078  30.182  35.008  1.00  0.00     0.009 A 
ATOM     69  C   UNL A   1      40.403  32.383  35.330  1.00  0.00     0.001 A 
ATOM     70  C   UNL A   1      41.948  30.781  36.261  1.00  0.00     0.001 A 
ATOM     71  C   UNL A   1      41.116  31.886  36.420  1.00  0.00     0.000 A 
ENDBRANCH  53  66
ENDBRANCH  27  28
ENDBRANCH  19  22
ENDBRANCH  17  18
ENDBRANCH   1  17
TORSDOF 12
ENDMDL
MODEL 2
REMARK VINA RESULT:     -10.5      3.414      7.262
REMARK SMILES CC(C)n1ccc(C#CC(=O)NCCCNC(=O)c2ccc(-c3c4nc(c(-c5ccccc5)c5ccc([nH]5)c(-c5ccccc5)c5nc(c(-c6ccccc6)c6ccc3[nH]6)C=C5)C=C4)cc2)n1
REMARK SMILES IDX 14 1 13 2 12 3 10 4 11 5 9 7 8 8 7 9 4 10 5 11 67 12 6 13
REMARK SMILES IDX 2 14 1 15 3 16 15 17 16 18 17 19 18 21 19 22 20 23 66 24
REMARK SMILES IDX 21 25 65 26 22 27 23 28 24 29 59 30 25 31 64 32 58 33 60 34
REMARK SMILES IDX 26 35 63 36 57 37 56 38 27 40 49 41 34 42 48 43 35 44 38 45
REMARK SMILES IDX 47 46 61 47 36 48 37 49 46 51 62 52 39 53 28 54 29 55 33 56
REMARK SMILES IDX 30 57 32 58 31 59 50 60 51 61 55 62 52 63 54 64 53 65 40 66
REMARK SMILES IDX 41 67 45 68 42 69 44 70 43 71
REMARK H PARENT 12 6 16 20 60 39 38 50
REMARK Flexibility Score: inf
ROOT
ATOM      1  C   UNL A   1      34.107  35.800  33.669  1.00  0.00     0.042 C 
ENDROOT
BRANCH   1   2
ATOM      2  C   UNL A   1      35.067  34.752  34.240  1.00  0.00     0.118 C 
BRANCH   2   3
ATOM      3  N   UNL A   1      36.326  34.677  33.509  1.00  0.00    -0.345 N 
ATOM      4  C   UNL A   1      37.544  34.270  33.983  1.00  0.00     0.296 C 
ATOM      5  O   UNL A   1      38.527  34.244  33.250  1.00  0.00    -0.260 OA
ATOM      6  H   UNL A   1      36.296  34.951  32.564  1.00  0.00     0.164 HD
BRANCH   4   7
ATOM      7  C   UNL A   1      37.670  33.880  35.356  1.00  0.00     0.002 C 
ATOM      8  C   UNL A   1      37.735  33.568  36.523  1.00  0.00    -0.034 C 
BRANCH   8   9
ATOM      9  C   UNL A   1      37.765  33.253  37.902  1.00  0.00     0.135 A 
ATOM     10  N   UNL A   1      37.282  32.224  39.679  1.00  0.00    -0.269 N 
ATOM     11  C   UNL A   1      38.111  33.242  40.072  1.00  0.00     0.110 A 
ATOM     12  N   UNL A   1      37.055  32.213  38.349  1.00  0.00    -0.164 NA
ATOM     13  C   UNL A   1      38.444  33.929  38.929  1.00  0.00     0.059 A 
BRANCH  10  14
ATOM     14  C   UNL A   1      36.712  31.203  40.554  1.00  0.00     0.101 C 
ATOM     15  C   UNL A   1      37.722  30.619  41.544  1.00  0.00     0.033 C 
ATOM     16  C   UNL A   1      35.483  31.746  41.280  1.00  0.00     0.033 C 
ENDBRANCH  10  14
ENDBRANCH   8   9
ENDBRANCH   4   7
ENDBRANCH   2   3
ENDBRANCH   1   2
BRANCH   1  17
ATOM     17  C   UNL A   1      34.334  36.069  32.189  1.00  0.00     0.118 C 
BRANCH  17  18
ATOM     18  N   UNL A   1      33.253  35.591  31.317  1.00  0.00    -0.352 N 
ATOM     19  C   UNL A   1      33.367  34.890  30.123  1.00  0.00     0.251 C 
ATOM     20  H   UNL A   1      32.336  35.792  31.615  1.00  0.00     0.163 HD
ATOM     21  O   UNL A   1      32.442  34.848  29.322  1.00  0.00    -0.269 OA
BRANCH  19  22
ATOM     22  C   UNL A   1      34.624  34.162  29.856  1.00  0.00     0.039 A 
ATOM     23  C   UNL A   1      35.563  34.561  28.900  1.00  0.00     0.014 A 
ATOM     24  C   UNL A   1      34.869  33.057  30.659  1.00  0.00     0.014 A 
ATOM     25  C   UNL A   1      36.755  33.837  28.797  1.00  0.00     0.010 A 
ATOM     26  C   UNL A   1      36.134  32.565  30.761  1.00  0.00     0.010 A 
ATOM     27  C   UNL A   1      37.028  32.832  29.744  1.00  0.00    -0.014 A 
BRANCH  27  28
ATOM     28  C   UNL A   1      38.318  32.160  29.859  1.00  0.00     0.031 A 
ATOM     29  C   UNL A   1      38.213  30.743  29.434  1.00  0.00     0.074 A 
ATOM     30  C   UNL A   1      39.486  32.823  30.060  1.00  0.00     0.049 A 
ATOM     31  N   UNL A   1      38.174  29.712  30.207  1.00  0.00    -0.248 NA
ATOM     32  C   UNL A   1      37.855  30.444  28.032  1.00  0.00     0.031 C 
ATOM     33  C   UNL A   1      39.691  34.277  30.190  1.00  0.00     0.029 A 
ATOM     34  N   UNL A   1      40.769  32.360  30.103  1.00  0.00    -0.354 N 
ATOM     35  C   UNL A   1      38.111  28.617  29.352  1.00  0.00     0.074 A 
ATOM     36  C   UNL A   1      37.645  29.125  28.091  1.00  0.00     0.031 C 
ATOM     37  C   UNL A   1      41.006  34.578  30.057  1.00  0.00     0.029 A 
ATOM     38  C   UNL A   1      41.762  33.341  29.997  1.00  0.00     0.049 A 
ATOM     39  H   UNL A   1      40.982  31.403  30.200  1.00  0.00     0.167 HD
ATOM     40  C   UNL A   1      38.847  27.505  29.636  1.00  0.00     0.031 A 
ATOM     41  C   UNL A   1      43.106  33.152  29.889  1.00  0.00     0.031 A 
ATOM     42  C   UNL A   1      39.335  27.567  30.994  1.00  0.00     0.049 A 
ATOM     43  C   UNL A   1      43.380  31.795  30.400  1.00  0.00     0.074 A 
ATOM     44  C   UNL A   1      38.793  27.527  32.260  1.00  0.00     0.029 A 
ATOM     45  N   UNL A   1      40.548  28.201  31.087  1.00  0.00    -0.354 N 
ATOM     46  N   UNL A   1      43.210  31.465  31.648  1.00  0.00    -0.248 NA
ATOM     47  C   UNL A   1      43.418  30.690  29.456  1.00  0.00     0.031 C 
ATOM     48  C   UNL A   1      39.630  28.360  33.066  1.00  0.00     0.029 A 
ATOM     49  C   UNL A   1      40.711  28.801  32.302  1.00  0.00     0.049 A 
ATOM     50  H   UNL A   1      41.218  28.221  30.367  1.00  0.00     0.167 HD
ATOM     51  C   UNL A   1      42.647  30.204  31.588  1.00  0.00     0.074 A 
ATOM     52  C   UNL A   1      42.955  29.714  30.244  1.00  0.00     0.031 C 
ATOM     53  C   UNL A   1      41.712  29.824  32.511  1.00  0.00     0.031 A 
BRANCH  40  54
ATOM     54  C   UNL A   1      39.634  26.740  28.581  1.00  0.00    -0.014 A 
ATOM     55  C   UNL A   1      40.566  27.454  27.805  1.00  0.00     0.009 A 
ATOM     56  C   UNL A   1      39.283  25.460  28.108  1.00  0.00     0.009 A 
ATOM     57  C   UNL A   1      41.056  26.948  26.594  1.00  0.00     0.001 A 
ATOM     58  C   UNL A   1      39.792  24.939  26.914  1.00  0.00     0.001 A 
ATOM     59  C   UNL A   1      40.661  25.694  26.144  1.00  0.00     0.000 A 
ENDBRANCH  40  54
BRANCH  41  60
ATOM     60  C   UNL A   1      44.147  33.915  29.151  1.00  0.00    -0.014 A 
ATOM     61  C   UNL A   1      45.478  33.993  29.609  1.00  0.00     0.009 A 
ATOM     62  C   UNL A   1      43.904  34.301  27.822  1.00  0.00     0.009 A 
ATOM     63  C   UNL A   1      46.521  34.405  28.760  1.00  0.00     0.001 A 
ATOM     64  C   UNL A   1      44.945  34.705  26.972  1.00  0.00     0.001 A 
ATOM     65  C   UNL A   1      46.256  34.745  27.436  1.00  0.00     0.000 A 
ENDBRANCH  41  60
BRANCH  53  66
ATOM     66  C   UNL A   1      41.630  30.617  33.788  1.00  0.00    -0.014 A 
ATOM     67  C   UNL A   1      40.963  31.848  33.922  1.00  0.00     0.009 A 
ATOM     68  C   UNL A   1      42.180  30.029  34.935  1.00  0.00     0.009 A 
ATOM     69  C   UNL A   1      40.875  32.477  35.170  1.00  0.00     0.001 A 
ATOM     70  C   UNL A   1      42.076  30.645  36.182  1.00  0.00     0.001 A 
ATOM     71  C   UNL A   1      41.429  31.873  36.299  1.00  0.00     0.000 A 
ENDBRANCH  53  66
ENDBRANCH  27  28
ENDBRANCH  19  22
ENDBRANCH  17  18
ENDBRANCH   1  17
TORSDOF 12
ENDMDL
MODEL 3
REMARK VINA RESULT:     -10.5      4.635      9.657
REMARK SMILES CC(C)n1ccc(C#CC(=O)NCCCNC(=O)c2ccc(-c3c4nc(c(-c5ccccc5)c5ccc([nH]5)c(-c5ccccc5)c5nc(c(-c6ccccc6)c6ccc3[nH]6)C=C5)C=C4)cc2)n1
REMARK SMILES IDX 14 1 13 2 12 3 10 4 11 5 9 7 8 8 7 9 4 10 5 11 67 12 6 13
REMARK SMILES IDX 2 14 1 15 3 16 15 17 16 18 17 19 18 21 19 22 20 23 66 24
REMARK SMILES IDX 21 25 65 26 22 27 23 28 24 29 59 30 25 31 64 32 58 33 60 34
REMARK SMILES IDX 26 35 63 36 57 37 56 38 27 40 49 41 34 42 48 43 35 44 38 45
REMARK SMILES IDX 47 46 61 47 36 48 37 49 46 51 62 52 39 53 28 54 29 55 33 56
REMARK SMILES IDX 30 57 32 58 31 59 50 60 51 61 55 62 52 63 54 64 53 65 40 66
REMARK SMILES IDX 41 67 45 68 42 69 44 70 43 71
REMARK H PARENT 12 6 16 20 60 39 38 50
REMARK Flexibility Score: inf
ROOT
ATOM      1  C   UNL A   1      44.260  22.272  25.747  1.00  0.00     0.042 C 
ENDROOT
BRANCH   1   2
ATOM      2  C   UNL A   1      45.358  23.333  25.858  1.00  0.00     0.118 C 
BRANCH   2   3
ATOM      3  N   UNL A   1      44.964  24.619  25.296  1.00  0.00    -0.345 N 
ATOM      4  C   UNL A   1      44.821  25.810  25.957  1.00  0.00     0.296 C 
ATOM      5  O   UNL A   1      44.492  26.827  25.354  1.00  0.00    -0.260 OA
ATOM      6  H   UNL A   1      44.778  24.632  24.330  1.00  0.00     0.164 HD
BRANCH   4   7
ATOM      7  C   UNL A   1      45.050  25.863  27.370  1.00  0.00     0.002 C 
ATOM      8  C   UNL A   1      45.285  25.889  28.556  1.00  0.00    -0.034 C 
BRANCH   8   9
ATOM      9  C   UNL A   1      45.604  25.869  29.935  1.00  0.00     0.135 A 
ATOM     10  N   UNL A   1      45.264  25.796  32.015  1.00  0.00    -0.269 N 
ATOM     11  C   UNL A   1      46.619  25.954  31.882  1.00  0.00     0.110 A 
ATOM     12  N   UNL A   1      44.621  25.744  30.830  1.00  0.00    -0.164 NA
ATOM     13  C   UNL A   1      46.868  26.001  30.531  1.00  0.00     0.059 A 
BRANCH  10  14
ATOM     14  C   UNL A   1      44.542  25.650  33.276  1.00  0.00     0.101 C 
ATOM     15  C   UNL A   1      44.210  24.197  33.620  1.00  0.00     0.033 C 
ATOM     16  C   UNL A   1      45.310  26.321  34.413  1.00  0.00     0.033 C 
ENDBRANCH  10  14
ENDBRANCH   8   9
ENDBRANCH   4   7
ENDBRANCH   2   3
ENDBRANCH   1   2
BRANCH   1  17
ATOM     17  C   UNL A   1      43.028  22.767  25.006  1.00  0.00     0.118 C 
BRANCH  17  18
ATOM     18  N   UNL A   1      41.767  22.169  25.464  1.00  0.00    -0.352 N 
ATOM     19  C   UNL A   1      40.943  22.603  26.494  1.00  0.00     0.251 C 
ATOM     20  H   UNL A   1      41.470  21.364  24.980  1.00  0.00     0.163 HD
ATOM     21  O   UNL A   1      40.120  21.853  27.005  1.00  0.00    -0.269 OA
BRANCH  19  22
ATOM     22  C   UNL A   1      41.054  24.007  26.937  1.00  0.00     0.039 A 
ATOM     23  C   UNL A   1      40.364  25.066  26.339  1.00  0.00     0.014 A 
ATOM     24  C   UNL A   1      41.856  24.233  28.046  1.00  0.00     0.014 A 
ATOM     25  C   UNL A   1      40.486  26.340  26.901  1.00  0.00     0.010 A 
ATOM     26  C   UNL A   1      41.720  25.388  28.753  1.00  0.00     0.010 A 
ATOM     27  C   UNL A   1      41.173  26.487  28.120  1.00  0.00    -0.014 A 
BRANCH  27  28
ATOM     28  C   UNL A   1      41.186  27.721  28.898  1.00  0.00     0.031 A 
ATOM     29  C   UNL A   1      42.279  28.615  28.448  1.00  0.00     0.074 A 
ATOM     30  C   UNL A   1      40.166  28.094  29.715  1.00  0.00     0.049 A 
ATOM     31  N   UNL A   1      43.401  28.818  29.052  1.00  0.00    -0.248 NA
ATOM     32  C   UNL A   1      42.248  29.143  27.069  1.00  0.00     0.031 C 
ATOM     33  C   UNL A   1      38.903  27.380  29.971  1.00  0.00     0.029 A 
ATOM     34  N   UNL A   1      39.985  29.240  30.433  1.00  0.00    -0.354 N 
ATOM     35  C   UNL A   1      44.072  29.753  28.272  1.00  0.00     0.074 A 
ATOM     36  C   UNL A   1      43.461  29.697  26.972  1.00  0.00     0.031 C 
ATOM     37  C   UNL A   1      38.014  28.204  30.578  1.00  0.00     0.029 A 
ATOM     38  C   UNL A   1      38.683  29.449  30.905  1.00  0.00     0.049 A 
ATOM     39  H   UNL A   1      40.716  29.877  30.606  1.00  0.00     0.167 HD
ATOM     40  C   UNL A   1      44.754  30.763  28.881  1.00  0.00     0.031 A 
ATOM     41  C   UNL A   1      38.197  30.553  31.536  1.00  0.00     0.031 A 
ATOM     42  C   UNL A   1      44.911  30.478  30.288  1.00  0.00     0.049 A 
ATOM     43  C   UNL A   1      39.366  31.272  32.081  1.00  0.00     0.074 A 
ATOM     44  C   UNL A   1      45.590  29.560  31.059  1.00  0.00     0.029 A 
ATOM     45  N   UNL A   1      43.862  30.947  31.038  1.00  0.00    -0.354 N 
ATOM     46  N   UNL A   1      40.112  30.785  33.030  1.00  0.00    -0.248 NA
ATOM     47  C   UNL A   1      39.971  32.324  31.280  1.00  0.00     0.031 C 
ATOM     48  C   UNL A   1      44.772  29.339  32.210  1.00  0.00     0.029 A 
ATOM     49  C   UNL A   1      43.672  30.197  32.163  1.00  0.00     0.049 A 
ATOM     50  H   UNL A   1      43.314  31.727  30.796  1.00  0.00     0.167 HD
ATOM     51  C   UNL A   1      41.400  31.108  32.644  1.00  0.00     0.074 A 
ATOM     52  C   UNL A   1      41.243  32.188  31.668  1.00  0.00     0.031 C 
ATOM     53  C   UNL A   1      42.431  30.250  32.905  1.00  0.00     0.031 A 
BRANCH  40  54
ATOM     54  C   UNL A   1      44.702  32.207  28.401  1.00  0.00    -0.014 A 
ATOM     55  C   UNL A   1      43.629  33.008  28.833  1.00  0.00     0.009 A 
ATOM     56  C   UNL A   1      45.455  32.708  27.320  1.00  0.00     0.009 A 
ATOM     57  C   UNL A   1      43.287  34.198  28.175  1.00  0.00     0.001 A 
ATOM     58  C   UNL A   1      45.136  33.909  26.679  1.00  0.00     0.001 A 
ATOM     59  C   UNL A   1      44.036  34.643  27.092  1.00  0.00     0.000 A 
ENDBRANCH  40  54
BRANCH  41  60
ATOM     60  C   UNL A   1      36.857  31.194  31.498  1.00  0.00    -0.014 A 
ATOM     61  C   UNL A   1      36.287  31.798  32.637  1.00  0.00     0.009 A 
ATOM     62  C   UNL A   1      36.274  31.495  30.255  1.00  0.00     0.009 A 
ATOM     63  C   UNL A   1      35.205  32.691  32.528  1.00  0.00     0.001 A 
ATOM     64  C   UNL A   1      35.200  32.390  30.145  1.00  0.00     0.001 A 
ATOM     65  C   UNL A   1      34.672  32.999  31.279  1.00  0.00     0.000 A 
ENDBRANCH  41  60
BRANCH  53  66
ATOM     66  C   UNL A   1      42.212  29.193  33.954  1.00  0.00    -0.014 A 
ATOM     67  C   UNL A   1      41.631  27.936  33.710  1.00  0.00     0.009 A 
ATOM     68  C   UNL A   1      42.712  29.459  35.236  1.00  0.00     0.009 A 
ATOM     69  C   UNL A   1      41.535  26.986  34.736  1.00  0.00     0.001 A 
ATOM     70  C   UNL A   1      42.635  28.506  36.251  1.00  0.00     0.001 A 
ATOM     71  C   UNL A   1      42.040  27.272  36.003  1.00  0.00     0.000 A 
ENDBRANCH  53  66
ENDBRANCH  27  28
ENDBRANCH  19  22
ENDBRANCH  17  18
ENDBRANCH   1  17
TORSDOF 12
ENDMDL
