MODEL 1
REMARK VINA RESULT:     -11.9      0.000      0.000
REMARK SMILES O=C(CC1CCN(S(=O)(=O)c2cc[nH]c2)CC1)NCCCNC(=O)c1ccc(-c2c3nc(c(-c4ccccc4)c4ccc([nH]4)c(-c4ccccc4)c4nc(c(-c5ccccc5)c5ccc2[nH]5)C=C4)C=C3)cc1
REMARK SMILES IDX 19 1 18 2 1 3 2 4 3 6 4 7 5 8 17 9 6 10 16 11 7 12 8 13 9 14
REMARK SMILES IDX 10 15 11 16 12 17 15 18 13 19 14 20 20 22 21 23 22 24 23 25
REMARK SMILES IDX 24 27 25 28 26 29 72 30 27 31 71 32 28 33 29 34 30 35 65 36
REMARK SMILES IDX 31 37 70 38 64 39 66 40 32 41 69 42 63 43 62 44 33 46 55 47
REMARK SMILES IDX 40 48 54 49 41 50 44 51 53 52 67 53 42 54 43 55 52 57 68 58
REMARK SMILES IDX 45 59 34 60 35 61 39 62 36 63 38 64 37 65 56 66 57 67 61 68
REMARK SMILES IDX 58 69 60 70 59 71 46 72 47 73 51 74 48 75 50 76 49 77
REMARK H PARENT 18 5 14 21 22 26 66 45 44 56
REMARK Flexibility Score: inf
ROOT
ATOM      1  C   UNL A   1      33.468  31.132  27.595  1.00  0.00     0.117 C 
ENDROOT
BRANCH   1   2
ATOM      2  N   UNL A   1      32.934  29.781  27.618  1.00  0.00    -0.356 N 
ATOM      3  O   UNL A   1      31.739  29.985  25.673  1.00  0.00    -0.275 OA
ATOM      4  C   UNL A   1      32.117  29.303  26.621  1.00  0.00     0.220 C 
ATOM      5  H   UNL A   1      33.164  29.190  28.371  1.00  0.00     0.163 HD
BRANCH   4   6
ATOM      6  C   UNL A   1      31.634  27.875  26.799  1.00  0.00     0.103 C 
BRANCH   6   7
ATOM      7  C   UNL A   1      31.371  27.073  25.510  1.00  0.00     0.001 C 
ATOM      8  C   UNL A   1      30.603  25.759  25.722  1.00  0.00     0.021 C 
ATOM      9  C   UNL A   1      32.694  26.758  24.791  1.00  0.00     0.021 C 
ATOM     10  C   UNL A   1      31.440  24.681  26.405  1.00  0.00     0.103 C 
ATOM     11  C   UNL A   1      33.508  25.671  25.493  1.00  0.00     0.103 C 
ATOM     12  N   UNL A   1      32.698  24.433  25.634  1.00  0.00    -0.198 NA
BRANCH  12  13
ATOM     13  S   UNL A   1      33.561  23.094  26.291  1.00  0.00     0.244 S 
ATOM     14  O   UNL A   1      34.960  23.284  25.999  1.00  0.00    -0.207 OA
ATOM     15  O   UNL A   1      33.086  22.885  27.649  1.00  0.00    -0.207 OA
BRANCH  13  16
ATOM     16  C   UNL A   1      33.142  21.639  25.451  1.00  0.00     0.100 A 
ATOM     17  C   UNL A   1      32.669  21.568  24.112  1.00  0.00     0.041 A 
ATOM     18  C   UNL A   1      33.245  20.341  25.913  1.00  0.00     0.104 A 
ATOM     19  C   UNL A   1      32.466  20.238  23.817  1.00  0.00     0.083 A 
ATOM     20  N   UNL A   1      32.838  19.499  24.911  1.00  0.00    -0.366 N 
ATOM     21  H   UNL A   1      32.815  18.517  24.968  1.00  0.00     0.165 HD
ENDBRANCH  13  16
ENDBRANCH  12  13
ENDBRANCH   6   7
ENDBRANCH   4   6
ENDBRANCH   1   2
BRANCH   1  22
ATOM     22  C   UNL A   1      34.999  31.153  27.590  1.00  0.00     0.042 C 
BRANCH  22  23
ATOM     23  C   UNL A   1      35.626  29.824  28.014  1.00  0.00     0.118 C 
BRANCH  23  24
ATOM     24  N   UNL A   1      35.884  29.781  29.445  1.00  0.00    -0.352 N 
ATOM     25  C   UNL A   1      36.947  29.285  30.152  1.00  0.00     0.251 C 
ATOM     26  H   UNL A   1      35.172  30.175  29.999  1.00  0.00     0.163 HD
ATOM     27  O   UNL A   1      36.802  29.079  31.355  1.00  0.00    -0.269 OA
BRANCH  25  28
ATOM     28  C   UNL A   1      38.254  28.976  29.525  1.00  0.00     0.039 A 
ATOM     29  C   UNL A   1      39.324  28.666  30.379  1.00  0.00     0.014 A 
ATOM     30  C   UNL A   1      38.477  29.077  28.148  1.00  0.00     0.014 A 
ATOM     31  C   UNL A   1      40.587  28.397  29.858  1.00  0.00     0.010 A 
ATOM     32  C   UNL A   1      39.737  28.792  27.618  1.00  0.00     0.010 A 
ATOM     33  C   UNL A   1      40.785  28.425  28.471  1.00  0.00    -0.014 A 
BRANCH  33  34
ATOM     34  C   UNL A   1      42.012  27.804  27.913  1.00  0.00     0.031 A 
ATOM     35  C   UNL A   1      43.088  28.870  27.605  1.00  0.00     0.074 A 
ATOM     36  C   UNL A   1      42.029  26.445  27.753  1.00  0.00     0.049 A 
ATOM     37  N   UNL A   1      44.173  28.775  26.899  1.00  0.00    -0.248 NA
ATOM     38  C   UNL A   1      42.936  30.252  28.150  1.00  0.00     0.031 C 
ATOM     39  C   UNL A   1      40.927  25.537  28.146  1.00  0.00     0.029 A 
ATOM     40  N   UNL A   1      42.948  25.546  27.240  1.00  0.00    -0.354 N 
ATOM     41  C   UNL A   1      44.897  29.981  27.050  1.00  0.00     0.074 A 
ATOM     42  C   UNL A   1      44.052  30.879  27.773  1.00  0.00     0.031 C 
ATOM     43  C   UNL A   1      41.199  24.259  27.791  1.00  0.00     0.029 A 
ATOM     44  C   UNL A   1      42.503  24.197  27.159  1.00  0.00     0.049 A 
ATOM     45  H   UNL A   1      43.848  25.821  26.950  1.00  0.00     0.167 HD
ATOM     46  C   UNL A   1      46.200  30.123  26.671  1.00  0.00     0.031 A 
ATOM     47  C   UNL A   1      43.122  23.109  26.602  1.00  0.00     0.031 A 
ATOM     48  C   UNL A   1      46.628  28.976  25.951  1.00  0.00     0.049 A 
ATOM     49  C   UNL A   1      44.491  23.535  26.294  1.00  0.00     0.074 A 
ATOM     50  C   UNL A   1      46.303  28.496  24.710  1.00  0.00     0.029 A 
ATOM     51  N   UNL A   1      47.217  27.980  26.686  1.00  0.00    -0.354 N 
ATOM     52  N   UNL A   1      45.426  23.684  27.180  1.00  0.00    -0.248 NA
ATOM     53  C   UNL A   1      44.860  23.828  24.904  1.00  0.00     0.031 C 
ATOM     54  C   UNL A   1      46.230  27.106  24.921  1.00  0.00     0.029 A 
ATOM     55  C   UNL A   1      46.739  26.797  26.188  1.00  0.00     0.049 A 
ATOM     56  H   UNL A   1      47.858  28.092  27.426  1.00  0.00     0.167 HD
ATOM     57  C   UNL A   1      46.317  24.483  26.513  1.00  0.00     0.074 A 
ATOM     58  C   UNL A   1      46.114  24.232  25.101  1.00  0.00     0.031 C 
ATOM     59  C   UNL A   1      46.684  25.663  27.076  1.00  0.00     0.031 A 
BRANCH  46  60
ATOM     60  C   UNL A   1      47.257  31.110  27.082  1.00  0.00    -0.014 A 
ATOM     61  C   UNL A   1      47.138  32.433  26.586  1.00  0.00     0.009 A 
ATOM     62  C   UNL A   1      48.497  30.731  27.603  1.00  0.00     0.009 A 
ATOM     63  C   UNL A   1      48.238  33.287  26.488  1.00  0.00     0.001 A 
ATOM     64  C   UNL A   1      49.594  31.605  27.543  1.00  0.00     0.001 A 
ATOM     65  C   UNL A   1      49.474  32.862  26.950  1.00  0.00     0.000 A 
ENDBRANCH  46  60
BRANCH  47  66
ATOM     66  C   UNL A   1      42.820  21.676  26.219  1.00  0.00    -0.014 A 
ATOM     67  C   UNL A   1      43.713  20.757  25.671  1.00  0.00     0.009 A 
ATOM     68  C   UNL A   1      41.520  21.161  26.506  1.00  0.00     0.009 A 
ATOM     69  C   UNL A   1      43.353  19.397  25.514  1.00  0.00     0.001 A 
ATOM     70  C   UNL A   1      41.172  19.812  26.401  1.00  0.00     0.001 A 
ATOM     71  C   UNL A   1      42.103  18.920  25.912  1.00  0.00     0.000 A 
ENDBRANCH  47  66
BRANCH  59  72
ATOM     72  C   UNL A   1      46.537  25.729  28.592  1.00  0.00    -0.014 A 
ATOM     73  C   UNL A   1      45.304  26.091  29.161  1.00  0.00     0.009 A 
ATOM     74  C   UNL A   1      47.621  25.572  29.474  1.00  0.00     0.009 A 
ATOM     75  C   UNL A   1      45.169  26.319  30.538  1.00  0.00     0.001 A 
ATOM     76  C   UNL A   1      47.490  25.794  30.855  1.00  0.00     0.001 A 
ATOM     77  C   UNL A   1      46.262  26.175  31.386  1.00  0.00     0.000 A 
ENDBRANCH  59  72
ENDBRANCH  33  34
ENDBRANCH  25  28
ENDBRANCH  23  24
ENDBRANCH  22  23
ENDBRANCH   1  22
TORSDOF 13
ENDMDL
MODEL 2
REMARK VINA RESULT:     -11.8      4.205      9.749
REMARK SMILES O=C(CC1CCN(S(=O)(=O)c2cc[nH]c2)CC1)NCCCNC(=O)c1ccc(-c2c3nc(c(-c4ccccc4)c4ccc([nH]4)c(-c4ccccc4)c4nc(c(-c5ccccc5)c5ccc2[nH]5)C=C4)C=C3)cc1
REMARK SMILES IDX 19 1 18 2 1 3 2 4 3 6 4 7 5 8 17 9 6 10 16 11 7 12 8 13 9 14
REMARK SMILES IDX 10 15 11 16 12 17 15 18 13 19 14 20 20 22 21 23 22 24 23 25
REMARK SMILES IDX 24 27 25 28 26 29 72 30 27 31 71 32 28 33 29 34 30 35 65 36
REMARK SMILES IDX 31 37 70 38 64 39 66 40 32 41 69 42 63 43 62 44 33 46 55 47
REMARK SMILES IDX 40 48 54 49 41 50 44 51 53 52 67 53 42 54 43 55 52 57 68 58
REMARK SMILES IDX 45 59 34 60 35 61 39 62 36 63 38 64 37 65 56 66 57 67 61 68
REMARK SMILES IDX 58 69 60 70 59 71 46 72 47 73 51 74 48 75 50 76 49 77
REMARK H PARENT 18 5 14 21 22 26 66 45 44 56
REMARK Flexibility Score: inf
ROOT
ATOM      1  C   UNL A   1      39.209  21.336  26.013  1.00  0.00     0.117 C 
ENDROOT
BRANCH   1   2
ATOM      2  N   UNL A   1      38.308  22.395  25.593  1.00  0.00    -0.356 N 
ATOM      3  O   UNL A   1      36.455  21.057  25.435  1.00  0.00    -0.275 OA
ATOM      4  C   UNL A   1      36.973  22.167  25.359  1.00  0.00     0.220 C 
ATOM      5  H   UNL A   1      38.665  23.305  25.474  1.00  0.00     0.163 HD
BRANCH   4   6
ATOM      6  C   UNL A   1      36.170  23.377  24.918  1.00  0.00     0.103 C 
BRANCH   6   7
ATOM      7  C   UNL A   1      34.678  23.390  25.303  1.00  0.00     0.001 C 
ATOM      8  C   UNL A   1      33.735  22.847  24.219  1.00  0.00     0.021 C 
ATOM      9  C   UNL A   1      34.230  24.812  25.677  1.00  0.00     0.021 C 
ATOM     10  C   UNL A   1      33.592  23.788  23.026  1.00  0.00     0.103 C 
ATOM     11  C   UNL A   1      34.090  25.730  24.462  1.00  0.00     0.103 C 
ATOM     12  N   UNL A   1      33.144  25.141  23.480  1.00  0.00    -0.198 NA
BRANCH  12  13
ATOM     13  S   UNL A   1      32.803  26.155  22.129  1.00  0.00     0.244 S 
ATOM     14  O   UNL A   1      34.055  26.680  21.644  1.00  0.00    -0.207 OA
ATOM     15  O   UNL A   1      31.888  25.437  21.257  1.00  0.00    -0.207 OA
BRANCH  13  16
ATOM     16  C   UNL A   1      31.918  27.554  22.636  1.00  0.00     0.100 A 
ATOM     17  C   UNL A   1      30.502  27.646  22.724  1.00  0.00     0.041 A 
ATOM     18  C   UNL A   1      32.430  28.759  23.079  1.00  0.00     0.104 A 
ATOM     19  C   UNL A   1      30.199  28.910  23.179  1.00  0.00     0.083 A 
ATOM     20  N   UNL A   1      31.378  29.572  23.410  1.00  0.00    -0.366 N 
ATOM     21  H   UNL A   1      31.457  30.489  23.759  1.00  0.00     0.165 HD
ENDBRANCH  13  16
ENDBRANCH  12  13
ENDBRANCH   6   7
ENDBRANCH   4   6
ENDBRANCH   1   2
BRANCH   1  22
ATOM     22  C   UNL A   1      40.668  21.796  26.064  1.00  0.00     0.042 C 
BRANCH  22  23
ATOM     23  C   UNL A   1      40.849  23.164  26.724  1.00  0.00     0.118 C 
BRANCH  23  24
ATOM     24  N   UNL A   1      41.700  24.037  25.930  1.00  0.00    -0.352 N 
ATOM     25  C   UNL A   1      41.788  25.404  25.878  1.00  0.00     0.251 C 
ATOM     26  H   UNL A   1      42.318  23.565  25.326  1.00  0.00     0.163 HD
ATOM     27  O   UNL A   1      42.352  25.915  24.914  1.00  0.00    -0.269 OA
BRANCH  25  28
ATOM     28  C   UNL A   1      41.220  26.284  26.927  1.00  0.00     0.039 A 
ATOM     29  C   UNL A   1      41.821  27.539  27.112  1.00  0.00     0.014 A 
ATOM     30  C   UNL A   1      40.194  25.877  27.786  1.00  0.00     0.014 A 
ATOM     31  C   UNL A   1      41.358  28.403  28.101  1.00  0.00     0.010 A 
ATOM     32  C   UNL A   1      39.715  26.744  28.768  1.00  0.00     0.010 A 
ATOM     33  C   UNL A   1      40.279  28.018  28.908  1.00  0.00    -0.014 A 
BRANCH  33  34
ATOM     34  C   UNL A   1      39.577  29.057  29.701  1.00  0.00     0.031 A 
ATOM     35  C   UNL A   1      40.249  29.260  31.079  1.00  0.00     0.074 A 
ATOM     36  C   UNL A   1      38.485  29.665  29.142  1.00  0.00     0.049 A 
ATOM     37  N   UNL A   1      39.812  29.874  32.134  1.00  0.00    -0.248 NA
ATOM     38  C   UNL A   1      41.605  28.688  31.329  1.00  0.00     0.031 C 
ATOM     39  C   UNL A   1      37.981  29.399  27.775  1.00  0.00     0.029 A 
ATOM     40  N   UNL A   1      37.580  30.615  29.582  1.00  0.00    -0.354 N 
ATOM     41  C   UNL A   1      40.863  29.916  33.081  1.00  0.00     0.074 A 
ATOM     42  C   UNL A   1      41.918  29.107  32.557  1.00  0.00     0.031 C 
ATOM     43  C   UNL A   1      36.843  30.090  27.533  1.00  0.00     0.029 A 
ATOM     44  C   UNL A   1      36.502  30.889  28.694  1.00  0.00     0.049 A 
ATOM     45  H   UNL A   1      37.675  31.071  30.450  1.00  0.00     0.167 HD
ATOM     46  C   UNL A   1      40.842  30.716  34.186  1.00  0.00     0.031 A 
ATOM     47  C   UNL A   1      35.399  31.679  28.884  1.00  0.00     0.031 A 
ATOM     48  C   UNL A   1      39.566  31.321  34.329  1.00  0.00     0.049 A 
ATOM     49  C   UNL A   1      35.640  32.421  30.125  1.00  0.00     0.074 A 
ATOM     50  C   UNL A   1      38.338  30.809  34.656  1.00  0.00     0.029 A 
ATOM     51  N   UNL A   1      39.407  32.554  33.749  1.00  0.00    -0.354 N 
ATOM     52  N   UNL A   1      36.449  33.429  30.229  1.00  0.00    -0.248 NA
ATOM     53  C   UNL A   1      34.942  32.019  31.352  1.00  0.00     0.031 C 
ATOM     54  C   UNL A   1      37.468  31.508  33.797  1.00  0.00     0.029 A 
ATOM     55  C   UNL A   1      38.162  32.556  33.179  1.00  0.00     0.049 A 
ATOM     56  H   UNL A   1      40.060  33.291  33.743  1.00  0.00     0.167 HD
ATOM     57  C   UNL A   1      36.664  33.474  31.581  1.00  0.00     0.074 A 
ATOM     58  C   UNL A   1      35.498  32.881  32.202  1.00  0.00     0.031 C 
ATOM     59  C   UNL A   1      37.940  33.412  32.041  1.00  0.00     0.031 A 
BRANCH  46  60
ATOM     60  C   UNL A   1      41.946  31.225  35.069  1.00  0.00    -0.014 A 
ATOM     61  C   UNL A   1      41.761  31.114  36.471  1.00  0.00     0.009 A 
ATOM     62  C   UNL A   1      42.943  32.098  34.623  1.00  0.00     0.009 A 
ATOM     63  C   UNL A   1      42.440  31.934  37.373  1.00  0.00     0.001 A 
ATOM     64  C   UNL A   1      43.655  32.894  35.534  1.00  0.00     0.001 A 
ATOM     65  C   UNL A   1      43.375  32.841  36.900  1.00  0.00     0.000 A 
ENDBRANCH  46  60
BRANCH  47  66
ATOM     66  C   UNL A   1      34.069  31.985  28.228  1.00  0.00    -0.014 A 
ATOM     67  C   UNL A   1      33.488  33.243  28.076  1.00  0.00     0.009 A 
ATOM     68  C   UNL A   1      33.349  30.909  27.627  1.00  0.00     0.009 A 
ATOM     69  C   UNL A   1      32.321  33.416  27.295  1.00  0.00     0.001 A 
ATOM     70  C   UNL A   1      32.226  31.077  26.815  1.00  0.00     0.001 A 
ATOM     71  C   UNL A   1      31.715  32.345  26.637  1.00  0.00     0.000 A 
ENDBRANCH  47  66
BRANCH  59  72
ATOM     72  C   UNL A   1      39.007  33.864  31.049  1.00  0.00    -0.014 A 
ATOM     73  C   UNL A   1      40.146  33.069  30.835  1.00  0.00     0.009 A 
ATOM     74  C   UNL A   1      38.983  35.121  30.418  1.00  0.00     0.009 A 
ATOM     75  C   UNL A   1      41.222  33.520  30.058  1.00  0.00     0.001 A 
ATOM     76  C   UNL A   1      40.056  35.575  29.634  1.00  0.00     0.001 A 
ATOM     77  C   UNL A   1      41.180  34.775  29.459  1.00  0.00     0.000 A 
ENDBRANCH  59  72
ENDBRANCH  33  34
ENDBRANCH  25  28
ENDBRANCH  23  24
ENDBRANCH  22  23
ENDBRANCH   1  22
TORSDOF 13
ENDMDL
MODEL 3
REMARK VINA RESULT:     -11.8      2.515      6.923
REMARK SMILES O=C(CC1CCN(S(=O)(=O)c2cc[nH]c2)CC1)NCCCNC(=O)c1ccc(-c2c3nc(c(-c4ccccc4)c4ccc([nH]4)c(-c4ccccc4)c4nc(c(-c5ccccc5)c5ccc2[nH]5)C=C4)C=C3)cc1
REMARK SMILES IDX 19 1 18 2 1 3 2 4 3 6 4 7 5 8 17 9 6 10 16 11 7 12 8 13 9 14
REMARK SMILES IDX 10 15 11 16 12 17 15 18 13 19 14 20 20 22 21 23 22 24 23 25
REMARK SMILES IDX 24 27 25 28 26 29 72 30 27 31 71 32 28 33 29 34 30 35 65 36
REMARK SMILES IDX 31 37 70 38 64 39 66 40 32 41 69 42 63 43 62 44 33 46 55 47
REMARK SMILES IDX 40 48 54 49 41 50 44 51 53 52 67 53 42 54 43 55 52 57 68 58
REMARK SMILES IDX 45 59 34 60 35 61 39 62 36 63 38 64 37 65 56 66 57 67 61 68
REMARK SMILES IDX 58 69 60 70 59 71 46 72 47 73 51 74 48 75 50 76 49 77
REMARK H PARENT 18 5 14 21 22 26 66 45 44 56
REMARK Flexibility Score: inf
ROOT
ATOM      1  C   UNL A   1      32.752  29.006  25.517  1.00  0.00     0.117 C 
ENDROOT
BRANCH   1   2
ATOM      2  N   UNL A   1      32.649  27.581  25.254  1.00  0.00    -0.356 N 
ATOM      3  O   UNL A   1      33.863  27.630  23.311  1.00  0.00    -0.275 OA
ATOM      4  C   UNL A   1      33.247  26.996  24.163  1.00  0.00     0.220 C 
ATOM      5  H   UNL A   1      32.137  27.017  25.876  1.00  0.00     0.163 HD
BRANCH   4   6
ATOM      6  C   UNL A   1      33.037  25.499  24.025  1.00  0.00     0.103 C 
BRANCH   6   7
ATOM      7  C   UNL A   1      34.304  24.622  24.049  1.00  0.00     0.001 C 
ATOM      8  C   UNL A   1      34.452  23.685  22.841  1.00  0.00     0.021 C 
ATOM      9  C   UNL A   1      34.352  23.779  25.334  1.00  0.00     0.021 C 
ATOM     10  C   UNL A   1      33.462  22.523  22.861  1.00  0.00     0.103 C 
ATOM     11  C   UNL A   1      33.354  22.620  25.323  1.00  0.00     0.103 C 
ATOM     12  N   UNL A   1      33.586  21.755  24.138  1.00  0.00    -0.198 NA
BRANCH  12  13
ATOM     13  S   UNL A   1      32.606  20.338  24.094  1.00  0.00     0.244 S 
ATOM     14  O   UNL A   1      31.748  20.359  25.252  1.00  0.00    -0.207 OA
ATOM     15  O   UNL A   1      32.070  20.213  22.749  1.00  0.00    -0.207 OA
BRANCH  13  16
ATOM     16  C   UNL A   1      33.583  18.925  24.309  1.00  0.00     0.100 A 
ATOM     17  C   UNL A   1      33.196  17.598  23.975  1.00  0.00     0.041 A 
ATOM     18  C   UNL A   1      34.882  18.863  24.775  1.00  0.00     0.104 A 
ATOM     19  C   UNL A   1      34.254  16.771  24.283  1.00  0.00     0.083 A 
ATOM     20  N   UNL A   1      35.280  17.552  24.751  1.00  0.00    -0.366 N 
ATOM     21  H   UNL A   1      36.166  17.221  25.027  1.00  0.00     0.165 HD
ENDBRANCH  13  16
ENDBRANCH  12  13
ENDBRANCH   6   7
ENDBRANCH   4   6
ENDBRANCH   1   2
BRANCH   1  22
ATOM     22  C   UNL A   1      33.197  29.304  26.951  1.00  0.00     0.042 C 
BRANCH  22  23
ATOM     23  C   UNL A   1      34.715  29.253  27.138  1.00  0.00     0.118 C 
BRANCH  23  24
ATOM     24  N   UNL A   1      35.271  30.572  27.397  1.00  0.00    -0.352 N 
ATOM     25  C   UNL A   1      36.425  30.953  28.030  1.00  0.00     0.251 C 
ATOM     26  H   UNL A   1      34.724  31.318  27.061  1.00  0.00     0.163 HD
ATOM     27  O   UNL A   1      36.528  32.120  28.401  1.00  0.00    -0.269 OA
BRANCH  25  28
ATOM     28  C   UNL A   1      37.542  30.016  28.293  1.00  0.00     0.039 A 
ATOM     29  C   UNL A   1      38.497  29.845  27.278  1.00  0.00     0.014 A 
ATOM     30  C   UNL A   1      37.622  29.237  29.453  1.00  0.00     0.014 A 
ATOM     31  C   UNL A   1      39.555  28.956  27.447  1.00  0.00     0.010 A 
ATOM     32  C   UNL A   1      38.688  28.356  29.635  1.00  0.00     0.010 A 
ATOM     33  C   UNL A   1      39.670  28.235  28.643  1.00  0.00    -0.014 A 
BRANCH  33  34
ATOM     34  C   UNL A   1      40.961  27.573  28.955  1.00  0.00     0.031 A 
ATOM     35  C   UNL A   1      40.945  26.087  28.527  1.00  0.00     0.074 A 
ATOM     36  C   UNL A   1      41.941  28.322  29.549  1.00  0.00     0.049 A 
ATOM     37  N   UNL A   1      41.758  25.125  28.838  1.00  0.00    -0.248 NA
ATOM     38  C   UNL A   1      39.863  25.589  27.628  1.00  0.00     0.031 C 
ATOM     39  C   UNL A   1      41.827  29.766  29.857  1.00  0.00     0.029 A 
ATOM     40  N   UNL A   1      43.216  28.047  30.011  1.00  0.00    -0.354 N 
ATOM     41  C   UNL A   1      41.406  23.991  28.068  1.00  0.00     0.074 A 
ATOM     42  C   UNL A   1      40.187  24.316  27.395  1.00  0.00     0.031 C 
ATOM     43  C   UNL A   1      42.924  30.211  30.513  1.00  0.00     0.029 A 
ATOM     44  C   UNL A   1      43.868  29.122  30.679  1.00  0.00     0.049 A 
ATOM     45  H   UNL A   1      43.644  27.169  29.889  1.00  0.00     0.167 HD
ATOM     46  C   UNL A   1      42.208  22.896  27.940  1.00  0.00     0.031 A 
ATOM     47  C   UNL A   1      45.068  29.135  31.341  1.00  0.00     0.031 A 
ATOM     48  C   UNL A   1      43.314  22.992  28.827  1.00  0.00     0.049 A 
ATOM     49  C   UNL A   1      45.714  27.856  31.033  1.00  0.00     0.074 A 
ATOM     50  C   UNL A   1      43.405  22.920  30.192  1.00  0.00     0.029 A 
ATOM     51  N   UNL A   1      44.452  23.567  28.323  1.00  0.00    -0.354 N 
ATOM     52  N   UNL A   1      46.279  27.577  29.900  1.00  0.00    -0.248 NA
ATOM     53  C   UNL A   1      45.736  26.797  32.049  1.00  0.00     0.031 C 
ATOM     54  C   UNL A   1      44.351  23.917  30.495  1.00  0.00     0.029 A 
ATOM     55  C   UNL A   1      44.953  24.367  29.314  1.00  0.00     0.049 A 
ATOM     56  H   UNL A   1      44.833  23.430  27.425  1.00  0.00     0.167 HD
ATOM     57  C   UNL A   1      46.318  26.208  29.939  1.00  0.00     0.074 A 
ATOM     58  C   UNL A   1      46.328  25.837  31.339  1.00  0.00     0.031 C 
ATOM     59  C   UNL A   1      45.742  25.509  28.926  1.00  0.00     0.031 A 
BRANCH  46  60
ATOM     60  C   UNL A   1      42.250  21.804  26.908  1.00  0.00    -0.014 A 
ATOM     61  C   UNL A   1      41.346  20.723  27.068  1.00  0.00     0.009 A 
ATOM     62  C   UNL A   1      43.327  21.614  26.038  1.00  0.00     0.009 A 
ATOM     63  C   UNL A   1      41.583  19.471  26.498  1.00  0.00     0.001 A 
ATOM     64  C   UNL A   1      43.543  20.367  25.431  1.00  0.00     0.001 A 
ATOM     65  C   UNL A   1      42.697  19.289  25.693  1.00  0.00     0.000 A 
ENDBRANCH  46  60
BRANCH  47  66
ATOM     66  C   UNL A   1      45.873  30.031  32.258  1.00  0.00    -0.014 A 
ATOM     67  C   UNL A   1      45.557  30.370  33.573  1.00  0.00     0.009 A 
ATOM     68  C   UNL A   1      47.124  30.531  31.787  1.00  0.00     0.009 A 
ATOM     69  C   UNL A   1      46.477  31.079  34.382  1.00  0.00     0.001 A 
ATOM     70  C   UNL A   1      48.057  31.187  32.592  1.00  0.00     0.001 A 
ATOM     71  C   UNL A   1      47.735  31.452  33.906  1.00  0.00     0.000 A 
ENDBRANCH  47  66
BRANCH  59  72
ATOM     72  C   UNL A   1      45.621  26.265  27.607  1.00  0.00    -0.014 A 
ATOM     73  C   UNL A   1      44.389  26.828  27.233  1.00  0.00     0.009 A 
ATOM     74  C   UNL A   1      46.659  26.323  26.659  1.00  0.00     0.009 A 
ATOM     75  C   UNL A   1      44.193  27.389  25.962  1.00  0.00     0.001 A 
ATOM     76  C   UNL A   1      46.470  26.889  25.389  1.00  0.00     0.001 A 
ATOM     77  C   UNL A   1      45.232  27.417  25.038  1.00  0.00     0.000 A 
ENDBRANCH  59  72
ENDBRANCH  33  34
ENDBRANCH  25  28
ENDBRANCH  23  24
ENDBRANCH  22  23
ENDBRANCH   1  22
TORSDOF 13
ENDMDL
