MODEL 1
REMARK VINA RESULT:     -12.6      0.000      0.000
REMARK SMILES Cc1cc(C)n(-c2ccccc2NS(=O)(=O)c2cc(C)c(C(=O)NCCCNC(=O)c3ccc(-c4c5nc(c(-c6ccccc6)c6ccc([nH]6)c(-c6ccccc6)c6nc(c(-c7ccccc7)c7ccc4[nH]7)C=C6)C=C5)cc3)s2)n1
REMARK SMILES IDX 25 1 24 2 22 3 23 4 21 6 17 7 18 8 79 9 19 10 20 11 14 12
REMARK SMILES IDX 15 13 16 14 13 15 12 17 7 18 8 19 9 20 11 21 10 22 6 23 1 24
REMARK SMILES IDX 2 25 3 26 80 27 4 28 5 29 26 30 27 31 28 32 29 33 30 35
REMARK SMILES IDX 31 36 32 37 78 38 33 39 77 40 34 41 35 42 36 43 71 44 37 45
REMARK SMILES IDX 76 46 70 47 72 48 38 49 75 50 69 51 68 52 39 54 61 55 46 56
REMARK SMILES IDX 60 57 47 58 50 59 59 60 73 61 48 62 49 63 58 65 74 66 51 67
REMARK SMILES IDX 40 68 41 69 45 70 42 71 44 72 43 73 62 74 63 75 67 76 64 77
REMARK SMILES IDX 66 78 65 79 52 80 53 81 57 82 54 83 56 84 55 85
REMARK H PARENT 24 5 13 16 28 34 72 53 50 64
REMARK Flexibility Score: inf
ROOT
ATOM      1  C   UNL A   1      37.638  20.772  24.647  1.00  0.00     0.118 C 
ENDROOT
BRANCH   1   2
ATOM      2  N   UNL A   1      36.310  20.369  25.103  1.00  0.00    -0.351 N 
ATOM      3  C   UNL A   1      35.083  20.999  25.106  1.00  0.00     0.261 C 
ATOM      4  O   UNL A   1      34.133  20.288  25.445  1.00  0.00    -0.268 OA
ATOM      5  H   UNL A   1      36.287  19.462  25.488  1.00  0.00     0.163 HD
BRANCH   3   6
ATOM      6  C   UNL A   1      34.896  22.379  24.664  1.00  0.00     0.096 A 
ATOM      7  C   UNL A   1      34.165  24.285  23.317  1.00  0.00     0.141 A 
ATOM      8  C   UNL A   1      34.334  24.658  24.636  1.00  0.00     0.038 A 
ATOM      9  S   UNL A   1      35.028  22.854  23.028  1.00  0.00    -0.116 S 
ATOM     10  C   UNL A   1      34.691  23.517  25.451  1.00  0.00    -0.026 A 
ATOM     11  C   UNL A   1      34.690  23.544  26.948  1.00  0.00     0.046 C 
BRANCH   7  12
ATOM     12  S   UNL A   1      33.236  24.902  21.939  1.00  0.00     0.271 S 
ATOM     13  O   UNL A   1      33.376  23.900  20.890  1.00  0.00    -0.200 OA
ATOM     14  O   UNL A   1      33.697  26.251  21.754  1.00  0.00    -0.200 OA
BRANCH  12  15
ATOM     15  N   UNL A   1      31.615  24.976  22.333  1.00  0.00    -0.277 N 
ATOM     16  H   UNL A   1      31.005  25.323  21.642  1.00  0.00     0.180 HD
BRANCH  15  17
ATOM     17  C   UNL A   1      31.019  24.579  23.590  1.00  0.00     0.075 A 
ATOM     18  C   UNL A   1      30.739  25.608  24.511  1.00  0.00     0.089 A 
ATOM     19  C   UNL A   1      30.593  25.336  25.880  1.00  0.00     0.030 A 
ATOM     20  C   UNL A   1      30.704  24.028  26.342  1.00  0.00     0.002 A 
ATOM     21  C   UNL A   1      31.033  23.268  24.070  1.00  0.00     0.029 A 
ATOM     22  C   UNL A   1      30.898  22.993  25.436  1.00  0.00     0.002 A 
BRANCH  18  23
ATOM     23  N   UNL A   1      30.515  26.924  24.034  1.00  0.00    -0.236 N 
ATOM     24  C   UNL A   1      28.104  29.184  22.732  1.00  0.00     0.069 C 
ATOM     25  C   UNL A   1      29.311  28.517  23.280  1.00  0.00     0.060 A 
ATOM     26  C   UNL A   1      30.484  29.112  23.784  1.00  0.00     0.048 A 
ATOM     27  N   UNL A   1      29.392  27.183  23.308  1.00  0.00    -0.173 NA
ATOM     28  C   UNL A   1      31.278  28.064  24.198  1.00  0.00     0.041 A 
ATOM     29  C   UNL A   1      32.698  28.056  24.629  1.00  0.00     0.067 C 
ENDBRANCH  18  23
ENDBRANCH  15  17
ENDBRANCH  12  15
ENDBRANCH   7  12
ENDBRANCH   3   6
ENDBRANCH   1   2
BRANCH   1  30
ATOM     30  C   UNL A   1      38.223  21.944  25.446  1.00  0.00     0.042 C 
BRANCH  30  31
ATOM     31  C   UNL A   1      39.256  21.515  26.475  1.00  0.00     0.118 C 
BRANCH  31  32
ATOM     32  N   UNL A   1      40.617  21.563  25.960  1.00  0.00    -0.352 N 
ATOM     33  C   UNL A   1      41.482  22.636  25.940  1.00  0.00     0.251 C 
ATOM     34  H   UNL A   1      40.963  20.724  25.578  1.00  0.00     0.163 HD
ATOM     35  O   UNL A   1      42.444  22.640  25.180  1.00  0.00    -0.269 OA
BRANCH  33  36
ATOM     36  C   UNL A   1      41.216  23.801  26.805  1.00  0.00     0.039 A 
ATOM     37  C   UNL A   1      42.132  24.138  27.801  1.00  0.00     0.014 A 
ATOM     38  C   UNL A   1      40.075  24.578  26.607  1.00  0.00     0.014 A 
ATOM     39  C   UNL A   1      41.944  25.315  28.520  1.00  0.00     0.010 A 
ATOM     40  C   UNL A   1      39.952  25.804  27.238  1.00  0.00     0.010 A 
ATOM     41  C   UNL A   1      40.877  26.180  28.206  1.00  0.00    -0.014 A 
BRANCH  41  42
ATOM     42  C   UNL A   1      40.847  27.512  28.819  1.00  0.00     0.031 A 
ATOM     43  C   UNL A   1      41.805  28.492  28.235  1.00  0.00     0.074 A 
ATOM     44  C   UNL A   1      39.980  27.963  29.750  1.00  0.00     0.049 A 
ATOM     45  N   UNL A   1      42.886  28.937  28.785  1.00  0.00    -0.248 NA
ATOM     46  C   UNL A   1      41.603  28.947  26.851  1.00  0.00     0.031 C 
ATOM     47  C   UNL A   1      38.779  27.321  30.285  1.00  0.00     0.029 A 
ATOM     48  N   UNL A   1      39.970  29.183  30.368  1.00  0.00    -0.354 N 
ATOM     49  C   UNL A   1      43.415  29.872  27.905  1.00  0.00     0.074 A 
ATOM     50  C   UNL A   1      42.668  29.735  26.677  1.00  0.00     0.031 C 
ATOM     51  C   UNL A   1      38.040  28.233  30.958  1.00  0.00     0.029 A 
ATOM     52  C   UNL A   1      38.798  29.467  31.054  1.00  0.00     0.049 A 
ATOM     53  H   UNL A   1      40.731  29.807  30.329  1.00  0.00     0.167 HD
ATOM     54  C   UNL A   1      44.265  30.844  28.337  1.00  0.00     0.031 A 
ATOM     55  C   UNL A   1      38.465  30.633  31.656  1.00  0.00     0.031 A 
ATOM     56  C   UNL A   1      44.811  30.545  29.639  1.00  0.00     0.049 A 
ATOM     57  C   UNL A   1      39.717  31.368  31.940  1.00  0.00     0.074 A 
ATOM     58  C   UNL A   1      45.487  29.473  30.192  1.00  0.00     0.029 A 
ATOM     59  N   UNL A   1      44.349  31.277  30.707  1.00  0.00    -0.354 N 
ATOM     60  N   UNL A   1      40.576  31.001  32.846  1.00  0.00    -0.248 NA
ATOM     61  C   UNL A   1      40.216  32.311  30.954  1.00  0.00     0.031 C 
ATOM     62  C   UNL A   1      44.951  29.345  31.510  1.00  0.00     0.029 A 
ATOM     63  C   UNL A   1      44.041  30.386  31.700  1.00  0.00     0.049 A 
ATOM     64  H   UNL A   1      44.256  32.256  30.749  1.00  0.00     0.167 HD
ATOM     65  C   UNL A   1      41.813  31.287  32.291  1.00  0.00     0.074 A 
ATOM     66  C   UNL A   1      41.525  32.205  31.190  1.00  0.00     0.031 C 
ATOM     67  C   UNL A   1      42.915  30.538  32.592  1.00  0.00     0.031 A 
BRANCH  54  68
ATOM     68  C   UNL A   1      44.251  32.253  27.792  1.00  0.00    -0.014 A 
ATOM     69  C   UNL A   1      43.656  33.269  28.564  1.00  0.00     0.009 A 
ATOM     70  C   UNL A   1      44.501  32.551  26.440  1.00  0.00     0.009 A 
ATOM     71  C   UNL A   1      43.234  34.472  27.983  1.00  0.00     0.001 A 
ATOM     72  C   UNL A   1      44.124  33.769  25.868  1.00  0.00     0.001 A 
ATOM     73  C   UNL A   1      43.456  34.715  26.632  1.00  0.00     0.000 A 
ENDBRANCH  54  68
BRANCH  55  74
ATOM     74  C   UNL A   1      37.136  31.241  31.862  1.00  0.00    -0.014 A 
ATOM     75  C   UNL A   1      36.768  31.745  33.120  1.00  0.00     0.009 A 
ATOM     76  C   UNL A   1      36.332  31.582  30.759  1.00  0.00     0.009 A 
ATOM     77  C   UNL A   1      35.670  32.604  33.259  1.00  0.00     0.001 A 
ATOM     78  C   UNL A   1      35.230  32.432  30.900  1.00  0.00     0.001 A 
ATOM     79  C   UNL A   1      34.912  32.958  32.147  1.00  0.00     0.000 A 
ENDBRANCH  55  74
BRANCH  67  80
ATOM     80  C   UNL A   1      42.854  29.600  33.772  1.00  0.00    -0.014 A 
ATOM     81  C   UNL A   1      43.204  29.974  35.082  1.00  0.00     0.009 A 
ATOM     82  C   UNL A   1      42.298  28.326  33.574  1.00  0.00     0.009 A 
ATOM     83  C   UNL A   1      43.043  29.082  36.149  1.00  0.00     0.001 A 
ATOM     84  C   UNL A   1      42.113  27.446  34.642  1.00  0.00     0.001 A 
ATOM     85  C   UNL A   1      42.494  27.820  35.927  1.00  0.00     0.000 A 
ENDBRANCH  67  80
ENDBRANCH  41  42
ENDBRANCH  33  36
ENDBRANCH  31  32
ENDBRANCH  30  31
ENDBRANCH   1  30
TORSDOF 14
ENDMDL
MODEL 2
REMARK VINA RESULT:     -12.4      1.911      3.010
REMARK SMILES Cc1cc(C)n(-c2ccccc2NS(=O)(=O)c2cc(C)c(C(=O)NCCCNC(=O)c3ccc(-c4c5nc(c(-c6ccccc6)c6ccc([nH]6)c(-c6ccccc6)c6nc(c(-c7ccccc7)c7ccc4[nH]7)C=C6)C=C5)cc3)s2)n1
REMARK SMILES IDX 25 1 24 2 22 3 23 4 21 6 17 7 18 8 79 9 19 10 20 11 14 12
REMARK SMILES IDX 15 13 16 14 13 15 12 17 7 18 8 19 9 20 11 21 10 22 6 23 1 24
REMARK SMILES IDX 2 25 3 26 80 27 4 28 5 29 26 30 27 31 28 32 29 33 30 35
REMARK SMILES IDX 31 36 32 37 78 38 33 39 77 40 34 41 35 42 36 43 71 44 37 45
REMARK SMILES IDX 76 46 70 47 72 48 38 49 75 50 69 51 68 52 39 54 61 55 46 56
REMARK SMILES IDX 60 57 47 58 50 59 59 60 73 61 48 62 49 63 58 65 74 66 51 67
REMARK SMILES IDX 40 68 41 69 45 70 42 71 44 72 43 73 62 74 63 75 67 76 64 77
REMARK SMILES IDX 66 78 65 79 52 80 53 81 57 82 54 83 56 84 55 85
REMARK H PARENT 24 5 13 16 28 34 72 53 50 64
REMARK Flexibility Score: inf
ROOT
ATOM      1  C   UNL A   1      35.008  21.463  25.723  1.00  0.00     0.118 C 
ENDROOT
BRANCH   1   2
ATOM      2  N   UNL A   1      34.038  20.374  25.636  1.00  0.00    -0.351 N 
ATOM      3  C   UNL A   1      32.698  20.330  25.307  1.00  0.00     0.261 C 
ATOM      4  O   UNL A   1      32.227  19.194  25.197  1.00  0.00    -0.268 OA
ATOM      5  H   UNL A   1      34.417  19.493  25.858  1.00  0.00     0.163 HD
BRANCH   3   6
ATOM      6  C   UNL A   1      31.907  21.525  25.027  1.00  0.00     0.096 A 
ATOM      7  C   UNL A   1      30.858  23.714  25.331  1.00  0.00     0.141 A 
ATOM      8  C   UNL A   1      31.072  23.459  23.991  1.00  0.00     0.038 A 
ATOM      9  S   UNL A   1      30.881  22.249  26.187  1.00  0.00    -0.116 S 
ATOM     10  C   UNL A   1      31.763  22.200  23.811  1.00  0.00    -0.026 A 
ATOM     11  C   UNL A   1      32.362  21.771  22.508  1.00  0.00     0.046 C 
BRANCH   7  12
ATOM     12  S   UNL A   1      30.641  25.167  26.322  1.00  0.00     0.271 S 
ATOM     13  O   UNL A   1      31.781  25.200  27.229  1.00  0.00    -0.200 OA
ATOM     14  O   UNL A   1      29.292  25.083  26.814  1.00  0.00    -0.200 OA
BRANCH  12  15
ATOM     15  N   UNL A   1      30.739  26.530  25.362  1.00  0.00    -0.277 N 
ATOM     16  H   UNL A   1      30.093  26.601  24.623  1.00  0.00     0.180 HD
BRANCH  15  17
ATOM     17  C   UNL A   1      31.681  27.618  25.511  1.00  0.00     0.075 A 
ATOM     18  C   UNL A   1      32.993  27.387  25.050  1.00  0.00     0.089 A 
ATOM     19  C   UNL A   1      34.073  28.149  25.524  1.00  0.00     0.030 A 
ATOM     20  C   UNL A   1      33.851  29.164  26.449  1.00  0.00     0.002 A 
ATOM     21  C   UNL A   1      31.479  28.702  26.367  1.00  0.00     0.029 A 
ATOM     22  C   UNL A   1      32.554  29.457  26.850  1.00  0.00     0.002 A 
BRANCH  18  23
ATOM     23  N   UNL A   1      33.210  26.431  24.027  1.00  0.00    -0.236 N 
ATOM     24  C   UNL A   1      32.679  25.649  20.604  1.00  0.00     0.069 C 
ATOM     25  C   UNL A   1      33.094  25.694  22.027  1.00  0.00     0.060 A 
ATOM     26  C   UNL A   1      34.105  24.948  22.665  1.00  0.00     0.048 A 
ATOM     27  N   UNL A   1      32.462  26.494  22.891  1.00  0.00    -0.173 NA
ATOM     28  C   UNL A   1      34.114  25.387  23.973  1.00  0.00     0.041 A 
ATOM     29  C   UNL A   1      34.820  24.839  25.157  1.00  0.00     0.067 C 
ENDBRANCH  18  23
ENDBRANCH  15  17
ENDBRANCH  12  15
ENDBRANCH   7  12
ENDBRANCH   3   6
ENDBRANCH   1   2
BRANCH   1  30
ATOM     30  C   UNL A   1      36.373  21.107  25.119  1.00  0.00     0.042 C 
BRANCH  30  31
ATOM     31  C   UNL A   1      37.506  21.978  25.637  1.00  0.00     0.118 C 
BRANCH  31  32
ATOM     32  N   UNL A   1      38.771  21.262  25.724  1.00  0.00    -0.352 N 
ATOM     33  C   UNL A   1      39.992  21.741  26.147  1.00  0.00     0.251 C 
ATOM     34  H   UNL A   1      38.753  20.318  25.444  1.00  0.00     0.163 HD
ATOM     35  O   UNL A   1      41.025  21.153  25.846  1.00  0.00    -0.269 OA
BRANCH  33  36
ATOM     36  C   UNL A   1      40.052  22.992  26.927  1.00  0.00     0.039 A 
ATOM     37  C   UNL A   1      41.127  23.213  27.787  1.00  0.00     0.014 A 
ATOM     38  C   UNL A   1      39.059  23.960  26.780  1.00  0.00     0.014 A 
ATOM     39  C   UNL A   1      41.247  24.450  28.413  1.00  0.00     0.010 A 
ATOM     40  C   UNL A   1      39.241  25.227  27.307  1.00  0.00     0.010 A 
ATOM     41  C   UNL A   1      40.329  25.482  28.136  1.00  0.00    -0.014 A 
BRANCH  41  42
ATOM     42  C   UNL A   1      40.620  26.834  28.626  1.00  0.00     0.031 A 
ATOM     43  C   UNL A   1      41.735  27.529  27.923  1.00  0.00     0.074 A 
ATOM     44  C   UNL A   1      39.920  27.538  29.540  1.00  0.00     0.049 A 
ATOM     45  N   UNL A   1      42.913  27.768  28.395  1.00  0.00    -0.248 NA
ATOM     46  C   UNL A   1      41.564  27.902  26.512  1.00  0.00     0.031 C 
ATOM     47  C   UNL A   1      38.638  27.221  30.171  1.00  0.00     0.029 A 
ATOM     48  N   UNL A   1      40.206  28.776  30.045  1.00  0.00    -0.354 N 
ATOM     49  C   UNL A   1      43.585  28.490  27.416  1.00  0.00     0.074 A 
ATOM     50  C   UNL A   1      42.763  28.421  26.232  1.00  0.00     0.031 C 
ATOM     51  C   UNL A   1      38.150  28.325  30.783  1.00  0.00     0.029 A 
ATOM     52  C   UNL A   1      39.161  29.366  30.741  1.00  0.00     0.049 A 
ATOM     53  H   UNL A   1      41.081  29.213  29.925  1.00  0.00     0.167 HD
ATOM     54  C   UNL A   1      44.646  29.283  27.730  1.00  0.00     0.031 A 
ATOM     55  C   UNL A   1      39.119  30.622  31.245  1.00  0.00     0.031 A 
ATOM     56  C   UNL A   1      45.182  28.978  29.035  1.00  0.00     0.049 A 
ATOM     57  C   UNL A   1      40.513  31.084  31.420  1.00  0.00     0.074 A 
ATOM     58  C   UNL A   1      45.638  27.833  29.661  1.00  0.00     0.029 A 
ATOM     59  N   UNL A   1      44.945  29.878  30.047  1.00  0.00    -0.354 N 
ATOM     60  N   UNL A   1      41.319  30.612  32.327  1.00  0.00    -0.248 NA
ATOM     61  C   UNL A   1      41.152  31.811  30.336  1.00  0.00     0.031 C 
ATOM     62  C   UNL A   1      45.157  27.933  31.002  1.00  0.00     0.029 A 
ATOM     63  C   UNL A   1      44.505  29.160  31.126  1.00  0.00     0.049 A 
ATOM     64  H   UNL A   1      45.068  30.854  30.003  1.00  0.00     0.167 HD
ATOM     65  C   UNL A   1      42.557  30.574  31.707  1.00  0.00     0.074 A 
ATOM     66  C   UNL A   1      42.418  31.439  30.537  1.00  0.00     0.031 C 
ATOM     67  C   UNL A   1      43.486  29.628  32.038  1.00  0.00     0.031 A 
BRANCH  54  68
ATOM     68  C   UNL A   1      44.908  30.611  27.060  1.00  0.00    -0.014 A 
ATOM     69  C   UNL A   1      46.239  30.967  26.766  1.00  0.00     0.009 A 
ATOM     70  C   UNL A   1      43.953  31.642  27.007  1.00  0.00     0.009 A 
ATOM     71  C   UNL A   1      46.603  32.301  26.543  1.00  0.00     0.001 A 
ATOM     72  C   UNL A   1      44.306  32.967  26.738  1.00  0.00     0.001 A 
ATOM     73  C   UNL A   1      45.638  33.301  26.543  1.00  0.00     0.000 A 
ENDBRANCH  54  68
BRANCH  55  74
ATOM     74  C   UNL A   1      37.965  31.522  31.439  1.00  0.00    -0.014 A 
ATOM     75  C   UNL A   1      37.394  32.196  30.348  1.00  0.00     0.009 A 
ATOM     76  C   UNL A   1      37.246  31.504  32.647  1.00  0.00     0.009 A 
ATOM     77  C   UNL A   1      36.125  32.782  30.447  1.00  0.00     0.001 A 
ATOM     78  C   UNL A   1      35.983  32.096  32.749  1.00  0.00     0.001 A 
ATOM     79  C   UNL A   1      35.415  32.718  31.643  1.00  0.00     0.000 A 
ENDBRANCH  55  74
BRANCH  67  80
ATOM     80  C   UNL A   1      43.286  28.825  33.300  1.00  0.00    -0.014 A 
ATOM     81  C   UNL A   1      42.476  27.678  33.372  1.00  0.00     0.009 A 
ATOM     82  C   UNL A   1      44.048  29.168  34.427  1.00  0.00     0.009 A 
ATOM     83  C   UNL A   1      42.400  26.927  34.551  1.00  0.00     0.001 A 
ATOM     84  C   UNL A   1      43.994  28.404  35.595  1.00  0.00     0.001 A 
ATOM     85  C   UNL A   1      43.162  27.290  35.659  1.00  0.00     0.000 A 
ENDBRANCH  67  80
ENDBRANCH  41  42
ENDBRANCH  33  36
ENDBRANCH  31  32
ENDBRANCH  30  31
ENDBRANCH   1  30
TORSDOF 14
ENDMDL
MODEL 3
REMARK VINA RESULT:     -12.3      2.387      7.920
REMARK SMILES Cc1cc(C)n(-c2ccccc2NS(=O)(=O)c2cc(C)c(C(=O)NCCCNC(=O)c3ccc(-c4c5nc(c(-c6ccccc6)c6ccc([nH]6)c(-c6ccccc6)c6nc(c(-c7ccccc7)c7ccc4[nH]7)C=C6)C=C5)cc3)s2)n1
REMARK SMILES IDX 25 1 24 2 22 3 23 4 21 6 17 7 18 8 79 9 19 10 20 11 14 12
REMARK SMILES IDX 15 13 16 14 13 15 12 17 7 18 8 19 9 20 11 21 10 22 6 23 1 24
REMARK SMILES IDX 2 25 3 26 80 27 4 28 5 29 26 30 27 31 28 32 29 33 30 35
REMARK SMILES IDX 31 36 32 37 78 38 33 39 77 40 34 41 35 42 36 43 71 44 37 45
REMARK SMILES IDX 76 46 70 47 72 48 38 49 75 50 69 51 68 52 39 54 61 55 46 56
REMARK SMILES IDX 60 57 47 58 50 59 59 60 73 61 48 62 49 63 58 65 74 66 51 67
REMARK SMILES IDX 40 68 41 69 45 70 42 71 44 72 43 73 62 74 63 75 67 76 64 77
REMARK SMILES IDX 66 78 65 79 52 80 53 81 57 82 54 83 56 84 55 85
REMARK H PARENT 24 5 13 16 28 34 72 53 50 64
REMARK Flexibility Score: inf
ROOT
ATOM      1  C   UNL A   1      32.164  29.101  25.070  1.00  0.00     0.118 C 
ENDROOT
BRANCH   1   2
ATOM      2  N   UNL A   1      31.459  29.409  23.828  1.00  0.00    -0.351 N 
ATOM      3  C   UNL A   1      30.897  28.622  22.842  1.00  0.00     0.261 C 
ATOM      4  O   UNL A   1      30.245  29.237  21.993  1.00  0.00    -0.268 OA
ATOM      5  H   UNL A   1      31.365  30.375  23.659  1.00  0.00     0.163 HD
BRANCH   3   6
ATOM      6  C   UNL A   1      30.991  27.165  22.838  1.00  0.00     0.096 A 
ATOM      7  C   UNL A   1      31.960  24.921  22.924  1.00  0.00     0.141 A 
ATOM      8  C   UNL A   1      30.653  24.903  23.368  1.00  0.00     0.038 A 
ATOM      9  S   UNL A   1      32.215  26.318  21.997  1.00  0.00    -0.116 S 
ATOM     10  C   UNL A   1      30.100  26.240  23.392  1.00  0.00    -0.026 A 
ATOM     11  C   UNL A   1      28.805  26.582  24.061  1.00  0.00     0.046 C 
BRANCH   7  12
ATOM     12  S   UNL A   1      33.385  23.891  23.152  1.00  0.00     0.271 S 
ATOM     13  O   UNL A   1      34.296  24.235  22.067  1.00  0.00    -0.200 OA
ATOM     14  O   UNL A   1      32.862  22.560  23.300  1.00  0.00    -0.200 OA
BRANCH  12  15
ATOM     15  N   UNL A   1      34.153  24.289  24.580  1.00  0.00    -0.277 N 
ATOM     16  H   UNL A   1      34.929  24.892  24.515  1.00  0.00     0.180 HD
BRANCH  15  17
ATOM     17  C   UNL A   1      33.789  23.835  25.905  1.00  0.00     0.075 A 
ATOM     18  C   UNL A   1      34.647  22.895  26.510  1.00  0.00     0.089 A 
ATOM     19  C   UNL A   1      34.197  22.065  27.549  1.00  0.00     0.030 A 
ATOM     20  C   UNL A   1      32.888  22.179  28.009  1.00  0.00     0.002 A 
ATOM     21  C   UNL A   1      32.512  23.989  26.449  1.00  0.00     0.029 A 
ATOM     22  C   UNL A   1      32.056  23.157  27.477  1.00  0.00     0.002 A 
BRANCH  18  23
ATOM     23  N   UNL A   1      36.010  22.851  26.124  1.00  0.00    -0.236 N 
ATOM     24  C   UNL A   1      39.188  24.402  26.452  1.00  0.00     0.069 C 
ATOM     25  C   UNL A   1      38.038  23.516  26.145  1.00  0.00     0.060 A 
ATOM     26  C   UNL A   1      38.060  22.197  25.651  1.00  0.00     0.048 A 
ATOM     27  N   UNL A   1      36.785  23.956  26.301  1.00  0.00    -0.173 NA
ATOM     28  C   UNL A   1      36.738  21.812  25.575  1.00  0.00     0.041 A 
ATOM     29  C   UNL A   1      36.129  20.613  24.948  1.00  0.00     0.067 C 
ENDBRANCH  18  23
ENDBRANCH  15  17
ENDBRANCH  12  15
ENDBRANCH   7  12
ENDBRANCH   3   6
ENDBRANCH   1   2
BRANCH   1  30
ATOM     30  C   UNL A   1      32.096  30.235  26.101  1.00  0.00     0.042 C 
BRANCH  30  31
ATOM     31  C   UNL A   1      33.346  30.342  26.960  1.00  0.00     0.118 C 
BRANCH  31  32
ATOM     32  N   UNL A   1      33.407  31.589  27.710  1.00  0.00    -0.352 N 
ATOM     33  C   UNL A   1      34.406  32.025  28.554  1.00  0.00     0.251 C 
ATOM     34  H   UNL A   1      32.640  32.196  27.602  1.00  0.00     0.163 HD
ATOM     35  O   UNL A   1      34.180  32.908  29.374  1.00  0.00    -0.269 OA
BRANCH  33  36
ATOM     36  C   UNL A   1      35.738  31.392  28.494  1.00  0.00     0.039 A 
ATOM     37  C   UNL A   1      36.863  32.126  28.864  1.00  0.00     0.014 A 
ATOM     38  C   UNL A   1      35.865  30.059  28.102  1.00  0.00     0.014 A 
ATOM     39  C   UNL A   1      38.095  31.482  28.937  1.00  0.00     0.010 A 
ATOM     40  C   UNL A   1      37.063  29.393  28.288  1.00  0.00     0.010 A 
ATOM     41  C   UNL A   1      38.191  30.097  28.697  1.00  0.00    -0.014 A 
BRANCH  41  42
ATOM     42  C   UNL A   1      39.450  29.414  29.012  1.00  0.00     0.031 A 
ATOM     43  C   UNL A   1      39.754  29.298  30.466  1.00  0.00     0.074 A 
ATOM     44  C   UNL A   1      40.278  28.790  28.147  1.00  0.00     0.049 A 
ATOM     45  N   UNL A   1      40.658  29.950  31.119  1.00  0.00    -0.248 NA
ATOM     46  C   UNL A   1      38.897  28.451  31.307  1.00  0.00     0.031 C 
ATOM     47  C   UNL A   1      40.087  28.503  26.725  1.00  0.00     0.029 A 
ATOM     48  N   UNL A   1      41.479  28.193  28.415  1.00  0.00    -0.354 N 
ATOM     49  C   UNL A   1      40.620  29.468  32.421  1.00  0.00     0.074 A 
ATOM     50  C   UNL A   1      39.431  28.655  32.514  1.00  0.00     0.031 C 
ATOM     51  C   UNL A   1      41.008  27.601  26.317  1.00  0.00     0.029 A 
ATOM     52  C   UNL A   1      41.957  27.385  27.395  1.00  0.00     0.049 A 
ATOM     53  H   UNL A   1      41.964  28.327  29.262  1.00  0.00     0.167 HD
ATOM     54  C   UNL A   1      41.696  29.586  33.247  1.00  0.00     0.031 A 
ATOM     55  C   UNL A   1      43.051  26.588  27.428  1.00  0.00     0.031 A 
ATOM     56  C   UNL A   1      42.648  30.556  32.760  1.00  0.00     0.049 A 
ATOM     57  C   UNL A   1      43.949  27.098  28.486  1.00  0.00     0.074 A 
ATOM     58  C   UNL A   1      42.583  31.883  32.380  1.00  0.00     0.029 A 
ATOM     59  N   UNL A   1      43.827  30.082  32.235  1.00  0.00    -0.354 N 
ATOM     60  N   UNL A   1      44.611  28.214  28.391  1.00  0.00    -0.248 NA
ATOM     61  C   UNL A   1      43.827  26.558  29.829  1.00  0.00     0.031 C 
ATOM     62  C   UNL A   1      43.438  31.978  31.240  1.00  0.00     0.029 A 
ATOM     63  C   UNL A   1      44.022  30.727  31.043  1.00  0.00     0.049 A 
ATOM     64  H   UNL A   1      44.419  29.406  32.640  1.00  0.00     0.167 HD
ATOM     65  C   UNL A   1      44.584  28.746  29.670  1.00  0.00     0.074 A 
ATOM     66  C   UNL A   1      44.204  27.628  30.532  1.00  0.00     0.031 C 
ATOM     67  C   UNL A   1      44.593  30.097  29.875  1.00  0.00     0.031 A 
BRANCH  54  68
ATOM     68  C   UNL A   1      42.094  28.518  34.238  1.00  0.00    -0.014 A 
ATOM     69  C   UNL A   1      42.608  27.302  33.749  1.00  0.00     0.009 A 
ATOM     70  C   UNL A   1      41.687  28.535  35.585  1.00  0.00     0.009 A 
ATOM     71  C   UNL A   1      42.607  26.142  34.535  1.00  0.00     0.001 A 
ATOM     72  C   UNL A   1      41.730  27.392  36.387  1.00  0.00     0.001 A 
ATOM     73  C   UNL A   1      42.154  26.186  35.849  1.00  0.00     0.000 A 
ENDBRANCH  54  68
BRANCH  55  74
ATOM     74  C   UNL A   1      43.312  25.317  26.722  1.00  0.00    -0.014 A 
ATOM     75  C   UNL A   1      43.964  25.312  25.478  1.00  0.00     0.009 A 
ATOM     76  C   UNL A   1      43.176  24.091  27.396  1.00  0.00     0.009 A 
ATOM     77  C   UNL A   1      44.507  24.131  24.955  1.00  0.00     0.001 A 
ATOM     78  C   UNL A   1      43.711  22.910  26.869  1.00  0.00     0.001 A 
ATOM     79  C   UNL A   1      44.394  22.935  25.658  1.00  0.00     0.000 A 
ENDBRANCH  55  74
BRANCH  67  80
ATOM     80  C   UNL A   1      44.956  31.003  28.725  1.00  0.00    -0.014 A 
ATOM     81  C   UNL A   1      46.267  31.434  28.457  1.00  0.00     0.009 A 
ATOM     82  C   UNL A   1      43.951  31.329  27.802  1.00  0.00     0.009 A 
ATOM     83  C   UNL A   1      46.551  32.204  27.324  1.00  0.00     0.001 A 
ATOM     84  C   UNL A   1      44.238  32.076  26.656  1.00  0.00     0.001 A 
ATOM     85  C   UNL A   1      45.536  32.521  26.423  1.00  0.00     0.000 A 
ENDBRANCH  67  80
ENDBRANCH  41  42
ENDBRANCH  33  36
ENDBRANCH  31  32
ENDBRANCH  30  31
ENDBRANCH   1  30
TORSDOF 14
ENDMDL
