MODEL 1
REMARK VINA RESULT:     -11.0      0.000      0.000
REMARK SMILES C[C@@H](C(=O)NCCCNC(=O)c1ccc(-c2c3nc(c(-c4ccccc4)c4ccc([nH]4)c(-c4ccccc4)c4nc(c(-c5ccccc5)c5ccc2[nH]5)C=C4)C=C3)cc1)c1ccc(C[C@@H]2CCC[C@@H]2O)cc1Br
REMARK SMILES IDX 6 1 5 2 3 3 4 4 2 6 1 7 60 8 61 9 72 10 62 11 71 12 73 13
REMARK SMILES IDX 63 14 64 15 65 16 66 17 69 18 67 19 68 20 70 21 7 23 8 24
REMARK SMILES IDX 9 25 10 26 11 28 12 29 13 30 59 31 14 32 58 33 15 34 16 35
REMARK SMILES IDX 17 36 52 37 18 38 57 39 51 40 53 41 19 42 56 43 50 44 49 45
REMARK SMILES IDX 20 47 42 48 27 49 41 50 28 51 31 52 40 53 54 54 29 55 30 56
REMARK SMILES IDX 39 58 55 59 32 60 21 61 22 62 26 63 23 64 25 65 24 66 43 67
REMARK SMILES IDX 44 68 48 69 45 70 47 71 46 72 33 73 34 74 38 75 35 76 37 77
REMARK SMILES IDX 36 78
REMARK H PARENT 5 5 70 22 9 27 53 46 31 57
REMARK Flexibility Score: inf
ROOT
ATOM      1  C   UNL A   1      36.410  19.772  24.997  1.00  0.00     0.117 C 
ENDROOT
BRANCH   1   2
ATOM      2  N   UNL A   1      35.969  20.938  25.741  1.00  0.00    -0.356 N 
ATOM      3  C   UNL A   1      35.626  22.184  25.294  1.00  0.00     0.227 C 
ATOM      4  O   UNL A   1      35.536  23.076  26.141  1.00  0.00    -0.274 OA
ATOM      5  H   UNL A   1      35.907  20.812  26.715  1.00  0.00     0.163 HD
BRANCH   3   6
ATOM      6  C   UNL A   1      35.373  22.418  23.793  1.00  0.00     0.106 C 
ATOM      7  C   UNL A   1      36.640  23.056  23.203  1.00  0.00     0.023 C 
BRANCH   6   8
ATOM      8  C   UNL A   1      34.091  23.224  23.547  1.00  0.00    -0.022 A 
ATOM      9  C   UNL A   1      34.152  24.572  23.150  1.00  0.00     0.006 A 
ATOM     10  C   UNL A   1      32.807  22.667  23.717  1.00  0.00     0.022 A 
ATOM     11  C   UNL A   1      33.003  25.352  23.018  1.00  0.00     0.004 A 
ATOM     12  C   UNL A   1      31.658  23.470  23.641  1.00  0.00     0.019 A 
ATOM     13  Br  UNL A   1      32.519  20.810  24.033  1.00  0.00    -0.051 Br
ATOM     14  C   UNL A   1      31.751  24.832  23.335  1.00  0.00    -0.047 A 
BRANCH  14  15
ATOM     15  C   UNL A   1      30.531  25.718  23.371  1.00  0.00     0.041 C 
BRANCH  15  16
ATOM     16  C   UNL A   1      30.364  26.665  24.585  1.00  0.00     0.022 C 
ATOM     17  C   UNL A   1      31.501  27.670  24.803  1.00  0.00     0.007 C 
ATOM     18  C   UNL A   1      30.229  26.012  25.964  1.00  0.00     0.117 C 
ATOM     19  C   UNL A   1      32.390  27.098  25.911  1.00  0.00     0.003 C 
ATOM     20  C   UNL A   1      31.655  25.891  26.484  1.00  0.00     0.032 C 
BRANCH  18  21
ATOM     21  O   UNL A   1      29.547  24.775  25.928  1.00  0.00    -0.393 OA
ATOM     22  H   UNL A   1      28.616  24.926  25.704  1.00  0.00     0.210 HD
ENDBRANCH  18  21
ENDBRANCH  15  16
ENDBRANCH  14  15
ENDBRANCH   6   8
ENDBRANCH   3   6
ENDBRANCH   1   2
BRANCH   1  23
ATOM     23  C   UNL A   1      37.892  19.882  24.634  1.00  0.00     0.042 C 
BRANCH  23  24
ATOM     24  C   UNL A   1      38.808  20.134  25.825  1.00  0.00     0.118 C 
BRANCH  24  25
ATOM     25  N   UNL A   1      39.979  19.276  25.814  1.00  0.00    -0.352 N 
ATOM     26  C   UNL A   1      41.292  19.585  26.046  1.00  0.00     0.251 C 
ATOM     27  H   UNL A   1      39.802  18.329  25.607  1.00  0.00     0.163 HD
ATOM     28  O   UNL A   1      42.159  18.741  25.806  1.00  0.00    -0.269 OA
BRANCH  26  29
ATOM     29  C   UNL A   1      41.693  20.911  26.571  1.00  0.00     0.039 A 
ATOM     30  C   UNL A   1      41.585  21.141  27.946  1.00  0.00     0.014 A 
ATOM     31  C   UNL A   1      42.099  21.948  25.724  1.00  0.00     0.014 A 
ATOM     32  C   UNL A   1      41.896  22.398  28.472  1.00  0.00     0.010 A 
ATOM     33  C   UNL A   1      42.476  23.180  26.257  1.00  0.00     0.010 A 
ATOM     34  C   UNL A   1      42.349  23.426  27.632  1.00  0.00    -0.014 A 
BRANCH  34  35
ATOM     35  C   UNL A   1      42.628  24.780  28.174  1.00  0.00     0.031 A 
ATOM     36  C   UNL A   1      44.029  25.157  28.576  1.00  0.00     0.074 A 
ATOM     37  C   UNL A   1      41.624  25.664  28.331  1.00  0.00     0.049 A 
ATOM     38  N   UNL A   1      44.471  26.282  29.078  1.00  0.00    -0.248 NA
ATOM     39  C   UNL A   1      45.065  24.124  28.413  1.00  0.00     0.031 C 
ATOM     40  C   UNL A   1      40.216  25.414  28.019  1.00  0.00     0.029 A 
ATOM     41  N   UNL A   1      41.641  26.956  28.792  1.00  0.00    -0.354 N 
ATOM     42  C   UNL A   1      45.827  26.086  29.307  1.00  0.00     0.074 A 
ATOM     43  C   UNL A   1      46.125  24.719  28.936  1.00  0.00     0.031 C 
ATOM     44  C   UNL A   1      39.507  26.526  28.276  1.00  0.00     0.029 A 
ATOM     45  C   UNL A   1      40.406  27.555  28.790  1.00  0.00     0.049 A 
ATOM     46  H   UNL A   1      42.460  27.410  29.096  1.00  0.00     0.167 HD
ATOM     47  C   UNL A   1      46.750  26.965  29.764  1.00  0.00     0.031 A 
ATOM     48  C   UNL A   1      40.039  28.799  29.153  1.00  0.00     0.031 A 
ATOM     49  C   UNL A   1      46.464  28.329  30.118  1.00  0.00     0.049 A 
ATOM     50  C   UNL A   1      41.084  29.770  29.625  1.00  0.00     0.074 A 
ATOM     51  C   UNL A   1      47.337  29.310  30.557  1.00  0.00     0.029 A 
ATOM     52  N   UNL A   1      45.206  28.907  30.064  1.00  0.00    -0.354 N 
ATOM     53  N   UNL A   1      42.371  29.584  29.787  1.00  0.00    -0.248 NA
ATOM     54  C   UNL A   1      40.627  31.131  29.940  1.00  0.00     0.031 C 
ATOM     55  C   UNL A   1      46.600  30.475  30.796  1.00  0.00     0.029 A 
ATOM     56  C   UNL A   1      45.277  30.230  30.463  1.00  0.00     0.049 A 
ATOM     57  H   UNL A   1      44.383  28.445  29.784  1.00  0.00     0.167 HD
ATOM     58  C   UNL A   1      42.882  30.808  30.195  1.00  0.00     0.074 A 
ATOM     59  C   UNL A   1      41.768  31.733  30.244  1.00  0.00     0.031 C 
ATOM     60  C   UNL A   1      44.161  31.138  30.502  1.00  0.00     0.031 A 
BRANCH  47  61
ATOM     61  C   UNL A   1      48.160  26.465  29.905  1.00  0.00    -0.014 A 
ATOM     62  C   UNL A   1      49.079  26.584  28.849  1.00  0.00     0.009 A 
ATOM     63  C   UNL A   1      48.579  25.874  31.107  1.00  0.00     0.009 A 
ATOM     64  C   UNL A   1      50.376  26.081  28.980  1.00  0.00     0.001 A 
ATOM     65  C   UNL A   1      49.884  25.397  31.244  1.00  0.00     0.001 A 
ATOM     66  C   UNL A   1      50.777  25.491  30.178  1.00  0.00     0.000 A 
ENDBRANCH  47  61
BRANCH  48  67
ATOM     67  C   UNL A   1      38.616  29.209  29.045  1.00  0.00    -0.014 A 
ATOM     68  C   UNL A   1      37.773  29.152  30.165  1.00  0.00     0.009 A 
ATOM     69  C   UNL A   1      38.098  29.667  27.825  1.00  0.00     0.009 A 
ATOM     70  C   UNL A   1      36.432  29.524  30.060  1.00  0.00     0.001 A 
ATOM     71  C   UNL A   1      36.761  30.060  27.728  1.00  0.00     0.001 A 
ATOM     72  C   UNL A   1      35.928  29.982  28.843  1.00  0.00     0.000 A 
ENDBRANCH  48  67
BRANCH  60  73
ATOM     73  C   UNL A   1      44.427  32.567  30.876  1.00  0.00    -0.014 A 
ATOM     74  C   UNL A   1      44.375  32.993  32.211  1.00  0.00     0.009 A 
ATOM     75  C   UNL A   1      44.766  33.492  29.876  1.00  0.00     0.009 A 
ATOM     76  C   UNL A   1      44.625  34.329  32.535  1.00  0.00     0.001 A 
ATOM     77  C   UNL A   1      45.038  34.821  30.205  1.00  0.00     0.001 A 
ATOM     78  C   UNL A   1      44.957  35.240  31.532  1.00  0.00     0.000 A 
ENDBRANCH  60  73
ENDBRANCH  34  35
ENDBRANCH  26  29
ENDBRANCH  24  25
ENDBRANCH  23  24
ENDBRANCH   1  23
TORSDOF 14
ENDMDL
MODEL 2
REMARK VINA RESULT:     -11.0      1.152      6.158
REMARK SMILES C[C@@H](C(=O)NCCCNC(=O)c1ccc(-c2c3nc(c(-c4ccccc4)c4ccc([nH]4)c(-c4ccccc4)c4nc(c(-c5ccccc5)c5ccc2[nH]5)C=C4)C=C3)cc1)c1ccc(C[C@@H]2CCC[C@@H]2O)cc1Br
REMARK SMILES IDX 6 1 5 2 3 3 4 4 2 6 1 7 60 8 61 9 72 10 62 11 71 12 73 13
REMARK SMILES IDX 63 14 64 15 65 16 66 17 69 18 67 19 68 20 70 21 7 23 8 24
REMARK SMILES IDX 9 25 10 26 11 28 12 29 13 30 59 31 14 32 58 33 15 34 16 35
REMARK SMILES IDX 17 36 52 37 18 38 57 39 51 40 53 41 19 42 56 43 50 44 49 45
REMARK SMILES IDX 20 47 42 48 27 49 41 50 28 51 31 52 40 53 54 54 29 55 30 56
REMARK SMILES IDX 39 58 55 59 32 60 21 61 22 62 26 63 23 64 25 65 24 66 43 67
REMARK SMILES IDX 44 68 48 69 45 70 47 71 46 72 33 73 34 74 38 75 35 76 37 77
REMARK SMILES IDX 36 78
REMARK H PARENT 5 5 70 22 9 27 53 46 31 57
REMARK Flexibility Score: inf
ROOT
ATOM      1  C   UNL A   1      36.128  20.632  25.165  1.00  0.00     0.117 C 
ENDROOT
BRANCH   1   2
ATOM      2  N   UNL A   1      35.900  21.787  24.316  1.00  0.00    -0.356 N 
ATOM      3  C   UNL A   1      34.738  22.262  23.777  1.00  0.00     0.227 C 
ATOM      4  O   UNL A   1      34.839  23.104  22.882  1.00  0.00    -0.274 OA
ATOM      5  H   UNL A   1      36.706  22.307  24.095  1.00  0.00     0.163 HD
BRANCH   3   6
ATOM      6  C   UNL A   1      33.383  21.742  24.295  1.00  0.00     0.106 C 
ATOM      7  C   UNL A   1      32.729  20.942  23.158  1.00  0.00     0.023 C 
BRANCH   6   8
ATOM      8  C   UNL A   1      32.509  22.874  24.851  1.00  0.00    -0.022 A 
ATOM      9  C   UNL A   1      31.570  23.528  24.033  1.00  0.00     0.006 A 
ATOM     10  C   UNL A   1      32.612  23.320  26.184  1.00  0.00     0.022 A 
ATOM     11  C   UNL A   1      30.837  24.625  24.486  1.00  0.00     0.004 A 
ATOM     12  C   UNL A   1      31.917  24.460  26.618  1.00  0.00     0.019 A 
ATOM     13  Br  UNL A   1      33.661  22.421  27.497  1.00  0.00    -0.051 Br
ATOM     14  C   UNL A   1      31.056  25.149  25.757  1.00  0.00    -0.047 A 
BRANCH  14  15
ATOM     15  C   UNL A   1      30.403  26.439  26.185  1.00  0.00     0.041 C 
BRANCH  15  16
ATOM     16  C   UNL A   1      31.143  27.762  25.867  1.00  0.00     0.022 C 
ATOM     17  C   UNL A   1      32.199  27.680  24.757  1.00  0.00     0.007 C 
ATOM     18  C   UNL A   1      31.916  28.421  27.013  1.00  0.00     0.117 C 
ATOM     19  C   UNL A   1      33.561  27.579  25.450  1.00  0.00     0.003 C 
ATOM     20  C   UNL A   1      33.318  27.828  26.935  1.00  0.00     0.032 C 
BRANCH  18  21
ATOM     21  O   UNL A   1      31.307  28.234  28.273  1.00  0.00    -0.393 OA
ATOM     22  H   UNL A   1      30.398  28.570  28.245  1.00  0.00     0.210 HD
ENDBRANCH  18  21
ENDBRANCH  15  16
ENDBRANCH  14  15
ENDBRANCH   6   8
ENDBRANCH   3   6
ENDBRANCH   1   2
BRANCH   1  23
ATOM     23  C   UNL A   1      37.447  19.943  24.813  1.00  0.00     0.042 C 
BRANCH  23  24
ATOM     24  C   UNL A   1      38.656  20.493  25.561  1.00  0.00     0.118 C 
BRANCH  24  25
ATOM     25  N   UNL A   1      39.694  19.494  25.745  1.00  0.00    -0.352 N 
ATOM     26  C   UNL A   1      41.001  19.649  26.121  1.00  0.00     0.251 C 
ATOM     27  H   UNL A   1      39.416  18.565  25.573  1.00  0.00     0.163 HD
ATOM     28  O   UNL A   1      41.767  18.687  26.038  1.00  0.00    -0.269 OA
BRANCH  26  29
ATOM     29  C   UNL A   1      41.514  20.948  26.613  1.00  0.00     0.039 A 
ATOM     30  C   UNL A   1      41.372  21.246  27.972  1.00  0.00     0.014 A 
ATOM     31  C   UNL A   1      42.061  21.902  25.748  1.00  0.00     0.014 A 
ATOM     32  C   UNL A   1      41.789  22.485  28.464  1.00  0.00     0.010 A 
ATOM     33  C   UNL A   1      42.541  23.111  26.252  1.00  0.00     0.010 A 
ATOM     34  C   UNL A   1      42.382  23.426  27.609  1.00  0.00    -0.014 A 
BRANCH  34  35
ATOM     35  C   UNL A   1      42.776  24.766  28.112  1.00  0.00     0.031 A 
ATOM     36  C   UNL A   1      41.729  25.826  28.329  1.00  0.00     0.074 A 
ATOM     37  C   UNL A   1      44.072  25.043  28.351  1.00  0.00     0.049 A 
ATOM     38  N   UNL A   1      41.875  27.057  28.751  1.00  0.00    -0.248 NA
ATOM     39  C   UNL A   1      40.340  25.461  28.008  1.00  0.00     0.031 C 
ATOM     40  C   UNL A   1      45.189  24.120  28.145  1.00  0.00     0.029 A 
ATOM     41  N   UNL A   1      44.665  26.187  28.823  1.00  0.00    -0.354 N 
ATOM     42  C   UNL A   1      40.604  27.616  28.727  1.00  0.00     0.074 A 
ATOM     43  C   UNL A   1      39.707  26.607  28.203  1.00  0.00     0.031 C 
ATOM     44  C   UNL A   1      46.330  24.727  28.511  1.00  0.00     0.029 A 
ATOM     45  C   UNL A   1      46.027  26.085  28.955  1.00  0.00     0.049 A 
ATOM     46  H   UNL A   1      44.161  27.003  29.045  1.00  0.00     0.167 HD
ATOM     47  C   UNL A   1      40.206  28.849  29.124  1.00  0.00     0.031 A 
ATOM     48  C   UNL A   1      46.931  26.981  29.393  1.00  0.00     0.031 A 
ATOM     49  C   UNL A   1      41.088  29.850  29.661  1.00  0.00     0.049 A 
ATOM     50  C   UNL A   1      46.466  28.331  29.861  1.00  0.00     0.074 A 
ATOM     51  C   UNL A   1      40.778  31.117  30.124  1.00  0.00     0.029 A 
ATOM     52  N   UNL A   1      42.456  29.691  29.813  1.00  0.00    -0.354 N 
ATOM     53  N   UNL A   1      45.253  28.826  29.879  1.00  0.00    -0.248 NA
ATOM     54  C   UNL A   1      47.495  29.237  30.391  1.00  0.00     0.031 C 
ATOM     55  C   UNL A   1      41.965  31.736  30.533  1.00  0.00     0.029 A 
ATOM     56  C   UNL A   1      43.006  30.836  30.362  1.00  0.00     0.049 A 
ATOM     57  H   UNL A   1      42.962  28.883  29.567  1.00  0.00     0.167 HD
ATOM     58  C   UNL A   1      45.367  30.088  30.447  1.00  0.00     0.074 A 
ATOM     59  C   UNL A   1      46.767  30.277  30.771  1.00  0.00     0.031 C 
ATOM     60  C   UNL A   1      44.399  31.007  30.682  1.00  0.00     0.031 A 
BRANCH  47  61
ATOM     61  C   UNL A   1      38.747  29.176  28.985  1.00  0.00    -0.014 A 
ATOM     62  C   UNL A   1      38.228  29.677  27.779  1.00  0.00     0.009 A 
ATOM     63  C   UNL A   1      37.876  28.976  30.068  1.00  0.00     0.009 A 
ATOM     64  C   UNL A   1      36.877  30.012  27.676  1.00  0.00     0.001 A 
ATOM     65  C   UNL A   1      36.519  29.287  29.952  1.00  0.00     0.001 A 
ATOM     66  C   UNL A   1      36.023  29.815  28.761  1.00  0.00     0.000 A 
ENDBRANCH  47  61
BRANCH  48  67
ATOM     67  C   UNL A   1      48.368  26.613  29.447  1.00  0.00    -0.014 A 
ATOM     68  C   UNL A   1      48.894  25.961  30.572  1.00  0.00     0.009 A 
ATOM     69  C   UNL A   1      49.218  26.904  28.369  1.00  0.00     0.009 A 
ATOM     70  C   UNL A   1      50.248  25.628  30.627  1.00  0.00     0.001 A 
ATOM     71  C   UNL A   1      50.568  26.549  28.418  1.00  0.00     0.001 A 
ATOM     72  C   UNL A   1      51.083  25.918  29.549  1.00  0.00     0.000 A 
ENDBRANCH  48  67
BRANCH  60  73
ATOM     73  C   UNL A   1      44.816  32.282  31.355  1.00  0.00    -0.014 A 
ATOM     74  C   UNL A   1      45.287  33.377  30.616  1.00  0.00     0.009 A 
ATOM     75  C   UNL A   1      44.704  32.396  32.750  1.00  0.00     0.009 A 
ATOM     76  C   UNL A   1      45.671  34.553  31.266  1.00  0.00     0.001 A 
ATOM     77  C   UNL A   1      45.067  33.580  33.395  1.00  0.00     0.001 A 
ATOM     78  C   UNL A   1      45.559  34.653  32.653  1.00  0.00     0.000 A 
ENDBRANCH  60  73
ENDBRANCH  34  35
ENDBRANCH  26  29
ENDBRANCH  24  25
ENDBRANCH  23  24
ENDBRANCH   1  23
TORSDOF 14
ENDMDL
MODEL 3
REMARK VINA RESULT:     -10.9      3.630      8.930
REMARK SMILES C[C@@H](C(=O)NCCCNC(=O)c1ccc(-c2c3nc(c(-c4ccccc4)c4ccc([nH]4)c(-c4ccccc4)c4nc(c(-c5ccccc5)c5ccc2[nH]5)C=C4)C=C3)cc1)c1ccc(C[C@@H]2CCC[C@@H]2O)cc1Br
REMARK SMILES IDX 6 1 5 2 3 3 4 4 2 6 1 7 60 8 61 9 72 10 62 11 71 12 73 13
REMARK SMILES IDX 63 14 64 15 65 16 66 17 69 18 67 19 68 20 70 21 7 23 8 24
REMARK SMILES IDX 9 25 10 26 11 28 12 29 13 30 59 31 14 32 58 33 15 34 16 35
REMARK SMILES IDX 17 36 52 37 18 38 57 39 51 40 53 41 19 42 56 43 50 44 49 45
REMARK SMILES IDX 20 47 42 48 27 49 41 50 28 51 31 52 40 53 54 54 29 55 30 56
REMARK SMILES IDX 39 58 55 59 32 60 21 61 22 62 26 63 23 64 25 65 24 66 43 67
REMARK SMILES IDX 44 68 48 69 45 70 47 71 46 72 33 73 34 74 38 75 35 76 37 77
REMARK SMILES IDX 36 78
REMARK H PARENT 5 5 70 22 9 27 53 46 31 57
REMARK Flexibility Score: inf
ROOT
ATOM      1  C   UNL A   1      31.381  30.810  25.513  1.00  0.00     0.117 C 
ENDROOT
BRANCH   1   2
ATOM      2  N   UNL A   1      32.728  30.276  25.596  1.00  0.00    -0.356 N 
ATOM      3  C   UNL A   1      33.151  29.007  25.877  1.00  0.00     0.227 C 
ATOM      4  O   UNL A   1      34.346  28.862  26.145  1.00  0.00    -0.274 OA
ATOM      5  H   UNL A   1      33.445  30.927  25.425  1.00  0.00     0.163 HD
BRANCH   3   6
ATOM      6  C   UNL A   1      32.146  27.839  25.848  1.00  0.00     0.106 C 
ATOM      7  C   UNL A   1      31.507  27.743  27.242  1.00  0.00     0.023 C 
BRANCH   6   8
ATOM      8  C   UNL A   1      32.795  26.536  25.363  1.00  0.00    -0.022 A 
ATOM      9  C   UNL A   1      32.970  25.449  26.238  1.00  0.00     0.006 A 
ATOM     10  C   UNL A   1      33.257  26.370  24.041  1.00  0.00     0.022 A 
ATOM     11  C   UNL A   1      33.647  24.293  25.849  1.00  0.00     0.004 A 
ATOM     12  C   UNL A   1      33.988  25.231  23.671  1.00  0.00     0.019 A 
ATOM     13  Br  UNL A   1      32.912  27.637  22.660  1.00  0.00    -0.051 Br
ATOM     14  C   UNL A   1      34.229  24.202  24.587  1.00  0.00    -0.047 A 
BRANCH  14  15
ATOM     15  C   UNL A   1      35.115  23.036  24.226  1.00  0.00     0.041 C 
BRANCH  15  16
ATOM     16  C   UNL A   1      36.017  22.445  25.338  1.00  0.00     0.022 C 
ATOM     17  C   UNL A   1      37.494  22.266  24.967  1.00  0.00     0.007 C 
ATOM     18  C   UNL A   1      35.641  21.061  25.878  1.00  0.00     0.117 C 
ATOM     19  C   UNL A   1      37.686  20.788  24.614  1.00  0.00     0.003 C 
ATOM     20  C   UNL A   1      36.393  20.075  24.993  1.00  0.00     0.032 C 
BRANCH  18  21
ATOM     21  O   UNL A   1      34.248  20.833  25.899  1.00  0.00    -0.393 OA
ATOM     22  H   UNL A   1      33.859  21.279  26.668  1.00  0.00     0.210 HD
ENDBRANCH  18  21
ENDBRANCH  15  16
ENDBRANCH  14  15
ENDBRANCH   6   8
ENDBRANCH   3   6
ENDBRANCH   1   2
BRANCH   1  23
ATOM     23  C   UNL A   1      31.184  31.959  26.503  1.00  0.00     0.042 C 
BRANCH  23  24
ATOM     24  C   UNL A   1      32.472  32.447  27.155  1.00  0.00     0.118 C 
BRANCH  24  25
ATOM     25  N   UNL A   1      32.360  33.807  27.651  1.00  0.00    -0.352 N 
ATOM     26  C   UNL A   1      33.146  34.479  28.548  1.00  0.00     0.251 C 
ATOM     27  H   UNL A   1      31.604  34.324  27.288  1.00  0.00     0.163 HD
ATOM     28  O   UNL A   1      32.769  35.573  28.975  1.00  0.00    -0.269 OA
BRANCH  26  29
ATOM     29  C   UNL A   1      34.431  33.916  29.023  1.00  0.00     0.039 A 
ATOM     30  C   UNL A   1      35.578  34.141  28.256  1.00  0.00     0.014 A 
ATOM     31  C   UNL A   1      34.507  33.112  30.165  1.00  0.00     0.014 A 
ATOM     32  C   UNL A   1      36.797  33.576  28.638  1.00  0.00     0.010 A 
ATOM     33  C   UNL A   1      35.738  32.606  30.584  1.00  0.00     0.010 A 
ATOM     34  C   UNL A   1      36.889  32.809  29.808  1.00  0.00    -0.014 A 
BRANCH  34  35
ATOM     35  C   UNL A   1      38.167  32.159  30.191  1.00  0.00     0.031 A 
ATOM     36  C   UNL A   1      39.088  32.830  31.176  1.00  0.00     0.074 A 
ATOM     37  C   UNL A   1      38.518  30.981  29.640  1.00  0.00     0.049 A 
ATOM     38  N   UNL A   1      40.249  32.429  31.627  1.00  0.00    -0.248 NA
ATOM     39  C   UNL A   1      38.655  34.133  31.704  1.00  0.00     0.031 C 
ATOM     40  C   UNL A   1      37.737  30.244  28.645  1.00  0.00     0.029 A 
ATOM     41  N   UNL A   1      39.625  30.197  29.845  1.00  0.00    -0.354 N 
ATOM     42  C   UNL A   1      40.692  33.436  32.474  1.00  0.00     0.074 A 
ATOM     43  C   UNL A   1      39.699  34.488  32.436  1.00  0.00     0.031 C 
ATOM     44  C   UNL A   1      38.380  29.104  28.343  1.00  0.00     0.029 A 
ATOM     45  C   UNL A   1      39.623  29.041  29.105  1.00  0.00     0.049 A 
ATOM     46  H   UNL A   1      40.352  30.441  30.463  1.00  0.00     0.167 HD
ATOM     47  C   UNL A   1      41.812  33.480  33.235  1.00  0.00     0.031 A 
ATOM     48  C   UNL A   1      40.520  28.038  29.053  1.00  0.00     0.031 A 
ATOM     49  C   UNL A   1      42.794  32.431  33.291  1.00  0.00     0.049 A 
ATOM     50  C   UNL A   1      41.738  28.089  29.930  1.00  0.00     0.074 A 
ATOM     51  C   UNL A   1      43.945  32.364  34.057  1.00  0.00     0.029 A 
ATOM     52  N   UNL A   1      42.735  31.259  32.554  1.00  0.00    -0.354 N 
ATOM     53  N   UNL A   1      42.117  29.026  30.764  1.00  0.00    -0.248 NA
ATOM     54  C   UNL A   1      42.641  26.930  29.874  1.00  0.00     0.031 C 
ATOM     55  C   UNL A   1      44.597  31.161  33.762  1.00  0.00     0.029 A 
ATOM     56  C   UNL A   1      43.828  30.462  32.845  1.00  0.00     0.049 A 
ATOM     57  H   UNL A   1      42.020  31.028  31.917  1.00  0.00     0.167 HD
ATOM     58  C   UNL A   1      43.284  28.559  31.353  1.00  0.00     0.074 A 
ATOM     59  C   UNL A   1      43.544  27.250  30.790  1.00  0.00     0.031 C 
ATOM     60  C   UNL A   1      44.070  29.161  32.280  1.00  0.00     0.031 A 
BRANCH  47  61
ATOM     61  C   UNL A   1      42.027  34.712  34.068  1.00  0.00    -0.014 A 
ATOM     62  C   UNL A   1      42.701  35.829  33.546  1.00  0.00     0.009 A 
ATOM     63  C   UNL A   1      41.547  34.762  35.385  1.00  0.00     0.009 A 
ATOM     64  C   UNL A   1      42.928  36.953  34.342  1.00  0.00     0.001 A 
ATOM     65  C   UNL A   1      41.751  35.899  36.170  1.00  0.00     0.001 A 
ATOM     66  C   UNL A   1      42.451  36.989  35.652  1.00  0.00     0.000 A 
ENDBRANCH  47  61
BRANCH  48  67
ATOM     67  C   UNL A   1      40.275  26.876  28.161  1.00  0.00    -0.014 A 
ATOM     68  C   UNL A   1      39.494  25.796  28.598  1.00  0.00     0.009 A 
ATOM     69  C   UNL A   1      40.813  26.848  26.865  1.00  0.00     0.009 A 
ATOM     70  C   UNL A   1      39.277  24.698  27.765  1.00  0.00     0.001 A 
ATOM     71  C   UNL A   1      40.573  25.758  26.025  1.00  0.00     0.001 A 
ATOM     72  C   UNL A   1      39.812  24.682  26.478  1.00  0.00     0.000 A 
ENDBRANCH  48  67
BRANCH  60  73
ATOM     73  C   UNL A   1      45.261  28.390  32.770  1.00  0.00    -0.014 A 
ATOM     74  C   UNL A   1      46.514  28.511  32.151  1.00  0.00     0.009 A 
ATOM     75  C   UNL A   1      45.130  27.553  33.890  1.00  0.00     0.009 A 
ATOM     76  C   UNL A   1      47.607  27.782  32.624  1.00  0.00     0.001 A 
ATOM     77  C   UNL A   1      46.230  26.844  34.375  1.00  0.00     0.001 A 
ATOM     78  C   UNL A   1      47.464  26.951  33.736  1.00  0.00     0.000 A 
ENDBRANCH  60  73
ENDBRANCH  34  35
ENDBRANCH  26  29
ENDBRANCH  24  25
ENDBRANCH  23  24
ENDBRANCH   1  23
TORSDOF 14
ENDMDL
