MODEL 1
REMARK VINA RESULT:      -9.9      0.000      0.000
REMARK SMILES C[C@H](Cc1ccco1)[NH2+]Cc1cc(C(=O)NCCCNC(=O)c2ccc(-c3c4nc(c(-c5ccccc5)c5ccc([nH]5)c(-c5ccccc5)c5nc(c(-c6ccccc6)c6ccc3[nH]6)C=C5)C=C4)cc2)cs1
REMARK SMILES IDX 14 1 15 2 16 3 13 5 11 6 12 7 72 8 71 9 10 10 9 11 2 14 1 15
REMARK SMILES IDX 3 16 4 17 5 18 8 19 6 20 7 21 17 22 18 23 19 24 20 25 21 26
REMARK SMILES IDX 22 28 23 29 24 30 70 31 25 32 69 33 26 34 27 35 28 36 63 37
REMARK SMILES IDX 29 38 68 39 62 40 64 41 30 42 67 43 61 44 60 45 31 47 53 48
REMARK SMILES IDX 38 49 52 50 39 51 42 52 51 53 65 54 40 55 41 56 50 58 66 59
REMARK SMILES IDX 43 60 32 61 33 62 37 63 34 64 36 65 35 66 54 67 55 68 59 69
REMARK SMILES IDX 56 70 58 71 57 72 44 73 45 74 49 75 46 76 48 77 47 78
REMARK H PARENT 16 4 9 12 9 13 20 27 64 46 42 57
REMARK Flexibility Score: inf
ROOT
ATOM      1  C   UNL A   1      33.460  26.690  22.735  1.00  0.00     0.252 C 
ATOM      2  O   UNL A   1      33.643  27.191  21.629  1.00  0.00    -0.269 OA
ATOM      3  N   UNL A   1      33.695  27.489  23.829  1.00  0.00    -0.352 N 
ATOM      4  H   UNL A   1      34.055  28.378  23.607  1.00  0.00     0.163 HD
ENDROOT
BRANCH   1   5
ATOM      5  C   UNL A   1      32.946  25.328  22.886  1.00  0.00     0.051 A 
ATOM      6  C   UNL A   1      32.857  23.069  23.481  1.00  0.00     0.059 A 
ATOM      7  C   UNL A   1      33.647  24.085  22.980  1.00  0.00     0.035 A 
ATOM      8  S   UNL A   1      31.204  23.449  23.287  1.00  0.00    -0.142 S 
ATOM      9  C   UNL A   1      31.581  25.083  22.951  1.00  0.00     0.079 A 
BRANCH   6  10
ATOM     10  C   UNL A   1      33.320  21.801  24.136  1.00  0.00     0.308 C 
BRANCH  10  11
ATOM     11  N   UNL A   1      32.854  21.712  25.530  1.00  0.00    -0.339 N 
ATOM     12  H   UNL A   1      32.067  22.354  25.636  1.00  0.00     0.346 HD
ATOM     13  H   UNL A   1      32.618  20.731  25.677  1.00  0.00     0.346 HD
BRANCH  11  14
ATOM     14  C   UNL A   1      33.843  22.040  26.573  1.00  0.00     0.187 C 
ATOM     15  C   UNL A   1      33.277  22.226  27.985  1.00  0.00     0.075 C 
BRANCH  14  16
ATOM     16  C   UNL A   1      34.707  23.256  26.139  1.00  0.00     0.140 C 
BRANCH  16  17
ATOM     17  C   UNL A   1      36.168  22.995  25.966  1.00  0.00     0.109 A 
ATOM     18  C   UNL A   1      37.292  23.785  26.115  1.00  0.00     0.046 A 
ATOM     19  O   UNL A   1      36.543  21.716  25.670  1.00  0.00    -0.469 OA
ATOM     20  C   UNL A   1      38.410  22.949  25.892  1.00  0.00     0.042 A 
ATOM     21  C   UNL A   1      37.903  21.696  25.649  1.00  0.00     0.195 A 
ENDBRANCH  16  17
ENDBRANCH  14  16
ENDBRANCH  11  14
ENDBRANCH  10  11
ENDBRANCH   6  10
ENDBRANCH   1   5
BRANCH   3  22
ATOM     22  C   UNL A   1      33.512  27.264  25.252  1.00  0.00     0.118 C 
BRANCH  22  23
ATOM     23  C   UNL A   1      34.250  28.314  26.081  1.00  0.00     0.042 C 
BRANCH  23  24
ATOM     24  C   UNL A   1      33.533  28.663  27.381  1.00  0.00     0.118 C 
BRANCH  24  25
ATOM     25  N   UNL A   1      33.574  30.093  27.659  1.00  0.00    -0.352 N 
ATOM     26  C   UNL A   1      34.549  30.850  28.256  1.00  0.00     0.251 C 
ATOM     27  H   UNL A   1      32.777  30.593  27.372  1.00  0.00     0.163 HD
ATOM     28  O   UNL A   1      34.294  32.000  28.599  1.00  0.00    -0.269 OA
BRANCH  26  29
ATOM     29  C   UNL A   1      35.897  30.292  28.498  1.00  0.00     0.039 A 
ATOM     30  C   UNL A   1      36.839  30.339  27.466  1.00  0.00     0.014 A 
ATOM     31  C   UNL A   1      36.225  29.686  29.714  1.00  0.00     0.014 A 
ATOM     32  C   UNL A   1      38.122  29.830  27.672  1.00  0.00     0.010 A 
ATOM     33  C   UNL A   1      37.526  29.251  29.946  1.00  0.00     0.010 A 
ATOM     34  C   UNL A   1      38.487  29.311  28.926  1.00  0.00    -0.014 A 
BRANCH  34  35
ATOM     35  C   UNL A   1      39.868  28.832  29.186  1.00  0.00     0.031 A 
ATOM     36  C   UNL A   1      40.885  29.744  29.814  1.00  0.00     0.074 A 
ATOM     37  C   UNL A   1      40.223  27.591  28.801  1.00  0.00     0.049 A 
ATOM     38  N   UNL A   1      42.151  29.522  30.065  1.00  0.00    -0.248 NA
ATOM     39  C   UNL A   1      40.427  31.092  30.185  1.00  0.00     0.031 C 
ATOM     40  C   UNL A   1      39.342  26.623  28.145  1.00  0.00     0.029 A 
ATOM     41  N   UNL A   1      41.424  26.935  28.897  1.00  0.00    -0.354 N 
ATOM     42  C   UNL A   1      42.640  30.701  30.613  1.00  0.00     0.074 A 
ATOM     43  C   UNL A   1      41.553  31.654  30.601  1.00  0.00     0.031 C 
ATOM     44  C   UNL A   1      40.025  25.491  27.919  1.00  0.00     0.029 A 
ATOM     45  C   UNL A   1      41.402  25.667  28.370  1.00  0.00     0.049 A 
ATOM     46  H   UNL A   1      42.226  27.335  29.304  1.00  0.00     0.167 HD
ATOM     47  C   UNL A   1      43.877  30.962  31.101  1.00  0.00     0.031 A 
ATOM     48  C   UNL A   1      42.381  24.751  28.249  1.00  0.00     0.031 A 
ATOM     49  C   UNL A   1      44.961  30.016  31.102  1.00  0.00     0.049 A 
ATOM     50  C   UNL A   1      43.753  25.072  28.770  1.00  0.00     0.074 A 
ATOM     51  C   UNL A   1      46.239  30.169  31.609  1.00  0.00     0.029 A 
ATOM     52  N   UNL A   1      44.895  28.740  30.562  1.00  0.00    -0.354 N 
ATOM     53  N   UNL A   1      44.183  26.170  29.346  1.00  0.00    -0.248 NA
ATOM     54  C   UNL A   1      44.774  24.023  28.637  1.00  0.00     0.031 C 
ATOM     55  C   UNL A   1      46.965  29.008  31.324  1.00  0.00     0.029 A 
ATOM     56  C   UNL A   1      46.119  28.105  30.700  1.00  0.00     0.049 A 
ATOM     57  H   UNL A   1      44.097  28.344  30.144  1.00  0.00     0.167 HD
ATOM     58  C   UNL A   1      45.513  25.934  29.666  1.00  0.00     0.074 A 
ATOM     59  C   UNL A   1      45.814  24.583  29.239  1.00  0.00     0.031 C 
ATOM     60  C   UNL A   1      46.406  26.762  30.262  1.00  0.00     0.031 A 
BRANCH  47  61
ATOM     61  C   UNL A   1      44.119  32.338  31.664  1.00  0.00    -0.014 A 
ATOM     62  C   UNL A   1      43.890  32.621  33.021  1.00  0.00     0.009 A 
ATOM     63  C   UNL A   1      44.599  33.361  30.832  1.00  0.00     0.009 A 
ATOM     64  C   UNL A   1      44.090  33.909  33.521  1.00  0.00     0.001 A 
ATOM     65  C   UNL A   1      44.832  34.640  31.342  1.00  0.00     0.001 A 
ATOM     66  C   UNL A   1      44.564  34.917  32.682  1.00  0.00     0.000 A 
ENDBRANCH  47  61
BRANCH  48  67
ATOM     67  C   UNL A   1      42.094  23.440  27.608  1.00  0.00    -0.014 A 
ATOM     68  C   UNL A   1      41.495  22.402  28.337  1.00  0.00     0.009 A 
ATOM     69  C   UNL A   1      42.410  23.226  26.257  1.00  0.00     0.009 A 
ATOM     70  C   UNL A   1      41.243  21.168  27.733  1.00  0.00     0.001 A 
ATOM     71  C   UNL A   1      42.126  22.002  25.647  1.00  0.00     0.001 A 
ATOM     72  C   UNL A   1      41.553  20.970  26.389  1.00  0.00     0.000 A 
ENDBRANCH  48  67
BRANCH  60  73
ATOM     73  C   UNL A   1      47.785  26.218  30.519  1.00  0.00    -0.014 A 
ATOM     74  C   UNL A   1      48.768  26.213  29.518  1.00  0.00     0.009 A 
ATOM     75  C   UNL A   1      48.113  25.738  31.797  1.00  0.00     0.009 A 
ATOM     76  C   UNL A   1      50.042  25.705  29.784  1.00  0.00     0.001 A 
ATOM     77  C   UNL A   1      49.397  25.262  32.068  1.00  0.00     0.001 A 
ATOM     78  C   UNL A   1      50.357  25.236  31.058  1.00  0.00     0.000 A 
ENDBRANCH  60  73
ENDBRANCH  34  35
ENDBRANCH  26  29
ENDBRANCH  24  25
ENDBRANCH  23  24
ENDBRANCH  22  23
ENDBRANCH   3  22
TORSDOF 15
ENDMDL
MODEL 2
REMARK VINA RESULT:      -9.7      1.234      2.253
REMARK SMILES C[C@H](Cc1ccco1)[NH2+]Cc1cc(C(=O)NCCCNC(=O)c2ccc(-c3c4nc(c(-c5ccccc5)c5ccc([nH]5)c(-c5ccccc5)c5nc(c(-c6ccccc6)c6ccc3[nH]6)C=C5)C=C4)cc2)cs1
REMARK SMILES IDX 14 1 15 2 16 3 13 5 11 6 12 7 72 8 71 9 10 10 9 11 2 14 1 15
REMARK SMILES IDX 3 16 4 17 5 18 8 19 6 20 7 21 17 22 18 23 19 24 20 25 21 26
REMARK SMILES IDX 22 28 23 29 24 30 70 31 25 32 69 33 26 34 27 35 28 36 63 37
REMARK SMILES IDX 29 38 68 39 62 40 64 41 30 42 67 43 61 44 60 45 31 47 53 48
REMARK SMILES IDX 38 49 52 50 39 51 42 52 51 53 65 54 40 55 41 56 50 58 66 59
REMARK SMILES IDX 43 60 32 61 33 62 37 63 34 64 36 65 35 66 54 67 55 68 59 69
REMARK SMILES IDX 56 70 58 71 57 72 44 73 45 74 49 75 46 76 48 77 47 78
REMARK H PARENT 16 4 9 12 9 13 20 27 64 46 42 57
REMARK Flexibility Score: inf
ROOT
ATOM      1  C   UNL A   1      33.710  26.895  22.741  1.00  0.00     0.252 C 
ATOM      2  O   UNL A   1      33.731  27.512  21.680  1.00  0.00    -0.269 OA
ATOM      3  N   UNL A   1      33.602  27.637  23.894  1.00  0.00    -0.352 N 
ATOM      4  H   UNL A   1      33.619  28.610  23.747  1.00  0.00     0.163 HD
ENDROOT
BRANCH   1   5
ATOM      5  C   UNL A   1      33.725  25.432  22.779  1.00  0.00     0.051 A 
ATOM      6  C   UNL A   1      33.862  23.260  23.633  1.00  0.00     0.059 A 
ATOM      7  C   UNL A   1      34.372  24.542  23.693  1.00  0.00     0.035 A 
ATOM      8  S   UNL A   1      33.065  23.005  22.145  1.00  0.00    -0.142 S 
ATOM      9  C   UNL A   1      33.048  24.686  21.824  1.00  0.00     0.079 A 
BRANCH   6  10
ATOM     10  C   UNL A   1      33.941  22.203  24.694  1.00  0.00     0.308 C 
BRANCH  10  11
ATOM     11  N   UNL A   1      32.677  22.095  25.444  1.00  0.00    -0.339 N 
ATOM     12  H   UNL A   1      31.917  22.324  24.804  1.00  0.00     0.346 HD
ATOM     13  H   UNL A   1      32.653  21.140  25.801  1.00  0.00     0.346 HD
BRANCH  11  14
ATOM     14  C   UNL A   1      32.543  22.962  26.629  1.00  0.00     0.187 C 
ATOM     15  C   UNL A   1      33.108  22.389  27.934  1.00  0.00     0.075 C 
BRANCH  14  16
ATOM     16  C   UNL A   1      31.069  23.424  26.800  1.00  0.00     0.140 C 
BRANCH  16  17
ATOM     17  C   UNL A   1      30.598  24.478  25.850  1.00  0.00     0.109 A 
ATOM     18  C   UNL A   1      30.225  25.798  26.017  1.00  0.00     0.046 A 
ATOM     19  O   UNL A   1      30.579  24.161  24.523  1.00  0.00    -0.469 OA
ATOM     20  C   UNL A   1      29.957  26.312  24.728  1.00  0.00     0.042 A 
ATOM     21  C   UNL A   1      30.210  25.284  23.851  1.00  0.00     0.195 A 
ENDBRANCH  16  17
ENDBRANCH  14  16
ENDBRANCH  11  14
ENDBRANCH  10  11
ENDBRANCH   6  10
ENDBRANCH   1   5
BRANCH   3  22
ATOM     22  C   UNL A   1      33.471  27.251  25.287  1.00  0.00     0.118 C 
BRANCH  22  23
ATOM     23  C   UNL A   1      34.247  28.197  26.202  1.00  0.00     0.042 C 
BRANCH  23  24
ATOM     24  C   UNL A   1      33.459  28.614  27.441  1.00  0.00     0.118 C 
BRANCH  24  25
ATOM     25  N   UNL A   1      33.506  30.053  27.658  1.00  0.00    -0.352 N 
ATOM     26  C   UNL A   1      34.490  30.832  28.210  1.00  0.00     0.251 C 
ATOM     27  H   UNL A   1      32.706  30.543  27.360  1.00  0.00     0.163 HD
ATOM     28  O   UNL A   1      34.240  31.997  28.508  1.00  0.00    -0.269 OA
BRANCH  26  29
ATOM     29  C   UNL A   1      35.839  30.282  28.459  1.00  0.00     0.039 A 
ATOM     30  C   UNL A   1      36.791  30.347  27.436  1.00  0.00     0.014 A 
ATOM     31  C   UNL A   1      36.161  29.667  29.672  1.00  0.00     0.014 A 
ATOM     32  C   UNL A   1      38.075  29.845  27.649  1.00  0.00     0.010 A 
ATOM     33  C   UNL A   1      37.463  29.240  29.911  1.00  0.00     0.010 A 
ATOM     34  C   UNL A   1      38.432  29.317  28.901  1.00  0.00    -0.014 A 
BRANCH  34  35
ATOM     35  C   UNL A   1      39.814  28.845  29.169  1.00  0.00     0.031 A 
ATOM     36  C   UNL A   1      40.825  29.764  29.798  1.00  0.00     0.074 A 
ATOM     37  C   UNL A   1      40.177  27.605  28.791  1.00  0.00     0.049 A 
ATOM     38  N   UNL A   1      42.090  29.549  30.055  1.00  0.00    -0.248 NA
ATOM     39  C   UNL A   1      40.358  31.112  30.162  1.00  0.00     0.031 C 
ATOM     40  C   UNL A   1      39.304  26.629  28.134  1.00  0.00     0.029 A 
ATOM     41  N   UNL A   1      41.381  26.955  28.895  1.00  0.00    -0.354 N 
ATOM     42  C   UNL A   1      42.572  30.733  30.600  1.00  0.00     0.074 A 
ATOM     43  C   UNL A   1      41.479  31.681  30.580  1.00  0.00     0.031 C 
ATOM     44  C   UNL A   1      39.993  25.500  27.916  1.00  0.00     0.029 A 
ATOM     45  C   UNL A   1      41.367  25.684  28.373  1.00  0.00     0.049 A 
ATOM     46  H   UNL A   1      42.180  27.360  29.304  1.00  0.00     0.167 HD
ATOM     47  C   UNL A   1      43.805  31.002  31.093  1.00  0.00     0.031 A 
ATOM     48  C   UNL A   1      42.351  24.773  28.259  1.00  0.00     0.031 A 
ATOM     49  C   UNL A   1      44.894  30.061  31.103  1.00  0.00     0.049 A 
ATOM     50  C   UNL A   1      43.720  25.103  28.785  1.00  0.00     0.074 A 
ATOM     51  C   UNL A   1      46.169  30.223  31.615  1.00  0.00     0.029 A 
ATOM     52  N   UNL A   1      44.836  28.783  30.568  1.00  0.00    -0.354 N 
ATOM     53  N   UNL A   1      44.142  26.205  29.359  1.00  0.00    -0.248 NA
ATOM     54  C   UNL A   1      44.746  24.058  28.661  1.00  0.00     0.031 C 
ATOM     55  C   UNL A   1      46.902  29.064  31.337  1.00  0.00     0.029 A 
ATOM     56  C   UNL A   1      46.062  28.155  30.713  1.00  0.00     0.049 A 
ATOM     57  H   UNL A   1      44.042  28.381  30.147  1.00  0.00     0.167 HD
ATOM     58  C   UNL A   1      45.471  25.976  29.686  1.00  0.00     0.074 A 
ATOM     59  C   UNL A   1      45.781  24.625  29.265  1.00  0.00     0.031 C 
ATOM     60  C   UNL A   1      46.358  26.811  30.282  1.00  0.00     0.031 A 
BRANCH  47  61
ATOM     61  C   UNL A   1      44.037  32.381  31.651  1.00  0.00    -0.014 A 
ATOM     62  C   UNL A   1      44.370  33.460  30.816  1.00  0.00     0.009 A 
ATOM     63  C   UNL A   1      43.905  32.611  33.030  1.00  0.00     0.009 A 
ATOM     64  C   UNL A   1      44.613  34.726  31.353  1.00  0.00     0.001 A 
ATOM     65  C   UNL A   1      44.113  33.885  33.561  1.00  0.00     0.001 A 
ATOM     66  C   UNL A   1      44.480  34.938  32.724  1.00  0.00     0.000 A 
ENDBRANCH  47  61
BRANCH  48  67
ATOM     67  C   UNL A   1      42.073  23.458  27.623  1.00  0.00    -0.014 A 
ATOM     68  C   UNL A   1      42.337  23.250  26.261  1.00  0.00     0.009 A 
ATOM     69  C   UNL A   1      41.548  22.398  28.382  1.00  0.00     0.009 A 
ATOM     70  C   UNL A   1      42.058  22.018  25.667  1.00  0.00     0.001 A 
ATOM     71  C   UNL A   1      41.302  21.157  27.791  1.00  0.00     0.001 A 
ATOM     72  C   UNL A   1      41.546  20.971  26.432  1.00  0.00     0.000 A 
ENDBRANCH  48  67
BRANCH  60  73
ATOM     73  C   UNL A   1      47.738  26.274  30.547  1.00  0.00    -0.014 A 
ATOM     74  C   UNL A   1      48.734  26.295  29.559  1.00  0.00     0.009 A 
ATOM     75  C   UNL A   1      48.055  25.776  31.821  1.00  0.00     0.009 A 
ATOM     76  C   UNL A   1      50.009  25.794  29.832  1.00  0.00     0.001 A 
ATOM     77  C   UNL A   1      49.339  25.307  32.100  1.00  0.00     0.001 A 
ATOM     78  C   UNL A   1      50.312  25.306  31.102  1.00  0.00     0.000 A 
ENDBRANCH  60  73
ENDBRANCH  34  35
ENDBRANCH  26  29
ENDBRANCH  24  25
ENDBRANCH  23  24
ENDBRANCH  22  23
ENDBRANCH   3  22
TORSDOF 15
ENDMDL
MODEL 3
REMARK VINA RESULT:      -9.6      2.127      2.878
REMARK SMILES C[C@H](Cc1ccco1)[NH2+]Cc1cc(C(=O)NCCCNC(=O)c2ccc(-c3c4nc(c(-c5ccccc5)c5ccc([nH]5)c(-c5ccccc5)c5nc(c(-c6ccccc6)c6ccc3[nH]6)C=C5)C=C4)cc2)cs1
REMARK SMILES IDX 14 1 15 2 16 3 13 5 11 6 12 7 72 8 71 9 10 10 9 11 2 14 1 15
REMARK SMILES IDX 3 16 4 17 5 18 8 19 6 20 7 21 17 22 18 23 19 24 20 25 21 26
REMARK SMILES IDX 22 28 23 29 24 30 70 31 25 32 69 33 26 34 27 35 28 36 63 37
REMARK SMILES IDX 29 38 68 39 62 40 64 41 30 42 67 43 61 44 60 45 31 47 53 48
REMARK SMILES IDX 38 49 52 50 39 51 42 52 51 53 65 54 40 55 41 56 50 58 66 59
REMARK SMILES IDX 43 60 32 61 33 62 37 63 34 64 36 65 35 66 54 67 55 68 59 69
REMARK SMILES IDX 56 70 58 71 57 72 44 73 45 74 49 75 46 76 48 77 47 78
REMARK H PARENT 16 4 9 12 9 13 20 27 64 46 42 57
REMARK Flexibility Score: inf
ROOT
ATOM      1  C   UNL A   1      30.753  28.726  22.746  1.00  0.00     0.252 C 
ATOM      2  O   UNL A   1      30.179  29.325  21.840  1.00  0.00    -0.269 OA
ATOM      3  N   UNL A   1      31.154  29.470  23.831  1.00  0.00    -0.352 N 
ATOM      4  H   UNL A   1      30.993  30.437  23.736  1.00  0.00     0.163 HD
ENDROOT
BRANCH   1   5
ATOM      5  C   UNL A   1      30.940  27.275  22.710  1.00  0.00     0.051 A 
ATOM      6  C   UNL A   1      31.973  25.203  22.391  1.00  0.00     0.059 A 
ATOM      7  C   UNL A   1      31.799  26.478  21.891  1.00  0.00     0.035 A 
ATOM      8  S   UNL A   1      30.703  24.803  23.459  1.00  0.00    -0.142 S 
ATOM      9  C   UNL A   1      30.218  26.441  23.553  1.00  0.00     0.079 A 
BRANCH   6  10
ATOM     10  C   UNL A   1      33.104  24.261  22.098  1.00  0.00     0.308 C 
BRANCH  10  11
ATOM     11  N   UNL A   1      33.589  23.602  23.323  1.00  0.00    -0.339 N 
ATOM     12  H   UNL A   1      32.888  23.746  24.051  1.00  0.00     0.346 HD
ATOM     13  H   UNL A   1      33.736  22.626  23.067  1.00  0.00     0.346 HD
BRANCH  11  14
ATOM     14  C   UNL A   1      34.884  24.070  23.850  1.00  0.00     0.187 C 
ATOM     15  C   UNL A   1      36.048  23.082  23.714  1.00  0.00     0.075 C 
BRANCH  14  16
ATOM     16  C   UNL A   1      34.727  24.569  25.313  1.00  0.00     0.140 C 
BRANCH  16  17
ATOM     17  C   UNL A   1      33.962  23.674  26.233  1.00  0.00     0.109 A 
ATOM     18  C   UNL A   1      34.345  22.802  27.234  1.00  0.00     0.046 A 
ATOM     19  O   UNL A   1      32.600  23.735  26.175  1.00  0.00    -0.469 OA
ATOM     20  C   UNL A   1      33.157  22.298  27.812  1.00  0.00     0.042 A 
ATOM     21  C   UNL A   1      32.123  22.914  27.149  1.00  0.00     0.195 A 
ENDBRANCH  16  17
ENDBRANCH  14  16
ENDBRANCH  11  14
ENDBRANCH  10  11
ENDBRANCH   6  10
ENDBRANCH   1   5
BRANCH   3  22
ATOM     22  C   UNL A   1      31.773  29.095  25.089  1.00  0.00     0.118 C 
BRANCH  22  23
ATOM     23  C   UNL A   1      33.288  28.954  24.944  1.00  0.00     0.042 C 
BRANCH  23  24
ATOM     24  C   UNL A   1      34.042  29.215  26.244  1.00  0.00     0.118 C 
BRANCH  24  25
ATOM     25  N   UNL A   1      33.822  30.567  26.739  1.00  0.00    -0.352 N 
ATOM     26  C   UNL A   1      34.460  31.258  27.738  1.00  0.00     0.251 C 
ATOM     27  H   UNL A   1      33.104  31.063  26.284  1.00  0.00     0.163 HD
ATOM     28  O   UNL A   1      33.973  32.307  28.151  1.00  0.00    -0.269 OA
BRANCH  26  29
ATOM     29  C   UNL A   1      35.716  30.748  28.326  1.00  0.00     0.039 A 
ATOM     30  C   UNL A   1      35.646  29.742  29.295  1.00  0.00     0.014 A 
ATOM     31  C   UNL A   1      36.957  31.280  27.963  1.00  0.00     0.014 A 
ATOM     32  C   UNL A   1      36.818  29.235  29.858  1.00  0.00     0.010 A 
ATOM     33  C   UNL A   1      38.127  30.720  28.465  1.00  0.00     0.010 A 
ATOM     34  C   UNL A   1      38.071  29.697  29.423  1.00  0.00    -0.014 A 
BRANCH  34  35
ATOM     35  C   UNL A   1      39.330  29.119  29.957  1.00  0.00     0.031 A 
ATOM     36  C   UNL A   1      39.988  29.716  31.170  1.00  0.00     0.074 A 
ATOM     37  C   UNL A   1      39.913  28.090  29.313  1.00  0.00     0.049 A 
ATOM     38  N   UNL A   1      41.116  29.384  31.746  1.00  0.00    -0.248 NA
ATOM     39  C   UNL A   1      39.301  30.853  31.805  1.00  0.00     0.031 C 
ATOM     40  C   UNL A   1      39.399  27.447  28.102  1.00  0.00     0.029 A 
ATOM     41  N   UNL A   1      41.075  27.411  29.581  1.00  0.00    -0.354 N 
ATOM     42  C   UNL A   1      41.278  30.273  32.801  1.00  0.00     0.074 A 
ATOM     43  C   UNL A   1      40.165  31.197  32.748  1.00  0.00     0.031 C 
ATOM     44  C   UNL A   1      40.227  26.454  27.747  1.00  0.00     0.029 A 
ATOM     45  C   UNL A   1      41.353  26.418  28.674  1.00  0.00     0.049 A 
ATOM     46  H   UNL A   1      41.654  27.616  30.350  1.00  0.00     0.167 HD
ATOM     47  C   UNL A   1      42.252  30.308  33.742  1.00  0.00     0.031 A 
ATOM     48  C   UNL A   1      42.404  25.580  28.587  1.00  0.00     0.031 A 
ATOM     49  C   UNL A   1      43.364  29.395  33.787  1.00  0.00     0.049 A 
ATOM     50  C   UNL A   1      43.489  25.655  29.624  1.00  0.00     0.074 A 
ATOM     51  C   UNL A   1      44.382  29.321  34.721  1.00  0.00     0.029 A 
ATOM     52  N   UNL A   1      43.606  28.401  32.851  1.00  0.00    -0.354 N 
ATOM     53  N   UNL A   1      43.594  26.460  30.654  1.00  0.00    -0.248 NA
ATOM     54  C   UNL A   1      44.595  24.696  29.494  1.00  0.00     0.031 C 
ATOM     55  C   UNL A   1      45.273  28.321  34.319  1.00  0.00     0.029 A 
ATOM     56  C   UNL A   1      44.773  27.726  33.171  1.00  0.00     0.049 A 
ATOM     57  H   UNL A   1      43.034  28.204  32.075  1.00  0.00     0.167 HD
ATOM     58  C   UNL A   1      44.760  26.089  31.308  1.00  0.00     0.074 A 
ATOM     59  C   UNL A   1      45.318  24.974  30.570  1.00  0.00     0.031 C 
ATOM     60  C   UNL A   1      45.320  26.623  32.422  1.00  0.00     0.031 A 
BRANCH  47  61
ATOM     61  C   UNL A   1      42.157  31.382  34.793  1.00  0.00    -0.014 A 
ATOM     62  C   UNL A   1      42.944  32.544  34.723  1.00  0.00     0.009 A 
ATOM     63  C   UNL A   1      41.256  31.241  35.860  1.00  0.00     0.009 A 
ATOM     64  C   UNL A   1      42.866  33.517  35.722  1.00  0.00     0.001 A 
ATOM     65  C   UNL A   1      41.154  32.231  36.839  1.00  0.00     0.001 A 
ATOM     66  C   UNL A   1      41.968  33.361  36.777  1.00  0.00     0.000 A 
ENDBRANCH  47  61
BRANCH  48  67
ATOM     67  C   UNL A   1      42.475  24.596  27.475  1.00  0.00    -0.014 A 
ATOM     68  C   UNL A   1      41.879  23.332  27.596  1.00  0.00     0.009 A 
ATOM     69  C   UNL A   1      43.135  24.922  26.278  1.00  0.00     0.009 A 
ATOM     70  C   UNL A   1      41.964  22.407  26.554  1.00  0.00     0.001 A 
ATOM     71  C   UNL A   1      43.189  24.006  25.226  1.00  0.00     0.001 A 
ATOM     72  C   UNL A   1      42.613  22.745  25.368  1.00  0.00     0.000 A 
ENDBRANCH  48  67
BRANCH  60  73
ATOM     73  C   UNL A   1      46.584  25.985  32.930  1.00  0.00    -0.014 A 
ATOM     74  C   UNL A   1      47.848  26.424  32.506  1.00  0.00     0.009 A 
ATOM     75  C   UNL A   1      46.506  24.954  33.880  1.00  0.00     0.009 A 
ATOM     76  C   UNL A   1      49.007  25.817  32.996  1.00  0.00     0.001 A 
ATOM     77  C   UNL A   1      47.667  24.372  34.393  1.00  0.00     0.001 A 
ATOM     78  C   UNL A   1      48.915  24.797  33.943  1.00  0.00     0.000 A 
ENDBRANCH  60  73
ENDBRANCH  34  35
ENDBRANCH  26  29
ENDBRANCH  24  25
ENDBRANCH  23  24
ENDBRANCH  22  23
ENDBRANCH   3  22
TORSDOF 15
ENDMDL
