MODEL 1
REMARK VINA RESULT:     -12.4      0.000      0.000
REMARK SMILES O=C(NCCCNC(=O)c1ccc(-c2c3nc(c(-c4ccccc4)c4ccc([nH]4)c(-c4ccccc4)c4nc(c(-c5ccccc5)c5ccc2[nH]5)C=C4)C=C3)cc1)c1ccc(NS(=O)(=O)C2=Cc3ccccc3CC2)cc1
REMARK SMILES IDX 4 1 3 2 1 3 2 4 58 6 59 7 77 8 60 9 76 10 61 11 62 12 63 14
REMARK SMILES IDX 64 15 65 16 66 17 67 18 75 19 68 20 74 21 69 22 73 23 70 24
REMARK SMILES IDX 72 25 71 26 5 27 6 28 7 29 8 30 9 32 10 33 11 34 57 35 12 36
REMARK SMILES IDX 56 37 13 38 14 39 15 40 50 41 16 42 55 43 49 44 51 45 17 46
REMARK SMILES IDX 54 47 48 48 47 49 18 51 40 52 25 53 39 54 26 55 29 56 38 57
REMARK SMILES IDX 52 58 27 59 28 60 37 62 53 63 30 64 19 65 20 66 24 67 21 68
REMARK SMILES IDX 23 69 22 70 41 71 42 72 46 73 43 74 45 75 44 76 31 77 32 78
REMARK SMILES IDX 36 79 33 80 35 81 34 82
REMARK H PARENT 3 5 62 13 7 31 51 50 29 61
REMARK Flexibility Score: inf
ROOT
ATOM      1  C   UNL A   1      35.949  21.041  25.378  1.00  0.00     0.118 C 
ENDROOT
BRANCH   1   2
ATOM      2  N   UNL A   1      34.981  19.955  25.383  1.00  0.00    -0.352 N 
ATOM      3  O   UNL A   1      32.935  19.020  25.470  1.00  0.00    -0.269 OA
ATOM      4  C   UNL A   1      33.627  19.990  25.170  1.00  0.00     0.251 C 
ATOM      5  H   UNL A   1      35.353  19.062  25.567  1.00  0.00     0.163 HD
BRANCH   4   6
ATOM      6  C   UNL A   1      32.998  21.179  24.555  1.00  0.00     0.039 A 
ATOM      7  C   UNL A   1      33.230  21.479  23.212  1.00  0.00     0.016 A 
ATOM      8  C   UNL A   1      32.072  21.932  25.283  1.00  0.00     0.016 A 
ATOM      9  C   UNL A   1      32.583  22.557  22.615  1.00  0.00     0.027 A 
ATOM     10  C   UNL A   1      31.425  23.017  24.678  1.00  0.00     0.027 A 
ATOM     11  C   UNL A   1      31.695  23.346  23.345  1.00  0.00     0.049 A 
BRANCH  11  12
ATOM     12  N   UNL A   1      30.906  24.333  22.679  1.00  0.00    -0.280 N 
ATOM     13  H   UNL A   1      30.124  24.054  22.151  1.00  0.00     0.180 HD
BRANCH  12  14
ATOM     14  S   UNL A   1      31.299  25.986  22.788  1.00  0.00     0.258 S 
ATOM     15  O   UNL A   1      32.637  25.995  23.343  1.00  0.00    -0.202 OA
ATOM     16  O   UNL A   1      31.093  26.505  21.447  1.00  0.00    -0.202 OA
BRANCH  14  17
ATOM     17  C   UNL A   1      30.168  26.778  23.893  1.00  0.00     0.066 C 
ATOM     18  C   UNL A   1      30.442  26.662  25.212  1.00  0.00     0.026 C 
ATOM     19  C   UNL A   1      29.677  28.129  23.431  1.00  0.00     0.055 C 
ATOM     20  C   UNL A   1      31.260  27.776  25.773  1.00  0.00    -0.021 A 
ATOM     21  C   UNL A   1      30.725  29.206  23.738  1.00  0.00     0.041 C 
ATOM     22  C   UNL A   1      31.886  27.603  27.012  1.00  0.00     0.008 A 
ATOM     23  C   UNL A   1      31.422  28.984  25.064  1.00  0.00    -0.040 A 
ATOM     24  C   UNL A   1      32.715  28.603  27.519  1.00  0.00     0.001 A 
ATOM     25  C   UNL A   1      32.279  29.967  25.571  1.00  0.00     0.004 A 
ATOM     26  C   UNL A   1      32.927  29.774  26.791  1.00  0.00     0.000 A 
ENDBRANCH  14  17
ENDBRANCH  12  14
ENDBRANCH  11  12
ENDBRANCH   4   6
ENDBRANCH   1   2
BRANCH   1  27
ATOM     27  C   UNL A   1      37.273  20.618  24.761  1.00  0.00     0.042 C 
BRANCH  27  28
ATOM     28  C   UNL A   1      38.482  20.926  25.631  1.00  0.00     0.118 C 
BRANCH  28  29
ATOM     29  N   UNL A   1      39.459  19.844  25.648  1.00  0.00    -0.352 N 
ATOM     30  C   UNL A   1      40.792  19.858  25.983  1.00  0.00     0.251 C 
ATOM     31  H   UNL A   1      39.109  18.964  25.378  1.00  0.00     0.163 HD
ATOM     32  O   UNL A   1      41.490  18.873  25.761  1.00  0.00    -0.269 OA
BRANCH  30  33
ATOM     33  C   UNL A   1      41.394  21.070  26.577  1.00  0.00     0.039 A 
ATOM     34  C   UNL A   1      41.982  22.020  25.738  1.00  0.00     0.014 A 
ATOM     35  C   UNL A   1      41.367  21.278  27.958  1.00  0.00     0.014 A 
ATOM     36  C   UNL A   1      42.457  23.219  26.275  1.00  0.00     0.010 A 
ATOM     37  C   UNL A   1      41.745  22.509  28.477  1.00  0.00     0.010 A 
ATOM     38  C   UNL A   1      42.295  23.494  27.642  1.00  0.00    -0.014 A 
BRANCH  38  39
ATOM     39  C   UNL A   1      42.691  24.796  28.234  1.00  0.00     0.031 A 
ATOM     40  C   UNL A   1      41.656  25.866  28.454  1.00  0.00     0.074 A 
ATOM     41  C   UNL A   1      43.990  25.054  28.481  1.00  0.00     0.049 A 
ATOM     42  N   UNL A   1      41.821  27.108  28.831  1.00  0.00    -0.248 NA
ATOM     43  C   UNL A   1      40.257  25.501  28.178  1.00  0.00     0.031 C 
ATOM     44  C   UNL A   1      45.100  24.120  28.270  1.00  0.00     0.029 A 
ATOM     45  N   UNL A   1      44.601  26.190  28.951  1.00  0.00    -0.354 N 
ATOM     46  C   UNL A   1      40.554  27.679  28.805  1.00  0.00     0.074 A 
ATOM     47  C   UNL A   1      39.639  26.662  28.333  1.00  0.00     0.031 C 
ATOM     48  C   UNL A   1      46.249  24.712  28.631  1.00  0.00     0.029 A 
ATOM     49  C   UNL A   1      45.966  26.079  29.055  1.00  0.00     0.049 A 
ATOM     50  H   UNL A   1      44.107  27.007  29.190  1.00  0.00     0.167 HD
ATOM     51  C   UNL A   1      40.181  28.931  29.158  1.00  0.00     0.031 A 
ATOM     52  C   UNL A   1      46.889  26.982  29.436  1.00  0.00     0.031 A 
ATOM     53  C   UNL A   1      41.081  29.933  29.658  1.00  0.00     0.049 A 
ATOM     54  C   UNL A   1      46.449  28.362  29.833  1.00  0.00     0.074 A 
ATOM     55  C   UNL A   1      40.789  31.207  30.110  1.00  0.00     0.029 A 
ATOM     56  N   UNL A   1      42.453  29.768  29.774  1.00  0.00    -0.354 N 
ATOM     57  N   UNL A   1      45.239  28.867  29.858  1.00  0.00    -0.248 NA
ATOM     58  C   UNL A   1      47.502  29.295  30.258  1.00  0.00     0.031 C 
ATOM     59  C   UNL A   1      41.990  31.830  30.464  1.00  0.00     0.029 A 
ATOM     60  C   UNL A   1      43.023  30.926  30.275  1.00  0.00     0.049 A 
ATOM     61  H   UNL A   1      42.947  28.951  29.537  1.00  0.00     0.167 HD
ATOM     62  C   UNL A   1      45.382  30.166  30.327  1.00  0.00     0.074 A 
ATOM     63  C   UNL A   1      46.793  30.368  30.584  1.00  0.00     0.031 C 
ATOM     64  C   UNL A   1      44.429  31.108  30.528  1.00  0.00     0.031 A 
BRANCH  51  65
ATOM     65  C   UNL A   1      38.727  29.285  29.013  1.00  0.00    -0.014 A 
ATOM     66  C   UNL A   1      38.216  29.776  27.800  1.00  0.00     0.009 A 
ATOM     67  C   UNL A   1      37.852  29.097  30.093  1.00  0.00     0.009 A 
ATOM     68  C   UNL A   1      36.865  30.110  27.687  1.00  0.00     0.001 A 
ATOM     69  C   UNL A   1      36.496  29.406  29.968  1.00  0.00     0.001 A 
ATOM     70  C   UNL A   1      36.006  29.920  28.768  1.00  0.00     0.000 A 
ENDBRANCH  51  65
BRANCH  52  71
ATOM     71  C   UNL A   1      48.325  26.604  29.477  1.00  0.00    -0.014 A 
ATOM     72  C   UNL A   1      49.151  26.839  28.368  1.00  0.00     0.009 A 
ATOM     73  C   UNL A   1      48.877  26.006  30.621  1.00  0.00     0.009 A 
ATOM     74  C   UNL A   1      50.496  26.463  28.395  1.00  0.00     0.001 A 
ATOM     75  C   UNL A   1      50.228  25.654  30.653  1.00  0.00     0.001 A 
ATOM     76  C   UNL A   1      51.035  25.874  29.538  1.00  0.00     0.000 A 
ENDBRANCH  52  71
BRANCH  64  77
ATOM     77  C   UNL A   1      44.874  32.428  31.084  1.00  0.00    -0.014 A 
ATOM     78  C   UNL A   1      45.265  33.478  30.239  1.00  0.00     0.009 A 
ATOM     79  C   UNL A   1      44.853  32.639  32.472  1.00  0.00     0.009 A 
ATOM     80  C   UNL A   1      45.652  34.706  30.777  1.00  0.00     0.001 A 
ATOM     81  C   UNL A   1      45.216  33.875  33.005  1.00  0.00     0.001 A 
ATOM     82  C   UNL A   1      45.622  34.906  32.158  1.00  0.00     0.000 A 
ENDBRANCH  64  77
ENDBRANCH  38  39
ENDBRANCH  30  33
ENDBRANCH  28  29
ENDBRANCH  27  28
ENDBRANCH   1  27
TORSDOF 13
ENDMDL
MODEL 2
REMARK VINA RESULT:     -12.4      2.015      7.658
REMARK SMILES O=C(NCCCNC(=O)c1ccc(-c2c3nc(c(-c4ccccc4)c4ccc([nH]4)c(-c4ccccc4)c4nc(c(-c5ccccc5)c5ccc2[nH]5)C=C4)C=C3)cc1)c1ccc(NS(=O)(=O)C2=Cc3ccccc3CC2)cc1
REMARK SMILES IDX 4 1 3 2 1 3 2 4 58 6 59 7 77 8 60 9 76 10 61 11 62 12 63 14
REMARK SMILES IDX 64 15 65 16 66 17 67 18 75 19 68 20 74 21 69 22 73 23 70 24
REMARK SMILES IDX 72 25 71 26 5 27 6 28 7 29 8 30 9 32 10 33 11 34 57 35 12 36
REMARK SMILES IDX 56 37 13 38 14 39 15 40 50 41 16 42 55 43 49 44 51 45 17 46
REMARK SMILES IDX 54 47 48 48 47 49 18 51 40 52 25 53 39 54 26 55 29 56 38 57
REMARK SMILES IDX 52 58 27 59 28 60 37 62 53 63 30 64 19 65 20 66 24 67 21 68
REMARK SMILES IDX 23 69 22 70 41 71 42 72 46 73 43 74 45 75 44 76 31 77 32 78
REMARK SMILES IDX 36 79 33 80 35 81 34 82
REMARK H PARENT 3 5 62 13 7 31 51 50 29 61
REMARK Flexibility Score: inf
ROOT
ATOM      1  C   UNL A   1      32.411  29.591  25.148  1.00  0.00     0.118 C 
ENDROOT
BRANCH   1   2
ATOM      2  N   UNL A   1      31.120  30.009  24.621  1.00  0.00    -0.352 N 
ATOM      3  O   UNL A   1      29.374  29.996  23.200  1.00  0.00    -0.269 OA
ATOM      4  C   UNL A   1      30.295  29.377  23.726  1.00  0.00     0.251 C 
ATOM      5  H   UNL A   1      30.791  30.875  24.955  1.00  0.00     0.163 HD
BRANCH   4   6
ATOM      6  C   UNL A   1      30.491  27.944  23.414  1.00  0.00     0.039 A 
ATOM      7  C   UNL A   1      31.230  27.565  22.293  1.00  0.00     0.016 A 
ATOM      8  C   UNL A   1      30.045  26.969  24.312  1.00  0.00     0.016 A 
ATOM      9  C   UNL A   1      31.474  26.219  22.038  1.00  0.00     0.027 A 
ATOM     10  C   UNL A   1      30.292  25.615  24.050  1.00  0.00     0.027 A 
ATOM     11  C   UNL A   1      30.991  25.235  22.899  1.00  0.00     0.049 A 
BRANCH  11  12
ATOM     12  N   UNL A   1      31.397  23.876  22.728  1.00  0.00    -0.280 N 
ATOM     13  H   UNL A   1      30.742  23.208  22.421  1.00  0.00     0.180 HD
BRANCH  12  14
ATOM     14  S   UNL A   1      33.000  23.395  23.045  1.00  0.00     0.258 S 
ATOM     15  O   UNL A   1      33.138  22.139  22.337  1.00  0.00    -0.202 OA
ATOM     16  O   UNL A   1      33.814  24.525  22.634  1.00  0.00    -0.202 OA
BRANCH  14  17
ATOM     17  C   UNL A   1      33.195  23.146  24.785  1.00  0.00     0.066 C 
ATOM     18  C   UNL A   1      33.889  22.047  25.157  1.00  0.00     0.026 C 
ATOM     19  C   UNL A   1      33.466  24.404  25.576  1.00  0.00     0.055 C 
ATOM     20  C   UNL A   1      35.349  22.276  25.358  1.00  0.00    -0.021 A 
ATOM     21  C   UNL A   1      34.948  24.787  25.468  1.00  0.00     0.041 C 
ATOM     22  C   UNL A   1      36.211  21.176  25.405  1.00  0.00     0.008 A 
ATOM     23  C   UNL A   1      35.866  23.583  25.480  1.00  0.00    -0.040 A 
ATOM     24  C   UNL A   1      37.587  21.373  25.516  1.00  0.00     0.001 A 
ATOM     25  C   UNL A   1      37.251  23.767  25.564  1.00  0.00     0.004 A 
ATOM     26  C   UNL A   1      38.107  22.666  25.576  1.00  0.00     0.000 A 
ENDBRANCH  14  17
ENDBRANCH  12  14
ENDBRANCH  11  12
ENDBRANCH   4   6
ENDBRANCH   1   2
BRANCH   1  27
ATOM     27  C   UNL A   1      32.287  28.999  26.543  1.00  0.00     0.042 C 
BRANCH  27  28
ATOM     28  C   UNL A   1      33.544  29.150  27.387  1.00  0.00     0.118 C 
BRANCH  28  29
ATOM     29  N   UNL A   1      33.660  30.467  28.001  1.00  0.00    -0.352 N 
ATOM     30  C   UNL A   1      34.699  31.028  28.705  1.00  0.00     0.251 C 
ATOM     31  H   UNL A   1      32.872  31.046  27.894  1.00  0.00     0.163 HD
ATOM     32  O   UNL A   1      34.534  32.091  29.296  1.00  0.00    -0.269 OA
BRANCH  30  33
ATOM     33  C   UNL A   1      36.003  30.337  28.780  1.00  0.00     0.039 A 
ATOM     34  C   UNL A   1      36.838  30.333  27.658  1.00  0.00     0.014 A 
ATOM     35  C   UNL A   1      36.412  29.706  29.956  1.00  0.00     0.014 A 
ATOM     36  C   UNL A   1      38.117  29.779  27.748  1.00  0.00     0.010 A 
ATOM     37  C   UNL A   1      37.717  29.248  30.076  1.00  0.00     0.010 A 
ATOM     38  C   UNL A   1      38.585  29.278  28.973  1.00  0.00    -0.014 A 
BRANCH  38  39
ATOM     39  C   UNL A   1      39.971  28.776  29.138  1.00  0.00     0.031 A 
ATOM     40  C   UNL A   1      41.051  29.702  29.630  1.00  0.00     0.074 A 
ATOM     41  C   UNL A   1      40.282  27.523  28.753  1.00  0.00     0.049 A 
ATOM     42  N   UNL A   1      42.340  29.495  29.715  1.00  0.00    -0.248 NA
ATOM     43  C   UNL A   1      40.629  31.049  30.049  1.00  0.00     0.031 C 
ATOM     44  C   UNL A   1      39.339  26.538  28.217  1.00  0.00     0.029 A 
ATOM     45  N   UNL A   1      41.487  26.867  28.740  1.00  0.00    -0.354 N 
ATOM     46  C   UNL A   1      42.884  30.694  30.161  1.00  0.00     0.074 A 
ATOM     47  C   UNL A   1      41.792  31.634  30.288  1.00  0.00     0.031 C 
ATOM     48  C   UNL A   1      39.996  25.398  27.951  1.00  0.00     0.029 A 
ATOM     49  C   UNL A   1      41.411  25.585  28.253  1.00  0.00     0.049 A 
ATOM     50  H   UNL A   1      42.326  27.276  29.050  1.00  0.00     0.167 HD
ATOM     51  C   UNL A   1      44.173  30.982  30.458  1.00  0.00     0.031 A 
ATOM     52  C   UNL A   1      42.375  24.665  28.059  1.00  0.00     0.031 A 
ATOM     53  C   UNL A   1      45.254  30.040  30.364  1.00  0.00     0.049 A 
ATOM     54  C   UNL A   1      43.797  25.006  28.404  1.00  0.00     0.074 A 
ATOM     55  C   UNL A   1      46.582  30.215  30.709  1.00  0.00     0.029 A 
ATOM     56  N   UNL A   1      45.127  28.743  29.892  1.00  0.00    -0.354 N 
ATOM     57  N   UNL A   1      44.285  26.125  28.881  1.00  0.00    -0.248 NA
ATOM     58  C   UNL A   1      44.800  23.953  28.188  1.00  0.00     0.031 C 
ATOM     59  C   UNL A   1      47.269  29.034  30.410  1.00  0.00     0.029 A 
ATOM     60  C   UNL A   1      46.358  28.111  29.921  1.00  0.00     0.049 A 
ATOM     61  H   UNL A   1      44.288  28.332  29.584  1.00  0.00     0.167 HD
ATOM     62  C   UNL A   1      45.645  25.903  29.048  1.00  0.00     0.074 A 
ATOM     63  C   UNL A   1      45.903  24.540  28.631  1.00  0.00     0.031 C 
ATOM     64  C   UNL A   1      46.596  26.753  29.506  1.00  0.00     0.031 A 
BRANCH  51  65
ATOM     65  C   UNL A   1      44.480  32.381  30.912  1.00  0.00    -0.014 A 
ATOM     66  C   UNL A   1      44.791  33.393  29.989  1.00  0.00     0.009 A 
ATOM     67  C   UNL A   1      44.431  32.698  32.277  1.00  0.00     0.009 A 
ATOM     68  C   UNL A   1      45.085  34.685  30.429  1.00  0.00     0.001 A 
ATOM     69  C   UNL A   1      44.698  33.997  32.713  1.00  0.00     0.001 A 
ATOM     70  C   UNL A   1      45.034  34.987  31.789  1.00  0.00     0.000 A 
ENDBRANCH  51  65
BRANCH  52  71
ATOM     71  C   UNL A   1      42.027  23.325  27.523  1.00  0.00    -0.014 A 
ATOM     72  C   UNL A   1      41.481  22.345  28.368  1.00  0.00     0.009 A 
ATOM     73  C   UNL A   1      42.237  23.015  26.171  1.00  0.00     0.009 A 
ATOM     74  C   UNL A   1      41.175  21.076  27.873  1.00  0.00     0.001 A 
ATOM     75  C   UNL A   1      41.906  21.752  25.674  1.00  0.00     0.001 A 
ATOM     76  C   UNL A   1      41.383  20.781  26.526  1.00  0.00     0.000 A 
ENDBRANCH  52  71
BRANCH  64  77
ATOM     77  C   UNL A   1      47.996  26.223  29.615  1.00  0.00    -0.014 A 
ATOM     78  C   UNL A   1      48.872  26.255  28.520  1.00  0.00     0.009 A 
ATOM     79  C   UNL A   1      48.457  25.733  30.847  1.00  0.00     0.009 A 
ATOM     80  C   UNL A   1      50.178  25.780  28.651  1.00  0.00     0.001 A 
ATOM     81  C   UNL A   1      49.770  25.282  30.981  1.00  0.00     0.001 A 
ATOM     82  C   UNL A   1      50.628  25.299  29.881  1.00  0.00     0.000 A 
ENDBRANCH  64  77
ENDBRANCH  38  39
ENDBRANCH  30  33
ENDBRANCH  28  29
ENDBRANCH  27  28
ENDBRANCH   1  27
TORSDOF 13
ENDMDL
MODEL 3
REMARK VINA RESULT:     -12.3      0.905      5.954
REMARK SMILES O=C(NCCCNC(=O)c1ccc(-c2c3nc(c(-c4ccccc4)c4ccc([nH]4)c(-c4ccccc4)c4nc(c(-c5ccccc5)c5ccc2[nH]5)C=C4)C=C3)cc1)c1ccc(NS(=O)(=O)C2=Cc3ccccc3CC2)cc1
REMARK SMILES IDX 4 1 3 2 1 3 2 4 58 6 59 7 77 8 60 9 76 10 61 11 62 12 63 14
REMARK SMILES IDX 64 15 65 16 66 17 67 18 75 19 68 20 74 21 69 22 73 23 70 24
REMARK SMILES IDX 72 25 71 26 5 27 6 28 7 29 8 30 9 32 10 33 11 34 57 35 12 36
REMARK SMILES IDX 56 37 13 38 14 39 15 40 50 41 16 42 55 43 49 44 51 45 17 46
REMARK SMILES IDX 54 47 48 48 47 49 18 51 40 52 25 53 39 54 26 55 29 56 38 57
REMARK SMILES IDX 52 58 27 59 28 60 37 62 53 63 30 64 19 65 20 66 24 67 21 68
REMARK SMILES IDX 23 69 22 70 41 71 42 72 46 73 43 74 45 75 44 76 31 77 32 78
REMARK SMILES IDX 36 79 33 80 35 81 34 82
REMARK H PARENT 3 5 62 13 7 31 51 50 29 61
REMARK Flexibility Score: inf
ROOT
ATOM      1  C   UNL A   1      35.914  20.911  25.216  1.00  0.00     0.118 C 
ENDROOT
BRANCH   1   2
ATOM      2  N   UNL A   1      34.877  19.904  25.389  1.00  0.00    -0.352 N 
ATOM      3  O   UNL A   1      32.782  19.136  25.681  1.00  0.00    -0.269 OA
ATOM      4  C   UNL A   1      33.518  20.015  25.243  1.00  0.00     0.251 C 
ATOM      5  H   UNL A   1      35.199  19.011  25.651  1.00  0.00     0.163 HD
BRANCH   4   6
ATOM      6  C   UNL A   1      32.936  21.175  24.533  1.00  0.00     0.039 A 
ATOM      7  C   UNL A   1      32.496  22.288  25.251  1.00  0.00     0.016 A 
ATOM      8  C   UNL A   1      32.943  21.211  23.136  1.00  0.00     0.016 A 
ATOM      9  C   UNL A   1      32.014  23.408  24.580  1.00  0.00     0.027 A 
ATOM     10  C   UNL A   1      32.456  22.340  22.464  1.00  0.00     0.027 A 
ATOM     11  C   UNL A   1      31.969  23.436  23.187  1.00  0.00     0.049 A 
BRANCH  11  12
ATOM     12  N   UNL A   1      31.643  24.650  22.508  1.00  0.00    -0.280 N 
ATOM     13  H   UNL A   1      30.706  24.838  22.273  1.00  0.00     0.180 HD
BRANCH  12  14
ATOM     14  S   UNL A   1      32.853  25.777  22.102  1.00  0.00     0.258 S 
ATOM     15  O   UNL A   1      33.954  25.445  22.982  1.00  0.00    -0.202 OA
ATOM     16  O   UNL A   1      33.031  25.629  20.669  1.00  0.00    -0.202 OA
BRANCH  14  17
ATOM     17  C   UNL A   1      32.262  27.409  22.444  1.00  0.00     0.066 C 
ATOM     18  C   UNL A   1      31.374  27.521  23.458  1.00  0.00     0.026 C 
ATOM     19  C   UNL A   1      33.310  28.492  22.352  1.00  0.00     0.055 C 
ATOM     20  C   UNL A   1      31.987  27.820  24.784  1.00  0.00    -0.021 A 
ATOM     21  C   UNL A   1      34.145  28.529  23.638  1.00  0.00     0.041 C 
ATOM     22  C   UNL A   1      31.229  27.624  25.944  1.00  0.00     0.008 A 
ATOM     23  C   UNL A   1      33.318  28.276  24.881  1.00  0.00    -0.040 A 
ATOM     24  C   UNL A   1      31.808  27.825  27.197  1.00  0.00     0.001 A 
ATOM     25  C   UNL A   1      33.895  28.447  26.145  1.00  0.00     0.004 A 
ATOM     26  C   UNL A   1      33.143  28.216  27.297  1.00  0.00     0.000 A 
ENDBRANCH  14  17
ENDBRANCH  12  14
ENDBRANCH  11  12
ENDBRANCH   4   6
ENDBRANCH   1   2
BRANCH   1  27
ATOM     27  C   UNL A   1      37.228  20.298  24.760  1.00  0.00     0.042 C 
BRANCH  27  28
ATOM     28  C   UNL A   1      38.426  20.725  25.594  1.00  0.00     0.118 C 
BRANCH  28  29
ATOM     29  N   UNL A   1      39.452  19.693  25.683  1.00  0.00    -0.352 N 
ATOM     30  C   UNL A   1      40.778  19.789  26.034  1.00  0.00     0.251 C 
ATOM     31  H   UNL A   1      39.148  18.784  25.457  1.00  0.00     0.163 HD
ATOM     32  O   UNL A   1      41.524  18.827  25.875  1.00  0.00    -0.269 OA
BRANCH  30  33
ATOM     33  C   UNL A   1      41.314  21.058  26.568  1.00  0.00     0.039 A 
ATOM     34  C   UNL A   1      41.903  21.972  25.690  1.00  0.00     0.014 A 
ATOM     35  C   UNL A   1      41.223  21.356  27.929  1.00  0.00     0.014 A 
ATOM     36  C   UNL A   1      42.315  23.220  26.163  1.00  0.00     0.010 A 
ATOM     37  C   UNL A   1      41.538  22.631  28.378  1.00  0.00     0.010 A 
ATOM     38  C   UNL A   1      42.088  23.579  27.501  1.00  0.00    -0.014 A 
BRANCH  38  39
ATOM     39  C   UNL A   1      42.415  24.930  28.019  1.00  0.00     0.031 A 
ATOM     40  C   UNL A   1      43.817  25.241  28.468  1.00  0.00     0.074 A 
ATOM     41  C   UNL A   1      41.438  25.843  28.178  1.00  0.00     0.049 A 
ATOM     42  N   UNL A   1      44.273  26.311  29.070  1.00  0.00    -0.248 NA
ATOM     43  C   UNL A   1      44.832  24.199  28.244  1.00  0.00     0.031 C 
ATOM     44  C   UNL A   1      40.029  25.654  27.824  1.00  0.00     0.029 A 
ATOM     45  N   UNL A   1      41.480  27.114  28.696  1.00  0.00    -0.354 N 
ATOM     46  C   UNL A   1      45.615  26.054  29.325  1.00  0.00     0.074 A 
ATOM     47  C   UNL A   1      45.889  24.714  28.854  1.00  0.00     0.031 C 
ATOM     48  C   UNL A   1      39.347  26.774  28.113  1.00  0.00     0.029 A 
ATOM     49  C   UNL A   1      40.259  27.743  28.713  1.00  0.00     0.049 A 
ATOM     50  H   UNL A   1      42.307  27.534  29.024  1.00  0.00     0.167 HD
ATOM     51  C   UNL A   1      46.542  26.866  29.885  1.00  0.00     0.031 A 
ATOM     52  C   UNL A   1      39.909  28.959  29.172  1.00  0.00     0.031 A 
ATOM     53  C   UNL A   1      46.280  28.209  30.325  1.00  0.00     0.049 A 
ATOM     54  C   UNL A   1      40.958  29.846  29.781  1.00  0.00     0.074 A 
ATOM     55  C   UNL A   1      47.169  29.136  30.838  1.00  0.00     0.029 A 
ATOM     56  N   UNL A   1      45.035  28.816  30.297  1.00  0.00    -0.354 N 
ATOM     57  N   UNL A   1      42.234  29.610  29.960  1.00  0.00    -0.248 NA
ATOM     58  C   UNL A   1      40.516  31.169  30.245  1.00  0.00     0.031 C 
ATOM     59  C   UNL A   1      46.453  30.294  31.159  1.00  0.00     0.029 A 
ATOM     60  C   UNL A   1      45.128  30.102  30.802  1.00  0.00     0.049 A 
ATOM     61  H   UNL A   1      44.208  28.397  29.967  1.00  0.00     0.167 HD
ATOM     62  C   UNL A   1      42.754  30.763  30.533  1.00  0.00     0.074 A 
ATOM     63  C   UNL A   1      41.658  31.700  30.661  1.00  0.00     0.031 C 
ATOM     64  C   UNL A   1      44.028  31.022  30.918  1.00  0.00     0.031 A 
BRANCH  51  65
ATOM     65  C   UNL A   1      47.930  26.316  30.053  1.00  0.00    -0.014 A 
ATOM     66  C   UNL A   1      48.342  25.740  31.266  1.00  0.00     0.009 A 
ATOM     67  C   UNL A   1      48.829  26.348  28.976  1.00  0.00     0.009 A 
ATOM     68  C   UNL A   1      49.640  25.244  31.408  1.00  0.00     0.001 A 
ATOM     69  C   UNL A   1      50.116  25.826  29.113  1.00  0.00     0.001 A 
ATOM     70  C   UNL A   1      50.523  25.283  30.331  1.00  0.00     0.000 A 
ENDBRANCH  51  65
BRANCH  52  71
ATOM     71  C   UNL A   1      38.501  29.418  29.059  1.00  0.00    -0.014 A 
ATOM     72  C   UNL A   1      37.626  29.294  30.150  1.00  0.00     0.009 A 
ATOM     73  C   UNL A   1      38.023  29.980  27.866  1.00  0.00     0.009 A 
ATOM     74  C   UNL A   1      36.296  29.703  30.039  1.00  0.00     0.001 A 
ATOM     75  C   UNL A   1      36.698  30.411  27.767  1.00  0.00     0.001 A 
ATOM     76  C   UNL A   1      35.833  30.265  28.850  1.00  0.00     0.000 A 
ENDBRANCH  52  71
BRANCH  64  77
ATOM     77  C   UNL A   1      44.311  32.384  31.480  1.00  0.00    -0.014 A 
ATOM     78  C   UNL A   1      44.651  33.458  30.644  1.00  0.00     0.009 A 
ATOM     79  C   UNL A   1      44.183  32.605  32.861  1.00  0.00     0.009 A 
ATOM     80  C   UNL A   1      44.885  34.724  31.186  1.00  0.00     0.001 A 
ATOM     81  C   UNL A   1      44.393  33.876  33.395  1.00  0.00     0.001 A 
ATOM     82  C   UNL A   1      44.751  34.932  32.560  1.00  0.00     0.000 A 
ENDBRANCH  64  77
ENDBRANCH  38  39
ENDBRANCH  30  33
ENDBRANCH  28  29
ENDBRANCH  27  28
ENDBRANCH   1  27
TORSDOF 13
ENDMDL
