MODEL 1
REMARK VINA RESULT:     -11.5      0.000      0.000
REMARK SMILES COc1ccc2cc([C@H](C)C(=O)NCCCNC(=O)c3ccc(-c4c5nc(c(-c6ccccc6)c6ccc([nH]6)c(-c6ccccc6)c6nc(c(-c7ccccc7)c7ccc4[nH]7)C=C6)C=C5)cc3)ccc2c1
REMARK SMILES IDX 15 1 14 2 13 3 11 4 12 5 9 7 10 8 8 9 3 10 4 11 71 12 5 13
REMARK SMILES IDX 70 14 6 15 69 16 7 17 68 18 2 19 1 20 16 21 17 22 18 23
REMARK SMILES IDX 19 25 20 26 21 27 67 28 22 29 66 30 23 31 24 32 25 33 60 34
REMARK SMILES IDX 26 35 65 36 59 37 61 38 27 39 64 40 58 41 57 42 28 44 50 45
REMARK SMILES IDX 35 46 49 47 36 48 39 49 48 50 62 51 37 52 38 53 47 55 63 56
REMARK SMILES IDX 40 57 29 58 30 59 34 60 31 61 33 62 32 63 51 64 52 65 56 66
REMARK SMILES IDX 53 67 55 68 54 69 41 70 42 71 46 72 43 73 45 74 44 75
REMARK H PARENT 13 6 17 24 61 43 39 54
REMARK Flexibility Score: inf
ROOT
ATOM      1  C   UNL A   1      33.331  27.365  26.471  1.00  0.00     0.042 C 
ENDROOT
BRANCH   1   2
ATOM      2  C   UNL A   1      31.851  27.691  26.415  1.00  0.00     0.117 C 
BRANCH   2   3
ATOM      3  N   UNL A   1      31.014  26.567  26.794  1.00  0.00    -0.356 N 
ATOM      4  C   UNL A   1      30.539  25.536  26.035  1.00  0.00     0.227 C 
ATOM      5  O   UNL A   1      29.907  24.648  26.615  1.00  0.00    -0.274 OA
ATOM      6  H   UNL A   1      30.749  26.545  27.742  1.00  0.00     0.163 HD
BRANCH   4   7
ATOM      7  C   UNL A   1      30.759  25.481  24.512  1.00  0.00     0.105 C 
ATOM      8  C   UNL A   1      30.777  24.016  24.063  1.00  0.00     0.023 C 
BRANCH   7   9
ATOM      9  C   UNL A   1      29.822  26.444  23.785  1.00  0.00    -0.035 A 
ATOM     10  C   UNL A   1      28.202  30.914  22.038  1.00  0.00     0.119 A 
ATOM     11  C   UNL A   1      29.527  30.807  21.625  1.00  0.00     0.047 A 
ATOM     12  C   UNL A   1      27.590  29.856  22.710  1.00  0.00     0.055 A 
ATOM     13  C   UNL A   1      30.250  29.645  21.907  1.00  0.00     0.012 A 
ATOM     14  C   UNL A   1      28.295  28.673  22.973  1.00  0.00    -0.015 A 
ATOM     15  C   UNL A   1      29.654  28.585  22.607  1.00  0.00    -0.018 A 
ATOM     16  C   UNL A   1      27.689  27.586  23.617  1.00  0.00     0.009 A 
ATOM     17  C   UNL A   1      30.400  27.469  23.013  1.00  0.00     0.013 A 
ATOM     18  C   UNL A   1      28.436  26.464  23.984  1.00  0.00     0.005 A 
BRANCH  10  19
ATOM     19  O   UNL A   1      27.462  32.056  21.902  1.00  0.00    -0.497 OA
ATOM     20  C   UNL A   1      27.746  32.764  20.699  1.00  0.00     0.278 C 
ENDBRANCH  10  19
ENDBRANCH   7   9
ENDBRANCH   4   7
ENDBRANCH   2   3
ENDBRANCH   1   2
BRANCH   1  21
ATOM     21  C   UNL A   1      34.212  28.494  25.974  1.00  0.00     0.118 C 
BRANCH  21  22
ATOM     22  N   UNL A   1      33.816  29.792  26.512  1.00  0.00    -0.352 N 
ATOM     23  C   UNL A   1      34.396  30.559  27.491  1.00  0.00     0.251 C 
ATOM     24  H   UNL A   1      33.004  30.177  26.111  1.00  0.00     0.163 HD
ATOM     25  O   UNL A   1      33.801  31.536  27.939  1.00  0.00    -0.269 OA
BRANCH  23  26
ATOM     26  C   UNL A   1      35.725  30.200  28.027  1.00  0.00     0.039 A 
ATOM     27  C   UNL A   1      35.823  29.710  29.332  1.00  0.00     0.014 A 
ATOM     28  C   UNL A   1      36.874  30.342  27.246  1.00  0.00     0.014 A 
ATOM     29  C   UNL A   1      37.061  29.292  29.822  1.00  0.00     0.010 A 
ATOM     30  C   UNL A   1      38.082  29.821  27.693  1.00  0.00     0.010 A 
ATOM     31  C   UNL A   1      38.191  29.301  28.990  1.00  0.00    -0.014 A 
BRANCH  31  32
ATOM     32  C   UNL A   1      39.502  28.782  29.455  1.00  0.00     0.031 A 
ATOM     33  C   UNL A   1      40.355  29.608  30.379  1.00  0.00     0.074 A 
ATOM     34  C   UNL A   1      39.957  27.604  28.985  1.00  0.00     0.049 A 
ATOM     35  N   UNL A   1      41.555  29.359  30.837  1.00  0.00    -0.248 NA
ATOM     36  C   UNL A   1      39.800  30.898  30.823  1.00  0.00     0.031 C 
ATOM     37  C   UNL A   1      39.248  26.732  28.045  1.00  0.00     0.029 A 
ATOM     38  N   UNL A   1      41.133  26.940  29.230  1.00  0.00    -0.354 N 
ATOM     39  C   UNL A   1      41.905  30.467  31.599  1.00  0.00     0.074 A 
ATOM     40  C   UNL A   1      40.817  31.413  31.496  1.00  0.00     0.031 C 
ATOM     41  C   UNL A   1      39.989  25.636  27.819  1.00  0.00     0.029 A 
ATOM     42  C   UNL A   1      41.243  25.749  28.555  1.00  0.00     0.049 A 
ATOM     43  H   UNL A   1      41.831  27.285  29.832  1.00  0.00     0.167 HD
ATOM     44  C   UNL A   1      43.021  30.671  32.336  1.00  0.00     0.031 A 
ATOM     45  C   UNL A   1      42.246  24.850  28.525  1.00  0.00     0.031 A 
ATOM     46  C   UNL A   1      44.097  29.723  32.447  1.00  0.00     0.049 A 
ATOM     47  C   UNL A   1      43.480  25.104  29.345  1.00  0.00     0.074 A 
ATOM     48  C   UNL A   1      45.241  29.805  33.221  1.00  0.00     0.029 A 
ATOM     49  N   UNL A   1      44.163  28.522  31.758  1.00  0.00    -0.354 N 
ATOM     50  N   UNL A   1      43.761  26.120  30.124  1.00  0.00    -0.248 NA
ATOM     51  C   UNL A   1      44.530  24.078  29.290  1.00  0.00     0.031 C 
ATOM     52  C   UNL A   1      46.030  28.683  32.952  1.00  0.00     0.029 A 
ATOM     53  C   UNL A   1      45.345  27.868  32.065  1.00  0.00     0.049 A 
ATOM     54  H   UNL A   1      43.474  28.183  31.143  1.00  0.00     0.167 HD
ATOM     55  C   UNL A   1      45.005  25.843  30.675  1.00  0.00     0.074 A 
ATOM     56  C   UNL A   1      45.416  24.557  30.153  1.00  0.00     0.031 C 
ATOM     57  C   UNL A   1      45.742  26.589  31.535  1.00  0.00     0.031 A 
BRANCH  44  58
ATOM     58  C   UNL A   1      43.139  31.979  33.070  1.00  0.00    -0.014 A 
ATOM     59  C   UNL A   1      43.730  33.105  32.472  1.00  0.00     0.009 A 
ATOM     60  C   UNL A   1      42.625  32.096  34.371  1.00  0.00     0.009 A 
ATOM     61  C   UNL A   1      43.841  34.306  33.175  1.00  0.00     0.001 A 
ATOM     62  C   UNL A   1      42.706  33.309  35.059  1.00  0.00     0.001 A 
ATOM     63  C   UNL A   1      43.323  34.408  34.467  1.00  0.00     0.000 A 
ENDBRANCH  44  58
BRANCH  45  64
ATOM     64  C   UNL A   1      42.119  23.622  27.696  1.00  0.00    -0.014 A 
ATOM     65  C   UNL A   1      41.517  22.468  28.217  1.00  0.00     0.009 A 
ATOM     66  C   UNL A   1      42.603  23.599  26.379  1.00  0.00     0.009 A 
ATOM     67  C   UNL A   1      41.427  21.306  27.445  1.00  0.00     0.001 A 
ATOM     68  C   UNL A   1      42.483  22.447  25.598  1.00  0.00     0.001 A 
ATOM     69  C   UNL A   1      41.904  21.299  26.135  1.00  0.00     0.000 A 
ENDBRANCH  45  64
BRANCH  57  70
ATOM     70  C   UNL A   1      47.051  26.013  31.998  1.00  0.00    -0.014 A 
ATOM     71  C   UNL A   1      47.150  25.282  33.192  1.00  0.00     0.009 A 
ATOM     72  C   UNL A   1      48.196  26.169  31.200  1.00  0.00     0.009 A 
ATOM     73  C   UNL A   1      48.376  24.750  33.594  1.00  0.00     0.001 A 
ATOM     74  C   UNL A   1      49.413  25.607  31.588  1.00  0.00     0.001 A 
ATOM     75  C   UNL A   1      49.504  24.908  32.789  1.00  0.00     0.000 A 
ENDBRANCH  57  70
ENDBRANCH  31  32
ENDBRANCH  23  26
ENDBRANCH  21  22
ENDBRANCH   1  21
TORSDOF 12
ENDMDL
MODEL 2
REMARK VINA RESULT:     -11.4      2.996      7.806
REMARK SMILES COc1ccc2cc([C@H](C)C(=O)NCCCNC(=O)c3ccc(-c4c5nc(c(-c6ccccc6)c6ccc([nH]6)c(-c6ccccc6)c6nc(c(-c7ccccc7)c7ccc4[nH]7)C=C6)C=C5)cc3)ccc2c1
REMARK SMILES IDX 15 1 14 2 13 3 11 4 12 5 9 7 10 8 8 9 3 10 4 11 71 12 5 13
REMARK SMILES IDX 70 14 6 15 69 16 7 17 68 18 2 19 1 20 16 21 17 22 18 23
REMARK SMILES IDX 19 25 20 26 21 27 67 28 22 29 66 30 23 31 24 32 25 33 60 34
REMARK SMILES IDX 26 35 65 36 59 37 61 38 27 39 64 40 58 41 57 42 28 44 50 45
REMARK SMILES IDX 35 46 49 47 36 48 39 49 48 50 62 51 37 52 38 53 47 55 63 56
REMARK SMILES IDX 40 57 29 58 30 59 34 60 31 61 33 62 32 63 51 64 52 65 56 66
REMARK SMILES IDX 53 67 55 68 54 69 41 70 42 71 46 72 43 73 45 74 44 75
REMARK H PARENT 13 6 17 24 61 43 39 54
REMARK Flexibility Score: inf
ROOT
ATOM      1  C   UNL A   1      37.736  19.745  24.959  1.00  0.00     0.042 C 
ENDROOT
BRANCH   1   2
ATOM      2  C   UNL A   1      36.587  20.727  24.840  1.00  0.00     0.117 C 
BRANCH   2   3
ATOM      3  N   UNL A   1      35.346  20.210  25.388  1.00  0.00    -0.356 N 
ATOM      4  C   UNL A   1      34.055  20.564  25.119  1.00  0.00     0.227 C 
ATOM      5  O   UNL A   1      33.160  19.911  25.662  1.00  0.00    -0.274 OA
ATOM      6  H   UNL A   1      35.452  19.494  26.057  1.00  0.00     0.163 HD
BRANCH   4   7
ATOM      7  C   UNL A   1      33.715  21.745  24.190  1.00  0.00     0.105 C 
ATOM      8  C   UNL A   1      32.457  21.402  23.387  1.00  0.00     0.023 C 
BRANCH   7   9
ATOM      9  C   UNL A   1      33.745  23.070  24.950  1.00  0.00    -0.035 A 
ATOM     10  C   UNL A   1      32.157  27.685  26.302  1.00  0.00     0.119 A 
ATOM     11  C   UNL A   1      31.044  26.857  26.417  1.00  0.00     0.047 A 
ATOM     12  C   UNL A   1      33.397  27.149  25.958  1.00  0.00     0.055 A 
ATOM     13  C   UNL A   1      31.169  25.489  26.163  1.00  0.00     0.012 A 
ATOM     14  C   UNL A   1      33.543  25.773  25.729  1.00  0.00    -0.015 A 
ATOM     15  C   UNL A   1      32.406  24.941  25.789  1.00  0.00    -0.018 A 
ATOM     16  C   UNL A   1      34.787  25.210  25.414  1.00  0.00     0.009 A 
ATOM     17  C   UNL A   1      32.522  23.597  25.404  1.00  0.00     0.013 A 
ATOM     18  C   UNL A   1      34.894  23.861  25.067  1.00  0.00     0.005 A 
BRANCH  10  19
ATOM     19  O   UNL A   1      32.095  29.046  26.422  1.00  0.00    -0.497 OA
ATOM     20  C   UNL A   1      32.900  29.729  25.466  1.00  0.00     0.278 C 
ENDBRANCH  10  19
ENDBRANCH   7   9
ENDBRANCH   4   7
ENDBRANCH   2   3
ENDBRANCH   1   2
BRANCH   1  21
ATOM     21  C   UNL A   1      38.926  20.305  25.712  1.00  0.00     0.118 C 
BRANCH  21  22
ATOM     22  N   UNL A   1      40.032  19.357  25.795  1.00  0.00    -0.352 N 
ATOM     23  C   UNL A   1      41.355  19.563  26.098  1.00  0.00     0.251 C 
ATOM     24  H   UNL A   1      39.792  18.421  25.602  1.00  0.00     0.163 HD
ATOM     25  O   UNL A   1      42.172  18.662  25.927  1.00  0.00    -0.269 OA
BRANCH  23  26
ATOM     26  C   UNL A   1      41.805  20.875  26.607  1.00  0.00     0.039 A 
ATOM     27  C   UNL A   1      42.228  21.848  25.699  1.00  0.00     0.014 A 
ATOM     28  C   UNL A   1      41.807  21.149  27.976  1.00  0.00     0.014 A 
ATOM     29  C   UNL A   1      42.578  23.118  26.160  1.00  0.00     0.010 A 
ATOM     30  C   UNL A   1      42.046  22.443  28.422  1.00  0.00     0.010 A 
ATOM     31  C   UNL A   1      42.446  23.439  27.520  1.00  0.00    -0.014 A 
BRANCH  31  32
ATOM     32  C   UNL A   1      42.728  24.805  28.027  1.00  0.00     0.031 A 
ATOM     33  C   UNL A   1      44.122  25.177  28.455  1.00  0.00     0.074 A 
ATOM     34  C   UNL A   1      41.718  25.683  28.173  1.00  0.00     0.049 A 
ATOM     35  N   UNL A   1      44.551  26.292  28.988  1.00  0.00    -0.248 NA
ATOM     36  C   UNL A   1      45.165  24.150  28.293  1.00  0.00     0.031 C 
ATOM     37  C   UNL A   1      40.314  25.428  27.842  1.00  0.00     0.029 A 
ATOM     38  N   UNL A   1      41.716  26.972  28.649  1.00  0.00    -0.354 N 
ATOM     39  C   UNL A   1      45.902  26.092  29.245  1.00  0.00     0.074 A 
ATOM     40  C   UNL A   1      46.209  24.732  28.863  1.00  0.00     0.031 C 
ATOM     41  C   UNL A   1      39.595  26.533  28.095  1.00  0.00     0.029 A 
ATOM     42  C   UNL A   1      40.474  27.556  28.649  1.00  0.00     0.049 A 
ATOM     43  H   UNL A   1      42.530  27.432  28.959  1.00  0.00     0.167 HD
ATOM     44  C   UNL A   1      46.812  26.967  29.734  1.00  0.00     0.031 A 
ATOM     45  C   UNL A   1      40.083  28.778  29.061  1.00  0.00     0.031 A 
ATOM     46  C   UNL A   1      46.506  28.324  30.100  1.00  0.00     0.049 A 
ATOM     47  C   UNL A   1      41.110  29.729  29.609  1.00  0.00     0.074 A 
ATOM     48  C   UNL A   1      47.369  29.311  30.543  1.00  0.00     0.029 A 
ATOM     49  N   UNL A   1      45.238  28.881  30.074  1.00  0.00    -0.354 N 
ATOM     50  N   UNL A   1      42.399  29.551  29.770  1.00  0.00    -0.248 NA
ATOM     51  C   UNL A   1      40.628  31.054  30.021  1.00  0.00     0.031 C 
ATOM     52  C   UNL A   1      46.613  30.448  30.844  1.00  0.00     0.029 A 
ATOM     53  C   UNL A   1      45.290  30.190  30.523  1.00  0.00     0.049 A 
ATOM     54  H   UNL A   1      44.421  28.417  29.780  1.00  0.00     0.167 HD
ATOM     55  C   UNL A   1      42.887  30.750  30.274  1.00  0.00     0.074 A 
ATOM     56  C   UNL A   1      41.758  31.651  30.375  1.00  0.00     0.031 C 
ATOM     57  C   UNL A   1      44.156  31.075  30.621  1.00  0.00     0.031 A 
BRANCH  44  58
ATOM     58  C   UNL A   1      48.222  26.475  29.912  1.00  0.00    -0.014 A 
ATOM     59  C   UNL A   1      48.635  25.844  31.098  1.00  0.00     0.009 A 
ATOM     60  C   UNL A   1      49.146  26.618  28.865  1.00  0.00     0.009 A 
ATOM     61  C   UNL A   1      49.952  25.407  31.247  1.00  0.00     0.001 A 
ATOM     62  C   UNL A   1      50.454  26.149  29.005  1.00  0.00     0.001 A 
ATOM     63  C   UNL A   1      50.859  25.554  30.198  1.00  0.00     0.000 A 
ENDBRANCH  44  58
BRANCH  45  64
ATOM     64  C   UNL A   1      38.653  29.174  28.961  1.00  0.00    -0.014 A 
ATOM     65  C   UNL A   1      37.791  29.023  30.057  1.00  0.00     0.009 A 
ATOM     66  C   UNL A   1      38.142  29.704  27.765  1.00  0.00     0.009 A 
ATOM     67  C   UNL A   1      36.441  29.368  29.950  1.00  0.00     0.001 A 
ATOM     68  C   UNL A   1      36.800  30.078  27.671  1.00  0.00     0.001 A 
ATOM     69  C   UNL A   1      35.948  29.901  28.760  1.00  0.00     0.000 A 
ENDBRANCH  45  64
BRANCH  57  70
ATOM     70  C   UNL A   1      44.400  32.477  31.107  1.00  0.00    -0.014 A 
ATOM     71  C   UNL A   1      44.351  32.798  32.472  1.00  0.00     0.009 A 
ATOM     72  C   UNL A   1      44.727  33.481  30.182  1.00  0.00     0.009 A 
ATOM     73  C   UNL A   1      44.591  34.106  32.896  1.00  0.00     0.001 A 
ATOM     74  C   UNL A   1      44.999  34.780  30.613  1.00  0.00     0.001 A 
ATOM     75  C   UNL A   1      44.920  35.094  31.968  1.00  0.00     0.000 A 
ENDBRANCH  57  70
ENDBRANCH  31  32
ENDBRANCH  23  26
ENDBRANCH  21  22
ENDBRANCH   1  21
TORSDOF 12
ENDMDL
MODEL 3
REMARK VINA RESULT:     -11.4      3.090      7.411
REMARK SMILES COc1ccc2cc([C@H](C)C(=O)NCCCNC(=O)c3ccc(-c4c5nc(c(-c6ccccc6)c6ccc([nH]6)c(-c6ccccc6)c6nc(c(-c7ccccc7)c7ccc4[nH]7)C=C6)C=C5)cc3)ccc2c1
REMARK SMILES IDX 15 1 14 2 13 3 11 4 12 5 9 7 10 8 8 9 3 10 4 11 71 12 5 13
REMARK SMILES IDX 70 14 6 15 69 16 7 17 68 18 2 19 1 20 16 21 17 22 18 23
REMARK SMILES IDX 19 25 20 26 21 27 67 28 22 29 66 30 23 31 24 32 25 33 60 34
REMARK SMILES IDX 26 35 65 36 59 37 61 38 27 39 64 40 58 41 57 42 28 44 50 45
REMARK SMILES IDX 35 46 49 47 36 48 39 49 48 50 62 51 37 52 38 53 47 55 63 56
REMARK SMILES IDX 40 57 29 58 30 59 34 60 31 61 33 62 32 63 51 64 52 65 56 66
REMARK SMILES IDX 53 67 55 68 54 69 41 70 42 71 46 72 43 73 45 74 44 75
REMARK H PARENT 13 6 17 24 61 43 39 54
REMARK Flexibility Score: inf
ROOT
ATOM      1  C   UNL A   1      37.431  20.262  24.960  1.00  0.00     0.042 C 
ENDROOT
BRANCH   1   2
ATOM      2  C   UNL A   1      36.329  21.303  24.940  1.00  0.00     0.117 C 
BRANCH   2   3
ATOM      3  N   UNL A   1      35.580  21.353  26.182  1.00  0.00    -0.356 N 
ATOM      4  C   UNL A   1      34.238  21.491  26.390  1.00  0.00     0.227 C 
ATOM      5  O   UNL A   1      33.831  21.421  27.554  1.00  0.00    -0.274 OA
ATOM      6  H   UNL A   1      36.123  21.275  27.000  1.00  0.00     0.163 HD
BRANCH   4   7
ATOM      7  C   UNL A   1      33.258  21.745  25.228  1.00  0.00     0.105 C 
ATOM      8  C   UNL A   1      32.315  20.545  25.100  1.00  0.00     0.023 C 
BRANCH   7   9
ATOM      9  C   UNL A   1      32.642  23.139  25.322  1.00  0.00    -0.035 A 
ATOM     10  C   UNL A   1      32.270  27.961  26.828  1.00  0.00     0.119 A 
ATOM     11  C   UNL A   1      33.566  27.819  26.339  1.00  0.00     0.047 A 
ATOM     12  C   UNL A   1      31.371  26.898  26.749  1.00  0.00     0.055 A 
ATOM     13  C   UNL A   1      33.970  26.599  25.791  1.00  0.00     0.012 A 
ATOM     14  C   UNL A   1      31.755  25.678  26.173  1.00  0.00    -0.015 A 
ATOM     15  C   UNL A   1      33.083  25.514  25.730  1.00  0.00    -0.018 A 
ATOM     16  C   UNL A   1      30.856  24.609  26.054  1.00  0.00     0.009 A 
ATOM     17  C   UNL A   1      33.509  24.247  25.304  1.00  0.00     0.013 A 
ATOM     18  C   UNL A   1      31.286  23.362  25.594  1.00  0.00     0.005 A 
BRANCH  10  19
ATOM     19  O   UNL A   1      31.831  29.080  27.480  1.00  0.00    -0.497 OA
ATOM     20  C   UNL A   1      32.148  30.287  26.793  1.00  0.00     0.278 C 
ENDBRANCH  10  19
ENDBRANCH   7   9
ENDBRANCH   4   7
ENDBRANCH   2   3
ENDBRANCH   1   2
BRANCH   1  21
ATOM     21  C   UNL A   1      38.675  20.721  25.694  1.00  0.00     0.118 C 
BRANCH  21  22
ATOM     22  N   UNL A   1      39.716  19.699  25.726  1.00  0.00    -0.352 N 
ATOM     23  C   UNL A   1      41.050  19.802  26.033  1.00  0.00     0.251 C 
ATOM     24  H   UNL A   1      39.414  18.793  25.489  1.00  0.00     0.163 HD
ATOM     25  O   UNL A   1      41.805  18.858  25.815  1.00  0.00    -0.269 OA
BRANCH  23  26
ATOM     26  C   UNL A   1      41.587  21.055  26.604  1.00  0.00     0.039 A 
ATOM     27  C   UNL A   1      42.089  22.034  25.743  1.00  0.00     0.014 A 
ATOM     28  C   UNL A   1      41.593  21.268  27.983  1.00  0.00     0.014 A 
ATOM     29  C   UNL A   1      42.524  23.254  26.263  1.00  0.00     0.010 A 
ATOM     30  C   UNL A   1      41.919  22.521  28.487  1.00  0.00     0.010 A 
ATOM     31  C   UNL A   1      42.399  23.524  27.634  1.00  0.00    -0.014 A 
BRANCH  31  32
ATOM     32  C   UNL A   1      42.772  24.843  28.203  1.00  0.00     0.031 A 
ATOM     33  C   UNL A   1      41.721  25.901  28.406  1.00  0.00     0.074 A 
ATOM     34  C   UNL A   1      44.065  25.115  28.464  1.00  0.00     0.049 A 
ATOM     35  N   UNL A   1      41.861  27.133  28.822  1.00  0.00    -0.248 NA
ATOM     36  C   UNL A   1      40.335  25.535  28.067  1.00  0.00     0.031 C 
ATOM     37  C   UNL A   1      45.186  24.193  28.263  1.00  0.00     0.029 A 
ATOM     38  N   UNL A   1      44.658  26.255  28.949  1.00  0.00    -0.354 N 
ATOM     39  C   UNL A   1      40.590  27.694  28.772  1.00  0.00     0.074 A 
ATOM     40  C   UNL A   1      39.704  26.688  28.232  1.00  0.00     0.031 C 
ATOM     41  C   UNL A   1      46.323  24.792  28.650  1.00  0.00     0.029 A 
ATOM     42  C   UNL A   1      46.021  26.153  29.080  1.00  0.00     0.049 A 
ATOM     43  H   UNL A   1      44.153  27.067  29.181  1.00  0.00     0.167 HD
ATOM     44  C   UNL A   1      40.192  28.928  29.160  1.00  0.00     0.031 A 
ATOM     45  C   UNL A   1      46.930  27.058  29.491  1.00  0.00     0.031 A 
ATOM     46  C   UNL A   1      41.073  29.922  29.709  1.00  0.00     0.049 A 
ATOM     47  C   UNL A   1      46.464  28.425  29.908  1.00  0.00     0.074 A 
ATOM     48  C   UNL A   1      40.757  31.179  30.195  1.00  0.00     0.029 A 
ATOM     49  N   UNL A   1      42.446  29.775  29.837  1.00  0.00    -0.354 N 
ATOM     50  N   UNL A   1      45.247  28.913  29.931  1.00  0.00    -0.248 NA
ATOM     51  C   UNL A   1      47.498  29.362  30.369  1.00  0.00     0.031 C 
ATOM     52  C   UNL A   1      41.948  31.817  30.559  1.00  0.00     0.029 A 
ATOM     53  C   UNL A   1      42.995  30.931  30.366  1.00  0.00     0.049 A 
ATOM     54  H   UNL A   1      42.954  28.969  29.590  1.00  0.00     0.167 HD
ATOM     55  C   UNL A   1      45.365  30.202  30.434  1.00  0.00     0.074 A 
ATOM     56  C   UNL A   1      46.768  30.413  30.719  1.00  0.00     0.031 C 
ATOM     57  C   UNL A   1      44.396  31.127  30.642  1.00  0.00     0.031 A 
BRANCH  44  58
ATOM     58  C   UNL A   1      38.737  29.272  28.991  1.00  0.00    -0.014 A 
ATOM     59  C   UNL A   1      38.227  29.716  27.759  1.00  0.00     0.009 A 
ATOM     60  C   UNL A   1      37.856  29.123  30.073  1.00  0.00     0.009 A 
ATOM     61  C   UNL A   1      36.876  30.043  27.627  1.00  0.00     0.001 A 
ATOM     62  C   UNL A   1      36.499  29.418  29.929  1.00  0.00     0.001 A 
ATOM     63  C   UNL A   1      36.012  29.888  28.711  1.00  0.00     0.000 A 
ENDBRANCH  44  58
BRANCH  45  64
ATOM     64  C   UNL A   1      48.372  26.696  29.537  1.00  0.00    -0.014 A 
ATOM     65  C   UNL A   1      49.211  26.967  28.447  1.00  0.00     0.009 A 
ATOM     66  C   UNL A   1      48.916  26.077  30.673  1.00  0.00     0.009 A 
ATOM     67  C   UNL A   1      50.559  26.598  28.482  1.00  0.00     0.001 A 
ATOM     68  C   UNL A   1      50.270  25.740  30.719  1.00  0.00     0.001 A 
ATOM     69  C   UNL A   1      51.088  25.991  29.619  1.00  0.00     0.000 A 
ENDBRANCH  45  64
BRANCH  57  70
ATOM     70  C   UNL A   1      44.816  32.441  31.241  1.00  0.00    -0.014 A 
ATOM     71  C   UNL A   1      44.897  32.619  32.631  1.00  0.00     0.009 A 
ATOM     72  C   UNL A   1      45.178  33.502  30.397  1.00  0.00     0.009 A 
ATOM     73  C   UNL A   1      45.299  33.847  33.161  1.00  0.00     0.001 A 
ATOM     74  C   UNL A   1      45.612  34.716  30.930  1.00  0.00     0.001 A 
ATOM     75  C   UNL A   1      45.661  34.891  32.311  1.00  0.00     0.000 A 
ENDBRANCH  57  70
ENDBRANCH  31  32
ENDBRANCH  23  26
ENDBRANCH  21  22
ENDBRANCH   1  21
TORSDOF 12
ENDMDL
