MODEL 1
REMARK VINA RESULT:     -11.6      0.000      0.000
REMARK SMILES O=C(Cn1c(=O)n(Cc2cccnc2)c(=O)c2sccc21)NCCCNC(=O)c1ccc(-c2c3nc(c(-c4ccccc4)c4ccc([nH]4)c(-c4ccccc4)c4nc(c(-c5ccccc5)c5ccc2[nH]5)C=C4)C=C3)cc1
REMARK SMILES IDX 23 1 22 2 1 3 2 4 3 6 4 7 5 8 21 9 6 10 7 11 17 12 20 13
REMARK SMILES IDX 15 14 18 15 19 16 16 17 8 18 9 19 10 20 14 21 11 22 13 23
REMARK SMILES IDX 12 24 24 25 25 26 26 27 27 28 28 30 29 31 30 32 76 33 31 34
REMARK SMILES IDX 75 35 32 36 33 37 34 38 69 39 35 40 74 41 68 42 70 43 36 44
REMARK SMILES IDX 73 45 67 46 66 47 37 49 59 50 44 51 58 52 45 53 48 54 57 55
REMARK SMILES IDX 71 56 46 57 47 58 56 60 72 61 49 62 38 63 39 64 43 65 40 66
REMARK SMILES IDX 42 67 41 68 60 69 61 70 65 71 62 72 64 73 63 74 50 75 51 76
REMARK SMILES IDX 55 77 52 78 54 79 53 80
REMARK H PARENT 22 5 26 29 70 48 48 59
REMARK Flexibility Score: inf
ROOT
ATOM      1  C   UNL A   1      33.420  28.945  26.438  1.00  0.00     0.117 C 
ENDROOT
BRANCH   1   2
ATOM      2  N   UNL A   1      33.058  27.543  26.288  1.00  0.00    -0.354 N 
ATOM      3  O   UNL A   1      31.218  27.657  27.629  1.00  0.00    -0.273 OA
ATOM      4  C   UNL A   1      31.825  27.098  26.713  1.00  0.00     0.240 C 
ATOM      5  H   UNL A   1      33.694  26.911  25.881  1.00  0.00     0.163 HD
BRANCH   4   6
ATOM      6  C   UNL A   1      31.306  25.765  26.142  1.00  0.00     0.227 C 
BRANCH   6   7
ATOM      7  N   UNL A   1      32.051  24.921  25.180  1.00  0.00    -0.283 N 
ATOM      8  C   UNL A   1      33.024  24.014  25.634  1.00  0.00     0.332 A 
ATOM      9  C   UNL A   1      32.037  25.271  23.817  1.00  0.00     0.070 A 
ATOM     10  O   UNL A   1      33.197  23.801  26.834  1.00  0.00    -0.247 OA
ATOM     11  N   UNL A   1      33.794  23.345  24.676  1.00  0.00    -0.254 N 
ATOM     12  C   UNL A   1      32.959  24.731  22.959  1.00  0.00     0.116 A 
ATOM     13  C   UNL A   1      31.211  26.222  23.139  1.00  0.00     0.039 A 
ATOM     14  C   UNL A   1      33.952  23.788  23.365  1.00  0.00     0.274 A 
ATOM     15  S   UNL A   1      32.839  25.316  21.372  1.00  0.00    -0.136 S 
ATOM     16  C   UNL A   1      31.539  26.339  21.802  1.00  0.00     0.068 A 
ATOM     17  O   UNL A   1      34.886  23.421  22.645  1.00  0.00    -0.268 OA
BRANCH  11  18
ATOM     18  C   UNL A   1      34.669  22.259  25.118  1.00  0.00     0.168 C 
BRANCH  18  19
ATOM     19  C   UNL A   1      34.032  20.894  24.968  1.00  0.00    -0.010 A 
ATOM     20  C   UNL A   1      34.791  19.751  24.690  1.00  0.00     0.009 A 
ATOM     21  C   UNL A   1      32.653  20.724  25.074  1.00  0.00     0.116 A 
ATOM     22  C   UNL A   1      34.155  18.521  24.521  1.00  0.00     0.020 A 
ATOM     23  N   UNL A   1      32.015  19.539  24.936  1.00  0.00    -0.264 NA
ATOM     24  C   UNL A   1      32.778  18.465  24.655  1.00  0.00     0.111 A 
ENDBRANCH  18  19
ENDBRANCH  11  18
ENDBRANCH   6   7
ENDBRANCH   4   6
ENDBRANCH   1   2
BRANCH   1  25
ATOM     25  C   UNL A   1      34.409  29.236  27.562  1.00  0.00     0.042 C 
BRANCH  25  26
ATOM     26  C   UNL A   1      35.224  30.496  27.330  1.00  0.00     0.118 C 
BRANCH  26  27
ATOM     27  N   UNL A   1      34.921  31.577  28.271  1.00  0.00    -0.352 N 
ATOM     28  C   UNL A   1      35.463  31.771  29.526  1.00  0.00     0.251 C 
ATOM     29  H   UNL A   1      34.255  32.239  27.975  1.00  0.00     0.163 HD
ATOM     30  O   UNL A   1      34.961  32.547  30.330  1.00  0.00    -0.269 OA
BRANCH  28  31
ATOM     31  C   UNL A   1      36.671  31.007  29.882  1.00  0.00     0.039 A 
ATOM     32  C   UNL A   1      36.580  29.716  30.410  1.00  0.00     0.014 A 
ATOM     33  C   UNL A   1      37.906  31.579  29.598  1.00  0.00     0.014 A 
ATOM     34  C   UNL A   1      37.745  28.962  30.564  1.00  0.00     0.010 A 
ATOM     35  C   UNL A   1      39.034  30.791  29.627  1.00  0.00     0.010 A 
ATOM     36  C   UNL A   1      38.972  29.495  30.148  1.00  0.00    -0.014 A 
BRANCH  36  37
ATOM     37  C   UNL A   1      40.202  28.699  30.203  1.00  0.00     0.031 A 
ATOM     38  C   UNL A   1      40.851  28.485  31.535  1.00  0.00     0.074 A 
ATOM     39  C   UNL A   1      40.595  27.943  29.155  1.00  0.00     0.049 A 
ATOM     40  N   UNL A   1      42.094  28.660  31.855  1.00  0.00    -0.248 NA
ATOM     41  C   UNL A   1      40.016  28.011  32.650  1.00  0.00     0.031 C 
ATOM     42  C   UNL A   1      39.918  27.753  27.866  1.00  0.00     0.029 A 
ATOM     43  N   UNL A   1      41.615  27.043  29.096  1.00  0.00    -0.354 N 
ATOM     44  C   UNL A   1      42.238  28.221  33.173  1.00  0.00     0.074 A 
ATOM     45  C   UNL A   1      40.911  27.892  33.634  1.00  0.00     0.031 C 
ATOM     46  C   UNL A   1      40.376  26.625  27.284  1.00  0.00     0.029 A 
ATOM     47  C   UNL A   1      41.493  26.127  28.063  1.00  0.00     0.049 A 
ATOM     48  H   UNL A   1      42.369  27.043  29.730  1.00  0.00     0.167 HD
ATOM     49  C   UNL A   1      43.452  28.033  33.766  1.00  0.00     0.031 A 
ATOM     50  C   UNL A   1      42.233  25.013  27.870  1.00  0.00     0.031 A 
ATOM     51  C   UNL A   1      44.524  28.629  33.020  1.00  0.00     0.049 A 
ATOM     52  C   UNL A   1      43.485  25.168  28.640  1.00  0.00     0.074 A 
ATOM     53  C   UNL A   1      44.856  29.917  32.654  1.00  0.00     0.029 A 
ATOM     54  N   UNL A   1      45.298  27.809  32.237  1.00  0.00    -0.354 N 
ATOM     55  N   UNL A   1      44.400  26.048  28.351  1.00  0.00    -0.248 NA
ATOM     56  C   UNL A   1      43.553  24.618  29.985  1.00  0.00     0.031 C 
ATOM     57  C   UNL A   1      45.408  29.792  31.346  1.00  0.00     0.029 A 
ATOM     58  C   UNL A   1      45.412  28.432  31.021  1.00  0.00     0.049 A 
ATOM     59  H   UNL A   1      45.693  26.945  32.497  1.00  0.00     0.167 HD
ATOM     60  C   UNL A   1      44.880  26.479  29.579  1.00  0.00     0.074 A 
ATOM     61  C   UNL A   1      44.420  25.474  30.535  1.00  0.00     0.031 C 
ATOM     62  C   UNL A   1      45.357  27.748  29.748  1.00  0.00     0.031 A 
BRANCH  49  63
ATOM     63  C   UNL A   1      43.726  27.085  34.902  1.00  0.00    -0.014 A 
ATOM     64  C   UNL A   1      43.898  25.713  34.633  1.00  0.00     0.009 A 
ATOM     65  C   UNL A   1      43.574  27.451  36.252  1.00  0.00     0.009 A 
ATOM     66  C   UNL A   1      43.883  24.757  35.658  1.00  0.00     0.001 A 
ATOM     67  C   UNL A   1      43.598  26.503  37.281  1.00  0.00     0.001 A 
ATOM     68  C   UNL A   1      43.731  25.153  36.982  1.00  0.00     0.000 A 
ENDBRANCH  49  63
BRANCH  50  69
ATOM     69  C   UNL A   1      41.836  23.759  27.205  1.00  0.00    -0.014 A 
ATOM     70  C   UNL A   1      42.667  23.150  26.256  1.00  0.00     0.009 A 
ATOM     71  C   UNL A   1      40.723  23.031  27.671  1.00  0.00     0.009 A 
ATOM     72  C   UNL A   1      42.406  21.850  25.806  1.00  0.00     0.001 A 
ATOM     73  C   UNL A   1      40.460  21.735  27.218  1.00  0.00     0.001 A 
ATOM     74  C   UNL A   1      41.311  21.140  26.294  1.00  0.00     0.000 A 
ENDBRANCH  50  69
BRANCH  62  75
ATOM     75  C   UNL A   1      45.521  28.617  28.521  1.00  0.00    -0.014 A 
ATOM     76  C   UNL A   1      44.461  29.372  27.989  1.00  0.00     0.009 A 
ATOM     77  C   UNL A   1      46.808  28.832  28.007  1.00  0.00     0.009 A 
ATOM     78  C   UNL A   1      44.674  30.295  26.961  1.00  0.00     0.001 A 
ATOM     79  C   UNL A   1      47.026  29.770  26.994  1.00  0.00     0.001 A 
ATOM     80  C   UNL A   1      45.960  30.499  26.469  1.00  0.00     0.000 A 
ENDBRANCH  62  75
ENDBRANCH  36  37
ENDBRANCH  28  31
ENDBRANCH  26  27
ENDBRANCH  25  26
ENDBRANCH   1  25
TORSDOF 13
ENDMDL
MODEL 2
REMARK VINA RESULT:     -11.5      1.906      2.542
REMARK SMILES O=C(Cn1c(=O)n(Cc2cccnc2)c(=O)c2sccc21)NCCCNC(=O)c1ccc(-c2c3nc(c(-c4ccccc4)c4ccc([nH]4)c(-c4ccccc4)c4nc(c(-c5ccccc5)c5ccc2[nH]5)C=C4)C=C3)cc1
REMARK SMILES IDX 23 1 22 2 1 3 2 4 3 6 4 7 5 8 21 9 6 10 7 11 17 12 20 13
REMARK SMILES IDX 15 14 18 15 19 16 16 17 8 18 9 19 10 20 14 21 11 22 13 23
REMARK SMILES IDX 12 24 24 25 25 26 26 27 27 28 28 30 29 31 30 32 76 33 31 34
REMARK SMILES IDX 75 35 32 36 33 37 34 38 69 39 35 40 74 41 68 42 70 43 36 44
REMARK SMILES IDX 73 45 67 46 66 47 37 49 59 50 44 51 58 52 45 53 48 54 57 55
REMARK SMILES IDX 71 56 46 57 47 58 56 60 72 61 49 62 38 63 39 64 43 65 40 66
REMARK SMILES IDX 42 67 41 68 60 69 61 70 65 71 62 72 64 73 63 74 50 75 51 76
REMARK SMILES IDX 55 77 52 78 54 79 53 80
REMARK H PARENT 22 5 26 29 70 48 48 59
REMARK Flexibility Score: inf
ROOT
ATOM      1  C   UNL A   1      31.969  30.123  25.718  1.00  0.00     0.117 C 
ENDROOT
BRANCH   1   2
ATOM      2  N   UNL A   1      31.513  29.064  24.831  1.00  0.00    -0.354 N 
ATOM      3  O   UNL A   1      33.507  28.813  23.758  1.00  0.00    -0.273 OA
ATOM      4  C   UNL A   1      32.423  28.335  24.098  1.00  0.00     0.240 C 
ATOM      5  H   UNL A   1      30.551  28.865  24.756  1.00  0.00     0.163 HD
BRANCH   4   6
ATOM      6  C   UNL A   1      31.974  26.968  23.547  1.00  0.00     0.227 C 
BRANCH   6   7
ATOM      7  N   UNL A   1      32.471  25.664  24.042  1.00  0.00    -0.283 N 
ATOM      8  C   UNL A   1      33.463  24.965  23.332  1.00  0.00     0.332 A 
ATOM      9  C   UNL A   1      31.720  24.975  25.012  1.00  0.00     0.070 A 
ATOM     10  O   UNL A   1      34.032  25.461  22.361  1.00  0.00    -0.247 OA
ATOM     11  N   UNL A   1      33.795  23.677  23.769  1.00  0.00    -0.254 N 
ATOM     12  C   UNL A   1      31.959  23.647  25.249  1.00  0.00     0.116 A 
ATOM     13  C   UNL A   1      30.617  25.439  25.795  1.00  0.00     0.039 A 
ATOM     14  C   UNL A   1      32.969  22.896  24.573  1.00  0.00     0.274 A 
ATOM     15  S   UNL A   1      30.915  22.961  26.397  1.00  0.00    -0.136 S 
ATOM     16  C   UNL A   1      30.091  24.445  26.596  1.00  0.00     0.068 A 
ATOM     17  O   UNL A   1      33.084  21.669  24.657  1.00  0.00    -0.268 OA
BRANCH  11  18
ATOM     18  C   UNL A   1      34.954  23.015  23.169  1.00  0.00     0.168 C 
BRANCH  18  19
ATOM     19  C   UNL A   1      36.113  22.876  24.131  1.00  0.00    -0.010 A 
ATOM     20  C   UNL A   1      36.891  21.713  24.189  1.00  0.00     0.009 A 
ATOM     21  C   UNL A   1      36.439  23.896  25.024  1.00  0.00     0.116 A 
ATOM     22  C   UNL A   1      37.926  21.616  25.120  1.00  0.00     0.020 A 
ATOM     23  N   UNL A   1      37.449  23.835  25.921  1.00  0.00    -0.264 NA
ATOM     24  C   UNL A   1      38.166  22.694  25.955  1.00  0.00     0.111 A 
ENDBRANCH  18  19
ENDBRANCH  11  18
ENDBRANCH   6   7
ENDBRANCH   4   6
ENDBRANCH   1   2
BRANCH   1  25
ATOM     25  C   UNL A   1      32.824  29.654  26.892  1.00  0.00     0.042 C 
BRANCH  25  26
ATOM     26  C   UNL A   1      34.055  30.514  27.116  1.00  0.00     0.118 C 
BRANCH  26  27
ATOM     27  N   UNL A   1      33.880  31.537  28.150  1.00  0.00    -0.352 N 
ATOM     28  C   UNL A   1      34.727  31.814  29.205  1.00  0.00     0.251 C 
ATOM     29  H   UNL A   1      33.068  32.089  28.086  1.00  0.00     0.163 HD
ATOM     30  O   UNL A   1      34.370  32.505  30.152  1.00  0.00    -0.269 OA
BRANCH  28  31
ATOM     31  C   UNL A   1      36.085  31.244  29.170  1.00  0.00     0.039 A 
ATOM     32  C   UNL A   1      37.213  32.054  29.333  1.00  0.00     0.014 A 
ATOM     33  C   UNL A   1      36.205  29.864  29.052  1.00  0.00     0.014 A 
ATOM     34  C   UNL A   1      38.465  31.452  29.473  1.00  0.00     0.010 A 
ATOM     35  C   UNL A   1      37.417  29.270  29.320  1.00  0.00     0.010 A 
ATOM     36  C   UNL A   1      38.562  30.054  29.489  1.00  0.00    -0.014 A 
BRANCH  36  37
ATOM     37  C   UNL A   1      39.844  29.385  29.731  1.00  0.00     0.031 A 
ATOM     38  C   UNL A   1      40.192  29.005  31.136  1.00  0.00     0.074 A 
ATOM     39  C   UNL A   1      40.568  28.868  28.716  1.00  0.00     0.049 A 
ATOM     40  N   UNL A   1      41.291  29.241  31.779  1.00  0.00    -0.248 NA
ATOM     41  C   UNL A   1      39.197  28.261  31.926  1.00  0.00     0.031 C 
ATOM     42  C   UNL A   1      40.239  28.843  27.284  1.00  0.00     0.029 A 
ATOM     43  N   UNL A   1      41.688  28.097  28.781  1.00  0.00    -0.354 N 
ATOM     44  C   UNL A   1      41.188  28.593  33.012  1.00  0.00     0.074 A 
ATOM     45  C   UNL A   1      39.849  28.059  33.074  1.00  0.00     0.031 C 
ATOM     46  C   UNL A   1      40.969  27.886  26.675  1.00  0.00     0.029 A 
ATOM     47  C   UNL A   1      41.935  27.370  27.627  1.00  0.00     0.049 A 
ATOM     48  H   UNL A   1      42.269  28.059  29.576  1.00  0.00     0.167 HD
ATOM     49  C   UNL A   1      42.246  28.424  33.855  1.00  0.00     0.031 A 
ATOM     50  C   UNL A   1      42.845  26.386  27.463  1.00  0.00     0.031 A 
ATOM     51  C   UNL A   1      43.369  29.245  33.497  1.00  0.00     0.049 A 
ATOM     52  C   UNL A   1      43.853  26.525  28.535  1.00  0.00     0.074 A 
ATOM     53  C   UNL A   1      43.595  30.603  33.418  1.00  0.00     0.029 A 
ATOM     54  N   UNL A   1      44.408  28.655  32.819  1.00  0.00    -0.354 N 
ATOM     55  N   UNL A   1      44.680  27.528  28.617  1.00  0.00    -0.248 NA
ATOM     56  C   UNL A   1      43.685  25.756  29.758  1.00  0.00     0.031 C 
ATOM     57  C   UNL A   1      44.445  30.765  32.286  1.00  0.00     0.029 A 
ATOM     58  C   UNL A   1      44.711  29.491  31.777  1.00  0.00     0.049 A 
ATOM     59  H   UNL A   1      44.847  27.802  33.040  1.00  0.00     0.167 HD
ATOM     60  C   UNL A   1      44.800  27.780  29.975  1.00  0.00     0.074 A 
ATOM     61  C   UNL A   1      44.275  26.583  30.627  1.00  0.00     0.031 C 
ATOM     62  C   UNL A   1      45.046  29.041  30.443  1.00  0.00     0.031 A 
BRANCH  49  63
ATOM     63  C   UNL A   1      42.380  27.321  34.871  1.00  0.00    -0.014 A 
ATOM     64  C   UNL A   1      42.815  26.047  34.457  1.00  0.00     0.009 A 
ATOM     65  C   UNL A   1      41.857  27.420  36.173  1.00  0.00     0.009 A 
ATOM     66  C   UNL A   1      42.699  24.926  35.290  1.00  0.00     0.001 A 
ATOM     67  C   UNL A   1      41.776  26.311  37.022  1.00  0.00     0.001 A 
ATOM     68  C   UNL A   1      42.177  25.059  36.573  1.00  0.00     0.000 A 
ENDBRANCH  49  63
BRANCH  50  69
ATOM     69  C   UNL A   1      42.790  25.236  26.543  1.00  0.00    -0.014 A 
ATOM     70  C   UNL A   1      43.787  25.030  25.581  1.00  0.00     0.009 A 
ATOM     71  C   UNL A   1      41.857  24.201  26.757  1.00  0.00     0.009 A 
ATOM     72  C   UNL A   1      43.863  23.823  24.876  1.00  0.00     0.001 A 
ATOM     73  C   UNL A   1      41.930  22.999  26.049  1.00  0.00     0.001 A 
ATOM     74  C   UNL A   1      42.943  22.805  25.117  1.00  0.00     0.000 A 
ENDBRANCH  50  69
BRANCH  62  75
ATOM     75  C   UNL A   1      45.366  30.124  29.438  1.00  0.00    -0.014 A 
ATOM     76  C   UNL A   1      44.363  30.841  28.762  1.00  0.00     0.009 A 
ATOM     77  C   UNL A   1      46.691  30.565  29.312  1.00  0.00     0.009 A 
ATOM     78  C   UNL A   1      44.675  31.948  27.968  1.00  0.00     0.001 A 
ATOM     79  C   UNL A   1      47.002  31.684  28.535  1.00  0.00     0.001 A 
ATOM     80  C   UNL A   1      45.995  32.374  27.860  1.00  0.00     0.000 A 
ENDBRANCH  62  75
ENDBRANCH  36  37
ENDBRANCH  28  31
ENDBRANCH  26  27
ENDBRANCH  25  26
ENDBRANCH   1  25
TORSDOF 13
ENDMDL
MODEL 3
REMARK VINA RESULT:     -11.5      2.110      7.318
REMARK SMILES O=C(Cn1c(=O)n(Cc2cccnc2)c(=O)c2sccc21)NCCCNC(=O)c1ccc(-c2c3nc(c(-c4ccccc4)c4ccc([nH]4)c(-c4ccccc4)c4nc(c(-c5ccccc5)c5ccc2[nH]5)C=C4)C=C3)cc1
REMARK SMILES IDX 23 1 22 2 1 3 2 4 3 6 4 7 5 8 21 9 6 10 7 11 17 12 20 13
REMARK SMILES IDX 15 14 18 15 19 16 16 17 8 18 9 19 10 20 14 21 11 22 13 23
REMARK SMILES IDX 12 24 24 25 25 26 26 27 27 28 28 30 29 31 30 32 76 33 31 34
REMARK SMILES IDX 75 35 32 36 33 37 34 38 69 39 35 40 74 41 68 42 70 43 36 44
REMARK SMILES IDX 73 45 67 46 66 47 37 49 59 50 44 51 58 52 45 53 48 54 57 55
REMARK SMILES IDX 71 56 46 57 47 58 56 60 72 61 49 62 38 63 39 64 43 65 40 66
REMARK SMILES IDX 42 67 41 68 60 69 61 70 65 71 62 72 64 73 63 74 50 75 51 76
REMARK SMILES IDX 55 77 52 78 54 79 53 80
REMARK H PARENT 22 5 26 29 70 48 48 59
REMARK Flexibility Score: inf
ROOT
ATOM      1  C   UNL A   1      36.180  21.996  25.831  1.00  0.00     0.117 C 
ENDROOT
BRANCH   1   2
ATOM      2  N   UNL A   1      34.888  22.233  25.203  1.00  0.00    -0.354 N 
ATOM      3  O   UNL A   1      33.683  21.086  26.760  1.00  0.00    -0.273 OA
ATOM      4  C   UNL A   1      33.726  21.954  25.886  1.00  0.00     0.240 C 
ATOM      5  H   UNL A   1      34.845  22.595  24.287  1.00  0.00     0.163 HD
BRANCH   4   6
ATOM      6  C   UNL A   1      32.427  22.624  25.399  1.00  0.00     0.227 C 
BRANCH   6   7
ATOM      7  N   UNL A   1      32.299  24.065  25.079  1.00  0.00    -0.283 N 
ATOM      8  C   UNL A   1      31.729  24.952  26.009  1.00  0.00     0.332 A 
ATOM      9  C   UNL A   1      32.424  24.477  23.740  1.00  0.00     0.070 A 
ATOM     10  O   UNL A   1      31.437  24.592  27.149  1.00  0.00    -0.247 OA
ATOM     11  N   UNL A   1      31.506  26.272  25.602  1.00  0.00    -0.254 N 
ATOM     12  C   UNL A   1      31.993  25.721  23.361  1.00  0.00     0.116 A 
ATOM     13  C   UNL A   1      32.888  23.735  22.608  1.00  0.00     0.039 A 
ATOM     14  C   UNL A   1      31.429  26.668  24.269  1.00  0.00     0.274 A 
ATOM     15  S   UNL A   1      32.156  26.023  21.700  1.00  0.00    -0.136 S 
ATOM     16  C   UNL A   1      32.802  24.462  21.437  1.00  0.00     0.068 A 
ATOM     17  O   UNL A   1      30.889  27.721  23.915  1.00  0.00    -0.268 OA
BRANCH  11  18
ATOM     18  C   UNL A   1      31.100  27.253  26.609  1.00  0.00     0.168 C 
BRANCH  18  19
ATOM     19  C   UNL A   1      32.139  28.330  26.833  1.00  0.00    -0.010 A 
ATOM     20  C   UNL A   1      33.503  28.031  26.935  1.00  0.00     0.009 A 
ATOM     21  C   UNL A   1      31.775  29.667  26.974  1.00  0.00     0.116 A 
ATOM     22  C   UNL A   1      34.420  29.054  27.180  1.00  0.00     0.020 A 
ATOM     23  N   UNL A   1      32.646  30.679  27.192  1.00  0.00    -0.264 NA
ATOM     24  C   UNL A   1      33.948  30.350  27.298  1.00  0.00     0.111 A 
ENDBRANCH  18  19
ENDBRANCH  11  18
ENDBRANCH   6   7
ENDBRANCH   4   6
ENDBRANCH   1   2
BRANCH   1  25
ATOM     25  C   UNL A   1      36.941  20.786  25.297  1.00  0.00     0.042 C 
BRANCH  25  26
ATOM     26  C   UNL A   1      38.444  20.996  25.256  1.00  0.00     0.118 C 
BRANCH  26  27
ATOM     27  N   UNL A   1      39.217  19.757  25.380  1.00  0.00    -0.352 N 
ATOM     28  C   UNL A   1      40.523  19.625  25.807  1.00  0.00     0.251 C 
ATOM     29  H   UNL A   1      38.752  18.925  25.131  1.00  0.00     0.163 HD
ATOM     30  O   UNL A   1      41.155  18.590  25.632  1.00  0.00    -0.269 OA
BRANCH  28  31
ATOM     31  C   UNL A   1      41.150  20.776  26.480  1.00  0.00     0.039 A 
ATOM     32  C   UNL A   1      41.887  21.721  25.759  1.00  0.00     0.014 A 
ATOM     33  C   UNL A   1      40.915  20.937  27.841  1.00  0.00     0.014 A 
ATOM     34  C   UNL A   1      42.308  22.886  26.402  1.00  0.00     0.010 A 
ATOM     35  C   UNL A   1      41.217  22.140  28.436  1.00  0.00     0.010 A 
ATOM     36  C   UNL A   1      41.951  23.105  27.740  1.00  0.00    -0.014 A 
BRANCH  36  37
ATOM     37  C   UNL A   1      42.291  24.358  28.420  1.00  0.00     0.031 A 
ATOM     38  C   UNL A   1      41.365  25.524  28.265  1.00  0.00     0.074 A 
ATOM     39  C   UNL A   1      43.239  24.400  29.381  1.00  0.00     0.049 A 
ATOM     40  N   UNL A   1      41.663  26.743  27.940  1.00  0.00    -0.248 NA
ATOM     41  C   UNL A   1      39.929  25.314  28.507  1.00  0.00     0.031 C 
ATOM     42  C   UNL A   1      44.038  23.291  29.919  1.00  0.00     0.029 A 
ATOM     43  N   UNL A   1      43.566  25.435  30.203  1.00  0.00    -0.354 N 
ATOM     44  C   UNL A   1      40.485  27.487  28.037  1.00  0.00     0.074 A 
ATOM     45  C   UNL A   1      39.435  26.541  28.328  1.00  0.00     0.031 C 
ATOM     46  C   UNL A   1      44.534  23.643  31.124  1.00  0.00     0.029 A 
ATOM     47  C   UNL A   1      44.245  25.046  31.347  1.00  0.00     0.049 A 
ATOM     48  H   UNL A   1      43.341  26.372  30.002  1.00  0.00     0.167 HD
ATOM     49  C   UNL A   1      40.462  28.850  27.999  1.00  0.00     0.031 A 
ATOM     50  C   UNL A   1      44.527  25.809  32.426  1.00  0.00     0.031 A 
ATOM     51  C   UNL A   1      41.701  29.407  27.535  1.00  0.00     0.049 A 
ATOM     52  C   UNL A   1      44.430  27.225  32.011  1.00  0.00     0.074 A 
ATOM     53  C   UNL A   1      42.414  29.345  26.356  1.00  0.00     0.029 A 
ATOM     54  N   UNL A   1      42.572  29.910  28.470  1.00  0.00    -0.354 N 
ATOM     55  N   UNL A   1      45.253  27.784  31.171  1.00  0.00    -0.248 NA
ATOM     56  C   UNL A   1      43.174  27.930  32.214  1.00  0.00     0.031 C 
ATOM     57  C   UNL A   1      43.780  29.320  26.759  1.00  0.00     0.029 A 
ATOM     58  C   UNL A   1      43.808  29.409  28.153  1.00  0.00     0.049 A 
ATOM     59  H   UNL A   1      42.352  30.510  29.219  1.00  0.00     0.167 HD
ATOM     60  C   UNL A   1      44.468  28.651  30.427  1.00  0.00     0.074 A 
ATOM     61  C   UNL A   1      43.235  28.796  31.197  1.00  0.00     0.031 C 
ATOM     62  C   UNL A   1      44.771  28.944  29.127  1.00  0.00     0.031 A 
BRANCH  49  63
ATOM     63  C   UNL A   1      39.403  29.718  28.626  1.00  0.00    -0.014 A 
ATOM     64  C   UNL A   1      38.204  29.961  27.927  1.00  0.00     0.009 A 
ATOM     65  C   UNL A   1      39.642  30.505  29.767  1.00  0.00     0.009 A 
ATOM     66  C   UNL A   1      37.311  30.964  28.330  1.00  0.00     0.001 A 
ATOM     67  C   UNL A   1      38.734  31.480  30.194  1.00  0.00     0.001 A 
ATOM     68  C   UNL A   1      37.579  31.724  29.463  1.00  0.00     0.000 A 
ENDBRANCH  49  63
BRANCH  50  69
ATOM     69  C   UNL A   1      44.698  25.381  33.826  1.00  0.00    -0.014 A 
ATOM     70  C   UNL A   1      43.590  25.122  34.643  1.00  0.00     0.009 A 
ATOM     71  C   UNL A   1      45.970  25.009  34.303  1.00  0.00     0.009 A 
ATOM     72  C   UNL A   1      43.747  24.491  35.883  1.00  0.00     0.001 A 
ATOM     73  C   UNL A   1      46.127  24.385  35.543  1.00  0.00     0.001 A 
ATOM     74  C   UNL A   1      45.013  24.114  36.328  1.00  0.00     0.000 A 
ENDBRANCH  50  69
BRANCH  62  75
ATOM     75  C   UNL A   1      46.086  28.444  28.572  1.00  0.00    -0.014 A 
ATOM     76  C   UNL A   1      46.225  27.162  28.011  1.00  0.00     0.009 A 
ATOM     77  C   UNL A   1      47.152  29.345  28.433  1.00  0.00     0.009 A 
ATOM     78  C   UNL A   1      47.399  26.784  27.354  1.00  0.00     0.001 A 
ATOM     79  C   UNL A   1      48.319  28.974  27.758  1.00  0.00     0.001 A 
ATOM     80  C   UNL A   1      48.444  27.693  27.221  1.00  0.00     0.000 A 
ENDBRANCH  62  75
ENDBRANCH  36  37
ENDBRANCH  28  31
ENDBRANCH  26  27
ENDBRANCH  25  26
ENDBRANCH   1  25
TORSDOF 13
ENDMDL
