MODEL 1
REMARK VINA RESULT:     -11.1      0.000      0.000
REMARK SMILES O=C(NCCCNC(=O)c1ccc(-c2cccc(F)c2)o1)c1ccc(-c2c3nc(c(-c4ccccc4)c4ccc([nH]4)c(-c4ccccc4)c4nc(c(-c5ccccc5)c5ccc2[nH]5)C=C4)C=C3)cc1
REMARK SMILES IDX 4 1 3 2 1 3 2 4 22 6 23 7 69 8 24 9 68 10 25 11 26 12 27 13
REMARK SMILES IDX 62 14 28 15 67 16 61 17 63 18 29 19 66 20 60 21 59 22 30 24
REMARK SMILES IDX 52 25 37 26 51 27 38 28 41 29 50 30 64 31 39 32 40 33 49 35
REMARK SMILES IDX 65 36 42 37 31 38 32 39 36 40 33 41 35 42 34 43 53 44 54 45
REMARK SMILES IDX 58 46 55 47 57 48 56 49 43 50 44 51 48 52 45 53 47 54 46 55
REMARK SMILES IDX 5 56 6 57 7 58 8 59 9 61 10 62 11 63 21 64 12 65 13 66 14 67
REMARK SMILES IDX 15 68 20 69 16 70 18 71 17 72 19 73
REMARK H PARENT 3 5 63 23 41 34 7 60
REMARK Flexibility Score: inf
ROOT
ATOM      1  C   UNL A   1      33.506  28.574  27.183  1.00  0.00     0.118 C 
ENDROOT
BRANCH   1   2
ATOM      2  N   UNL A   1      33.530  29.965  27.618  1.00  0.00    -0.352 N 
ATOM      3  O   UNL A   1      34.224  31.784  28.741  1.00  0.00    -0.269 OA
ATOM      4  C   UNL A   1      34.501  30.682  28.275  1.00  0.00     0.251 C 
ATOM      5  H   UNL A   1      32.715  30.476  27.407  1.00  0.00     0.163 HD
BRANCH   4   6
ATOM      6  C   UNL A   1      35.875  30.151  28.433  1.00  0.00     0.039 A 
ATOM      7  C   UNL A   1      36.819  30.235  27.403  1.00  0.00     0.014 A 
ATOM      8  C   UNL A   1      36.253  29.653  29.688  1.00  0.00     0.014 A 
ATOM      9  C   UNL A   1      38.117  29.757  27.607  1.00  0.00     0.010 A 
ATOM     10  C   UNL A   1      37.560  29.205  29.900  1.00  0.00     0.010 A 
ATOM     11  C   UNL A   1      38.498  29.242  28.857  1.00  0.00    -0.014 A 
BRANCH  11  12
ATOM     12  C   UNL A   1      39.890  28.785  29.084  1.00  0.00     0.031 A 
ATOM     13  C   UNL A   1      40.898  29.684  29.740  1.00  0.00     0.074 A 
ATOM     14  C   UNL A   1      40.257  27.553  28.687  1.00  0.00     0.049 A 
ATOM     15  N   UNL A   1      42.160  29.453  30.002  1.00  0.00    -0.248 NA
ATOM     16  C   UNL A   1      40.430  31.018  30.148  1.00  0.00     0.031 C 
ATOM     17  C   UNL A   1      39.387  26.584  28.016  1.00  0.00     0.029 A 
ATOM     18  N   UNL A   1      41.462  26.905  28.793  1.00  0.00    -0.354 N 
ATOM     19  C   UNL A   1      42.645  30.615  30.583  1.00  0.00     0.074 A 
ATOM     20  C   UNL A   1      41.542  31.553  30.637  1.00  0.00     0.031 C 
ATOM     21  C   UNL A   1      40.082  25.457  27.791  1.00  0.00     0.029 A 
ATOM     22  C   UNL A   1      41.446  25.632  28.281  1.00  0.00     0.049 A 
ATOM     23  H   UNL A   1      42.260  27.314  29.199  1.00  0.00     0.167 HD
ATOM     24  C   UNL A   1      43.893  30.881  31.034  1.00  0.00     0.031 A 
ATOM     25  C   UNL A   1      42.421  24.708  28.208  1.00  0.00     0.031 A 
ATOM     26  C   UNL A   1      44.992  29.955  31.015  1.00  0.00     0.049 A 
ATOM     27  C   UNL A   1      43.791  25.020  28.731  1.00  0.00     0.074 A 
ATOM     28  C   UNL A   1      46.278  30.131  31.500  1.00  0.00     0.029 A 
ATOM     29  N   UNL A   1      44.935  28.679  30.483  1.00  0.00    -0.354 N 
ATOM     30  N   UNL A   1      44.223  26.117  29.300  1.00  0.00    -0.248 NA
ATOM     31  C   UNL A   1      44.808  23.967  28.592  1.00  0.00     0.031 C 
ATOM     32  C   UNL A   1      47.003  28.959  31.250  1.00  0.00     0.029 A 
ATOM     33  C   UNL A   1      46.164  28.058  30.616  1.00  0.00     0.049 A 
ATOM     34  H   UNL A   1      44.138  28.273  30.072  1.00  0.00     0.167 HD
ATOM     35  C   UNL A   1      45.563  25.892  29.581  1.00  0.00     0.074 A 
ATOM     36  C   UNL A   1      45.870  24.549  29.133  1.00  0.00     0.031 C 
ATOM     37  C   UNL A   1      46.458  26.729  30.157  1.00  0.00     0.031 A 
BRANCH  24  38
ATOM     38  C   UNL A   1      44.138  32.253  31.585  1.00  0.00    -0.014 A 
ATOM     39  C   UNL A   1      43.957  32.516  32.953  1.00  0.00     0.009 A 
ATOM     40  C   UNL A   1      44.579  33.279  30.729  1.00  0.00     0.009 A 
ATOM     41  C   UNL A   1      44.199  33.796  33.456  1.00  0.00     0.001 A 
ATOM     42  C   UNL A   1      44.826  34.555  31.236  1.00  0.00     0.001 A 
ATOM     43  C   UNL A   1      44.633  34.811  32.597  1.00  0.00     0.000 A 
ENDBRANCH  24  38
BRANCH  25  44
ATOM     44  C   UNL A   1      42.131  23.389  27.600  1.00  0.00    -0.014 A 
ATOM     45  C   UNL A   1      41.514  22.384  28.363  1.00  0.00     0.009 A 
ATOM     46  C   UNL A   1      42.451  23.145  26.251  1.00  0.00     0.009 A 
ATOM     47  C   UNL A   1      41.226  21.147  27.781  1.00  0.00     0.001 A 
ATOM     48  C   UNL A   1      42.153  21.911  25.671  1.00  0.00     0.001 A 
ATOM     49  C   UNL A   1      41.543  20.913  26.439  1.00  0.00     0.000 A 
ENDBRANCH  25  44
BRANCH  37  50
ATOM     50  C   UNL A   1      47.854  26.214  30.320  1.00  0.00    -0.014 A 
ATOM     51  C   UNL A   1      48.738  26.208  29.228  1.00  0.00     0.009 A 
ATOM     52  C   UNL A   1      48.294  25.751  31.572  1.00  0.00     0.009 A 
ATOM     53  C   UNL A   1      50.040  25.729  29.385  1.00  0.00     0.001 A 
ATOM     54  C   UNL A   1      49.598  25.278  31.727  1.00  0.00     0.001 A 
ATOM     55  C   UNL A   1      50.467  25.265  30.632  1.00  0.00     0.000 A 
ENDBRANCH  37  50
ENDBRANCH  11  12
ENDBRANCH   4   6
ENDBRANCH   1   2
BRANCH   1  56
ATOM     56  C   UNL A   1      32.080  28.068  26.931  1.00  0.00     0.042 C 
BRANCH  56  57
ATOM     57  C   UNL A   1      31.995  26.784  26.098  1.00  0.00     0.118 C 
BRANCH  57  58
ATOM     58  N   UNL A   1      31.372  25.701  26.840  1.00  0.00    -0.349 N 
ATOM     59  C   UNL A   1      31.298  24.357  26.551  1.00  0.00     0.287 C 
ATOM     60  H   UNL A   1      30.934  25.971  27.679  1.00  0.00     0.163 HD
ATOM     61  O   UNL A   1      30.453  23.708  27.169  1.00  0.00    -0.266 OA
BRANCH  59  62
ATOM     62  C   UNL A   1      32.199  23.773  25.583  1.00  0.00     0.192 A 
ATOM     63  C   UNL A   1      32.084  23.489  24.233  1.00  0.00     0.057 A 
ATOM     64  O   UNL A   1      33.477  23.491  25.989  1.00  0.00    -0.451 OA
ATOM     65  C   UNL A   1      33.349  23.017  23.802  1.00  0.00     0.052 A 
ATOM     66  C   UNL A   1      34.173  23.035  24.908  1.00  0.00     0.135 A 
BRANCH  66  67
ATOM     67  C   UNL A   1      35.576  22.720  25.141  1.00  0.00     0.020 A 
ATOM     68  C   UNL A   1      36.440  23.677  25.704  1.00  0.00     0.012 A 
ATOM     69  C   UNL A   1      36.089  21.455  24.814  1.00  0.00     0.051 A 
ATOM     70  C   UNL A   1      37.786  23.375  25.942  1.00  0.00     0.004 A 
ATOM     71  C   UNL A   1      37.431  21.169  25.045  1.00  0.00     0.123 A 
ATOM     72  C   UNL A   1      38.282  22.115  25.608  1.00  0.00     0.039 A 
ATOM     73  F   UNL A   1      37.911  19.960  24.718  1.00  0.00    -0.207 F 
ENDBRANCH  66  67
ENDBRANCH  59  62
ENDBRANCH  57  58
ENDBRANCH  56  57
ENDBRANCH   1  56
TORSDOF 11
ENDMDL
MODEL 2
REMARK VINA RESULT:     -10.9      0.225      6.180
REMARK SMILES O=C(NCCCNC(=O)c1ccc(-c2cccc(F)c2)o1)c1ccc(-c2c3nc(c(-c4ccccc4)c4ccc([nH]4)c(-c4ccccc4)c4nc(c(-c5ccccc5)c5ccc2[nH]5)C=C4)C=C3)cc1
REMARK SMILES IDX 4 1 3 2 1 3 2 4 22 6 23 7 69 8 24 9 68 10 25 11 26 12 27 13
REMARK SMILES IDX 62 14 28 15 67 16 61 17 63 18 29 19 66 20 60 21 59 22 30 24
REMARK SMILES IDX 52 25 37 26 51 27 38 28 41 29 50 30 64 31 39 32 40 33 49 35
REMARK SMILES IDX 65 36 42 37 31 38 32 39 36 40 33 41 35 42 34 43 53 44 54 45
REMARK SMILES IDX 58 46 55 47 57 48 56 49 43 50 44 51 48 52 45 53 47 54 46 55
REMARK SMILES IDX 5 56 6 57 7 58 8 59 9 61 10 62 11 63 21 64 12 65 13 66 14 67
REMARK SMILES IDX 15 68 20 69 16 70 18 71 17 72 19 73
REMARK H PARENT 3 5 63 23 41 34 7 60
REMARK Flexibility Score: inf
ROOT
ATOM      1  C   UNL A   1      33.562  28.453  27.198  1.00  0.00     0.118 C 
ENDROOT
BRANCH   1   2
ATOM      2  N   UNL A   1      33.567  29.859  27.582  1.00  0.00    -0.352 N 
ATOM      3  O   UNL A   1      34.241  31.729  28.632  1.00  0.00    -0.269 OA
ATOM      4  C   UNL A   1      34.532  30.615  28.203  1.00  0.00     0.251 C 
ATOM      5  H   UNL A   1      32.743  30.349  27.360  1.00  0.00     0.163 HD
BRANCH   4   6
ATOM      6  C   UNL A   1      35.915  30.112  28.368  1.00  0.00     0.039 A 
ATOM      7  C   UNL A   1      36.857  30.198  27.335  1.00  0.00     0.014 A 
ATOM      8  C   UNL A   1      36.304  29.642  29.630  1.00  0.00     0.014 A 
ATOM      9  C   UNL A   1      38.163  29.747  27.545  1.00  0.00     0.010 A 
ATOM     10  C   UNL A   1      37.619  29.222  29.847  1.00  0.00     0.010 A 
ATOM     11  C   UNL A   1      38.555  29.259  28.803  1.00  0.00    -0.014 A 
BRANCH  11  12
ATOM     12  C   UNL A   1      39.955  28.831  29.036  1.00  0.00     0.031 A 
ATOM     13  C   UNL A   1      40.423  27.467  28.618  1.00  0.00     0.074 A 
ATOM     14  C   UNL A   1      40.814  29.672  29.641  1.00  0.00     0.049 A 
ATOM     15  N   UNL A   1      41.606  26.924  28.759  1.00  0.00    -0.248 NA
ATOM     16  C   UNL A   1      39.432  26.598  27.964  1.00  0.00     0.031 C 
ATOM     17  C   UNL A   1      40.488  31.017  30.121  1.00  0.00     0.029 A 
ATOM     18  N   UNL A   1      42.141  29.517  29.954  1.00  0.00    -0.354 N 
ATOM     19  C   UNL A   1      41.499  25.644  28.234  1.00  0.00     0.074 A 
ATOM     20  C   UNL A   1      40.136  25.489  27.771  1.00  0.00     0.031 C 
ATOM     21  C   UNL A   1      41.593  31.572  30.647  1.00  0.00     0.029 A 
ATOM     22  C   UNL A   1      42.693  30.617  30.561  1.00  0.00     0.049 A 
ATOM     23  H   UNL A   1      42.648  28.696  29.761  1.00  0.00     0.167 HD
ATOM     24  C   UNL A   1      42.448  24.683  28.142  1.00  0.00     0.031 A 
ATOM     25  C   UNL A   1      43.944  30.833  31.004  1.00  0.00     0.031 A 
ATOM     26  C   UNL A   1      43.812  24.827  28.571  1.00  0.00     0.049 A 
ATOM     27  C   UNL A   1      44.983  29.760  30.875  1.00  0.00     0.074 A 
ATOM     28  C   UNL A   1      44.851  23.916  28.466  1.00  0.00     0.029 A 
ATOM     29  N   UNL A   1      44.328  25.955  29.185  1.00  0.00    -0.354 N 
ATOM     30  N   UNL A   1      44.868  28.565  30.352  1.00  0.00    -0.248 NA
ATOM     31  C   UNL A   1      46.320  30.065  31.406  1.00  0.00     0.031 C 
ATOM     32  C   UNL A   1      45.996  24.492  29.030  1.00  0.00     0.029 A 
ATOM     33  C   UNL A   1      45.667  25.761  29.477  1.00  0.00     0.049 A 
ATOM     34  H   UNL A   1      43.819  26.773  29.383  1.00  0.00     0.167 HD
ATOM     35  C   UNL A   1      46.114  27.971  30.497  1.00  0.00     0.074 A 
ATOM     36  C   UNL A   1      46.974  28.941  31.144  1.00  0.00     0.031 C 
ATOM     37  C   UNL A   1      46.506  26.728  30.129  1.00  0.00     0.031 A 
BRANCH  24  38
ATOM     38  C   UNL A   1      42.029  23.369  27.556  1.00  0.00    -0.014 A 
ATOM     39  C   UNL A   1      42.239  23.095  26.194  1.00  0.00     0.009 A 
ATOM     40  C   UNL A   1      41.446  22.392  28.382  1.00  0.00     0.009 A 
ATOM     41  C   UNL A   1      41.854  21.863  25.662  1.00  0.00     0.001 A 
ATOM     42  C   UNL A   1      41.068  21.159  27.849  1.00  0.00     0.001 A 
ATOM     43  C   UNL A   1      41.271  20.898  26.490  1.00  0.00     0.000 A 
ENDBRANCH  24  38
BRANCH  25  44
ATOM     44  C   UNL A   1      44.282  32.134  31.626  1.00  0.00    -0.014 A 
ATOM     45  C   UNL A   1      44.749  33.194  30.831  1.00  0.00     0.009 A 
ATOM     46  C   UNL A   1      44.115  32.322  33.011  1.00  0.00     0.009 A 
ATOM     47  C   UNL A   1      45.049  34.426  31.419  1.00  0.00     0.001 A 
ATOM     48  C   UNL A   1      44.408  33.556  33.593  1.00  0.00     0.001 A 
ATOM     49  C   UNL A   1      44.877  34.605  32.796  1.00  0.00     0.000 A 
ENDBRANCH  25  44
BRANCH  37  50
ATOM     50  C   UNL A   1      47.923  26.351  30.430  1.00  0.00    -0.014 A 
ATOM     51  C   UNL A   1      48.257  25.798  31.677  1.00  0.00     0.009 A 
ATOM     52  C   UNL A   1      48.923  26.531  29.459  1.00  0.00     0.009 A 
ATOM     53  C   UNL A   1      49.580  25.445  31.953  1.00  0.00     0.001 A 
ATOM     54  C   UNL A   1      50.243  26.173  29.737  1.00  0.00     0.001 A 
ATOM     55  C   UNL A   1      50.569  25.634  30.984  1.00  0.00     0.000 A 
ENDBRANCH  37  50
ENDBRANCH  11  12
ENDBRANCH   4   6
ENDBRANCH   1   2
BRANCH   1  56
ATOM     56  C   UNL A   1      32.141  27.896  27.048  1.00  0.00     0.042 C 
BRANCH  56  57
ATOM     57  C   UNL A   1      32.041  26.610  26.220  1.00  0.00     0.118 C 
BRANCH  57  58
ATOM     58  N   UNL A   1      31.273  25.586  26.907  1.00  0.00    -0.349 N 
ATOM     59  C   UNL A   1      31.083  24.260  26.590  1.00  0.00     0.287 C 
ATOM     60  H   UNL A   1      30.818  25.887  27.726  1.00  0.00     0.163 HD
ATOM     61  O   UNL A   1      30.144  23.691  27.149  1.00  0.00    -0.266 OA
BRANCH  59  62
ATOM     62  C   UNL A   1      31.974  23.600  25.662  1.00  0.00     0.192 A 
ATOM     63  C   UNL A   1      31.816  23.128  24.370  1.00  0.00     0.057 A 
ATOM     64  O   UNL A   1      33.285  23.450  26.032  1.00  0.00    -0.451 OA
ATOM     65  C   UNL A   1      33.088  22.674  23.938  1.00  0.00     0.052 A 
ATOM     66  C   UNL A   1      33.958  22.890  24.987  1.00  0.00     0.135 A 
BRANCH  66  67
ATOM     67  C   UNL A   1      35.388  22.690  25.184  1.00  0.00     0.020 A 
ATOM     68  C   UNL A   1      36.191  23.728  25.692  1.00  0.00     0.012 A 
ATOM     69  C   UNL A   1      35.987  21.459  24.877  1.00  0.00     0.051 A 
ATOM     70  C   UNL A   1      37.563  23.536  25.897  1.00  0.00     0.004 A 
ATOM     71  C   UNL A   1      37.353  21.283  25.073  1.00  0.00     0.123 A 
ATOM     72  C   UNL A   1      38.145  22.309  25.583  1.00  0.00     0.039 A 
ATOM     73  F   UNL A   1      37.916  20.105  24.765  1.00  0.00    -0.207 F 
ENDBRANCH  66  67
ENDBRANCH  59  62
ENDBRANCH  57  58
ENDBRANCH  56  57
ENDBRANCH   1  56
TORSDOF 11
ENDMDL
MODEL 3
REMARK VINA RESULT:     -10.8      1.577      1.952
REMARK SMILES O=C(NCCCNC(=O)c1ccc(-c2cccc(F)c2)o1)c1ccc(-c2c3nc(c(-c4ccccc4)c4ccc([nH]4)c(-c4ccccc4)c4nc(c(-c5ccccc5)c5ccc2[nH]5)C=C4)C=C3)cc1
REMARK SMILES IDX 4 1 3 2 1 3 2 4 22 6 23 7 69 8 24 9 68 10 25 11 26 12 27 13
REMARK SMILES IDX 62 14 28 15 67 16 61 17 63 18 29 19 66 20 60 21 59 22 30 24
REMARK SMILES IDX 52 25 37 26 51 27 38 28 41 29 50 30 64 31 39 32 40 33 49 35
REMARK SMILES IDX 65 36 42 37 31 38 32 39 36 40 33 41 35 42 34 43 53 44 54 45
REMARK SMILES IDX 58 46 55 47 57 48 56 49 43 50 44 51 48 52 45 53 47 54 46 55
REMARK SMILES IDX 5 56 6 57 7 58 8 59 9 61 10 62 11 63 21 64 12 65 13 66 14 67
REMARK SMILES IDX 15 68 20 69 16 70 18 71 17 72 19 73
REMARK H PARENT 3 5 63 23 41 34 7 60
REMARK Flexibility Score: inf
ROOT
ATOM      1  C   UNL A   1      33.795  28.931  26.031  1.00  0.00     0.118 C 
ENDROOT
BRANCH   1   2
ATOM      2  N   UNL A   1      33.679  30.237  26.667  1.00  0.00    -0.352 N 
ATOM      3  O   UNL A   1      34.041  31.852  28.188  1.00  0.00    -0.269 OA
ATOM      4  C   UNL A   1      34.449  30.833  27.637  1.00  0.00     0.251 C 
ATOM      5  H   UNL A   1      32.924  30.784  26.350  1.00  0.00     0.163 HD
BRANCH   4   6
ATOM      6  C   UNL A   1      35.760  30.268  28.032  1.00  0.00     0.039 A 
ATOM      7  C   UNL A   1      36.891  30.393  27.216  1.00  0.00     0.014 A 
ATOM      8  C   UNL A   1      35.878  29.695  29.306  1.00  0.00     0.014 A 
ATOM      9  C   UNL A   1      38.119  29.881  27.645  1.00  0.00     0.010 A 
ATOM     10  C   UNL A   1      37.114  29.213  29.746  1.00  0.00     0.010 A 
ATOM     11  C   UNL A   1      38.241  29.290  28.913  1.00  0.00    -0.014 A 
BRANCH  11  12
ATOM     12  C   UNL A   1      39.556  28.795  29.385  1.00  0.00     0.031 A 
ATOM     13  C   UNL A   1      40.369  29.588  30.368  1.00  0.00     0.074 A 
ATOM     14  C   UNL A   1      40.033  27.627  28.916  1.00  0.00     0.049 A 
ATOM     15  N   UNL A   1      41.545  29.312  30.874  1.00  0.00    -0.248 NA
ATOM     16  C   UNL A   1      39.790  30.856  30.838  1.00  0.00     0.031 C 
ATOM     17  C   UNL A   1      39.360  26.768  27.940  1.00  0.00     0.029 A 
ATOM     18  N   UNL A   1      41.199  26.962  29.202  1.00  0.00    -0.354 N 
ATOM     19  C   UNL A   1      41.859  30.380  31.703  1.00  0.00     0.074 A 
ATOM     20  C   UNL A   1      40.750  31.310  31.634  1.00  0.00     0.031 C 
ATOM     21  C   UNL A   1      40.115  25.677  27.726  1.00  0.00     0.029 A 
ATOM     22  C   UNL A   1      41.330  25.773  28.530  1.00  0.00     0.049 A 
ATOM     23  H   UNL A   1      41.875  27.305  29.830  1.00  0.00     0.167 HD
ATOM     24  C   UNL A   1      42.967  30.572  32.457  1.00  0.00     0.031 A 
ATOM     25  C   UNL A   1      42.318  24.861  28.554  1.00  0.00     0.031 A 
ATOM     26  C   UNL A   1      44.064  29.649  32.560  1.00  0.00     0.049 A 
ATOM     27  C   UNL A   1      43.527  25.087  29.411  1.00  0.00     0.074 A 
ATOM     28  C   UNL A   1      45.203  29.746  33.343  1.00  0.00     0.029 A 
ATOM     29  N   UNL A   1      44.159  28.459  31.859  1.00  0.00    -0.354 N 
ATOM     30  N   UNL A   1      43.793  26.092  30.207  1.00  0.00    -0.248 NA
ATOM     31  C   UNL A   1      44.574  24.056  29.362  1.00  0.00     0.031 C 
ATOM     32  C   UNL A   1      45.994  28.615  33.105  1.00  0.00     0.029 A 
ATOM     33  C   UNL A   1      45.342  27.817  32.181  1.00  0.00     0.049 A 
ATOM     34  H   UNL A   1      43.485  28.121  31.227  1.00  0.00     0.167 HD
ATOM     35  C   UNL A   1      45.041  25.820  30.750  1.00  0.00     0.074 A 
ATOM     36  C   UNL A   1      45.474  24.549  30.204  1.00  0.00     0.031 C 
ATOM     37  C   UNL A   1      45.764  26.562  31.622  1.00  0.00     0.031 A 
BRANCH  24  38
ATOM     38  C   UNL A   1      43.048  31.852  33.230  1.00  0.00    -0.014 A 
ATOM     39  C   UNL A   1      42.547  31.928  34.541  1.00  0.00     0.009 A 
ATOM     40  C   UNL A   1      43.656  32.980  32.650  1.00  0.00     0.009 A 
ATOM     41  C   UNL A   1      42.639  33.123  35.256  1.00  0.00     0.001 A 
ATOM     42  C   UNL A   1      43.752  34.171  33.370  1.00  0.00     0.001 A 
ATOM     43  C   UNL A   1      43.241  34.241  34.669  1.00  0.00     0.000 A 
ENDBRANCH  24  38
BRANCH  25  44
ATOM     44  C   UNL A   1      42.204  23.641  27.722  1.00  0.00    -0.014 A 
ATOM     45  C   UNL A   1      42.606  23.667  26.376  1.00  0.00     0.009 A 
ATOM     46  C   UNL A   1      41.714  22.446  28.281  1.00  0.00     0.009 A 
ATOM     47  C   UNL A   1      42.514  22.510  25.600  1.00  0.00     0.001 A 
ATOM     48  C   UNL A   1      41.631  21.289  27.504  1.00  0.00     0.001 A 
ATOM     49  C   UNL A   1      42.030  21.325  26.164  1.00  0.00     0.000 A 
ENDBRANCH  25  44
BRANCH  37  50
ATOM     50  C   UNL A   1      47.099  26.019  32.025  1.00  0.00    -0.014 A 
ATOM     51  C   UNL A   1      48.229  26.254  31.223  1.00  0.00     0.009 A 
ATOM     52  C   UNL A   1      47.233  25.288  33.217  1.00  0.00     0.009 A 
ATOM     53  C   UNL A   1      49.473  25.748  31.604  1.00  0.00     0.001 A 
ATOM     54  C   UNL A   1      48.480  24.788  33.597  1.00  0.00     0.001 A 
ATOM     55  C   UNL A   1      49.596  25.016  32.788  1.00  0.00     0.000 A 
ENDBRANCH  37  50
ENDBRANCH  11  12
ENDBRANCH   4   6
ENDBRANCH   1   2
BRANCH   1  56
ATOM     56  C   UNL A   1      33.129  28.896  24.650  1.00  0.00     0.042 C 
BRANCH  56  57
ATOM     57  C   UNL A   1      34.037  28.410  23.513  1.00  0.00     0.118 C 
BRANCH  57  58
ATOM     58  N   UNL A   1      33.366  27.438  22.667  1.00  0.00    -0.349 N 
ATOM     59  C   UNL A   1      33.350  26.064  22.737  1.00  0.00     0.287 C 
ATOM     60  H   UNL A   1      32.842  27.823  21.927  1.00  0.00     0.163 HD
ATOM     61  O   UNL A   1      32.973  25.466  21.728  1.00  0.00    -0.266 OA
BRANCH  59  62
ATOM     62  C   UNL A   1      33.740  25.396  23.959  1.00  0.00     0.192 A 
ATOM     63  C   UNL A   1      33.123  25.231  25.187  1.00  0.00     0.057 A 
ATOM     64  O   UNL A   1      34.912  24.686  23.952  1.00  0.00    -0.451 OA
ATOM     65  C   UNL A   1      33.958  24.383  25.957  1.00  0.00     0.052 A 
ATOM     66  C   UNL A   1      35.042  24.072  25.163  1.00  0.00     0.135 A 
BRANCH  66  67
ATOM     67  C   UNL A   1      36.221  23.232  25.327  1.00  0.00     0.020 A 
ATOM     68  C   UNL A   1      37.384  23.742  25.932  1.00  0.00     0.012 A 
ATOM     69  C   UNL A   1      36.215  21.898  24.891  1.00  0.00     0.051 A 
ATOM     70  C   UNL A   1      38.514  22.935  26.105  1.00  0.00     0.004 A 
ATOM     71  C   UNL A   1      37.348  21.108  25.057  1.00  0.00     0.123 A 
ATOM     72  C   UNL A   1      38.495  21.613  25.662  1.00  0.00     0.039 A 
ATOM     73  F   UNL A   1      37.333  19.838  24.626  1.00  0.00    -0.207 F 
ENDBRANCH  66  67
ENDBRANCH  59  62
ENDBRANCH  57  58
ENDBRANCH  56  57
ENDBRANCH   1  56
TORSDOF 11
ENDMDL
