MODEL 1
REMARK VINA RESULT:     -11.3      0.000      0.000
REMARK SMILES O=C(NCCCNC(=O)c1cc(-c2ccc(F)c(C(F)(F)F)c2)cnc1O)c1ccc(-c2c3nc(c(-c4ccccc4)c4ccc([nH]4)c(-c4ccccc4)c4nc(c(-c5ccccc5)c5ccc2[nH]5)C=C4)C=C3)cc1
REMARK SMILES IDX 5 1 4 2 3 3 1 4 2 5 28 7 29 8 75 9 30 10 74 11 31 12 32 13
REMARK SMILES IDX 33 14 68 15 34 16 73 17 67 18 69 19 35 20 72 21 66 22 65 23
REMARK SMILES IDX 36 25 58 26 43 27 57 28 44 29 47 30 56 31 70 32 45 33 46 34
REMARK SMILES IDX 55 36 71 37 48 38 37 39 38 40 42 41 39 42 41 43 40 44 59 45
REMARK SMILES IDX 60 46 64 47 61 48 63 49 62 50 49 51 50 52 54 53 51 54 53 55
REMARK SMILES IDX 52 56 6 57 7 58 8 59 9 61 10 62 11 63 26 64 12 65 25 66
REMARK SMILES IDX 24 67 27 68 13 70 14 71 23 72 15 73 18 74 16 75 17 76 19 77
REMARK SMILES IDX 20 78 21 79 22 80
REMARK H PARENT 3 6 69 24 47 35 7 60 27 69
REMARK Flexibility Score: inf
ROOT
ATOM      1  C   UNL A   1      36.678  23.655  24.540  1.00  0.00     0.042 C 
ENDROOT
BRANCH   1   2
ATOM      2  C   UNL A   1      36.755  22.879  25.850  1.00  0.00     0.118 C 
BRANCH   2   3
ATOM      3  N   UNL A   1      38.000  22.141  25.998  1.00  0.00    -0.352 N 
ATOM      4  O   UNL A   1      40.193  21.768  26.250  1.00  0.00    -0.269 OA
ATOM      5  C   UNL A   1      39.253  22.551  26.373  1.00  0.00     0.251 C 
ATOM      6  H   UNL A   1      37.930  21.181  25.792  1.00  0.00     0.163 HD
BRANCH   5   7
ATOM      7  C   UNL A   1      39.502  23.904  26.920  1.00  0.00     0.039 A 
ATOM      8  C   UNL A   1      40.100  24.857  26.088  1.00  0.00     0.014 A 
ATOM      9  C   UNL A   1      39.247  24.222  28.257  1.00  0.00     0.014 A 
ATOM     10  C   UNL A   1      40.418  26.124  26.585  1.00  0.00     0.010 A 
ATOM     11  C   UNL A   1      39.487  25.511  28.730  1.00  0.00     0.010 A 
ATOM     12  C   UNL A   1      40.105  26.464  27.910  1.00  0.00    -0.014 A 
BRANCH  12  13
ATOM     13  C   UNL A   1      40.498  27.779  28.478  1.00  0.00     0.031 A 
ATOM     14  C   UNL A   1      41.937  28.035  28.843  1.00  0.00     0.074 A 
ATOM     15  C   UNL A   1      39.573  28.737  28.680  1.00  0.00     0.049 A 
ATOM     16  N   UNL A   1      42.472  29.092  29.399  1.00  0.00    -0.248 NA
ATOM     17  C   UNL A   1      42.897  26.952  28.567  1.00  0.00     0.031 C 
ATOM     18  C   UNL A   1      38.146  28.617  28.376  1.00  0.00     0.029 A 
ATOM     19  N   UNL A   1      39.701  30.008  29.183  1.00  0.00    -0.354 N 
ATOM     20  C   UNL A   1      43.820  28.791  29.560  1.00  0.00     0.074 A 
ATOM     21  C   UNL A   1      44.014  27.439  29.087  1.00  0.00     0.031 C 
ATOM     22  C   UNL A   1      37.540  29.781  28.655  1.00  0.00     0.029 A 
ATOM     23  C   UNL A   1      38.525  30.717  29.193  1.00  0.00     0.049 A 
ATOM     24  H   UNL A   1      40.555  30.376  29.505  1.00  0.00     0.167 HD
ATOM     25  C   UNL A   1      44.813  29.576  30.036  1.00  0.00     0.031 A 
ATOM     26  C   UNL A   1      38.269  31.981  29.581  1.00  0.00     0.031 A 
ATOM     27  C   UNL A   1      44.633  30.933  30.472  1.00  0.00     0.049 A 
ATOM     28  C   UNL A   1      39.390  32.836  30.102  1.00  0.00     0.074 A 
ATOM     29  C   UNL A   1      45.587  31.817  30.946  1.00  0.00     0.029 A 
ATOM     30  N   UNL A   1      43.424  31.609  30.467  1.00  0.00    -0.354 N 
ATOM     31  N   UNL A   1      40.658  32.538  30.240  1.00  0.00    -0.248 NA
ATOM     32  C   UNL A   1      39.046  34.207  30.510  1.00  0.00     0.031 C 
ATOM     33  C   UNL A   1      44.948  33.019  31.258  1.00  0.00     0.029 A 
ATOM     34  C   UNL A   1      43.607  32.898  30.932  1.00  0.00     0.049 A 
ATOM     35  H   UNL A   1      42.564  31.227  30.176  1.00  0.00     0.167 HD
ATOM     36  C   UNL A   1      41.268  33.689  30.724  1.00  0.00     0.074 A 
ATOM     37  C   UNL A   1      40.233  34.694  30.847  1.00  0.00     0.031 C 
ATOM     38  C   UNL A   1      42.570  33.891  31.036  1.00  0.00     0.031 A 
BRANCH  25  39
ATOM     39  C   UNL A   1      46.196  28.990  30.100  1.00  0.00    -0.014 A 
ATOM     40  C   UNL A   1      47.053  29.098  28.995  1.00  0.00     0.009 A 
ATOM     41  C   UNL A   1      46.625  28.275  31.229  1.00  0.00     0.009 A 
ATOM     42  C   UNL A   1      48.314  28.499  29.018  1.00  0.00     0.001 A 
ATOM     43  C   UNL A   1      47.897  27.701  31.259  1.00  0.00     0.001 A 
ATOM     44  C   UNL A   1      48.737  27.806  30.152  1.00  0.00     0.000 A 
ENDBRANCH  25  39
BRANCH  26  45
ATOM     45  C   UNL A   1      36.895  32.530  29.441  1.00  0.00    -0.014 A 
ATOM     46  C   UNL A   1      36.497  33.186  28.267  1.00  0.00     0.009 A 
ATOM     47  C   UNL A   1      35.984  32.422  30.502  1.00  0.00     0.009 A 
ATOM     48  C   UNL A   1      35.216  33.734  28.163  1.00  0.00     0.001 A 
ATOM     49  C   UNL A   1      34.696  32.949  30.385  1.00  0.00     0.001 A 
ATOM     50  C   UNL A   1      34.315  33.609  29.219  1.00  0.00     0.000 A 
ENDBRANCH  26  45
BRANCH  38  51
ATOM     51  C   UNL A   1      42.974  35.256  31.511  1.00  0.00    -0.014 A 
ATOM     52  C   UNL A   1      43.513  36.176  30.597  1.00  0.00     0.009 A 
ATOM     53  C   UNL A   1      42.917  35.597  32.870  1.00  0.00     0.009 A 
ATOM     54  C   UNL A   1      43.997  37.408  31.037  1.00  0.00     0.001 A 
ATOM     55  C   UNL A   1      43.381  36.841  33.303  1.00  0.00     0.001 A 
ATOM     56  C   UNL A   1      43.928  37.741  32.388  1.00  0.00     0.000 A 
ENDBRANCH  38  51
ENDBRANCH  12  13
ENDBRANCH   5   7
ENDBRANCH   2   3
ENDBRANCH   1   2
BRANCH   1  57
ATOM     57  C   UNL A   1      35.957  22.929  23.411  1.00  0.00     0.118 C 
BRANCH  57  58
ATOM     58  N   UNL A   1      34.654  22.417  23.821  1.00  0.00    -0.352 N 
ATOM     59  C   UNL A   1      33.453  23.070  23.915  1.00  0.00     0.256 C 
ATOM     60  H   UNL A   1      34.636  21.463  24.067  1.00  0.00     0.163 HD
ATOM     61  O   UNL A   1      32.516  22.549  24.513  1.00  0.00    -0.269 OA
BRANCH  59  62
ATOM     62  C   UNL A   1      33.269  24.383  23.283  1.00  0.00     0.102 A 
ATOM     63  C   UNL A   1      33.045  25.498  24.100  1.00  0.00     0.029 A 
ATOM     64  C   UNL A   1      33.235  24.552  21.904  1.00  0.00     0.223 A 
ATOM     65  C   UNL A   1      32.845  26.756  23.522  1.00  0.00     0.001 A 
ATOM     66  N   UNL A   1      33.092  25.752  21.312  1.00  0.00    -0.221 NA
ATOM     67  C   UNL A   1      32.904  26.816  22.127  1.00  0.00     0.124 A 
BRANCH  64  68
ATOM     68  O   UNL A   1      33.333  23.520  21.016  1.00  0.00    -0.493 OA
ATOM     69  H   UNL A   1      33.960  23.559  20.320  1.00  0.00     0.295 HD
ENDBRANCH  64  68
BRANCH  65  70
ATOM     70  C   UNL A   1      32.549  27.949  24.323  1.00  0.00    -0.016 A 
ATOM     71  C   UNL A   1      31.422  28.738  24.028  1.00  0.00     0.012 A 
ATOM     72  C   UNL A   1      33.376  28.344  25.389  1.00  0.00     0.025 A 
ATOM     73  C   UNL A   1      31.138  29.887  24.765  1.00  0.00     0.040 A 
ATOM     74  C   UNL A   1      33.097  29.504  26.136  1.00  0.00     0.092 A 
ATOM     75  C   UNL A   1      31.978  30.262  25.806  1.00  0.00     0.135 A 
ATOM     76  F   UNL A   1      31.697  31.377  26.491  1.00  0.00    -0.206 F 
BRANCH  74  77
ATOM     77  C   UNL A   1      33.980  29.963  27.257  1.00  0.00     0.419 C 
ATOM     78  F   UNL A   1      33.334  30.781  28.134  1.00  0.00    -0.166 F 
ATOM     79  F   UNL A   1      34.493  28.940  27.992  1.00  0.00    -0.166 F 
ATOM     80  F   UNL A   1      35.060  30.677  26.822  1.00  0.00    -0.166 F 
ENDBRANCH  74  77
ENDBRANCH  65  70
ENDBRANCH  59  62
ENDBRANCH  57  58
ENDBRANCH   1  57
TORSDOF 13
ENDMDL
MODEL 2
REMARK VINA RESULT:     -11.2      1.456      6.176
REMARK SMILES O=C(NCCCNC(=O)c1cc(-c2ccc(F)c(C(F)(F)F)c2)cnc1O)c1ccc(-c2c3nc(c(-c4ccccc4)c4ccc([nH]4)c(-c4ccccc4)c4nc(c(-c5ccccc5)c5ccc2[nH]5)C=C4)C=C3)cc1
REMARK SMILES IDX 5 1 4 2 3 3 1 4 2 5 28 7 29 8 75 9 30 10 74 11 31 12 32 13
REMARK SMILES IDX 33 14 68 15 34 16 73 17 67 18 69 19 35 20 72 21 66 22 65 23
REMARK SMILES IDX 36 25 58 26 43 27 57 28 44 29 47 30 56 31 70 32 45 33 46 34
REMARK SMILES IDX 55 36 71 37 48 38 37 39 38 40 42 41 39 42 41 43 40 44 59 45
REMARK SMILES IDX 60 46 64 47 61 48 63 49 62 50 49 51 50 52 54 53 51 54 53 55
REMARK SMILES IDX 52 56 6 57 7 58 8 59 9 61 10 62 11 63 26 64 12 65 25 66
REMARK SMILES IDX 24 67 27 68 13 70 14 71 23 72 15 73 18 74 16 75 17 76 19 77
REMARK SMILES IDX 20 78 21 79 22 80
REMARK H PARENT 3 6 69 24 47 35 7 60 27 69
REMARK Flexibility Score: inf
ROOT
ATOM      1  C   UNL A   1      35.882  23.364  25.892  1.00  0.00     0.042 C 
ENDROOT
BRANCH   1   2
ATOM      2  C   UNL A   1      37.128  23.540  25.031  1.00  0.00     0.118 C 
BRANCH   2   3
ATOM      3  N   UNL A   1      38.214  22.655  25.420  1.00  0.00    -0.352 N 
ATOM      4  O   UNL A   1      40.231  22.017  26.154  1.00  0.00    -0.269 OA
ATOM      5  C   UNL A   1      39.379  22.901  26.101  1.00  0.00     0.251 C 
ATOM      6  H   UNL A   1      38.093  21.718  25.147  1.00  0.00     0.163 HD
BRANCH   5   7
ATOM      7  C   UNL A   1      39.634  24.197  26.771  1.00  0.00     0.039 A 
ATOM      8  C   UNL A   1      40.340  25.180  26.069  1.00  0.00     0.014 A 
ATOM      9  C   UNL A   1      39.276  24.426  28.102  1.00  0.00     0.014 A 
ATOM     10  C   UNL A   1      40.665  26.390  26.688  1.00  0.00     0.010 A 
ATOM     11  C   UNL A   1      39.526  25.664  28.693  1.00  0.00     0.010 A 
ATOM     12  C   UNL A   1      40.252  26.645  28.004  1.00  0.00    -0.014 A 
BRANCH  12  13
ATOM     13  C   UNL A   1      40.647  27.894  28.704  1.00  0.00     0.031 A 
ATOM     14  C   UNL A   1      39.644  29.006  28.871  1.00  0.00     0.074 A 
ATOM     15  C   UNL A   1      41.899  28.042  29.177  1.00  0.00     0.049 A 
ATOM     16  N   UNL A   1      39.806  30.191  29.402  1.00  0.00    -0.248 NA
ATOM     17  C   UNL A   1      38.286  28.762  28.353  1.00  0.00     0.031 C 
ATOM     18  C   UNL A   1      42.967  27.047  29.077  1.00  0.00     0.029 A 
ATOM     19  N   UNL A   1      42.481  29.089  29.848  1.00  0.00    -0.354 N 
ATOM     20  C   UNL A   1      38.584  30.838  29.260  1.00  0.00     0.074 A 
ATOM     21  C   UNL A   1      37.703  29.935  28.554  1.00  0.00     0.031 C 
ATOM     22  C   UNL A   1      44.058  27.512  29.705  1.00  0.00     0.029 A 
ATOM     23  C   UNL A   1      43.782  28.852  30.217  1.00  0.00     0.049 A 
ATOM     24  H   UNL A   1      42.009  29.931  30.045  1.00  0.00     0.167 HD
ATOM     25  C   UNL A   1      38.217  32.064  29.698  1.00  0.00     0.031 A 
ATOM     26  C   UNL A   1      44.652  29.620  30.900  1.00  0.00     0.031 A 
ATOM     27  C   UNL A   1      39.076  32.951  30.432  1.00  0.00     0.049 A 
ATOM     28  C   UNL A   1      44.220  30.978  31.381  1.00  0.00     0.074 A 
ATOM     29  C   UNL A   1      38.783  34.205  30.942  1.00  0.00     0.029 A 
ATOM     30  N   UNL A   1      40.386  32.670  30.781  1.00  0.00    -0.354 N 
ATOM     31  N   UNL A   1      43.059  31.570  31.245  1.00  0.00    -0.248 NA
ATOM     32  C   UNL A   1      45.215  31.768  32.121  1.00  0.00     0.031 C 
ATOM     33  C   UNL A   1      39.929  34.695  31.572  1.00  0.00     0.029 A 
ATOM     34  C   UNL A   1      40.918  33.727  31.498  1.00  0.00     0.049 A 
ATOM     35  H   UNL A   1      40.867  31.841  30.553  1.00  0.00     0.167 HD
ATOM     36  C   UNL A   1      43.174  32.787  31.903  1.00  0.00     0.074 A 
ATOM     37  C   UNL A   1      44.514  32.847  32.447  1.00  0.00     0.031 C 
ATOM     38  C   UNL A   1      42.249  33.766  32.043  1.00  0.00     0.031 A 
BRANCH  25  39
ATOM     39  C   UNL A   1      36.815  32.519  29.405  1.00  0.00    -0.014 A 
ATOM     40  C   UNL A   1      35.813  32.368  30.374  1.00  0.00     0.009 A 
ATOM     41  C   UNL A   1      36.473  33.037  28.146  1.00  0.00     0.009 A 
ATOM     42  C   UNL A   1      34.494  32.725  30.090  1.00  0.00     0.001 A 
ATOM     43  C   UNL A   1      35.157  33.418  27.873  1.00  0.00     0.001 A 
ATOM     44  C   UNL A   1      34.168  33.254  28.841  1.00  0.00     0.000 A 
ENDBRANCH  25  39
BRANCH  26  45
ATOM     45  C   UNL A   1      46.006  29.098  31.215  1.00  0.00    -0.014 A 
ATOM     46  C   UNL A   1      46.257  28.421  32.418  1.00  0.00     0.009 A 
ATOM     47  C   UNL A   1      47.065  29.303  30.316  1.00  0.00     0.009 A 
ATOM     48  C   UNL A   1      47.544  27.970  32.720  1.00  0.00     0.001 A 
ATOM     49  C   UNL A   1      48.344  28.829  30.611  1.00  0.00     0.001 A 
ATOM     50  C   UNL A   1      48.585  28.169  31.814  1.00  0.00     0.000 A 
ENDBRANCH  26  45
BRANCH  38  51
ATOM     51  C   UNL A   1      42.626  34.979  32.842  1.00  0.00    -0.014 A 
ATOM     52  C   UNL A   1      42.174  35.106  34.165  1.00  0.00     0.009 A 
ATOM     53  C   UNL A   1      43.338  36.038  32.259  1.00  0.00     0.009 A 
ATOM     54  C   UNL A   1      42.419  36.274  34.888  1.00  0.00     0.001 A 
ATOM     55  C   UNL A   1      43.602  37.196  32.994  1.00  0.00     0.001 A 
ATOM     56  C   UNL A   1      43.135  37.317  34.303  1.00  0.00     0.000 A 
ENDBRANCH  38  51
ENDBRANCH  12  13
ENDBRANCH   5   7
ENDBRANCH   2   3
ENDBRANCH   1   2
BRANCH   1  57
ATOM     57  C   UNL A   1      35.392  21.927  26.017  1.00  0.00     0.118 C 
BRANCH  57  58
ATOM     58  N   UNL A   1      34.538  21.729  27.183  1.00  0.00    -0.352 N 
ATOM     59  C   UNL A   1      33.339  22.317  27.492  1.00  0.00     0.256 C 
ATOM     60  H   UNL A   1      34.873  21.081  27.845  1.00  0.00     0.163 HD
ATOM     61  O   UNL A   1      32.883  22.220  28.628  1.00  0.00    -0.269 OA
BRANCH  59  62
ATOM     62  C   UNL A   1      32.579  23.042  26.466  1.00  0.00     0.102 A 
ATOM     63  C   UNL A   1      32.617  24.442  26.466  1.00  0.00     0.029 A 
ATOM     64  C   UNL A   1      31.767  22.399  25.540  1.00  0.00     0.223 A 
ATOM     65  C   UNL A   1      31.885  25.158  25.512  1.00  0.00     0.001 A 
ATOM     66  N   UNL A   1      31.086  23.049  24.579  1.00  0.00    -0.221 NA
ATOM     67  C   UNL A   1      31.162  24.400  24.587  1.00  0.00     0.124 A 
BRANCH  64  68
ATOM     68  O   UNL A   1      31.572  21.047  25.519  1.00  0.00    -0.493 OA
ATOM     69  H   UNL A   1      31.568  20.563  26.322  1.00  0.00     0.295 HD
ENDBRANCH  64  68
BRANCH  65  70
ATOM     70  C   UNL A   1      31.838  26.624  25.497  1.00  0.00    -0.016 A 
ATOM     71  C   UNL A   1      30.950  27.295  24.638  1.00  0.00     0.012 A 
ATOM     72  C   UNL A   1      32.675  27.395  26.321  1.00  0.00     0.025 A 
ATOM     73  C   UNL A   1      30.908  28.688  24.594  1.00  0.00     0.040 A 
ATOM     74  C   UNL A   1      32.641  28.802  26.281  1.00  0.00     0.092 A 
ATOM     75  C   UNL A   1      31.754  29.427  25.410  1.00  0.00     0.135 A 
ATOM     76  F   UNL A   1      31.709  30.763  25.342  1.00  0.00    -0.206 F 
BRANCH  74  77
ATOM     77  C   UNL A   1      33.545  29.647  27.127  1.00  0.00     0.419 C 
ATOM     78  F   UNL A   1      32.861  30.524  27.914  1.00  0.00    -0.166 F 
ATOM     79  F   UNL A   1      34.337  28.921  27.961  1.00  0.00    -0.166 F 
ATOM     80  F   UNL A   1      34.400  30.413  26.387  1.00  0.00    -0.166 F 
ENDBRANCH  74  77
ENDBRANCH  65  70
ENDBRANCH  59  62
ENDBRANCH  57  58
ENDBRANCH   1  57
TORSDOF 13
ENDMDL
MODEL 3
REMARK VINA RESULT:     -11.1      4.757     10.124
REMARK SMILES O=C(NCCCNC(=O)c1cc(-c2ccc(F)c(C(F)(F)F)c2)cnc1O)c1ccc(-c2c3nc(c(-c4ccccc4)c4ccc([nH]4)c(-c4ccccc4)c4nc(c(-c5ccccc5)c5ccc2[nH]5)C=C4)C=C3)cc1
REMARK SMILES IDX 5 1 4 2 3 3 1 4 2 5 28 7 29 8 75 9 30 10 74 11 31 12 32 13
REMARK SMILES IDX 33 14 68 15 34 16 73 17 67 18 69 19 35 20 72 21 66 22 65 23
REMARK SMILES IDX 36 25 58 26 43 27 57 28 44 29 47 30 56 31 70 32 45 33 46 34
REMARK SMILES IDX 55 36 71 37 48 38 37 39 38 40 42 41 39 42 41 43 40 44 59 45
REMARK SMILES IDX 60 46 64 47 61 48 63 49 62 50 49 51 50 52 54 53 51 54 53 55
REMARK SMILES IDX 52 56 6 57 7 58 8 59 9 61 10 62 11 63 26 64 12 65 25 66
REMARK SMILES IDX 24 67 27 68 13 70 14 71 23 72 15 73 18 74 16 75 17 76 19 77
REMARK SMILES IDX 20 78 21 79 22 80
REMARK H PARENT 3 6 69 24 47 35 7 60 27 69
REMARK Flexibility Score: inf
ROOT
ATOM      1  C   UNL A   1      33.291  34.649  29.316  1.00  0.00     0.042 C 
ENDROOT
BRANCH   1   2
ATOM      2  C   UNL A   1      34.276  33.493  29.186  1.00  0.00     0.118 C 
BRANCH   2   3
ATOM      3  N   UNL A   1      33.818  32.459  28.270  1.00  0.00    -0.352 N 
ATOM      4  O   UNL A   1      33.899  30.675  26.919  1.00  0.00    -0.269 OA
ATOM      5  C   UNL A   1      34.417  31.304  27.841  1.00  0.00     0.251 C 
ATOM      6  H   UNL A   1      32.922  32.617  27.894  1.00  0.00     0.163 HD
BRANCH   5   7
ATOM      7  C   UNL A   1      35.665  30.795  28.455  1.00  0.00     0.039 A 
ATOM      8  C   UNL A   1      36.880  31.370  28.066  1.00  0.00     0.014 A 
ATOM      9  C   UNL A   1      35.669  29.705  29.330  1.00  0.00     0.014 A 
ATOM     10  C   UNL A   1      38.086  30.873  28.567  1.00  0.00     0.010 A 
ATOM     11  C   UNL A   1      36.865  29.263  29.895  1.00  0.00     0.010 A 
ATOM     12  C   UNL A   1      38.087  29.820  29.494  1.00  0.00    -0.014 A 
BRANCH  12  13
ATOM     13  C   UNL A   1      39.360  29.230  29.984  1.00  0.00     0.031 A 
ATOM     14  C   UNL A   1      40.005  29.778  31.230  1.00  0.00     0.074 A 
ATOM     15  C   UNL A   1      39.945  28.220  29.312  1.00  0.00     0.049 A 
ATOM     16  N   UNL A   1      41.138  29.439  31.790  1.00  0.00    -0.248 NA
ATOM     17  C   UNL A   1      39.293  30.863  31.928  1.00  0.00     0.031 C 
ATOM     18  C   UNL A   1      39.428  27.603  28.090  1.00  0.00     0.029 A 
ATOM     19  N   UNL A   1      41.101  27.528  29.573  1.00  0.00    -0.354 N 
ATOM     20  C   UNL A   1      41.285  30.283  32.885  1.00  0.00     0.074 A 
ATOM     21  C   UNL A   1      40.151  31.178  32.887  1.00  0.00     0.031 C 
ATOM     22  C   UNL A   1      40.240  26.595  27.733  1.00  0.00     0.029 A 
ATOM     23  C   UNL A   1      41.353  26.519  28.677  1.00  0.00     0.049 A 
ATOM     24  H   UNL A   1      41.694  27.737  30.330  1.00  0.00     0.167 HD
ATOM     25  C   UNL A   1      42.262  30.296  33.820  1.00  0.00     0.031 A 
ATOM     26  C   UNL A   1      42.359  25.625  28.625  1.00  0.00     0.031 A 
ATOM     27  C   UNL A   1      43.372  29.384  33.845  1.00  0.00     0.049 A 
ATOM     28  C   UNL A   1      43.431  25.657  29.678  1.00  0.00     0.074 A 
ATOM     29  C   UNL A   1      44.399  29.305  34.769  1.00  0.00     0.029 A 
ATOM     30  N   UNL A   1      43.587  28.380  32.915  1.00  0.00    -0.354 N 
ATOM     31  N   UNL A   1      43.550  26.456  30.710  1.00  0.00    -0.248 NA
ATOM     32  C   UNL A   1      44.503  24.655  29.567  1.00  0.00     0.031 C 
ATOM     33  C   UNL A   1      45.254  28.271  34.381  1.00  0.00     0.029 A 
ATOM     34  C   UNL A   1      44.732  27.676  33.243  1.00  0.00     0.049 A 
ATOM     35  H   UNL A   1      43.011  28.195  32.139  1.00  0.00     0.167 HD
ATOM     36  C   UNL A   1      44.690  26.039  31.385  1.00  0.00     0.074 A 
ATOM     37  C   UNL A   1      45.223  24.910  30.651  1.00  0.00     0.031 C 
ATOM     38  C   UNL A   1      45.243  26.547  32.511  1.00  0.00     0.031 A 
BRANCH  25  39
ATOM     39  C   UNL A   1      42.171  31.328  34.909  1.00  0.00    -0.014 A 
ATOM     40  C   UNL A   1      41.338  31.106  36.016  1.00  0.00     0.009 A 
ATOM     41  C   UNL A   1      42.859  32.548  34.808  1.00  0.00     0.009 A 
ATOM     42  C   UNL A   1      41.193  32.085  37.000  1.00  0.00     0.001 A 
ATOM     43  C   UNL A   1      42.733  33.514  35.807  1.00  0.00     0.001 A 
ATOM     44  C   UNL A   1      41.895  33.286  36.897  1.00  0.00     0.000 A 
ENDBRANCH  25  39
BRANCH  26  45
ATOM     45  C   UNL A   1      42.370  24.588  27.561  1.00  0.00    -0.014 A 
ATOM     46  C   UNL A   1      43.021  24.816  26.339  1.00  0.00     0.009 A 
ATOM     47  C   UNL A   1      41.700  23.372  27.758  1.00  0.00     0.009 A 
ATOM     48  C   UNL A   1      42.990  23.849  25.331  1.00  0.00     0.001 A 
ATOM     49  C   UNL A   1      41.692  22.398  26.758  1.00  0.00     0.001 A 
ATOM     50  C   UNL A   1      42.331  22.639  25.543  1.00  0.00     0.000 A 
ENDBRANCH  26  45
BRANCH  38  51
ATOM     51  C   UNL A   1      46.471  25.877  33.055  1.00  0.00    -0.014 A 
ATOM     52  C   UNL A   1      47.736  26.259  32.581  1.00  0.00     0.009 A 
ATOM     53  C   UNL A   1      46.373  24.805  33.954  1.00  0.00     0.009 A 
ATOM     54  C   UNL A   1      48.880  25.574  32.989  1.00  0.00     0.001 A 
ATOM     55  C   UNL A   1      47.523  24.137  34.379  1.00  0.00     0.001 A 
ATOM     56  C   UNL A   1      48.774  24.516  33.890  1.00  0.00     0.000 A 
ENDBRANCH  38  51
ENDBRANCH  12  13
ENDBRANCH   5   7
ENDBRANCH   2   3
ENDBRANCH   1   2
BRANCH   1  57
ATOM     57  C   UNL A   1      33.929  36.033  29.312  1.00  0.00     0.118 C 
BRANCH  57  58
ATOM     58  N   UNL A   1      33.368  36.907  30.337  1.00  0.00    -0.352 N 
ATOM     59  C   UNL A   1      33.270  36.709  31.689  1.00  0.00     0.256 C 
ATOM     60  H   UNL A   1      33.008  37.763  30.009  1.00  0.00     0.163 HD
ATOM     61  O   UNL A   1      32.548  37.437  32.365  1.00  0.00    -0.269 OA
BRANCH  59  62
ATOM     62  C   UNL A   1      34.042  35.645  32.344  1.00  0.00     0.102 A 
ATOM     63  C   UNL A   1      35.438  35.663  32.233  1.00  0.00     0.029 A 
ATOM     64  C   UNL A   1      33.441  34.582  33.006  1.00  0.00     0.223 A 
ATOM     65  C   UNL A   1      36.196  34.649  32.828  1.00  0.00     0.001 A 
ATOM     66  N   UNL A   1      34.137  33.615  33.630  1.00  0.00    -0.221 NA
ATOM     67  C   UNL A   1      35.485  33.671  33.530  1.00  0.00     0.124 A 
BRANCH  64  68
ATOM     68  O   UNL A   1      32.089  34.408  33.080  1.00  0.00    -0.493 OA
ATOM     69  H   UNL A   1      31.656  33.839  32.473  1.00  0.00     0.295 HD
ENDBRANCH  64  68
BRANCH  65  70
ATOM     70  C   UNL A   1      37.656  34.582  32.699  1.00  0.00    -0.016 A 
ATOM     71  C   UNL A   1      38.473  34.680  33.841  1.00  0.00     0.012 A 
ATOM     72  C   UNL A   1      38.278  34.430  31.449  1.00  0.00     0.025 A 
ATOM     73  C   UNL A   1      39.863  34.641  33.734  1.00  0.00     0.040 A 
ATOM     74  C   UNL A   1      39.681  34.391  31.332  1.00  0.00     0.092 A 
ATOM     75  C   UNL A   1      40.453  34.502  32.485  1.00  0.00     0.135 A 
ATOM     76  F   UNL A   1      41.789  34.481  32.402  1.00  0.00    -0.206 F 
BRANCH  74  77
ATOM     77  C   UNL A   1      40.369  34.261  30.007  1.00  0.00     0.419 C 
ATOM     78  F   UNL A   1      41.029  33.077  29.872  1.00  0.00    -0.166 F 
ATOM     79  F   UNL A   1      39.520  34.350  28.948  1.00  0.00    -0.166 F 
ATOM     80  F   UNL A   1      41.311  35.228  29.802  1.00  0.00    -0.166 F 
ENDBRANCH  74  77
ENDBRANCH  65  70
ENDBRANCH  59  62
ENDBRANCH  57  58
ENDBRANCH   1  57
TORSDOF 13
ENDMDL
