MODEL 1
REMARK VINA RESULT:     -13.3      0.000      0.000
REMARK SMILES Cc1ccccc1S(=O)(=O)Nc1ccc(N2CCOCC2)cc1C(=O)NCCCNC(=O)c1ccc(-c2c3nc(c(-c4ccccc4)c4ccc([nH]4)c(-c4ccccc4)c4nc(c(-c5ccccc5)c5ccc2[nH]5)C=C4)C=C3)cc1
REMARK SMILES IDX 27 1 26 2 24 3 25 4 23 6 12 7 13 8 14 9 22 10 15 11 11 12
REMARK SMILES IDX 8 14 9 15 10 16 7 17 1 18 2 19 3 20 4 21 6 22 5 23 16 24
REMARK SMILES IDX 17 25 21 26 18 27 20 28 19 29 28 30 29 31 30 32 31 33 32 35
REMARK SMILES IDX 33 36 34 37 80 38 35 39 79 40 36 41 37 42 38 43 73 44 39 45
REMARK SMILES IDX 78 46 72 47 74 48 40 49 77 50 71 51 70 52 41 54 63 55 48 56
REMARK SMILES IDX 62 57 49 58 52 59 61 60 75 61 50 62 51 63 60 65 76 66 53 67
REMARK SMILES IDX 42 68 43 69 47 70 44 71 46 72 45 73 64 74 65 75 69 76 66 77
REMARK SMILES IDX 68 78 67 79 54 80 55 81 59 82 56 83 58 84 57 85
REMARK H PARENT 26 5 11 13 30 34 74 53 52 64
REMARK Flexibility Score: inf
ROOT
ATOM      1  C   UNL A   1      31.978  30.467  25.886  1.00  0.00     0.118 C 
ENDROOT
BRANCH   1   2
ATOM      2  N   UNL A   1      32.995  29.809  25.069  1.00  0.00    -0.352 N 
ATOM      3  C   UNL A   1      32.849  28.973  23.977  1.00  0.00     0.253 C 
ATOM      4  O   UNL A   1      33.843  28.532  23.407  1.00  0.00    -0.269 OA
ATOM      5  H   UNL A   1      33.926  29.989  25.336  1.00  0.00     0.163 HD
BRANCH   3   6
ATOM      6  C   UNL A   1      31.494  28.575  23.525  1.00  0.00     0.066 A 
ATOM      7  C   UNL A   1      30.978  27.306  23.806  1.00  0.00     0.062 A 
ATOM      8  C   UNL A   1      29.641  27.058  23.511  1.00  0.00     0.030 A 
ATOM      9  C   UNL A   1      28.812  28.100  23.068  1.00  0.00     0.028 A 
ATOM     10  C   UNL A   1      30.684  29.541  22.904  1.00  0.00     0.042 A 
ATOM     11  C   UNL A   1      29.301  29.390  22.826  1.00  0.00     0.038 A 
BRANCH   7  12
ATOM     12  N   UNL A   1      31.762  26.266  24.367  1.00  0.00    -0.279 N 
ATOM     13  H   UNL A   1      32.315  26.472  25.155  1.00  0.00     0.180 HD
BRANCH  12  14
ATOM     14  S   UNL A   1      31.797  24.706  23.760  1.00  0.00     0.262 S 
ATOM     15  O   UNL A   1      31.901  24.863  22.321  1.00  0.00    -0.201 OA
ATOM     16  O   UNL A   1      30.690  23.952  24.309  1.00  0.00    -0.201 OA
BRANCH  14  17
ATOM     17  C   UNL A   1      33.337  23.962  24.328  1.00  0.00     0.090 A 
ATOM     18  C   UNL A   1      32.880  21.598  23.359  1.00  0.00     0.046 C 
ATOM     19  C   UNL A   1      33.738  22.650  24.000  1.00  0.00    -0.031 A 
ATOM     20  C   UNL A   1      35.041  22.239  24.354  1.00  0.00     0.005 A 
ATOM     21  C   UNL A   1      35.935  23.099  24.990  1.00  0.00     0.000 A 
ATOM     22  C   UNL A   1      34.246  24.820  24.982  1.00  0.00     0.022 A 
ATOM     23  C   UNL A   1      35.535  24.388  25.312  1.00  0.00     0.001 A 
ENDBRANCH  14  17
ENDBRANCH  12  14
ENDBRANCH   7  12
BRANCH  11  24
ATOM     24  N   UNL A   1      28.466  30.468  22.614  1.00  0.00    -0.367 N 
ATOM     25  C   UNL A   1      27.784  30.766  21.340  1.00  0.00     0.145 C 
ATOM     26  C   UNL A   1      28.386  31.571  23.596  1.00  0.00     0.145 C 
ATOM     27  C   UNL A   1      28.239  32.127  20.789  1.00  0.00     0.181 C 
ATOM     28  C   UNL A   1      28.768  32.914  22.943  1.00  0.00     0.181 C 
ATOM     29  O   UNL A   1      28.019  33.172  21.747  1.00  0.00    -0.378 OA
ENDBRANCH  11  24
ENDBRANCH   3   6
ENDBRANCH   1   2
BRANCH   1  30
ATOM     30  C   UNL A   1      32.519  31.202  27.091  1.00  0.00     0.042 C 
BRANCH  30  31
ATOM     31  C   UNL A   1      33.769  30.577  27.667  1.00  0.00     0.118 C 
BRANCH  31  32
ATOM     32  N   UNL A   1      34.577  31.533  28.440  1.00  0.00    -0.352 N 
ATOM     33  C   UNL A   1      35.881  31.432  28.884  1.00  0.00     0.251 C 
ATOM     34  H   UNL A   1      34.119  32.372  28.677  1.00  0.00     0.163 HD
ATOM     35  O   UNL A   1      36.458  32.368  29.371  1.00  0.00    -0.269 OA
BRANCH  33  36
ATOM     36  C   UNL A   1      36.595  30.155  28.618  1.00  0.00     0.039 A 
ATOM     37  C   UNL A   1      36.778  29.297  29.704  1.00  0.00     0.014 A 
ATOM     38  C   UNL A   1      37.362  30.040  27.462  1.00  0.00     0.014 A 
ATOM     39  C   UNL A   1      37.927  28.521  29.748  1.00  0.00     0.010 A 
ATOM     40  C   UNL A   1      38.560  29.357  27.561  1.00  0.00     0.010 A 
ATOM     41  C   UNL A   1      38.881  28.670  28.742  1.00  0.00    -0.014 A 
BRANCH  41  42
ATOM     42  C   UNL A   1      40.283  28.305  28.934  1.00  0.00     0.031 A 
ATOM     43  C   UNL A   1      40.810  27.033  28.407  1.00  0.00     0.074 A 
ATOM     44  C   UNL A   1      41.132  29.138  29.581  1.00  0.00     0.049 A 
ATOM     45  N   UNL A   1      41.855  26.436  28.878  1.00  0.00    -0.248 NA
ATOM     46  C   UNL A   1      40.151  26.285  27.345  1.00  0.00     0.031 C 
ATOM     47  C   UNL A   1      42.591  29.068  29.612  1.00  0.00     0.029 A 
ATOM     48  N   UNL A   1      40.814  30.093  30.548  1.00  0.00    -0.354 N 
ATOM     49  C   UNL A   1      42.176  25.422  28.010  1.00  0.00     0.074 A 
ATOM     50  C   UNL A   1      41.030  25.301  27.139  1.00  0.00     0.031 C 
ATOM     51  C   UNL A   1      43.037  29.732  30.688  1.00  0.00     0.029 A 
ATOM     52  C   UNL A   1      41.878  30.126  31.470  1.00  0.00     0.049 A 
ATOM     53  H   UNL A   1      39.997  30.642  30.579  1.00  0.00     0.167 HD
ATOM     54  C   UNL A   1      43.430  24.890  28.036  1.00  0.00     0.031 A 
ATOM     55  C   UNL A   1      41.686  29.841  32.791  1.00  0.00     0.031 A 
ATOM     56  C   UNL A   1      44.247  25.422  29.130  1.00  0.00     0.049 A 
ATOM     57  C   UNL A   1      42.481  28.659  33.310  1.00  0.00     0.074 A 
ATOM     58  C   UNL A   1      45.325  26.290  29.202  1.00  0.00     0.029 A 
ATOM     59  N   UNL A   1      43.822  25.234  30.436  1.00  0.00    -0.354 N 
ATOM     60  N   UNL A   1      43.223  27.888  32.566  1.00  0.00    -0.248 NA
ATOM     61  C   UNL A   1      42.403  28.183  34.693  1.00  0.00     0.031 C 
ATOM     62  C   UNL A   1      45.568  26.588  30.572  1.00  0.00     0.029 A 
ATOM     63  C   UNL A   1      44.638  25.902  31.328  1.00  0.00     0.049 A 
ATOM     64  H   UNL A   1      43.041  24.694  30.694  1.00  0.00     0.167 HD
ATOM     65  C   UNL A   1      43.652  26.817  33.305  1.00  0.00     0.074 A 
ATOM     66  C   UNL A   1      43.121  27.048  34.634  1.00  0.00     0.031 C 
ATOM     67  C   UNL A   1      44.362  25.794  32.750  1.00  0.00     0.031 A 
BRANCH  54  68
ATOM     68  C   UNL A   1      44.007  24.058  26.912  1.00  0.00    -0.014 A 
ATOM     69  C   UNL A   1      44.933  24.639  26.025  1.00  0.00     0.009 A 
ATOM     70  C   UNL A   1      43.650  22.728  26.631  1.00  0.00     0.009 A 
ATOM     71  C   UNL A   1      45.383  23.976  24.875  1.00  0.00     0.001 A 
ATOM     72  C   UNL A   1      44.066  22.069  25.466  1.00  0.00     0.001 A 
ATOM     73  C   UNL A   1      44.924  22.700  24.579  1.00  0.00     0.000 A 
ENDBRANCH  54  68
BRANCH  55  74
ATOM     74  C   UNL A   1      40.339  30.226  33.290  1.00  0.00    -0.014 A 
ATOM     75  C   UNL A   1      40.077  31.587  33.539  1.00  0.00     0.009 A 
ATOM     76  C   UNL A   1      39.259  29.340  33.186  1.00  0.00     0.009 A 
ATOM     77  C   UNL A   1      38.765  32.066  33.572  1.00  0.00     0.001 A 
ATOM     78  C   UNL A   1      37.946  29.822  33.229  1.00  0.00     0.001 A 
ATOM     79  C   UNL A   1      37.701  31.187  33.387  1.00  0.00     0.000 A 
ENDBRANCH  55  74
BRANCH  67  80
ATOM     80  C   UNL A   1      44.839  24.576  33.492  1.00  0.00    -0.014 A 
ATOM     81  C   UNL A   1      46.175  24.376  33.863  1.00  0.00     0.009 A 
ATOM     82  C   UNL A   1      43.943  23.512  33.731  1.00  0.00     0.009 A 
ATOM     83  C   UNL A   1      46.582  23.189  34.490  1.00  0.00     0.001 A 
ATOM     84  C   UNL A   1      44.349  22.320  34.335  1.00  0.00     0.001 A 
ATOM     85  C   UNL A   1      45.670  22.162  34.724  1.00  0.00     0.000 A 
ENDBRANCH  67  80
ENDBRANCH  41  42
ENDBRANCH  33  36
ENDBRANCH  31  32
ENDBRANCH  30  31
ENDBRANCH   1  30
TORSDOF 14
ENDMDL
MODEL 2
REMARK VINA RESULT:     -13.2      1.978      3.294
REMARK SMILES Cc1ccccc1S(=O)(=O)Nc1ccc(N2CCOCC2)cc1C(=O)NCCCNC(=O)c1ccc(-c2c3nc(c(-c4ccccc4)c4ccc([nH]4)c(-c4ccccc4)c4nc(c(-c5ccccc5)c5ccc2[nH]5)C=C4)C=C3)cc1
REMARK SMILES IDX 27 1 26 2 24 3 25 4 23 6 12 7 13 8 14 9 22 10 15 11 11 12
REMARK SMILES IDX 8 14 9 15 10 16 7 17 1 18 2 19 3 20 4 21 6 22 5 23 16 24
REMARK SMILES IDX 17 25 21 26 18 27 20 28 19 29 28 30 29 31 30 32 31 33 32 35
REMARK SMILES IDX 33 36 34 37 80 38 35 39 79 40 36 41 37 42 38 43 73 44 39 45
REMARK SMILES IDX 78 46 72 47 74 48 40 49 77 50 71 51 70 52 41 54 63 55 48 56
REMARK SMILES IDX 62 57 49 58 52 59 61 60 75 61 50 62 51 63 60 65 76 66 53 67
REMARK SMILES IDX 42 68 43 69 47 70 44 71 46 72 45 73 64 74 65 75 69 76 66 77
REMARK SMILES IDX 68 78 67 79 54 80 55 81 59 82 56 83 58 84 57 85
REMARK H PARENT 26 5 11 13 30 34 74 53 52 64
REMARK Flexibility Score: inf
ROOT
ATOM      1  C   UNL A   1      33.107  29.403  25.999  1.00  0.00     0.118 C 
ENDROOT
BRANCH   1   2
ATOM      2  N   UNL A   1      33.860  29.291  24.752  1.00  0.00    -0.352 N 
ATOM      3  C   UNL A   1      33.445  28.871  23.502  1.00  0.00     0.253 C 
ATOM      4  O   UNL A   1      34.236  28.867  22.563  1.00  0.00    -0.269 OA
ATOM      5  H   UNL A   1      34.807  29.555  24.811  1.00  0.00     0.163 HD
BRANCH   3   6
ATOM      6  C   UNL A   1      32.058  28.382  23.308  1.00  0.00     0.066 A 
ATOM      7  C   UNL A   1      31.668  27.110  23.739  1.00  0.00     0.062 A 
ATOM      8  C   UNL A   1      30.317  26.782  23.688  1.00  0.00     0.030 A 
ATOM      9  C   UNL A   1      29.369  27.754  23.337  1.00  0.00     0.028 A 
ATOM     10  C   UNL A   1      31.103  29.268  22.782  1.00  0.00     0.042 A 
ATOM     11  C   UNL A   1      29.737  29.048  22.947  1.00  0.00     0.038 A 
BRANCH   7  12
ATOM     12  N   UNL A   1      32.593  26.145  24.215  1.00  0.00    -0.279 N 
ATOM     13  H   UNL A   1      32.947  26.247  25.128  1.00  0.00     0.180 HD
BRANCH  12  14
ATOM     14  S   UNL A   1      33.115  24.841  23.304  1.00  0.00     0.262 S 
ATOM     15  O   UNL A   1      33.760  25.425  22.143  1.00  0.00    -0.201 OA
ATOM     16  O   UNL A   1      32.017  23.918  23.112  1.00  0.00    -0.201 OA
BRANCH  14  17
ATOM     17  C   UNL A   1      34.396  24.016  24.266  1.00  0.00     0.090 A 
ATOM     18  C   UNL A   1      33.018  23.820  26.457  1.00  0.00     0.046 C 
ATOM     19  C   UNL A   1      34.199  23.529  25.575  1.00  0.00    -0.031 A 
ATOM     20  C   UNL A   1      35.216  22.746  26.162  1.00  0.00     0.005 A 
ATOM     21  C   UNL A   1      36.386  22.429  25.474  1.00  0.00     0.000 A 
ATOM     22  C   UNL A   1      35.589  23.698  23.584  1.00  0.00     0.022 A 
ATOM     23  C   UNL A   1      36.577  22.913  24.186  1.00  0.00     0.001 A 
ENDBRANCH  14  17
ENDBRANCH  12  14
ENDBRANCH   7  12
BRANCH  11  24
ATOM     24  N   UNL A   1      28.818  30.070  22.822  1.00  0.00    -0.367 N 
ATOM     25  C   UNL A   1      27.901  30.241  21.680  1.00  0.00     0.145 C 
ATOM     26  C   UNL A   1      28.857  31.240  23.726  1.00  0.00     0.145 C 
ATOM     27  C   UNL A   1      28.172  31.575  20.964  1.00  0.00     0.181 C 
ATOM     28  C   UNL A   1      29.038  32.545  22.925  1.00  0.00     0.181 C 
ATOM     29  O   UNL A   1      28.072  32.680  21.874  1.00  0.00    -0.378 OA
ENDBRANCH  11  24
ENDBRANCH   3   6
ENDBRANCH   1   2
BRANCH   1  30
ATOM     30  C   UNL A   1      33.957  29.398  27.249  1.00  0.00     0.042 C 
BRANCH  30  31
ATOM     31  C   UNL A   1      34.588  30.738  27.555  1.00  0.00     0.118 C 
BRANCH  31  32
ATOM     32  N   UNL A   1      33.604  31.831  27.595  1.00  0.00    -0.352 N 
ATOM     33  C   UNL A   1      33.632  33.018  28.301  1.00  0.00     0.251 C 
ATOM     34  H   UNL A   1      32.806  31.697  27.035  1.00  0.00     0.163 HD
ATOM     35  O   UNL A   1      32.824  33.889  28.108  1.00  0.00    -0.269 OA
BRANCH  33  36
ATOM     36  C   UNL A   1      34.779  33.239  29.221  1.00  0.00     0.039 A 
ATOM     37  C   UNL A   1      35.832  34.021  28.741  1.00  0.00     0.014 A 
ATOM     38  C   UNL A   1      34.944  32.387  30.309  1.00  0.00     0.014 A 
ATOM     39  C   UNL A   1      37.120  33.726  29.160  1.00  0.00     0.010 A 
ATOM     40  C   UNL A   1      36.235  32.018  30.636  1.00  0.00     0.010 A 
ATOM     41  C   UNL A   1      37.324  32.628  29.994  1.00  0.00    -0.014 A 
BRANCH  41  42
ATOM     42  C   UNL A   1      38.614  31.946  30.088  1.00  0.00     0.031 A 
ATOM     43  C   UNL A   1      38.833  30.650  29.419  1.00  0.00     0.074 A 
ATOM     44  C   UNL A   1      39.641  32.502  30.772  1.00  0.00     0.049 A 
ATOM     45  N   UNL A   1      39.728  29.794  29.784  1.00  0.00    -0.248 NA
ATOM     46  C   UNL A   1      38.000  30.179  28.321  1.00  0.00     0.031 C 
ATOM     47  C   UNL A   1      41.049  32.112  30.731  1.00  0.00     0.029 A 
ATOM     48  N   UNL A   1      39.566  33.400  31.838  1.00  0.00    -0.354 N 
ATOM     49  C   UNL A   1      39.797  28.828  28.810  1.00  0.00     0.074 A 
ATOM     50  C   UNL A   1      38.633  29.052  27.983  1.00  0.00     0.031 C 
ATOM     51  C   UNL A   1      41.655  32.547  31.845  1.00  0.00     0.029 A 
ATOM     52  C   UNL A   1      40.631  33.104  32.711  1.00  0.00     0.049 A 
ATOM     53  H   UNL A   1      38.893  34.109  31.958  1.00  0.00     0.167 HD
ATOM     54  C   UNL A   1      40.901  28.035  28.730  1.00  0.00     0.031 A 
ATOM     55  C   UNL A   1      40.410  32.734  34.006  1.00  0.00     0.031 A 
ATOM     56  C   UNL A   1      41.840  28.260  29.832  1.00  0.00     0.049 A 
ATOM     57  C   UNL A   1      40.933  31.360  34.375  1.00  0.00     0.074 A 
ATOM     58  C   UNL A   1      43.085  28.858  29.938  1.00  0.00     0.029 A 
ATOM     59  N   UNL A   1      41.414  28.037  31.132  1.00  0.00    -0.354 N 
ATOM     60  N   UNL A   1      41.468  30.525  33.529  1.00  0.00    -0.248 NA
ATOM     61  C   UNL A   1      40.783  30.773  35.709  1.00  0.00     0.031 C 
ATOM     62  C   UNL A   1      43.419  28.954  31.318  1.00  0.00     0.029 A 
ATOM     63  C   UNL A   1      42.378  28.414  32.046  1.00  0.00     0.049 A 
ATOM     64  H   UNL A   1      40.538  27.658  31.372  1.00  0.00     0.167 HD
ATOM     65  C   UNL A   1      41.665  29.316  34.142  1.00  0.00     0.074 A 
ATOM     66  C   UNL A   1      41.229  29.521  35.510  1.00  0.00     0.031 C 
ATOM     67  C   UNL A   1      42.117  28.224  33.462  1.00  0.00     0.031 A 
BRANCH  54  68
ATOM     68  C   UNL A   1      41.253  27.216  27.508  1.00  0.00    -0.014 A 
ATOM     69  C   UNL A   1      41.029  25.827  27.515  1.00  0.00     0.009 A 
ATOM     70  C   UNL A   1      41.855  27.726  26.345  1.00  0.00     0.009 A 
ATOM     71  C   UNL A   1      41.476  24.992  26.482  1.00  0.00     0.001 A 
ATOM     72  C   UNL A   1      42.337  26.898  25.323  1.00  0.00     0.001 A 
ATOM     73  C   UNL A   1      42.160  25.525  25.399  1.00  0.00     0.000 A 
ENDBRANCH  54  68
BRANCH  55  74
ATOM     74  C   UNL A   1      39.194  33.352  34.600  1.00  0.00    -0.014 A 
ATOM     75  C   UNL A   1      37.932  32.916  34.154  1.00  0.00     0.009 A 
ATOM     76  C   UNL A   1      39.272  34.075  35.798  1.00  0.00     0.009 A 
ATOM     77  C   UNL A   1      36.793  33.103  34.941  1.00  0.00     0.001 A 
ATOM     78  C   UNL A   1      38.128  34.269  36.578  1.00  0.00     0.001 A 
ATOM     79  C   UNL A   1      36.897  33.754  36.167  1.00  0.00     0.000 A 
ENDBRANCH  55  74
BRANCH  67  80
ATOM     80  C   UNL A   1      42.327  26.862  34.063  1.00  0.00    -0.014 A 
ATOM     81  C   UNL A   1      41.412  26.255  34.932  1.00  0.00     0.009 A 
ATOM     82  C   UNL A   1      43.553  26.194  33.856  1.00  0.00     0.009 A 
ATOM     83  C   UNL A   1      41.689  25.014  35.523  1.00  0.00     0.001 A 
ATOM     84  C   UNL A   1      43.842  24.968  34.460  1.00  0.00     0.001 A 
ATOM     85  C   UNL A   1      42.903  24.372  35.288  1.00  0.00     0.000 A 
ENDBRANCH  67  80
ENDBRANCH  41  42
ENDBRANCH  33  36
ENDBRANCH  31  32
ENDBRANCH  30  31
ENDBRANCH   1  30
TORSDOF 14
ENDMDL
MODEL 3
REMARK VINA RESULT:     -13.2      3.545      9.317
REMARK SMILES Cc1ccccc1S(=O)(=O)Nc1ccc(N2CCOCC2)cc1C(=O)NCCCNC(=O)c1ccc(-c2c3nc(c(-c4ccccc4)c4ccc([nH]4)c(-c4ccccc4)c4nc(c(-c5ccccc5)c5ccc2[nH]5)C=C4)C=C3)cc1
REMARK SMILES IDX 27 1 26 2 24 3 25 4 23 6 12 7 13 8 14 9 22 10 15 11 11 12
REMARK SMILES IDX 8 14 9 15 10 16 7 17 1 18 2 19 3 20 4 21 6 22 5 23 16 24
REMARK SMILES IDX 17 25 21 26 18 27 20 28 19 29 28 30 29 31 30 32 31 33 32 35
REMARK SMILES IDX 33 36 34 37 80 38 35 39 79 40 36 41 37 42 38 43 73 44 39 45
REMARK SMILES IDX 78 46 72 47 74 48 40 49 77 50 71 51 70 52 41 54 63 55 48 56
REMARK SMILES IDX 62 57 49 58 52 59 61 60 75 61 50 62 51 63 60 65 76 66 53 67
REMARK SMILES IDX 42 68 43 69 47 70 44 71 46 72 45 73 64 74 65 75 69 76 66 77
REMARK SMILES IDX 68 78 67 79 54 80 55 81 59 82 56 83 58 84 57 85
REMARK H PARENT 26 5 11 13 30 34 74 53 52 64
REMARK Flexibility Score: inf
ROOT
ATOM      1  C   UNL A   1      37.747  21.880  25.332  1.00  0.00     0.118 C 
ENDROOT
BRANCH   1   2
ATOM      2  N   UNL A   1      37.066  22.557  24.229  1.00  0.00    -0.352 N 
ATOM      3  C   UNL A   1      35.723  22.581  23.900  1.00  0.00     0.253 C 
ATOM      4  O   UNL A   1      35.342  23.235  22.933  1.00  0.00    -0.269 OA
ATOM      5  H   UNL A   1      37.653  23.074  23.631  1.00  0.00     0.163 HD
BRANCH   3   6
ATOM      6  C   UNL A   1      34.753  21.782  24.688  1.00  0.00     0.066 A 
ATOM      7  C   UNL A   1      33.688  22.389  25.360  1.00  0.00     0.062 A 
ATOM      8  C   UNL A   1      32.717  21.572  25.931  1.00  0.00     0.030 A 
ATOM      9  C   UNL A   1      32.747  20.186  25.716  1.00  0.00     0.028 A 
ATOM     10  C   UNL A   1      34.855  20.382  24.653  1.00  0.00     0.042 A 
ATOM     11  C   UNL A   1      33.782  19.565  25.004  1.00  0.00     0.038 A 
BRANCH   7  12
ATOM     12  N   UNL A   1      33.566  23.796  25.491  1.00  0.00    -0.279 N 
ATOM     13  H   UNL A   1      34.388  24.336  25.521  1.00  0.00     0.180 HD
BRANCH  12  14
ATOM     14  S   UNL A   1      32.094  24.589  25.596  1.00  0.00     0.262 S 
ATOM     15  O   UNL A   1      31.658  24.395  26.966  1.00  0.00    -0.201 OA
ATOM     16  O   UNL A   1      31.236  24.154  24.515  1.00  0.00    -0.201 OA
BRANCH  14  17
ATOM     17  C   UNL A   1      32.435  26.346  25.388  1.00  0.00     0.090 A 
ATOM     18  C   UNL A   1      30.154  26.947  24.307  1.00  0.00     0.046 C 
ATOM     19  C   UNL A   1      31.483  27.277  24.923  1.00  0.00    -0.031 A 
ATOM     20  C   UNL A   1      31.807  28.649  24.969  1.00  0.00     0.005 A 
ATOM     21  C   UNL A   1      33.024  29.099  25.480  1.00  0.00     0.000 A 
ATOM     22  C   UNL A   1      33.667  26.812  25.892  1.00  0.00     0.022 A 
ATOM     23  C   UNL A   1      33.959  28.179  25.935  1.00  0.00     0.001 A 
ENDBRANCH  14  17
ENDBRANCH  12  14
ENDBRANCH   7  12
BRANCH  11  24
ATOM     24  N   UNL A   1      33.708  18.249  24.593  1.00  0.00    -0.367 N 
ATOM     25  C   UNL A   1      32.490  17.420  24.643  1.00  0.00     0.145 C 
ATOM     26  C   UNL A   1      34.935  17.477  24.296  1.00  0.00     0.145 C 
ATOM     27  C   UNL A   1      32.700  16.205  25.563  1.00  0.00     0.181 C 
ATOM     28  C   UNL A   1      35.025  16.227  25.195  1.00  0.00     0.181 C 
ATOM     29  O   UNL A   1      33.833  15.431  25.144  1.00  0.00    -0.378 OA
ENDBRANCH  11  24
ENDBRANCH   3   6
ENDBRANCH   1   2
BRANCH   1  30
ATOM     30  C   UNL A   1      38.770  22.728  26.052  1.00  0.00     0.042 C 
BRANCH  30  31
ATOM     31  C   UNL A   1      39.740  21.924  26.887  1.00  0.00     0.118 C 
BRANCH  31  32
ATOM     32  N   UNL A   1      40.452  20.902  26.103  1.00  0.00    -0.352 N 
ATOM     33  C   UNL A   1      41.806  20.642  26.015  1.00  0.00     0.251 C 
ATOM     34  H   UNL A   1      39.877  20.316  25.560  1.00  0.00     0.163 HD
ATOM     35  O   UNL A   1      42.227  19.666  25.451  1.00  0.00    -0.269 OA
BRANCH  33  36
ATOM     36  C   UNL A   1      42.724  21.545  26.756  1.00  0.00     0.039 A 
ATOM     37  C   UNL A   1      42.654  21.509  28.151  1.00  0.00     0.014 A 
ATOM     38  C   UNL A   1      43.303  22.617  26.085  1.00  0.00     0.014 A 
ATOM     39  C   UNL A   1      42.892  22.680  28.855  1.00  0.00     0.010 A 
ATOM     40  C   UNL A   1      43.425  23.808  26.777  1.00  0.00     0.010 A 
ATOM     41  C   UNL A   1      43.133  23.856  28.148  1.00  0.00    -0.014 A 
BRANCH  41  42
ATOM     42  C   UNL A   1      42.905  25.178  28.730  1.00  0.00     0.031 A 
ATOM     43  C   UNL A   1      41.732  25.982  28.340  1.00  0.00     0.074 A 
ATOM     44  C   UNL A   1      43.754  25.681  29.656  1.00  0.00     0.049 A 
ATOM     45  N   UNL A   1      41.675  27.268  28.442  1.00  0.00    -0.248 NA
ATOM     46  C   UNL A   1      40.546  25.401  27.725  1.00  0.00     0.031 C 
ATOM     47  C   UNL A   1      43.533  26.830  30.532  1.00  0.00     0.029 A 
ATOM     48  N   UNL A   1      45.108  25.381  29.821  1.00  0.00    -0.354 N 
ATOM     49  C   UNL A   1      40.375  27.643  28.208  1.00  0.00     0.074 A 
ATOM     50  C   UNL A   1      39.742  26.465  27.662  1.00  0.00     0.031 C 
ATOM     51  C   UNL A   1      44.719  27.298  30.947  1.00  0.00     0.029 A 
ATOM     52  C   UNL A   1      45.751  26.563  30.237  1.00  0.00     0.049 A 
ATOM     53  H   UNL A   1      45.534  24.506  29.674  1.00  0.00     0.167 HD
ATOM     54  C   UNL A   1      39.943  28.864  28.629  1.00  0.00     0.031 A 
ATOM     55  C   UNL A   1      46.753  27.127  29.502  1.00  0.00     0.031 A 
ATOM     56  C   UNL A   1      41.022  29.685  29.184  1.00  0.00     0.049 A 
ATOM     57  C   UNL A   1      46.474  28.536  29.018  1.00  0.00     0.074 A 
ATOM     58  C   UNL A   1      41.369  30.097  30.460  1.00  0.00     0.029 A 
ATOM     59  N   UNL A   1      42.096  30.018  28.372  1.00  0.00    -0.354 N 
ATOM     60  N   UNL A   1      45.343  29.160  29.185  1.00  0.00    -0.248 NA
ATOM     61  C   UNL A   1      47.415  29.308  28.202  1.00  0.00     0.031 C 
ATOM     62  C   UNL A   1      42.648  30.720  30.397  1.00  0.00     0.029 A 
ATOM     63  C   UNL A   1      43.074  30.684  29.084  1.00  0.00     0.049 A 
ATOM     64  H   UNL A   1      42.153  29.808  27.412  1.00  0.00     0.167 HD
ATOM     65  C   UNL A   1      45.359  30.334  28.477  1.00  0.00     0.074 A 
ATOM     66  C   UNL A   1      46.682  30.388  27.885  1.00  0.00     0.031 C 
ATOM     67  C   UNL A   1      44.264  31.140  28.387  1.00  0.00     0.031 A 
BRANCH  54  68
ATOM     68  C   UNL A   1      38.482  29.231  28.766  1.00  0.00    -0.014 A 
ATOM     69  C   UNL A   1      37.790  29.748  27.655  1.00  0.00     0.009 A 
ATOM     70  C   UNL A   1      37.741  29.150  29.958  1.00  0.00     0.009 A 
ATOM     71  C   UNL A   1      36.486  30.253  27.756  1.00  0.00     0.001 A 
ATOM     72  C   UNL A   1      36.451  29.684  30.078  1.00  0.00     0.001 A 
ATOM     73  C   UNL A   1      35.827  30.249  28.977  1.00  0.00     0.000 A 
ENDBRANCH  54  68
BRANCH  55  74
ATOM     74  C   UNL A   1      47.569  26.134  28.753  1.00  0.00    -0.014 A 
ATOM     75  C   UNL A   1      47.288  25.922  27.390  1.00  0.00     0.009 A 
ATOM     76  C   UNL A   1      48.793  25.682  29.266  1.00  0.00     0.009 A 
ATOM     77  C   UNL A   1      48.250  25.373  26.539  1.00  0.00     0.001 A 
ATOM     78  C   UNL A   1      49.751  25.124  28.413  1.00  0.00     0.001 A 
ATOM     79  C   UNL A   1      49.493  25.000  27.047  1.00  0.00     0.000 A 
ENDBRANCH  55  74
BRANCH  67  80
ATOM     80  C   UNL A   1      44.202  32.423  27.607  1.00  0.00    -0.014 A 
ATOM     81  C   UNL A   1      43.948  33.669  28.194  1.00  0.00     0.009 A 
ATOM     82  C   UNL A   1      44.277  32.384  26.198  1.00  0.00     0.009 A 
ATOM     83  C   UNL A   1      43.828  34.827  27.412  1.00  0.00     0.001 A 
ATOM     84  C   UNL A   1      44.137  33.531  25.413  1.00  0.00     0.001 A 
ATOM     85  C   UNL A   1      43.921  34.758  26.023  1.00  0.00     0.000 A 
ENDBRANCH  67  80
ENDBRANCH  41  42
ENDBRANCH  33  36
ENDBRANCH  31  32
ENDBRANCH  30  31
ENDBRANCH   1  30
TORSDOF 14
ENDMDL
