MODEL 1
REMARK VINA RESULT:     -12.4      0.000      0.000
REMARK SMILES Cc1ccc(Nc2c(F)cccc2I)c(CC(=O)NCCCNC(=O)c2ccc(-c3c4nc(c(-c5ccccc5)c5ccc([nH]5)c(-c5ccccc5)c5nc(c(-c6ccccc6)c6ccc3[nH]6)C=C5)C=C4)cc2)c1
REMARK SMILES IDX 20 1 19 2 17 3 18 4 16 6 15 7 1 8 2 9 3 10 74 11 4 12 5 13
REMARK SMILES IDX 6 14 7 16 8 17 13 18 9 19 10 20 12 21 14 22 11 23 21 24
REMARK SMILES IDX 22 25 23 26 24 27 25 29 26 30 27 31 73 32 28 33 72 34 29 35
REMARK SMILES IDX 30 36 31 37 66 38 32 39 71 40 65 41 67 42 33 43 70 44 64 45
REMARK SMILES IDX 63 46 34 48 56 49 41 50 55 51 42 52 45 53 54 54 68 55 43 56
REMARK SMILES IDX 44 57 53 59 69 60 46 61 35 62 36 63 40 64 37 65 39 66 38 67
REMARK SMILES IDX 57 68 58 69 62 70 59 71 61 72 60 73 47 74 48 75 52 76 49 77
REMARK SMILES IDX 51 78 50 79
REMARK H PARENT 19 5 6 15 23 28 67 47 45 58
REMARK Flexibility Score: inf
ROOT
ATOM      1  C   UNL A   1      37.928  22.849  25.672  1.00  0.00     0.117 C 
ENDROOT
BRANCH   1   2
ATOM      2  N   UNL A   1      37.387  23.098  24.344  1.00  0.00    -0.356 N 
ATOM      3  C   UNL A   1      36.088  23.063  23.925  1.00  0.00     0.224 C 
ATOM      4  O   UNL A   1      35.852  23.254  22.728  1.00  0.00    -0.275 OA
ATOM      5  H   UNL A   1      38.051  23.321  23.652  1.00  0.00     0.163 HD
BRANCH   3   6
ATOM      6  C   UNL A   1      34.952  22.769  24.889  1.00  0.00     0.137 C 
BRANCH   6   7
ATOM      7  C   UNL A   1      34.161  21.527  24.537  1.00  0.00    -0.015 A 
ATOM      8  C   UNL A   1      34.835  17.762  24.676  1.00  0.00     0.044 C 
ATOM      9  C   UNL A   1      34.148  19.076  24.457  1.00  0.00    -0.051 A 
ATOM     10  C   UNL A   1      32.917  19.122  23.809  1.00  0.00     0.005 A 
ATOM     11  C   UNL A   1      34.739  20.276  24.857  1.00  0.00     0.009 A 
ATOM     12  C   UNL A   1      32.307  20.350  23.536  1.00  0.00     0.026 A 
ATOM     13  C   UNL A   1      32.919  21.572  23.861  1.00  0.00     0.042 A 
BRANCH  13  14
ATOM     14  N   UNL A   1      32.305  22.799  23.528  1.00  0.00    -0.352 N 
ATOM     15  H   UNL A   1      32.246  22.985  22.563  1.00  0.00     0.167 HD
BRANCH  14  16
ATOM     16  C   UNL A   1      31.761  23.803  24.363  1.00  0.00     0.088 A 
ATOM     17  C   UNL A   1      30.930  23.488  25.453  1.00  0.00     0.147 A 
ATOM     18  C   UNL A   1      31.978  25.170  24.099  1.00  0.00     0.040 A 
ATOM     19  F   UNL A   1      30.681  22.208  25.769  1.00  0.00    -0.205 F 
ATOM     20  C   UNL A   1      30.358  24.476  26.257  1.00  0.00     0.041 A 
ATOM     21  C   UNL A   1      31.408  26.166  24.906  1.00  0.00     0.017 A 
ATOM     22  I   UNL A   1      33.095  25.822  22.437  1.00  0.00    -0.042 I 
ATOM     23  C   UNL A   1      30.600  25.817  25.986  1.00  0.00     0.004 A 
ENDBRANCH  14  16
ENDBRANCH  13  14
ENDBRANCH   6   7
ENDBRANCH   3   6
ENDBRANCH   1   2
BRANCH   1  24
ATOM     24  C   UNL A   1      38.633  21.501  25.776  1.00  0.00     0.042 C 
BRANCH  24  25
ATOM     25  C   UNL A   1      40.013  21.554  26.408  1.00  0.00     0.118 C 
BRANCH  25  26
ATOM     26  N   UNL A   1      40.979  20.643  25.801  1.00  0.00    -0.352 N 
ATOM     27  C   UNL A   1      42.362  20.666  25.888  1.00  0.00     0.251 C 
ATOM     28  H   UNL A   1      40.597  19.916  25.258  1.00  0.00     0.163 HD
ATOM     29  O   UNL A   1      43.037  19.805  25.352  1.00  0.00    -0.269 OA
BRANCH  27  30
ATOM     30  C   UNL A   1      42.997  21.684  26.759  1.00  0.00     0.039 A 
ATOM     31  C   UNL A   1      42.701  21.643  28.124  1.00  0.00     0.014 A 
ATOM     32  C   UNL A   1      43.645  22.784  26.205  1.00  0.00     0.014 A 
ATOM     33  C   UNL A   1      42.809  22.810  28.872  1.00  0.00     0.010 A 
ATOM     34  C   UNL A   1      43.659  23.967  26.916  1.00  0.00     0.010 A 
ATOM     35  C   UNL A   1      43.166  23.992  28.225  1.00  0.00    -0.014 A 
BRANCH  35  36
ATOM     36  C   UNL A   1      42.903  25.308  28.793  1.00  0.00     0.031 A 
ATOM     37  C   UNL A   1      41.738  26.099  28.370  1.00  0.00     0.074 A 
ATOM     38  C   UNL A   1      43.713  25.789  29.761  1.00  0.00     0.049 A 
ATOM     39  N   UNL A   1      41.667  27.384  28.464  1.00  0.00    -0.248 NA
ATOM     40  C   UNL A   1      40.568  25.498  27.744  1.00  0.00     0.031 C 
ATOM     41  C   UNL A   1      43.483  26.937  30.632  1.00  0.00     0.029 A 
ATOM     42  N   UNL A   1      45.048  25.447  29.983  1.00  0.00    -0.354 N 
ATOM     43  C   UNL A   1      40.362  27.738  28.227  1.00  0.00     0.074 A 
ATOM     44  C   UNL A   1      39.748  26.549  27.676  1.00  0.00     0.031 C 
ATOM     45  C   UNL A   1      44.667  27.373  31.093  1.00  0.00     0.029 A 
ATOM     46  C   UNL A   1      45.703  26.619  30.407  1.00  0.00     0.049 A 
ATOM     47  H   UNL A   1      45.453  24.557  29.865  1.00  0.00     0.167 HD
ATOM     48  C   UNL A   1      39.907  28.946  28.663  1.00  0.00     0.031 A 
ATOM     49  C   UNL A   1      46.709  27.162  29.660  1.00  0.00     0.031 A 
ATOM     50  C   UNL A   1      40.971  29.773  29.238  1.00  0.00     0.049 A 
ATOM     51  C   UNL A   1      46.430  28.563  29.146  1.00  0.00     0.074 A 
ATOM     52  C   UNL A   1      41.313  30.164  30.523  1.00  0.00     0.029 A 
ATOM     53  N   UNL A   1      42.052  30.117  28.441  1.00  0.00    -0.354 N 
ATOM     54  N   UNL A   1      45.312  29.210  29.321  1.00  0.00    -0.248 NA
ATOM     55  C   UNL A   1      47.363  29.297  28.289  1.00  0.00     0.031 C 
ATOM     56  C   UNL A   1      42.604  30.766  30.481  1.00  0.00     0.029 A 
ATOM     57  C   UNL A   1      43.041  30.747  29.171  1.00  0.00     0.049 A 
ATOM     58  H   UNL A   1      42.106  29.937  27.474  1.00  0.00     0.167 HD
ATOM     59  C   UNL A   1      45.327  30.362  28.578  1.00  0.00     0.074 A 
ATOM     60  C   UNL A   1      46.638  30.379  27.956  1.00  0.00     0.031 C 
ATOM     61  C   UNL A   1      44.243  31.185  28.482  1.00  0.00     0.031 A 
BRANCH  48  62
ATOM     62  C   UNL A   1      38.436  29.272  28.799  1.00  0.00    -0.014 A 
ATOM     63  C   UNL A   1      37.723  29.752  27.685  1.00  0.00     0.009 A 
ATOM     64  C   UNL A   1      37.708  29.186  29.997  1.00  0.00     0.009 A 
ATOM     65  C   UNL A   1      36.406  30.219  27.788  1.00  0.00     0.001 A 
ATOM     66  C   UNL A   1      36.405  29.688  30.120  1.00  0.00     0.001 A 
ATOM     67  C   UNL A   1      35.757  30.217  29.015  1.00  0.00     0.000 A 
ENDBRANCH  48  62
BRANCH  49  68
ATOM     68  C   UNL A   1      47.512  26.141  28.928  1.00  0.00    -0.014 A 
ATOM     69  C   UNL A   1      47.172  25.852  27.591  1.00  0.00     0.009 A 
ATOM     70  C   UNL A   1      48.768  25.738  29.401  1.00  0.00     0.009 A 
ATOM     71  C   UNL A   1      48.108  25.285  26.721  1.00  0.00     0.001 A 
ATOM     72  C   UNL A   1      49.694  25.152  28.532  1.00  0.00     0.001 A 
ATOM     73  C   UNL A   1      49.379  24.961  27.186  1.00  0.00     0.000 A 
ENDBRANCH  49  68
BRANCH  61  74
ATOM     74  C   UNL A   1      44.198  32.462  27.681  1.00  0.00    -0.014 A 
ATOM     75  C   UNL A   1      43.999  33.725  28.254  1.00  0.00     0.009 A 
ATOM     76  C   UNL A   1      44.240  32.405  26.270  1.00  0.00     0.009 A 
ATOM     77  C   UNL A   1      43.922  34.878  27.460  1.00  0.00     0.001 A 
ATOM     78  C   UNL A   1      44.139  33.548  25.475  1.00  0.00     0.001 A 
ATOM     79  C   UNL A   1      43.994  34.790  26.073  1.00  0.00     0.000 A 
ENDBRANCH  61  74
ENDBRANCH  35  36
ENDBRANCH  27  30
ENDBRANCH  25  26
ENDBRANCH  24  25
ENDBRANCH   1  24
TORSDOF 13
ENDMDL
MODEL 2
REMARK VINA RESULT:     -12.2      3.691      8.724
REMARK SMILES Cc1ccc(Nc2c(F)cccc2I)c(CC(=O)NCCCNC(=O)c2ccc(-c3c4nc(c(-c5ccccc5)c5ccc([nH]5)c(-c5ccccc5)c5nc(c(-c6ccccc6)c6ccc3[nH]6)C=C5)C=C4)cc2)c1
REMARK SMILES IDX 20 1 19 2 17 3 18 4 16 6 15 7 1 8 2 9 3 10 74 11 4 12 5 13
REMARK SMILES IDX 6 14 7 16 8 17 13 18 9 19 10 20 12 21 14 22 11 23 21 24
REMARK SMILES IDX 22 25 23 26 24 27 25 29 26 30 27 31 73 32 28 33 72 34 29 35
REMARK SMILES IDX 30 36 31 37 66 38 32 39 71 40 65 41 67 42 33 43 70 44 64 45
REMARK SMILES IDX 63 46 34 48 56 49 41 50 55 51 42 52 45 53 54 54 68 55 43 56
REMARK SMILES IDX 44 57 53 59 69 60 46 61 35 62 36 63 40 64 37 65 39 66 38 67
REMARK SMILES IDX 57 68 58 69 62 70 59 71 61 72 60 73 47 74 48 75 52 76 49 77
REMARK SMILES IDX 51 78 50 79
REMARK H PARENT 19 5 6 15 23 28 67 47 45 58
REMARK Flexibility Score: inf
ROOT
ATOM      1  C   UNL A   1      33.758  29.473  27.276  1.00  0.00     0.117 C 
ENDROOT
BRANCH   1   2
ATOM      2  N   UNL A   1      32.668  28.569  27.609  1.00  0.00    -0.356 N 
ATOM      3  C   UNL A   1      31.912  27.791  26.780  1.00  0.00     0.224 C 
ATOM      4  O   UNL A   1      30.991  27.131  27.270  1.00  0.00    -0.275 OA
ATOM      5  H   UNL A   1      32.444  28.510  28.566  1.00  0.00     0.163 HD
BRANCH   3   6
ATOM      6  C   UNL A   1      32.166  27.749  25.283  1.00  0.00     0.137 C 
BRANCH   6   7
ATOM      7  C   UNL A   1      30.940  28.053  24.448  1.00  0.00    -0.015 A 
ATOM      8  C   UNL A   1      29.117  31.244  23.381  1.00  0.00     0.044 C 
ATOM      9  C   UNL A   1      29.480  29.798  23.534  1.00  0.00    -0.051 A 
ATOM     10  C   UNL A   1      28.622  28.808  23.063  1.00  0.00     0.005 A 
ATOM     11  C   UNL A   1      30.656  29.412  24.183  1.00  0.00     0.009 A 
ATOM     12  C   UNL A   1      28.920  27.458  23.270  1.00  0.00     0.026 A 
ATOM     13  C   UNL A   1      30.057  27.049  23.985  1.00  0.00     0.042 A 
BRANCH  13  14
ATOM     14  N   UNL A   1      30.307  25.680  24.224  1.00  0.00    -0.352 N 
ATOM     15  H   UNL A   1      29.648  25.232  24.802  1.00  0.00     0.167 HD
BRANCH  14  16
ATOM     16  C   UNL A   1      31.356  24.851  23.763  1.00  0.00     0.088 A 
ATOM     17  C   UNL A   1      31.912  25.005  22.480  1.00  0.00     0.147 A 
ATOM     18  C   UNL A   1      31.847  23.788  24.548  1.00  0.00     0.040 A 
ATOM     19  F   UNL A   1      31.498  25.997  21.676  1.00  0.00    -0.205 F 
ATOM     20  C   UNL A   1      32.920  24.166  22.004  1.00  0.00     0.041 A 
ATOM     21  C   UNL A   1      32.863  22.943  24.075  1.00  0.00     0.017 A 
ATOM     22  I   UNL A   1      31.046  23.337  26.442  1.00  0.00    -0.042 I 
ATOM     23  C   UNL A   1      33.399  23.134  22.803  1.00  0.00     0.004 A 
ENDBRANCH  14  16
ENDBRANCH  13  14
ENDBRANCH   6   7
ENDBRANCH   3   6
ENDBRANCH   1   2
BRANCH   1  24
ATOM     24  C   UNL A   1      33.363  30.940  27.401  1.00  0.00     0.042 C 
BRANCH  24  25
ATOM     25  C   UNL A   1      34.519  31.888  27.670  1.00  0.00     0.118 C 
BRANCH  25  26
ATOM     26  N   UNL A   1      34.730  32.178  29.086  1.00  0.00    -0.352 N 
ATOM     27  C   UNL A   1      35.577  31.542  29.981  1.00  0.00     0.251 C 
ATOM     28  H   UNL A   1      34.202  32.923  29.454  1.00  0.00     0.163 HD
ATOM     29  O   UNL A   1      35.672  31.928  31.133  1.00  0.00    -0.269 OA
BRANCH  27  30
ATOM     30  C   UNL A   1      36.463  30.468  29.473  1.00  0.00     0.039 A 
ATOM     31  C   UNL A   1      36.626  29.333  30.271  1.00  0.00     0.014 A 
ATOM     32  C   UNL A   1      37.296  30.695  28.381  1.00  0.00     0.014 A 
ATOM     33  C   UNL A   1      37.785  28.576  30.137  1.00  0.00     0.010 A 
ATOM     34  C   UNL A   1      38.492  30.009  28.312  1.00  0.00     0.010 A 
ATOM     35  C   UNL A   1      38.766  29.002  29.242  1.00  0.00    -0.014 A 
BRANCH  35  36
ATOM     36  C   UNL A   1      40.150  28.553  29.323  1.00  0.00     0.031 A 
ATOM     37  C   UNL A   1      40.567  27.269  28.741  1.00  0.00     0.074 A 
ATOM     38  C   UNL A   1      41.076  29.352  29.896  1.00  0.00     0.049 A 
ATOM     39  N   UNL A   1      41.603  26.605  29.130  1.00  0.00    -0.248 NA
ATOM     40  C   UNL A   1      39.803  26.595  27.700  1.00  0.00     0.031 C 
ATOM     41  C   UNL A   1      42.529  29.218  29.844  1.00  0.00     0.029 A 
ATOM     42  N   UNL A   1      40.852  30.339  30.858  1.00  0.00    -0.354 N 
ATOM     43  C   UNL A   1      41.823  25.617  28.202  1.00  0.00     0.074 A 
ATOM     44  C   UNL A   1      40.619  25.582  27.401  1.00  0.00     0.031 C 
ATOM     45  C   UNL A   1      43.059  29.875  30.889  1.00  0.00     0.029 A 
ATOM     46  C   UNL A   1      41.958  30.315  31.729  1.00  0.00     0.049 A 
ATOM     47  H   UNL A   1      40.071  30.935  30.916  1.00  0.00     0.167 HD
ATOM     48  C   UNL A   1      43.056  25.042  28.118  1.00  0.00     0.031 A 
ATOM     49  C   UNL A   1      41.797  29.997  33.047  1.00  0.00     0.031 A 
ATOM     50  C   UNL A   1      43.966  25.508  29.168  1.00  0.00     0.049 A 
ATOM     51  C   UNL A   1      42.541  28.751  33.494  1.00  0.00     0.074 A 
ATOM     52  C   UNL A   1      45.070  26.345  29.198  1.00  0.00     0.029 A 
ATOM     53  N   UNL A   1      43.616  25.299  30.493  1.00  0.00    -0.354 N 
ATOM     54  N   UNL A   1      43.236  27.978  32.707  1.00  0.00    -0.248 NA
ATOM     55  C   UNL A   1      42.459  28.220  34.856  1.00  0.00     0.031 C 
ATOM     56  C   UNL A   1      45.389  26.618  30.560  1.00  0.00     0.029 A 
ATOM     57  C   UNL A   1      44.485  25.941  31.354  1.00  0.00     0.049 A 
ATOM     58  H   UNL A   1      42.846  24.759  30.784  1.00  0.00     0.167 HD
ATOM     59  C   UNL A   1      43.619  26.853  33.390  1.00  0.00     0.074 A 
ATOM     60  C   UNL A   1      43.117  27.054  34.737  1.00  0.00     0.031 C 
ATOM     61  C   UNL A   1      44.267  25.816  32.785  1.00  0.00     0.031 A 
BRANCH  48  62
ATOM     62  C   UNL A   1      43.513  24.245  26.917  1.00  0.00    -0.014 A 
ATOM     63  C   UNL A   1      44.419  24.816  26.005  1.00  0.00     0.009 A 
ATOM     64  C   UNL A   1      43.053  22.958  26.592  1.00  0.00     0.009 A 
ATOM     65  C   UNL A   1      44.755  24.192  24.797  1.00  0.00     0.001 A 
ATOM     66  C   UNL A   1      43.350  22.343  25.368  1.00  0.00     0.001 A 
ATOM     67  C   UNL A   1      44.192  22.967  24.462  1.00  0.00     0.000 A 
ENDBRANCH  48  62
BRANCH  49  68
ATOM     68  C   UNL A   1      40.484  30.437  33.601  1.00  0.00    -0.014 A 
ATOM     69  C   UNL A   1      40.337  31.782  33.995  1.00  0.00     0.009 A 
ATOM     70  C   UNL A   1      39.330  29.664  33.414  1.00  0.00     0.009 A 
ATOM     71  C   UNL A   1      39.072  32.369  34.082  1.00  0.00     0.001 A 
ATOM     72  C   UNL A   1      38.064  30.251  33.521  1.00  0.00     0.001 A 
ATOM     73  C   UNL A   1      37.936  31.609  33.817  1.00  0.00     0.000 A 
ENDBRANCH  49  68
BRANCH  61  74
ATOM     74  C   UNL A   1      44.711  24.554  33.481  1.00  0.00    -0.014 A 
ATOM     75  C   UNL A   1      46.050  24.268  33.779  1.00  0.00     0.009 A 
ATOM     76  C   UNL A   1      43.769  23.538  33.757  1.00  0.00     0.009 A 
ATOM     77  C   UNL A   1      46.416  23.059  34.389  1.00  0.00     0.001 A 
ATOM     78  C   UNL A   1      44.133  22.324  34.342  1.00  0.00     0.001 A 
ATOM     79  C   UNL A   1      45.458  22.090  34.671  1.00  0.00     0.000 A 
ENDBRANCH  61  74
ENDBRANCH  35  36
ENDBRANCH  27  30
ENDBRANCH  25  26
ENDBRANCH  24  25
ENDBRANCH   1  24
TORSDOF 13
ENDMDL
MODEL 3
REMARK VINA RESULT:     -12.1      4.304      9.370
REMARK SMILES Cc1ccc(Nc2c(F)cccc2I)c(CC(=O)NCCCNC(=O)c2ccc(-c3c4nc(c(-c5ccccc5)c5ccc([nH]5)c(-c5ccccc5)c5nc(c(-c6ccccc6)c6ccc3[nH]6)C=C5)C=C4)cc2)c1
REMARK SMILES IDX 20 1 19 2 17 3 18 4 16 6 15 7 1 8 2 9 3 10 74 11 4 12 5 13
REMARK SMILES IDX 6 14 7 16 8 17 13 18 9 19 10 20 12 21 14 22 11 23 21 24
REMARK SMILES IDX 22 25 23 26 24 27 25 29 26 30 27 31 73 32 28 33 72 34 29 35
REMARK SMILES IDX 30 36 31 37 66 38 32 39 71 40 65 41 67 42 33 43 70 44 64 45
REMARK SMILES IDX 63 46 34 48 56 49 41 50 55 51 42 52 45 53 54 54 68 55 43 56
REMARK SMILES IDX 44 57 53 59 69 60 46 61 35 62 36 63 40 64 37 65 39 66 38 67
REMARK SMILES IDX 57 68 58 69 62 70 59 71 61 72 60 73 47 74 48 75 52 76 49 77
REMARK SMILES IDX 51 78 50 79
REMARK H PARENT 19 5 6 15 23 28 67 47 45 58
REMARK Flexibility Score: inf
ROOT
ATOM      1  C   UNL A   1      32.758  30.232  27.242  1.00  0.00     0.117 C 
ENDROOT
BRANCH   1   2
ATOM      2  N   UNL A   1      32.124  28.978  27.618  1.00  0.00    -0.356 N 
ATOM      3  C   UNL A   1      31.793  27.912  26.831  1.00  0.00     0.224 C 
ATOM      4  O   UNL A   1      31.205  26.958  27.349  1.00  0.00    -0.275 OA
ATOM      5  H   UNL A   1      31.900  28.885  28.573  1.00  0.00     0.163 HD
BRANCH   3   6
ATOM      6  C   UNL A   1      32.111  27.896  25.345  1.00  0.00     0.137 C 
BRANCH   6   7
ATOM      7  C   UNL A   1      30.907  28.153  24.463  1.00  0.00    -0.015 A 
ATOM      8  C   UNL A   1      29.028  31.277  23.297  1.00  0.00     0.044 C 
ATOM      9  C   UNL A   1      29.429  29.844  23.478  1.00  0.00    -0.051 A 
ATOM     10  C   UNL A   1      28.621  28.824  22.986  1.00  0.00     0.005 A 
ATOM     11  C   UNL A   1      30.592  29.501  24.173  1.00  0.00     0.009 A 
ATOM     12  C   UNL A   1      28.952  27.485  23.217  1.00  0.00     0.026 A 
ATOM     13  C   UNL A   1      30.073  27.118  23.979  1.00  0.00     0.042 A 
BRANCH  13  14
ATOM     14  N   UNL A   1      30.356  25.760  24.240  1.00  0.00    -0.352 N 
ATOM     15  H   UNL A   1      29.724  25.315  24.849  1.00  0.00     0.167 HD
BRANCH  14  16
ATOM     16  C   UNL A   1      31.405  24.939  23.764  1.00  0.00     0.088 A 
ATOM     17  C   UNL A   1      31.989  25.143  22.501  1.00  0.00     0.147 A 
ATOM     18  C   UNL A   1      31.867  23.838  24.512  1.00  0.00     0.040 A 
ATOM     19  F   UNL A   1      31.603  26.173  21.734  1.00  0.00    -0.205 F 
ATOM     20  C   UNL A   1      32.997  24.312  22.009  1.00  0.00     0.041 A 
ATOM     21  C   UNL A   1      32.882  23.001  24.023  1.00  0.00     0.017 A 
ATOM     22  I   UNL A   1      31.022  23.314  26.368  1.00  0.00    -0.042 I 
ATOM     23  C   UNL A   1      33.447  23.241  22.772  1.00  0.00     0.004 A 
ENDBRANCH  14  16
ENDBRANCH  13  14
ENDBRANCH   6   7
ENDBRANCH   3   6
ENDBRANCH   1   2
BRANCH   1  24
ATOM     24  C   UNL A   1      34.274  30.195  27.407  1.00  0.00     0.042 C 
BRANCH  24  25
ATOM     25  C   UNL A   1      34.918  31.549  27.651  1.00  0.00     0.118 C 
BRANCH  25  26
ATOM     26  N   UNL A   1      33.996  32.562  28.159  1.00  0.00    -0.352 N 
ATOM     27  C   UNL A   1      34.175  33.442  29.214  1.00  0.00     0.251 C 
ATOM     28  H   UNL A   1      33.133  32.628  27.689  1.00  0.00     0.163 HD
ATOM     29  O   UNL A   1      33.320  34.263  29.496  1.00  0.00    -0.269 OA
BRANCH  27  30
ATOM     30  C   UNL A   1      35.484  33.453  29.910  1.00  0.00     0.039 A 
ATOM     31  C   UNL A   1      36.551  34.090  29.270  1.00  0.00     0.014 A 
ATOM     32  C   UNL A   1      35.703  32.641  31.019  1.00  0.00     0.014 A 
ATOM     33  C   UNL A   1      37.850  33.697  29.575  1.00  0.00     0.010 A 
ATOM     34  C   UNL A   1      36.982  32.177  31.253  1.00  0.00     0.010 A 
ATOM     35  C   UNL A   1      38.043  32.650  30.474  1.00  0.00    -0.014 A 
BRANCH  35  36
ATOM     36  C   UNL A   1      39.285  31.893  30.543  1.00  0.00     0.031 A 
ATOM     37  C   UNL A   1      39.440  30.621  29.823  1.00  0.00     0.074 A 
ATOM     38  C   UNL A   1      40.331  32.392  31.238  1.00  0.00     0.049 A 
ATOM     39  N   UNL A   1      40.279  29.700  30.160  1.00  0.00    -0.248 NA
ATOM     40  C   UNL A   1      38.607  30.259  28.683  1.00  0.00     0.031 C 
ATOM     41  C   UNL A   1      41.718  31.939  31.216  1.00  0.00     0.029 A 
ATOM     42  N   UNL A   1      40.277  33.290  32.305  1.00  0.00    -0.354 N 
ATOM     43  C   UNL A   1      40.328  28.797  29.127  1.00  0.00     0.074 A 
ATOM     44  C   UNL A   1      39.195  29.126  28.290  1.00  0.00     0.031 C 
ATOM     45  C   UNL A   1      42.320  32.337  32.349  1.00  0.00     0.029 A 
ATOM     46  C   UNL A   1      41.297  32.919  33.201  1.00  0.00     0.049 A 
ATOM     47  H   UNL A   1      39.645  34.038  32.410  1.00  0.00     0.167 HD
ATOM     48  C   UNL A   1      41.406  27.970  29.011  1.00  0.00     0.031 A 
ATOM     49  C   UNL A   1      40.994  32.501  34.465  1.00  0.00     0.031 A 
ATOM     50  C   UNL A   1      42.334  28.097  30.138  1.00  0.00     0.049 A 
ATOM     51  C   UNL A   1      41.416  31.077  34.780  1.00  0.00     0.074 A 
ATOM     52  C   UNL A   1      43.593  28.654  30.304  1.00  0.00     0.029 A 
ATOM     53  N   UNL A   1      41.870  27.827  31.417  1.00  0.00    -0.354 N 
ATOM     54  N   UNL A   1      41.966  30.259  33.927  1.00  0.00    -0.248 NA
ATOM     55  C   UNL A   1      41.139  30.430  36.064  1.00  0.00     0.031 C 
ATOM     56  C   UNL A   1      43.885  28.694  31.699  1.00  0.00     0.029 A 
ATOM     57  C   UNL A   1      42.808  28.155  32.376  1.00  0.00     0.049 A 
ATOM     58  H   UNL A   1      40.984  27.448  31.616  1.00  0.00     0.167 HD
ATOM     59  C   UNL A   1      42.050  29.008  34.480  1.00  0.00     0.074 A 
ATOM     60  C   UNL A   1      41.528  29.166  35.825  1.00  0.00     0.031 C 
ATOM     61  C   UNL A   1      42.485  27.925  33.774  1.00  0.00     0.031 A 
BRANCH  48  62
ATOM     62  C   UNL A   1      41.743  27.229  27.737  1.00  0.00    -0.014 A 
ATOM     63  C   UNL A   1      42.068  27.953  26.576  1.00  0.00     0.009 A 
ATOM     64  C   UNL A   1      41.706  25.832  27.594  1.00  0.00     0.009 A 
ATOM     65  C   UNL A   1      42.233  27.331  25.331  1.00  0.00     0.001 A 
ATOM     66  C   UNL A   1      41.829  25.204  26.346  1.00  0.00     0.001 A 
ATOM     67  C   UNL A   1      42.081  25.957  25.211  1.00  0.00     0.000 A 
ENDBRANCH  48  62
BRANCH  49  68
ATOM     68  C   UNL A   1      39.780  33.163  35.026  1.00  0.00    -0.014 A 
ATOM     69  C   UNL A   1      38.517  32.616  34.723  1.00  0.00     0.009 A 
ATOM     70  C   UNL A   1      39.881  34.065  36.094  1.00  0.00     0.009 A 
ATOM     71  C   UNL A   1      37.412  32.872  35.540  1.00  0.00     0.001 A 
ATOM     72  C   UNL A   1      38.767  34.333  36.897  1.00  0.00     0.001 A 
ATOM     73  C   UNL A   1      37.545  33.709  36.644  1.00  0.00     0.000 A 
ENDBRANCH  49  68
BRANCH  61  74
ATOM     74  C   UNL A   1      42.597  26.525  34.325  1.00  0.00    -0.014 A 
ATOM     75  C   UNL A   1      41.600  25.920  35.101  1.00  0.00     0.009 A 
ATOM     76  C   UNL A   1      43.802  25.804  34.165  1.00  0.00     0.009 A 
ATOM     77  C   UNL A   1      41.771  24.631  35.626  1.00  0.00     0.001 A 
ATOM     78  C   UNL A   1      43.985  24.530  34.707  1.00  0.00     0.001 A 
ATOM     79  C   UNL A   1      42.961  23.937  35.428  1.00  0.00     0.000 A 
ENDBRANCH  61  74
ENDBRANCH  35  36
ENDBRANCH  27  30
ENDBRANCH  25  26
ENDBRANCH  24  25
ENDBRANCH   1  24
TORSDOF 13
ENDMDL
