MODEL 1
REMARK VINA RESULT:     -10.7      0.000      0.000
REMARK SMILES CC(C)(C)C(=O)NCCC(=O)N1C[C@@H](O)C[C@@H]1C(=O)NCCCNC(=O)c1ccc(-c2c3nc(c(-c4ccccc4)c4ccc([nH]4)c(-c4ccccc4)c4nc(c(-c5ccccc5)c5ccc2[nH]5)C=C4)C=C3)cc1
REMARK SMILES IDX 18 1 19 2 20 3 17 5 12 6 13 7 14 8 16 9 10 10 11 11 9 12
REMARK SMILES IDX 8 13 7 14 5 15 6 16 2 18 1 19 3 20 4 21 15 22 21 24 22 25
REMARK SMILES IDX 23 26 24 27 25 28 26 30 27 31 28 32 74 33 29 34 73 35 30 36
REMARK SMILES IDX 31 37 32 38 67 39 33 40 72 41 66 42 68 43 34 44 71 45 65 46
REMARK SMILES IDX 64 47 35 49 57 50 42 51 56 52 43 53 46 54 55 55 69 56 44 57
REMARK SMILES IDX 45 58 54 60 70 61 47 62 36 63 37 64 41 65 38 66 40 67 39 68
REMARK SMILES IDX 58 69 59 70 63 71 60 72 62 73 61 74 48 75 49 76 53 77 50 78
REMARK SMILES IDX 52 79 51 80
REMARK H PARENT 20 4 7 17 15 23 24 29 68 48 46 59
REMARK Flexibility Score: inf
ROOT
ATOM      1  C   UNL A   1      31.945  24.450  26.732  1.00  0.00     0.242 C 
ATOM      2  O   UNL A   1      31.437  23.744  27.609  1.00  0.00    -0.273 OA
ATOM      3  N   UNL A   1      31.674  25.785  26.798  1.00  0.00    -0.354 N 
ATOM      4  H   UNL A   1      31.201  26.076  27.612  1.00  0.00     0.163 HD
ENDROOT
BRANCH   1   5
ATOM      5  C   UNL A   1      32.799  23.845  25.580  1.00  0.00     0.177 C 
ATOM      6  N   UNL A   1      32.897  22.386  25.698  1.00  0.00    -0.328 N 
ATOM      7  C   UNL A   1      34.105  22.000  26.420  1.00  0.00     0.152 C 
ATOM      8  C   UNL A   1      34.845  23.307  26.723  1.00  0.00     0.136 C 
ATOM      9  C   UNL A   1      34.257  24.294  25.710  1.00  0.00     0.069 C 
BRANCH   6  10
ATOM     10  C   UNL A   1      32.130  21.523  24.949  1.00  0.00     0.225 C 
ATOM     11  O   UNL A   1      31.022  21.135  25.315  1.00  0.00    -0.275 OA
BRANCH  10  12
ATOM     12  C   UNL A   1      32.793  20.917  23.727  1.00  0.00     0.121 C 
BRANCH  12  13
ATOM     13  C   UNL A   1      32.423  19.481  23.418  1.00  0.00     0.125 C 
BRANCH  13  14
ATOM     14  N   UNL A   1      32.354  18.661  24.611  1.00  0.00    -0.355 N 
ATOM     15  C   UNL A   1      33.054  17.576  25.029  1.00  0.00     0.225 C 
ATOM     16  O   UNL A   1      32.561  16.984  25.996  1.00  0.00    -0.275 OA
ATOM     17  H   UNL A   1      31.659  18.949  25.246  1.00  0.00     0.163 HD
BRANCH  15  18
ATOM     18  C   UNL A   1      34.393  17.120  24.405  1.00  0.00     0.041 C 
ATOM     19  C   UNL A   1      34.902  15.908  25.220  1.00  0.00     0.021 C 
ATOM     20  C   UNL A   1      35.435  18.240  24.532  1.00  0.00     0.021 C 
ATOM     21  C   UNL A   1      34.283  16.657  22.949  1.00  0.00     0.021 C 
ENDBRANCH  15  18
ENDBRANCH  13  14
ENDBRANCH  12  13
ENDBRANCH  10  12
ENDBRANCH   6  10
BRANCH   8  22
ATOM     22  O   UNL A   1      36.251  23.196  26.557  1.00  0.00    -0.391 OA
ATOM     23  H   UNL A   1      36.630  22.722  27.313  1.00  0.00     0.211 HD
ENDBRANCH   8  22
ENDBRANCH   1   5
BRANCH   3  24
ATOM     24  C   UNL A   1      31.976  26.840  25.851  1.00  0.00     0.117 C 
BRANCH  24  25
ATOM     25  C   UNL A   1      32.024  28.199  26.546  1.00  0.00     0.042 C 
BRANCH  25  26
ATOM     26  C   UNL A   1      33.353  28.535  27.210  1.00  0.00     0.118 C 
BRANCH  26  27
ATOM     27  N   UNL A   1      33.438  29.933  27.586  1.00  0.00    -0.352 N 
ATOM     28  C   UNL A   1      34.448  30.650  28.178  1.00  0.00     0.251 C 
ATOM     29  H   UNL A   1      32.631  30.459  27.381  1.00  0.00     0.163 HD
ATOM     30  O   UNL A   1      34.196  31.779  28.595  1.00  0.00    -0.269 OA
BRANCH  28  31
ATOM     31  C   UNL A   1      35.828  30.116  28.333  1.00  0.00     0.039 A 
ATOM     32  C   UNL A   1      36.193  29.591  29.580  1.00  0.00     0.014 A 
ATOM     33  C   UNL A   1      36.798  30.212  27.331  1.00  0.00     0.014 A 
ATOM     34  C   UNL A   1      37.502  29.158  29.816  1.00  0.00     0.010 A 
ATOM     35  C   UNL A   1      38.086  29.709  27.541  1.00  0.00     0.010 A 
ATOM     36  C   UNL A   1      38.463  29.202  28.794  1.00  0.00    -0.014 A 
BRANCH  36  37
ATOM     37  C   UNL A   1      39.866  28.776  29.045  1.00  0.00     0.031 A 
ATOM     38  C   UNL A   1      40.835  29.707  29.733  1.00  0.00     0.074 A 
ATOM     39  C   UNL A   1      40.289  27.563  28.637  1.00  0.00     0.049 A 
ATOM     40  N   UNL A   1      42.102  29.519  30.016  1.00  0.00    -0.248 NA
ATOM     41  C   UNL A   1      40.323  31.026  30.136  1.00  0.00     0.031 C 
ATOM     42  C   UNL A   1      39.473  26.572  27.931  1.00  0.00     0.029 A 
ATOM     43  N   UNL A   1      41.515  26.955  28.760  1.00  0.00    -0.354 N 
ATOM     44  C   UNL A   1      42.539  30.703  30.599  1.00  0.00     0.074 A 
ATOM     45  C   UNL A   1      41.416  31.614  30.601  1.00  0.00     0.031 C 
ATOM     46  C   UNL A   1      40.213  25.472  27.708  1.00  0.00     0.029 A 
ATOM     47  C   UNL A   1      41.560  25.689  28.228  1.00  0.00     0.049 A 
ATOM     48  H   UNL A   1      42.289  27.386  29.189  1.00  0.00     0.167 HD
ATOM     49  C   UNL A   1      43.760  31.004  31.106  1.00  0.00     0.031 A 
ATOM     50  C   UNL A   1      42.569  24.799  28.168  1.00  0.00     0.031 A 
ATOM     51  C   UNL A   1      44.872  30.093  31.150  1.00  0.00     0.049 A 
ATOM     52  C   UNL A   1      43.902  25.147  28.768  1.00  0.00     0.074 A 
ATOM     53  C   UNL A   1      46.126  30.290  31.704  1.00  0.00     0.029 A 
ATOM     54  N   UNL A   1      44.862  28.810  30.628  1.00  0.00    -0.354 N 
ATOM     55  N   UNL A   1      44.276  26.248  29.372  1.00  0.00    -0.248 NA
ATOM     56  C   UNL A   1      44.949  24.116  28.694  1.00  0.00     0.031 C 
ATOM     57  C   UNL A   1      46.887  29.136  31.489  1.00  0.00     0.029 A 
ATOM     58  C   UNL A   1      46.091  28.207  30.837  1.00  0.00     0.049 A 
ATOM     59  H   UNL A   1      44.095  28.389  30.177  1.00  0.00     0.167 HD
ATOM     60  C   UNL A   1      45.587  26.030  29.777  1.00  0.00     0.074 A 
ATOM     61  C   UNL A   1      45.939  24.689  29.364  1.00  0.00     0.031 C 
ATOM     62  C   UNL A   1      46.424  26.869  30.433  1.00  0.00     0.031 A 
BRANCH  49  63
ATOM     63  C   UNL A   1      43.964  32.385  31.660  1.00  0.00    -0.014 A 
ATOM     64  C   UNL A   1      44.398  33.440  30.841  1.00  0.00     0.009 A 
ATOM     65  C   UNL A   1      43.660  32.649  33.004  1.00  0.00     0.009 A 
ATOM     66  C   UNL A   1      44.549  34.726  31.366  1.00  0.00     0.001 A 
ATOM     67  C   UNL A   1      43.789  33.940  33.520  1.00  0.00     0.001 A 
ATOM     68  C   UNL A   1      44.240  34.976  32.703  1.00  0.00     0.000 A 
ENDBRANCH  49  63
BRANCH  50  69
ATOM     69  C   UNL A   1      42.360  23.473  27.532  1.00  0.00    -0.014 A 
ATOM     70  C   UNL A   1      41.874  22.393  28.285  1.00  0.00     0.009 A 
ATOM     71  C   UNL A   1      42.677  23.271  26.180  1.00  0.00     0.009 A 
ATOM     72  C   UNL A   1      41.742  21.129  27.706  1.00  0.00     0.001 A 
ATOM     73  C   UNL A   1      42.518  22.013  25.597  1.00  0.00     0.001 A 
ATOM     74  C   UNL A   1      42.062  20.941  26.361  1.00  0.00     0.000 A 
ENDBRANCH  50  69
BRANCH  62  75
ATOM     75  C   UNL A   1      47.785  26.341  30.785  1.00  0.00    -0.014 A 
ATOM     76  C   UNL A   1      48.038  25.750  32.033  1.00  0.00     0.009 A 
ATOM     77  C   UNL A   1      48.823  26.419  29.845  1.00  0.00     0.009 A 
ATOM     78  C   UNL A   1      49.315  25.280  32.343  1.00  0.00     0.001 A 
ATOM     79  C   UNL A   1      50.093  25.924  30.149  1.00  0.00     0.001 A 
ATOM     80  C   UNL A   1      50.340  25.365  31.401  1.00  0.00     0.000 A 
ENDBRANCH  62  75
ENDBRANCH  36  37
ENDBRANCH  28  31
ENDBRANCH  26  27
ENDBRANCH  25  26
ENDBRANCH  24  25
ENDBRANCH   3  24
TORSDOF 16
ENDMDL
MODEL 2
REMARK VINA RESULT:     -10.3      3.416      5.787
REMARK SMILES CC(C)(C)C(=O)NCCC(=O)N1C[C@@H](O)C[C@@H]1C(=O)NCCCNC(=O)c1ccc(-c2c3nc(c(-c4ccccc4)c4ccc([nH]4)c(-c4ccccc4)c4nc(c(-c5ccccc5)c5ccc2[nH]5)C=C4)C=C3)cc1
REMARK SMILES IDX 18 1 19 2 20 3 17 5 12 6 13 7 14 8 16 9 10 10 11 11 9 12
REMARK SMILES IDX 8 13 7 14 5 15 6 16 2 18 1 19 3 20 4 21 15 22 21 24 22 25
REMARK SMILES IDX 23 26 24 27 25 28 26 30 27 31 28 32 74 33 29 34 73 35 30 36
REMARK SMILES IDX 31 37 32 38 67 39 33 40 72 41 66 42 68 43 34 44 71 45 65 46
REMARK SMILES IDX 64 47 35 49 57 50 42 51 56 52 43 53 46 54 55 55 69 56 44 57
REMARK SMILES IDX 45 58 54 60 70 61 47 62 36 63 37 64 41 65 38 66 40 67 39 68
REMARK SMILES IDX 58 69 59 70 63 71 60 72 62 73 61 74 48 75 49 76 53 77 50 78
REMARK SMILES IDX 52 79 51 80
REMARK H PARENT 20 4 7 17 15 23 24 29 68 48 46 59
REMARK Flexibility Score: inf
ROOT
ATOM      1  C   UNL A   1      31.985  27.772  27.008  1.00  0.00     0.242 C 
ATOM      2  O   UNL A   1      31.005  27.463  27.693  1.00  0.00    -0.273 OA
ATOM      3  N   UNL A   1      32.715  28.839  27.444  1.00  0.00    -0.354 N 
ATOM      4  H   UNL A   1      32.464  29.182  28.332  1.00  0.00     0.163 HD
ENDROOT
BRANCH   1   5
ATOM      5  C   UNL A   1      32.335  27.027  25.687  1.00  0.00     0.177 C 
ATOM      6  N   UNL A   1      31.269  26.095  25.303  1.00  0.00    -0.328 N 
ATOM      7  C   UNL A   1      31.542  24.752  25.805  1.00  0.00     0.152 C 
ATOM      8  C   UNL A   1      32.904  24.837  26.502  1.00  0.00     0.136 C 
ATOM      9  C   UNL A   1      33.533  26.099  25.905  1.00  0.00     0.069 C 
BRANCH   6  10
ATOM     10  C   UNL A   1      30.333  26.387  24.336  1.00  0.00     0.225 C 
ATOM     11  O   UNL A   1      29.125  26.265  24.527  1.00  0.00    -0.275 OA
BRANCH  10  12
ATOM     12  C   UNL A   1      30.867  26.694  22.950  1.00  0.00     0.121 C 
BRANCH  12  13
ATOM     13  C   UNL A   1      30.452  28.027  22.363  1.00  0.00     0.125 C 
BRANCH  13  14
ATOM     14  N   UNL A   1      30.392  29.075  23.361  1.00  0.00    -0.355 N 
ATOM     15  C   UNL A   1      29.564  30.136  23.541  1.00  0.00     0.225 C 
ATOM     16  O   UNL A   1      29.959  30.964  24.370  1.00  0.00    -0.275 OA
ATOM     17  H   UNL A   1      31.095  29.004  24.048  1.00  0.00     0.163 HD
BRANCH  15  18
ATOM     18  C   UNL A   1      28.203  30.298  22.826  1.00  0.00     0.041 C 
ATOM     19  C   UNL A   1      27.477  31.505  23.467  1.00  0.00     0.021 C 
ATOM     20  C   UNL A   1      27.338  29.053  23.062  1.00  0.00     0.021 C 
ATOM     21  C   UNL A   1      28.313  30.595  21.327  1.00  0.00     0.021 C 
ENDBRANCH  15  18
ENDBRANCH  13  14
ENDBRANCH  12  13
ENDBRANCH  10  12
ENDBRANCH   6  10
BRANCH   8  22
ATOM     22  O   UNL A   1      33.722  23.702  26.255  1.00  0.00    -0.391 OA
ATOM     23  H   UNL A   1      33.977  23.297  27.097  1.00  0.00     0.211 HD
ENDBRANCH   8  22
ENDBRANCH   1   5
BRANCH   3  24
ATOM     24  C   UNL A   1      33.804  29.543  26.796  1.00  0.00     0.117 C 
BRANCH  24  25
ATOM     25  C   UNL A   1      33.430  30.999  26.530  1.00  0.00     0.042 C 
BRANCH  25  26
ATOM     26  C   UNL A   1      32.165  31.477  27.233  1.00  0.00     0.118 C 
BRANCH  26  27
ATOM     27  N   UNL A   1      32.156  32.914  27.422  1.00  0.00    -0.352 N 
ATOM     28  C   UNL A   1      33.004  33.739  28.120  1.00  0.00     0.251 C 
ATOM     29  H   UNL A   1      31.414  33.380  26.973  1.00  0.00     0.163 HD
ATOM     30  O   UNL A   1      32.659  34.903  28.311  1.00  0.00    -0.269 OA
BRANCH  28  31
ATOM     31  C   UNL A   1      34.317  33.280  28.649  1.00  0.00     0.039 A 
ATOM     32  C   UNL A   1      35.464  33.562  27.895  1.00  0.00     0.014 A 
ATOM     33  C   UNL A   1      34.440  32.494  29.798  1.00  0.00     0.014 A 
ATOM     34  C   UNL A   1      36.715  33.079  28.293  1.00  0.00     0.010 A 
ATOM     35  C   UNL A   1      35.700  32.075  30.238  1.00  0.00     0.010 A 
ATOM     36  C   UNL A   1      36.849  32.337  29.477  1.00  0.00    -0.014 A 
BRANCH  36  37
ATOM     37  C   UNL A   1      38.170  31.789  29.890  1.00  0.00     0.031 A 
ATOM     38  C   UNL A   1      39.049  32.556  30.847  1.00  0.00     0.074 A 
ATOM     39  C   UNL A   1      38.601  30.613  29.391  1.00  0.00     0.049 A 
ATOM     40  N   UNL A   1      40.240  32.250  31.302  1.00  0.00    -0.248 NA
ATOM     41  C   UNL A   1      38.535  33.843  31.341  1.00  0.00     0.031 C 
ATOM     42  C   UNL A   1      37.873  29.778  28.432  1.00  0.00     0.029 A 
ATOM     43  N   UNL A   1      39.761  29.914  29.625  1.00  0.00    -0.354 N 
ATOM     44  C   UNL A   1      40.624  33.315  32.107  1.00  0.00     0.074 A 
ATOM     45  C   UNL A   1      39.558  34.292  32.054  1.00  0.00     0.031 C 
ATOM     46  C   UNL A   1      38.590  28.670  28.182  1.00  0.00     0.029 A 
ATOM     47  C   UNL A   1      39.839  28.728  28.937  1.00  0.00     0.049 A 
ATOM     48  H   UNL A   1      40.469  30.234  30.229  1.00  0.00     0.167 HD
ATOM     49  C   UNL A   1      41.754  33.466  32.841  1.00  0.00     0.031 A 
ATOM     50  C   UNL A   1      40.803  27.787  28.918  1.00  0.00     0.031 A 
ATOM     51  C   UNL A   1      42.801  32.485  32.937  1.00  0.00     0.049 A 
ATOM     52  C   UNL A   1      42.030  27.965  29.768  1.00  0.00     0.074 A 
ATOM     53  C   UNL A   1      43.951  32.524  33.709  1.00  0.00     0.029 A 
ATOM     54  N   UNL A   1      42.823  31.284  32.248  1.00  0.00    -0.354 N 
ATOM     55  N   UNL A   1      42.344  28.952  30.571  1.00  0.00    -0.248 NA
ATOM     56  C   UNL A   1      43.027  26.884  29.722  1.00  0.00     0.031 C 
ATOM     57  C   UNL A   1      44.685  31.360  33.462  1.00  0.00     0.029 A 
ATOM     58  C   UNL A   1      43.971  30.579  32.568  1.00  0.00     0.049 A 
ATOM     59  H   UNL A   1      42.125  30.978  31.625  1.00  0.00     0.167 HD
ATOM     60  C   UNL A   1      43.557  28.596  31.148  1.00  0.00     0.074 A 
ATOM     61  C   UNL A   1      43.914  27.299  30.615  1.00  0.00     0.031 C 
ATOM     62  C   UNL A   1      44.307  29.285  32.041  1.00  0.00     0.031 A 
BRANCH  49  63
ATOM     63  C   UNL A   1      41.922  34.748  33.607  1.00  0.00    -0.014 A 
ATOM     64  C   UNL A   1      41.338  34.922  34.872  1.00  0.00     0.009 A 
ATOM     65  C   UNL A   1      42.725  35.773  33.083  1.00  0.00     0.009 A 
ATOM     66  C   UNL A   1      41.534  36.107  35.583  1.00  0.00     0.001 A 
ATOM     67  C   UNL A   1      42.939  36.947  33.808  1.00  0.00     0.001 A 
ATOM     68  C   UNL A   1      42.337  37.116  35.053  1.00  0.00     0.000 A 
ENDBRANCH  49  63
BRANCH  50  69
ATOM     69  C   UNL A   1      40.645  26.572  28.079  1.00  0.00    -0.014 A 
ATOM     70  C   UNL A   1      41.208  26.517  26.795  1.00  0.00     0.009 A 
ATOM     71  C   UNL A   1      39.903  25.475  28.544  1.00  0.00     0.009 A 
ATOM     72  C   UNL A   1      41.003  25.401  25.979  1.00  0.00     0.001 A 
ATOM     73  C   UNL A   1      39.723  24.351  27.737  1.00  0.00     0.001 A 
ATOM     74  C   UNL A   1      40.262  24.318  26.452  1.00  0.00     0.000 A 
ENDBRANCH  50  69
BRANCH  62  75
ATOM     75  C   UNL A   1      45.564  28.626  32.532  1.00  0.00    -0.014 A 
ATOM     76  C   UNL A   1      46.795  28.835  31.890  1.00  0.00     0.009 A 
ATOM     77  C   UNL A   1      45.518  27.802  33.666  1.00  0.00     0.009 A 
ATOM     78  C   UNL A   1      47.948  28.201  32.356  1.00  0.00     0.001 A 
ATOM     79  C   UNL A   1      46.677  27.189  34.144  1.00  0.00     0.001 A 
ATOM     80  C   UNL A   1      47.888  27.380  33.483  1.00  0.00     0.000 A 
ENDBRANCH  62  75
ENDBRANCH  36  37
ENDBRANCH  28  31
ENDBRANCH  26  27
ENDBRANCH  25  26
ENDBRANCH  24  25
ENDBRANCH   3  24
TORSDOF 16
ENDMDL
MODEL 3
REMARK VINA RESULT:     -10.2      2.444      4.841
REMARK SMILES CC(C)(C)C(=O)NCCC(=O)N1C[C@@H](O)C[C@@H]1C(=O)NCCCNC(=O)c1ccc(-c2c3nc(c(-c4ccccc4)c4ccc([nH]4)c(-c4ccccc4)c4nc(c(-c5ccccc5)c5ccc2[nH]5)C=C4)C=C3)cc1
REMARK SMILES IDX 18 1 19 2 20 3 17 5 12 6 13 7 14 8 16 9 10 10 11 11 9 12
REMARK SMILES IDX 8 13 7 14 5 15 6 16 2 18 1 19 3 20 4 21 15 22 21 24 22 25
REMARK SMILES IDX 23 26 24 27 25 28 26 30 27 31 28 32 74 33 29 34 73 35 30 36
REMARK SMILES IDX 31 37 32 38 67 39 33 40 72 41 66 42 68 43 34 44 71 45 65 46
REMARK SMILES IDX 64 47 35 49 57 50 42 51 56 52 43 53 46 54 55 55 69 56 44 57
REMARK SMILES IDX 45 58 54 60 70 61 47 62 36 63 37 64 41 65 38 66 40 67 39 68
REMARK SMILES IDX 58 69 59 70 63 71 60 72 62 73 61 74 48 75 49 76 53 77 50 78
REMARK SMILES IDX 52 79 51 80
REMARK H PARENT 20 4 7 17 15 23 24 29 68 48 46 59
REMARK Flexibility Score: inf
ROOT
ATOM      1  C   UNL A   1      32.006  25.270  25.643  1.00  0.00     0.242 C 
ATOM      2  O   UNL A   1      31.744  24.065  25.723  1.00  0.00    -0.273 OA
ATOM      3  N   UNL A   1      31.274  26.101  26.439  1.00  0.00    -0.354 N 
ATOM      4  H   UNL A   1      30.694  25.649  27.095  1.00  0.00     0.163 HD
ENDROOT
BRANCH   1   5
ATOM      5  C   UNL A   1      33.068  25.818  24.646  1.00  0.00     0.177 C 
ATOM      6  N   UNL A   1      32.759  25.420  23.268  1.00  0.00    -0.328 N 
ATOM      7  C   UNL A   1      33.462  24.193  22.907  1.00  0.00     0.152 C 
ATOM      8  C   UNL A   1      34.317  23.830  24.126  1.00  0.00     0.136 C 
ATOM      9  C   UNL A   1      34.422  25.150  24.895  1.00  0.00     0.069 C 
BRANCH   6  10
ATOM     10  C   UNL A   1      32.160  26.267  22.362  1.00  0.00     0.225 C 
ATOM     11  O   UNL A   1      31.811  25.897  21.243  1.00  0.00    -0.275 OA
BRANCH  10  12
ATOM     12  C   UNL A   1      32.117  27.736  22.737  1.00  0.00     0.121 C 
BRANCH  12  13
ATOM     13  C   UNL A   1      30.775  28.420  22.570  1.00  0.00     0.125 C 
BRANCH  13  14
ATOM     14  N   UNL A   1      30.589  29.507  23.509  1.00  0.00    -0.355 N 
ATOM     15  C   UNL A   1      29.621  30.446  23.657  1.00  0.00     0.225 C 
ATOM     16  O   UNL A   1      29.912  31.372  24.423  1.00  0.00    -0.275 OA
ATOM     17  H   UNL A   1      31.312  29.579  24.174  1.00  0.00     0.163 HD
BRANCH  15  18
ATOM     18  C   UNL A   1      28.233  30.368  22.981  1.00  0.00     0.041 C 
ATOM     19  C   UNL A   1      28.415  30.743  21.490  1.00  0.00     0.021 C 
ATOM     20  C   UNL A   1      27.287  31.400  23.610  1.00  0.00     0.021 C 
ATOM     21  C   UNL A   1      27.597  28.974  23.010  1.00  0.00     0.021 C 
ENDBRANCH  15  18
ENDBRANCH  13  14
ENDBRANCH  12  13
ENDBRANCH  10  12
ENDBRANCH   6  10
BRANCH   8  22
ATOM     22  O   UNL A   1      35.606  23.350  23.773  1.00  0.00    -0.391 OA
ATOM     23  H   UNL A   1      35.759  22.490  24.193  1.00  0.00     0.211 HD
ENDBRANCH   8  22
ENDBRANCH   1   5
BRANCH   3  24
ATOM     24  C   UNL A   1      31.222  27.550  26.466  1.00  0.00     0.117 C 
BRANCH  24  25
ATOM     25  C   UNL A   1      32.059  28.104  27.617  1.00  0.00     0.042 C 
BRANCH  25  26
ATOM     26  C   UNL A   1      33.375  28.750  27.201  1.00  0.00     0.118 C 
BRANCH  26  27
ATOM     27  N   UNL A   1      33.475  30.125  27.653  1.00  0.00    -0.352 N 
ATOM     28  C   UNL A   1      34.490  30.795  28.290  1.00  0.00     0.251 C 
ATOM     29  H   UNL A   1      32.677  30.672  27.472  1.00  0.00     0.163 HD
ATOM     30  O   UNL A   1      34.249  31.902  28.767  1.00  0.00    -0.269 OA
BRANCH  28  31
ATOM     31  C   UNL A   1      35.862  30.235  28.424  1.00  0.00     0.039 A 
ATOM     32  C   UNL A   1      36.245  29.730  29.674  1.00  0.00     0.014 A 
ATOM     33  C   UNL A   1      36.809  30.288  27.398  1.00  0.00     0.014 A 
ATOM     34  C   UNL A   1      37.551  29.275  29.888  1.00  0.00     0.010 A 
ATOM     35  C   UNL A   1      38.091  29.763  27.588  1.00  0.00     0.010 A 
ATOM     36  C   UNL A   1      38.487  29.276  28.843  1.00  0.00    -0.014 A 
BRANCH  36  37
ATOM     37  C   UNL A   1      39.887  28.825  29.071  1.00  0.00     0.031 A 
ATOM     38  C   UNL A   1      40.887  29.743  29.731  1.00  0.00     0.074 A 
ATOM     39  C   UNL A   1      40.279  27.601  28.665  1.00  0.00     0.049 A 
ATOM     40  N   UNL A   1      42.155  29.535  29.991  1.00  0.00    -0.248 NA
ATOM     41  C   UNL A   1      40.407  31.075  30.132  1.00  0.00     0.031 C 
ATOM     42  C   UNL A   1      39.431  26.619  27.984  1.00  0.00     0.029 A 
ATOM     43  N   UNL A   1      41.496  26.971  28.770  1.00  0.00    -0.354 N 
ATOM     44  C   UNL A   1      42.625  30.714  30.555  1.00  0.00     0.074 A 
ATOM     45  C   UNL A   1      41.520  31.647  30.571  1.00  0.00     0.031 C 
ATOM     46  C   UNL A   1      40.145  25.504  27.757  1.00  0.00     0.029 A 
ATOM     47  C   UNL A   1      41.506  25.700  28.248  1.00  0.00     0.049 A 
ATOM     48  H   UNL A   1      42.285  27.391  29.180  1.00  0.00     0.167 HD
ATOM     49  C   UNL A   1      43.861  30.997  31.035  1.00  0.00     0.031 A 
ATOM     50  C   UNL A   1      42.497  24.791  28.176  1.00  0.00     0.031 A 
ATOM     51  C   UNL A   1      44.957  30.065  31.065  1.00  0.00     0.049 A 
ATOM     52  C   UNL A   1      43.848  25.119  28.747  1.00  0.00     0.074 A 
ATOM     53  C   UNL A   1      46.225  30.243  31.593  1.00  0.00     0.029 A 
ATOM     54  N   UNL A   1      44.913  28.779  30.555  1.00  0.00    -0.354 N 
ATOM     55  N   UNL A   1      44.254  26.218  29.334  1.00  0.00    -0.248 NA
ATOM     56  C   UNL A   1      44.874  24.067  28.662  1.00  0.00     0.031 C 
ATOM     57  C   UNL A   1      46.960  29.073  31.374  1.00  0.00     0.029 A 
ATOM     58  C   UNL A   1      46.134  28.155  30.746  1.00  0.00     0.049 A 
ATOM     59  H   UNL A   1      44.129  28.369  30.123  1.00  0.00     0.167 HD
ATOM     60  C   UNL A   1      45.569  25.979  29.715  1.00  0.00     0.074 A 
ATOM     61  C   UNL A   1      45.888  24.627  29.307  1.00  0.00     0.031 C 
ATOM     62  C   UNL A   1      46.434  26.807  30.347  1.00  0.00     0.031 A 
BRANCH  49  63
ATOM     63  C   UNL A   1      44.102  32.379  31.572  1.00  0.00    -0.014 A 
ATOM     64  C   UNL A   1      43.911  32.674  32.931  1.00  0.00     0.009 A 
ATOM     65  C   UNL A   1      44.584  33.384  30.720  1.00  0.00     0.009 A 
ATOM     66  C   UNL A   1      44.172  33.956  33.419  1.00  0.00     0.001 A 
ATOM     67  C   UNL A   1      44.867  34.658  31.215  1.00  0.00     0.001 A 
ATOM     68  C   UNL A   1      44.654  34.946  32.563  1.00  0.00     0.000 A 
ENDBRANCH  49  63
BRANCH  50  69
ATOM     69  C   UNL A   1      42.251  23.463  27.557  1.00  0.00    -0.014 A 
ATOM     70  C   UNL A   1      41.704  22.416  28.315  1.00  0.00     0.009 A 
ATOM     71  C   UNL A   1      42.593  23.226  26.217  1.00  0.00     0.009 A 
ATOM     72  C   UNL A   1      41.535  21.149  27.752  1.00  0.00     0.001 A 
ATOM     73  C   UNL A   1      42.398  21.966  25.650  1.00  0.00     0.001 A 
ATOM     74  C   UNL A   1      41.881  20.926  26.419  1.00  0.00     0.000 A 
ENDBRANCH  50  69
BRANCH  62  75
ATOM     75  C   UNL A   1      47.792  26.257  30.677  1.00  0.00    -0.014 A 
ATOM     76  C   UNL A   1      48.069  25.707  31.939  1.00  0.00     0.009 A 
ATOM     77  C   UNL A   1      48.801  26.270  29.703  1.00  0.00     0.009 A 
ATOM     78  C   UNL A   1      49.343  25.214  32.228  1.00  0.00     0.001 A 
ATOM     79  C   UNL A   1      50.066  25.754  29.987  1.00  0.00     0.001 A 
ATOM     80  C   UNL A   1      50.339  25.237  31.251  1.00  0.00     0.000 A 
ENDBRANCH  62  75
ENDBRANCH  36  37
ENDBRANCH  28  31
ENDBRANCH  26  27
ENDBRANCH  25  26
ENDBRANCH  24  25
ENDBRANCH   3  24
TORSDOF 16
ENDMDL
