MODEL 1
REMARK VINA RESULT:     -10.6      0.000      0.000
REMARK SMILES C[C@H]1[C@@H](C(=O)NCCCNC(=O)c2ccc(-c3c4nc(c(-c5ccccc5)c5ccc([nH]5)c(-c5ccccc5)c5nc(c(-c6ccccc6)c6ccc3[nH]6)C=C5)C=C4)cc2)CCN1C(=O)NCC(C1CC1)C1CC1
REMARK SMILES IDX 7 1 6 2 4 3 5 4 3 6 1 7 2 8 63 9 61 10 62 11 64 12 65 13
REMARK SMILES IDX 66 14 67 16 68 17 69 18 70 19 71 20 72 21 73 22 74 23 8 24
REMARK SMILES IDX 9 25 10 26 11 27 12 29 13 30 14 31 60 32 15 33 59 34 16 35
REMARK SMILES IDX 17 36 18 37 53 38 19 39 58 40 52 41 54 42 20 43 57 44 51 45
REMARK SMILES IDX 50 46 21 48 43 49 28 50 42 51 29 52 32 53 41 54 55 55 30 56
REMARK SMILES IDX 31 57 40 59 56 60 33 61 22 62 23 63 27 64 24 65 26 66 25 67
REMARK SMILES IDX 44 68 45 69 49 70 46 71 48 72 47 73 34 74 35 75 39 76 36 77
REMARK SMILES IDX 38 78 37 79
REMARK H PARENT 6 5 66 15 10 28 54 47 32 58
REMARK Flexibility Score: inf
ROOT
ATOM      1  C   UNL A   1      37.843  21.857  25.370  1.00  0.00     0.117 C 
ENDROOT
BRANCH   1   2
ATOM      2  N   UNL A   1      36.593  21.539  26.050  1.00  0.00    -0.356 N 
ATOM      3  C   UNL A   1      35.290  21.820  25.757  1.00  0.00     0.225 C 
ATOM      4  O   UNL A   1      34.451  21.461  26.587  1.00  0.00    -0.275 OA
ATOM      5  H   UNL A   1      36.713  21.025  26.880  1.00  0.00     0.163 HD
BRANCH   3   6
ATOM      6  C   UNL A   1      34.890  22.458  24.434  1.00  0.00     0.102 C 
ATOM      7  C   UNL A   1      34.772  24.781  25.648  1.00  0.00     0.032 C 
ATOM      8  C   UNL A   1      34.872  23.994  24.342  1.00  0.00     0.096 C 
ATOM      9  N   UNL A   1      33.718  24.335  23.527  1.00  0.00    -0.321 N 
ATOM     10  C   UNL A   1      33.508  22.022  23.906  1.00  0.00     0.037 C 
ATOM     11  C   UNL A   1      32.715  23.303  23.705  1.00  0.00     0.122 C 
BRANCH   9  12
ATOM     12  C   UNL A   1      33.393  25.498  22.898  1.00  0.00     0.317 C 
ATOM     13  O   UNL A   1      33.853  25.773  21.785  1.00  0.00    -0.249 OA
ATOM     14  N   UNL A   1      32.545  26.408  23.421  1.00  0.00    -0.338 N 
ATOM     15  H   UNL A   1      32.434  27.183  22.825  1.00  0.00     0.165 HD
BRANCH  14  16
ATOM     16  C   UNL A   1      31.748  26.550  24.639  1.00  0.00     0.121 C 
BRANCH  16  17
ATOM     17  C   UNL A   1      31.273  27.999  24.878  1.00  0.00     0.014 C 
BRANCH  17  18
ATOM     18  C   UNL A   1      32.230  28.839  25.708  1.00  0.00    -0.006 C 
ATOM     19  C   UNL A   1      32.235  28.944  27.217  1.00  0.00     0.004 C 
ATOM     20  C   UNL A   1      33.319  28.171  26.518  1.00  0.00     0.004 C 
ENDBRANCH  17  18
BRANCH  17  21
ATOM     21  C   UNL A   1      30.918  28.780  23.613  1.00  0.00    -0.006 C 
ATOM     22  C   UNL A   1      29.655  28.544  22.818  1.00  0.00     0.004 C 
ATOM     23  C   UNL A   1      29.840  29.838  23.565  1.00  0.00     0.004 C 
ENDBRANCH  17  21
ENDBRANCH  16  17
ENDBRANCH  14  16
ENDBRANCH   9  12
ENDBRANCH   3   6
ENDBRANCH   1   2
BRANCH   1  24
ATOM     24  C   UNL A   1      38.498  20.605  24.775  1.00  0.00     0.042 C 
BRANCH  24  25
ATOM     25  C   UNL A   1      38.686  19.453  25.757  1.00  0.00     0.118 C 
BRANCH  25  26
ATOM     26  N   UNL A   1      40.032  18.914  25.718  1.00  0.00    -0.352 N 
ATOM     27  C   UNL A   1      41.256  19.484  25.952  1.00  0.00     0.251 C 
ATOM     28  H   UNL A   1      40.075  17.960  25.477  1.00  0.00     0.163 HD
ATOM     29  O   UNL A   1      42.259  18.834  25.633  1.00  0.00    -0.269 OA
BRANCH  27  30
ATOM     30  C   UNL A   1      41.443  20.834  26.551  1.00  0.00     0.039 A 
ATOM     31  C   UNL A   1      41.944  21.851  25.726  1.00  0.00     0.014 A 
ATOM     32  C   UNL A   1      41.258  21.110  27.908  1.00  0.00     0.014 A 
ATOM     33  C   UNL A   1      42.234  23.119  26.245  1.00  0.00     0.010 A 
ATOM     34  C   UNL A   1      41.460  22.403  28.408  1.00  0.00     0.010 A 
ATOM     35  C   UNL A   1      41.980  23.417  27.591  1.00  0.00    -0.014 A 
BRANCH  35  36
ATOM     36  C   UNL A   1      42.307  24.756  28.158  1.00  0.00     0.031 A 
ATOM     37  C   UNL A   1      43.716  25.087  28.589  1.00  0.00     0.074 A 
ATOM     38  C   UNL A   1      41.340  25.683  28.310  1.00  0.00     0.049 A 
ATOM     39  N   UNL A   1      44.184  26.191  29.118  1.00  0.00    -0.248 NA
ATOM     40  C   UNL A   1      44.728  24.031  28.424  1.00  0.00     0.031 C 
ATOM     41  C   UNL A   1      39.928  25.498  27.973  1.00  0.00     0.029 A 
ATOM     42  N   UNL A   1      41.401  26.970  28.787  1.00  0.00    -0.354 N 
ATOM     43  C   UNL A   1      45.531  25.954  29.368  1.00  0.00     0.074 A 
ATOM     44  C   UNL A   1      45.796  24.586  28.978  1.00  0.00     0.031 C 
ATOM     45  C   UNL A   1      39.263  26.637  28.225  1.00  0.00     0.029 A 
ATOM     46  C   UNL A   1      40.193  27.622  28.771  1.00  0.00     0.049 A 
ATOM     47  H   UNL A   1      42.234  27.387  29.109  1.00  0.00     0.167 HD
ATOM     48  C   UNL A   1      46.473  26.797  29.857  1.00  0.00     0.031 A 
ATOM     49  C   UNL A   1      39.863  28.872  29.151  1.00  0.00     0.031 A 
ATOM     50  C   UNL A   1      46.230  28.166  30.227  1.00  0.00     0.049 A 
ATOM     51  C   UNL A   1      40.925  29.795  29.677  1.00  0.00     0.074 A 
ATOM     52  C   UNL A   1      47.134  29.111  30.682  1.00  0.00     0.029 A 
ATOM     53  N   UNL A   1      44.992  28.788  30.182  1.00  0.00    -0.354 N 
ATOM     54  N   UNL A   1      42.204  29.568  29.853  1.00  0.00    -0.248 NA
ATOM     55  C   UNL A   1      40.498  31.154  30.044  1.00  0.00     0.031 C 
ATOM     56  C   UNL A   1      46.436  30.294  30.948  1.00  0.00     0.029 A 
ATOM     57  C   UNL A   1      45.106  30.098  30.616  1.00  0.00     0.049 A 
ATOM     58  H   UNL A   1      44.156  28.361  29.886  1.00  0.00     0.167 HD
ATOM     59  C   UNL A   1      42.737  30.757  30.332  1.00  0.00     0.074 A 
ATOM     60  C   UNL A   1      41.648  31.710  30.399  1.00  0.00     0.031 C 
ATOM     61  C   UNL A   1      44.016  31.035  30.685  1.00  0.00     0.031 A 
BRANCH  48  62
ATOM     62  C   UNL A   1      47.866  26.254  30.021  1.00  0.00    -0.014 A 
ATOM     63  C   UNL A   1      48.752  26.187  28.933  1.00  0.00     0.009 A 
ATOM     64  C   UNL A   1      48.308  25.830  31.283  1.00  0.00     0.009 A 
ATOM     65  C   UNL A   1      50.037  25.667  29.098  1.00  0.00     0.001 A 
ATOM     66  C   UNL A   1      49.604  25.337  31.451  1.00  0.00     0.001 A 
ATOM     67  C   UNL A   1      50.463  25.247  30.357  1.00  0.00     0.000 A 
ENDBRANCH  48  62
BRANCH  49  68
ATOM     68  C   UNL A   1      38.457  29.335  29.026  1.00  0.00    -0.014 A 
ATOM     69  C   UNL A   1      37.596  29.307  30.134  1.00  0.00     0.009 A 
ATOM     70  C   UNL A   1      37.969  29.808  27.798  1.00  0.00     0.009 A 
ATOM     71  C   UNL A   1      36.269  29.723  30.009  1.00  0.00     0.001 A 
ATOM     72  C   UNL A   1      36.649  30.248  27.683  1.00  0.00     0.001 A 
ATOM     73  C   UNL A   1      35.798  30.198  28.787  1.00  0.00     0.000 A 
ENDBRANCH  49  68
BRANCH  61  74
ATOM     74  C   UNL A   1      44.309  32.431  31.156  1.00  0.00    -0.014 A 
ATOM     75  C   UNL A   1      44.243  32.768  32.517  1.00  0.00     0.009 A 
ATOM     76  C   UNL A   1      44.680  33.416  30.227  1.00  0.00     0.009 A 
ATOM     77  C   UNL A   1      44.510  34.074  32.934  1.00  0.00     0.001 A 
ATOM     78  C   UNL A   1      44.972  34.714  30.651  1.00  0.00     0.001 A 
ATOM     79  C   UNL A   1      44.877  35.044  32.002  1.00  0.00     0.000 A 
ENDBRANCH  61  74
ENDBRANCH  35  36
ENDBRANCH  27  30
ENDBRANCH  25  26
ENDBRANCH  24  25
ENDBRANCH   1  24
TORSDOF 15
ENDMDL
MODEL 2
REMARK VINA RESULT:     -10.5      3.148      8.940
REMARK SMILES C[C@H]1[C@@H](C(=O)NCCCNC(=O)c2ccc(-c3c4nc(c(-c5ccccc5)c5ccc([nH]5)c(-c5ccccc5)c5nc(c(-c6ccccc6)c6ccc3[nH]6)C=C5)C=C4)cc2)CCN1C(=O)NCC(C1CC1)C1CC1
REMARK SMILES IDX 7 1 6 2 4 3 5 4 3 6 1 7 2 8 63 9 61 10 62 11 64 12 65 13
REMARK SMILES IDX 66 14 67 16 68 17 69 18 70 19 71 20 72 21 73 22 74 23 8 24
REMARK SMILES IDX 9 25 10 26 11 27 12 29 13 30 14 31 60 32 15 33 59 34 16 35
REMARK SMILES IDX 17 36 18 37 53 38 19 39 58 40 52 41 54 42 20 43 57 44 51 45
REMARK SMILES IDX 50 46 21 48 43 49 28 50 42 51 29 52 32 53 41 54 55 55 30 56
REMARK SMILES IDX 31 57 40 59 56 60 33 61 22 62 23 63 27 64 24 65 26 66 25 67
REMARK SMILES IDX 44 68 45 69 49 70 46 71 48 72 47 73 34 74 35 75 39 76 36 77
REMARK SMILES IDX 38 78 37 79
REMARK H PARENT 6 5 66 15 10 28 54 47 32 58
REMARK Flexibility Score: inf
ROOT
ATOM      1  C   UNL A   1      31.464  30.524  26.467  1.00  0.00     0.117 C 
ENDROOT
BRANCH   1   2
ATOM      2  N   UNL A   1      31.707  30.152  25.079  1.00  0.00    -0.356 N 
ATOM      3  C   UNL A   1      31.610  28.964  24.414  1.00  0.00     0.225 C 
ATOM      4  O   UNL A   1      31.958  28.966  23.231  1.00  0.00    -0.275 OA
ATOM      5  H   UNL A   1      31.998  30.902  24.512  1.00  0.00     0.163 HD
BRANCH   3   6
ATOM      6  C   UNL A   1      31.018  27.727  25.077  1.00  0.00     0.102 C 
ATOM      7  C   UNL A   1      33.453  26.905  25.605  1.00  0.00     0.032 C 
ATOM      8  C   UNL A   1      31.954  26.818  25.890  1.00  0.00     0.096 C 
ATOM      9  N   UNL A   1      31.528  25.455  25.619  1.00  0.00    -0.321 N 
ATOM     10  C   UNL A   1      30.292  26.770  24.108  1.00  0.00     0.037 C 
ATOM     11  C   UNL A   1      30.957  25.414  24.286  1.00  0.00     0.122 C 
BRANCH   9  12
ATOM     12  C   UNL A   1      31.806  24.294  26.275  1.00  0.00     0.317 C 
ATOM     13  O   UNL A   1      31.204  23.985  27.308  1.00  0.00    -0.249 OA
ATOM     14  N   UNL A   1      32.723  23.403  25.844  1.00  0.00    -0.338 N 
ATOM     15  H   UNL A   1      32.785  22.628  26.447  1.00  0.00     0.165 HD
BRANCH  14  16
ATOM     16  C   UNL A   1      33.648  23.283  24.718  1.00  0.00     0.121 C 
BRANCH  16  17
ATOM     17  C   UNL A   1      34.610  22.084  24.860  1.00  0.00     0.014 C 
BRANCH  17  18
ATOM     18  C   UNL A   1      35.834  22.367  25.716  1.00  0.00    -0.006 C 
ATOM     19  C   UNL A   1      37.246  22.555  25.207  1.00  0.00     0.004 C 
ATOM     20  C   UNL A   1      36.467  23.740  25.706  1.00  0.00     0.004 C 
ENDBRANCH  17  18
BRANCH  17  21
ATOM     21  C   UNL A   1      33.964  20.791  25.355  1.00  0.00    -0.006 C 
ATOM     22  C   UNL A   1      32.805  20.121  24.655  1.00  0.00     0.004 C 
ATOM     23  C   UNL A   1      34.155  19.454  24.678  1.00  0.00     0.004 C 
ENDBRANCH  17  21
ENDBRANCH  16  17
ENDBRANCH  14  16
ENDBRANCH   9  12
ENDBRANCH   3   6
ENDBRANCH   1   2
BRANCH   1  24
ATOM     24  C   UNL A   1      31.338  32.043  26.633  1.00  0.00     0.042 C 
BRANCH  24  25
ATOM     25  C   UNL A   1      32.657  32.772  26.870  1.00  0.00     0.118 C 
BRANCH  25  26
ATOM     26  N   UNL A   1      32.487  33.963  27.679  1.00  0.00    -0.352 N 
ATOM     27  C   UNL A   1      33.165  34.434  28.774  1.00  0.00     0.251 C 
ATOM     28  H   UNL A   1      31.745  34.542  27.389  1.00  0.00     0.163 HD
ATOM     29  O   UNL A   1      32.661  35.377  29.396  1.00  0.00    -0.269 OA
BRANCH  27  30
ATOM     30  C   UNL A   1      34.455  33.870  29.258  1.00  0.00     0.039 A 
ATOM     31  C   UNL A   1      35.620  34.203  28.552  1.00  0.00     0.014 A 
ATOM     32  C   UNL A   1      34.551  32.944  30.299  1.00  0.00     0.014 A 
ATOM     33  C   UNL A   1      36.853  33.635  28.892  1.00  0.00     0.010 A 
ATOM     34  C   UNL A   1      35.798  32.446  30.699  1.00  0.00     0.010 A 
ATOM     35  C   UNL A   1      36.962  32.760  29.983  1.00  0.00    -0.014 A 
BRANCH  35  36
ATOM     36  C   UNL A   1      38.266  32.132  30.338  1.00  0.00     0.031 A 
ATOM     37  C   UNL A   1      39.200  32.799  31.319  1.00  0.00     0.074 A 
ATOM     38  C   UNL A   1      38.635  30.967  29.769  1.00  0.00     0.049 A 
ATOM     39  N   UNL A   1      40.382  32.411  31.734  1.00  0.00    -0.248 NA
ATOM     40  C   UNL A   1      38.760  34.082  31.891  1.00  0.00     0.031 C 
ATOM     41  C   UNL A   1      37.856  30.223  28.778  1.00  0.00     0.029 A 
ATOM     42  N   UNL A   1      39.763  30.203  29.946  1.00  0.00    -0.354 N 
ATOM     43  C   UNL A   1      40.830  33.408  32.594  1.00  0.00     0.074 A 
ATOM     44  C   UNL A   1      39.817  34.441  32.604  1.00  0.00     0.031 C 
ATOM     45  C   UNL A   1      38.513  29.097  28.458  1.00  0.00     0.029 A 
ATOM     46  C   UNL A   1      39.773  29.053  29.194  1.00  0.00     0.049 A 
ATOM     47  H   UNL A   1      40.495  30.454  30.555  1.00  0.00     0.167 HD
ATOM     48  C   UNL A   1      41.968  33.457  33.328  1.00  0.00     0.031 A 
ATOM     49  C   UNL A   1      40.691  28.071  29.103  1.00  0.00     0.031 A 
ATOM     50  C   UNL A   1      42.973  32.428  33.346  1.00  0.00     0.049 A 
ATOM     51  C   UNL A   1      41.939  28.138  29.937  1.00  0.00     0.074 A 
ATOM     52  C   UNL A   1      44.133  32.367  34.099  1.00  0.00     0.029 A 
ATOM     53  N   UNL A   1      42.935  31.275  32.578  1.00  0.00    -0.354 N 
ATOM     54  N   UNL A   1      42.317  29.063  30.785  1.00  0.00    -0.248 NA
ATOM     55  C   UNL A   1      42.881  27.016  29.808  1.00  0.00     0.031 C 
ATOM     56  C   UNL A   1      44.817  31.194  33.758  1.00  0.00     0.029 A 
ATOM     57  C   UNL A   1      44.059  30.505  32.827  1.00  0.00     0.049 A 
ATOM     58  H   UNL A   1      42.217  31.039  31.949  1.00  0.00     0.167 HD
ATOM     59  C   UNL A   1      43.529  28.627  31.305  1.00  0.00     0.074 A 
ATOM     60  C   UNL A   1      43.813  27.345  30.692  1.00  0.00     0.031 C 
ATOM     61  C   UNL A   1      44.336  29.235  32.208  1.00  0.00     0.031 A 
BRANCH  48  62
ATOM     62  C   UNL A   1      42.188  34.678  34.179  1.00  0.00    -0.014 A 
ATOM     63  C   UNL A   1      41.783  34.709  35.523  1.00  0.00     0.009 A 
ATOM     64  C   UNL A   1      42.832  35.802  33.639  1.00  0.00     0.009 A 
ATOM     65  C   UNL A   1      41.980  35.854  36.296  1.00  0.00     0.001 A 
ATOM     66  C   UNL A   1      43.053  36.936  34.422  1.00  0.00     0.001 A 
ATOM     67  C   UNL A   1      42.619  36.965  35.747  1.00  0.00     0.000 A 
ENDBRANCH  48  62
BRANCH  49  68
ATOM     68  C   UNL A   1      40.451  26.918  28.198  1.00  0.00    -0.014 A 
ATOM     69  C   UNL A   1      40.956  26.923  26.888  1.00  0.00     0.009 A 
ATOM     70  C   UNL A   1      39.716  25.806  28.638  1.00  0.00     0.009 A 
ATOM     71  C   UNL A   1      40.712  25.847  26.032  1.00  0.00     0.001 A 
ATOM     72  C   UNL A   1      39.496  24.721  27.788  1.00  0.00     0.001 A 
ATOM     73  C   UNL A   1      39.987  24.746  26.483  1.00  0.00     0.000 A 
ENDBRANCH  49  68
BRANCH  61  74
ATOM     74  C   UNL A   1      45.590  28.510  32.605  1.00  0.00    -0.014 A 
ATOM     75  C   UNL A   1      46.799  28.723  31.923  1.00  0.00     0.009 A 
ATOM     76  C   UNL A   1      45.567  27.621  33.691  1.00  0.00     0.009 A 
ATOM     77  C   UNL A   1      47.953  28.033  32.301  1.00  0.00     0.001 A 
ATOM     78  C   UNL A   1      46.729  26.953  34.082  1.00  0.00     0.001 A 
ATOM     79  C   UNL A   1      47.918  27.152  33.380  1.00  0.00     0.000 A 
ENDBRANCH  61  74
ENDBRANCH  35  36
ENDBRANCH  27  30
ENDBRANCH  25  26
ENDBRANCH  24  25
ENDBRANCH   1  24
TORSDOF 15
ENDMDL
MODEL 3
REMARK VINA RESULT:     -10.3      3.459      8.942
REMARK SMILES C[C@H]1[C@@H](C(=O)NCCCNC(=O)c2ccc(-c3c4nc(c(-c5ccccc5)c5ccc([nH]5)c(-c5ccccc5)c5nc(c(-c6ccccc6)c6ccc3[nH]6)C=C5)C=C4)cc2)CCN1C(=O)NCC(C1CC1)C1CC1
REMARK SMILES IDX 7 1 6 2 4 3 5 4 3 6 1 7 2 8 63 9 61 10 62 11 64 12 65 13
REMARK SMILES IDX 66 14 67 16 68 17 69 18 70 19 71 20 72 21 73 22 74 23 8 24
REMARK SMILES IDX 9 25 10 26 11 27 12 29 13 30 14 31 60 32 15 33 59 34 16 35
REMARK SMILES IDX 17 36 18 37 53 38 19 39 58 40 52 41 54 42 20 43 57 44 51 45
REMARK SMILES IDX 50 46 21 48 43 49 28 50 42 51 29 52 32 53 41 54 55 55 30 56
REMARK SMILES IDX 31 57 40 59 56 60 33 61 22 62 23 63 27 64 24 65 26 66 25 67
REMARK SMILES IDX 44 68 45 69 49 70 46 71 48 72 47 73 34 74 35 75 39 76 36 77
REMARK SMILES IDX 38 78 37 79
REMARK H PARENT 6 5 66 15 10 28 54 47 32 58
REMARK Flexibility Score: inf
ROOT
ATOM      1  C   UNL A   1      31.419  30.426  26.324  1.00  0.00     0.117 C 
ENDROOT
BRANCH   1   2
ATOM      2  N   UNL A   1      31.553  30.079  24.916  1.00  0.00    -0.356 N 
ATOM      3  C   UNL A   1      31.398  28.903  24.239  1.00  0.00     0.225 C 
ATOM      4  O   UNL A   1      31.654  28.925  23.034  1.00  0.00    -0.275 OA
ATOM      5  H   UNL A   1      31.806  30.837  24.342  1.00  0.00     0.163 HD
BRANCH   3   6
ATOM      6  C   UNL A   1      30.847  27.658  24.922  1.00  0.00     0.102 C 
ATOM      7  C   UNL A   1      33.306  26.957  25.512  1.00  0.00     0.032 C 
ATOM      8  C   UNL A   1      31.808  26.810  25.774  1.00  0.00     0.096 C 
ATOM      9  N   UNL A   1      31.446  25.424  25.529  1.00  0.00    -0.321 N 
ATOM     10  C   UNL A   1      30.182  26.647  23.965  1.00  0.00     0.037 C 
ATOM     11  C   UNL A   1      30.901  25.326  24.189  1.00  0.00     0.122 C 
BRANCH   9  12
ATOM     12  C   UNL A   1      31.761  24.293  26.220  1.00  0.00     0.317 C 
ATOM     13  O   UNL A   1      31.158  23.985  27.251  1.00  0.00    -0.249 OA
ATOM     14  N   UNL A   1      32.721  23.431  25.824  1.00  0.00    -0.338 N 
ATOM     15  H   UNL A   1      32.807  22.675  26.448  1.00  0.00     0.165 HD
BRANCH  14  16
ATOM     16  C   UNL A   1      33.669  23.322  24.715  1.00  0.00     0.121 C 
BRANCH  16  17
ATOM     17  C   UNL A   1      34.623  22.117  24.860  1.00  0.00     0.014 C 
BRANCH  17  18
ATOM     18  C   UNL A   1      35.812  22.372  25.772  1.00  0.00    -0.006 C 
ATOM     19  C   UNL A   1      37.259  22.451  25.338  1.00  0.00     0.004 C 
ATOM     20  C   UNL A   1      36.527  23.703  25.732  1.00  0.00     0.004 C 
ENDBRANCH  17  18
BRANCH  17  21
ATOM     21  C   UNL A   1      33.956  20.812  25.291  1.00  0.00    -0.006 C 
ATOM     22  C   UNL A   1      32.870  20.131  24.491  1.00  0.00     0.004 C 
ATOM     23  C   UNL A   1      34.222  19.482  24.625  1.00  0.00     0.004 C 
ENDBRANCH  17  21
ENDBRANCH  16  17
ENDBRANCH  14  16
ENDBRANCH   9  12
ENDBRANCH   3   6
ENDBRANCH   1   2
BRANCH   1  24
ATOM     24  C   UNL A   1      31.401  31.945  26.534  1.00  0.00     0.042 C 
BRANCH  24  25
ATOM     25  C   UNL A   1      32.739  32.548  26.950  1.00  0.00     0.118 C 
BRANCH  25  26
ATOM     26  N   UNL A   1      32.580  33.834  27.603  1.00  0.00    -0.352 N 
ATOM     27  C   UNL A   1      33.210  34.399  28.682  1.00  0.00     0.251 C 
ATOM     28  H   UNL A   1      31.892  34.408  27.196  1.00  0.00     0.163 HD
ATOM     29  O   UNL A   1      32.717  35.432  29.153  1.00  0.00    -0.269 OA
BRANCH  27  30
ATOM     30  C   UNL A   1      34.432  33.838  29.319  1.00  0.00     0.039 A 
ATOM     31  C   UNL A   1      35.675  34.203  28.783  1.00  0.00     0.014 A 
ATOM     32  C   UNL A   1      34.403  32.885  30.340  1.00  0.00     0.014 A 
ATOM     33  C   UNL A   1      36.861  33.641  29.270  1.00  0.00     0.010 A 
ATOM     34  C   UNL A   1      35.593  32.391  30.891  1.00  0.00     0.010 A 
ATOM     35  C   UNL A   1      36.837  32.738  30.343  1.00  0.00    -0.014 A 
BRANCH  35  36
ATOM     36  C   UNL A   1      38.092  32.117  30.853  1.00  0.00     0.031 A 
ATOM     37  C   UNL A   1      38.649  30.868  30.212  1.00  0.00     0.074 A 
ATOM     38  C   UNL A   1      38.734  32.654  31.910  1.00  0.00     0.049 A 
ATOM     39  N   UNL A   1      39.717  30.179  30.531  1.00  0.00    -0.248 NA
ATOM     40  C   UNL A   1      37.895  30.309  29.079  1.00  0.00     0.031 C 
ATOM     41  C   UNL A   1      38.299  33.836  32.655  1.00  0.00     0.029 A 
ATOM     42  N   UNL A   1      39.895  32.275  32.539  1.00  0.00    -0.354 N 
ATOM     43  C   UNL A   1      39.749  29.098  29.656  1.00  0.00     0.074 A 
ATOM     44  C   UNL A   1      38.569  29.197  28.825  1.00  0.00     0.031 C 
ATOM     45  C   UNL A   1      39.195  34.103  33.619  1.00  0.00     0.029 A 
ATOM     46  C   UNL A   1      40.250  33.094  33.583  1.00  0.00     0.049 A 
ATOM     47  H   UNL A   1      40.424  31.490  32.267  1.00  0.00     0.167 HD
ATOM     48  C   UNL A   1      40.681  28.122  29.533  1.00  0.00     0.031 A 
ATOM     49  C   UNL A   1      41.304  33.045  34.420  1.00  0.00     0.031 A 
ATOM     50  C   UNL A   1      41.871  28.025  30.336  1.00  0.00     0.049 A 
ATOM     51  C   UNL A   1      42.334  31.963  34.258  1.00  0.00     0.074 A 
ATOM     52  C   UNL A   1      42.898  27.101  30.249  1.00  0.00     0.029 A 
ATOM     53  N   UNL A   1      42.196  28.885  31.374  1.00  0.00    -0.354 N 
ATOM     54  N   UNL A   1      42.373  30.983  33.388  1.00  0.00    -0.248 NA
ATOM     55  C   UNL A   1      43.473  31.989  35.187  1.00  0.00     0.031 C 
ATOM     56  C   UNL A   1      43.827  27.379  31.259  1.00  0.00     0.029 A 
ATOM     57  C   UNL A   1      43.398  28.503  31.944  1.00  0.00     0.049 A 
ATOM     58  H   UNL A   1      41.651  29.652  31.662  1.00  0.00     0.167 HD
ATOM     59  C   UNL A   1      43.547  30.289  33.651  1.00  0.00     0.074 A 
ATOM     60  C   UNL A   1      44.201  30.972  34.749  1.00  0.00     0.031 C 
ATOM     61  C   UNL A   1      44.037  29.184  33.039  1.00  0.00     0.031 A 
BRANCH  48  62
ATOM     62  C   UNL A   1      40.446  27.072  28.483  1.00  0.00    -0.014 A 
ATOM     63  C   UNL A   1      39.654  25.944  28.749  1.00  0.00     0.009 A 
ATOM     64  C   UNL A   1      41.001  27.225  27.203  1.00  0.00     0.009 A 
ATOM     65  C   UNL A   1      39.456  24.970  27.768  1.00  0.00     0.001 A 
ATOM     66  C   UNL A   1      40.778  26.263  26.215  1.00  0.00     0.001 A 
ATOM     67  C   UNL A   1      40.015  25.133  26.501  1.00  0.00     0.000 A 
ENDBRANCH  48  62
BRANCH  49  68
ATOM     68  C   UNL A   1      41.454  34.073  35.482  1.00  0.00    -0.014 A 
ATOM     69  C   UNL A   1      40.906  33.865  36.757  1.00  0.00     0.009 A 
ATOM     70  C   UNL A   1      42.144  35.267  35.225  1.00  0.00     0.009 A 
ATOM     71  C   UNL A   1      41.030  34.842  37.747  1.00  0.00     0.001 A 
ATOM     72  C   UNL A   1      42.288  36.231  36.225  1.00  0.00     0.001 A 
ATOM     73  C   UNL A   1      41.724  36.021  37.483  1.00  0.00     0.000 A 
ENDBRANCH  49  68
BRANCH  61  74
ATOM     74  C   UNL A   1      45.356  28.658  33.529  1.00  0.00    -0.014 A 
ATOM     75  C   UNL A   1      46.566  29.089  32.962  1.00  0.00     0.009 A 
ATOM     76  C   UNL A   1      45.390  27.738  34.589  1.00  0.00     0.009 A 
ATOM     77  C   UNL A   1      47.783  28.582  33.425  1.00  0.00     0.001 A 
ATOM     78  C   UNL A   1      46.609  27.252  35.065  1.00  0.00     0.001 A 
ATOM     79  C   UNL A   1      47.803  27.667  34.477  1.00  0.00     0.000 A 
ENDBRANCH  61  74
ENDBRANCH  35  36
ENDBRANCH  27  30
ENDBRANCH  25  26
ENDBRANCH  24  25
ENDBRANCH   1  24
TORSDOF 15
ENDMDL
