MODEL 1
REMARK VINA RESULT:     -10.3      0.000      0.000
REMARK SMILES C=C(C)CN(CC)c1ccc(F)cc1C(=O)NCCCNC(=O)c1ccc(-c2c3nc(c(-c4ccccc4)c4ccc([nH]4)c(-c4ccccc4)c4nc(c(-c5ccccc5)c5ccc2[nH]5)C=C4)C=C3)cc1
REMARK SMILES IDX 18 1 17 2 15 3 16 4 14 6 8 7 9 8 10 9 13 10 11 11 12 12 5 13
REMARK SMILES IDX 4 14 2 15 1 16 3 17 6 18 7 19 19 20 20 21 21 22 22 23 23 25
REMARK SMILES IDX 24 26 25 27 71 28 26 29 70 30 27 31 28 32 29 33 64 34 30 35
REMARK SMILES IDX 69 36 63 37 65 38 31 39 68 40 62 41 61 42 32 44 54 45 39 46
REMARK SMILES IDX 53 47 40 48 43 49 52 50 66 51 41 52 42 53 51 55 67 56 44 57
REMARK SMILES IDX 33 58 34 59 38 60 35 61 37 62 36 63 55 64 56 65 60 66 57 67
REMARK SMILES IDX 59 68 58 69 45 70 46 71 50 72 47 73 49 74 48 75
REMARK H PARENT 17 5 21 24 65 43 43 54
REMARK Flexibility Score: inf
ROOT
ATOM      1  C   UNL A   1      31.960  29.549  26.170  1.00  0.00     0.118 C 
ENDROOT
BRANCH   1   2
ATOM      2  N   UNL A   1      32.668  29.310  24.945  1.00  0.00    -0.352 N 
ATOM      3  C   UNL A   1      32.142  28.992  23.721  1.00  0.00     0.253 C 
ATOM      4  O   UNL A   1      32.925  28.952  22.768  1.00  0.00    -0.269 OA
ATOM      5  H   UNL A   1      33.649  29.382  24.990  1.00  0.00     0.163 HD
BRANCH   3   6
ATOM      6  C   UNL A   1      30.721  28.592  23.499  1.00  0.00     0.066 A 
ATOM      7  C   UNL A   1      30.108  27.333  23.739  1.00  0.00     0.050 A 
ATOM      8  C   UNL A   1      28.704  27.265  23.583  1.00  0.00     0.030 A 
ATOM      9  C   UNL A   1      27.937  28.354  23.167  1.00  0.00     0.041 A 
ATOM     10  C   UNL A   1      29.929  29.690  23.090  1.00  0.00     0.055 A 
ATOM     11  C   UNL A   1      28.561  29.559  22.920  1.00  0.00     0.124 A 
ATOM     12  F   UNL A   1      27.836  30.615  22.535  1.00  0.00    -0.207 F 
BRANCH   7  13
ATOM     13  N   UNL A   1      30.767  26.180  24.167  1.00  0.00    -0.367 N 
BRANCH  13  14
ATOM     14  C   UNL A   1      31.200  25.172  23.177  1.00  0.00     0.146 C 
BRANCH  14  15
ATOM     15  C   UNL A   1      32.526  25.435  22.510  1.00  0.00    -0.061 C 
ATOM     16  C   UNL A   1      33.696  25.458  23.170  1.00  0.00     0.009 C 
ATOM     17  C   UNL A   1      32.445  25.777  21.045  1.00  0.00     0.041 C 
ENDBRANCH  14  15
ENDBRANCH  13  14
BRANCH  13  18
ATOM     18  C   UNL A   1      30.592  25.745  25.560  1.00  0.00     0.113 C 
ATOM     19  C   UNL A   1      31.859  25.862  26.394  1.00  0.00     0.027 C 
ENDBRANCH  13  18
ENDBRANCH   7  13
ENDBRANCH   3   6
ENDBRANCH   1   2
BRANCH   1  20
ATOM     20  C   UNL A   1      31.643  30.995  26.470  1.00  0.00     0.042 C 
BRANCH  20  21
ATOM     21  C   UNL A   1      32.795  31.766  27.098  1.00  0.00     0.118 C 
BRANCH  21  22
ATOM     22  N   UNL A   1      32.469  33.118  27.551  1.00  0.00    -0.352 N 
ATOM     23  C   UNL A   1      33.131  34.033  28.340  1.00  0.00     0.251 C 
ATOM     24  H   UNL A   1      31.598  33.440  27.225  1.00  0.00     0.163 HD
ATOM     25  O   UNL A   1      32.595  35.107  28.587  1.00  0.00    -0.269 OA
BRANCH  23  26
ATOM     26  C   UNL A   1      34.440  33.714  28.960  1.00  0.00     0.039 A 
ATOM     27  C   UNL A   1      34.474  32.893  30.092  1.00  0.00     0.014 A 
ATOM     28  C   UNL A   1      35.636  34.171  28.422  1.00  0.00     0.014 A 
ATOM     29  C   UNL A   1      35.700  32.426  30.578  1.00  0.00     0.010 A 
ATOM     30  C   UNL A   1      36.833  33.571  28.789  1.00  0.00     0.010 A 
ATOM     31  C   UNL A   1      36.887  32.689  29.874  1.00  0.00    -0.014 A 
BRANCH  31  32
ATOM     32  C   UNL A   1      38.184  32.057  30.240  1.00  0.00     0.031 A 
ATOM     33  C   UNL A   1      39.130  32.744  31.194  1.00  0.00     0.074 A 
ATOM     34  C   UNL A   1      38.565  30.912  29.638  1.00  0.00     0.049 A 
ATOM     35  N   UNL A   1      40.347  32.403  31.542  1.00  0.00    -0.248 NA
ATOM     36  C   UNL A   1      38.672  34.007  31.795  1.00  0.00     0.031 C 
ATOM     37  C   UNL A   1      37.794  30.174  28.633  1.00  0.00     0.029 A 
ATOM     38  N   UNL A   1      39.706  30.162  29.788  1.00  0.00    -0.354 N 
ATOM     39  C   UNL A   1      40.809  33.432  32.354  1.00  0.00     0.074 A 
ATOM     40  C   UNL A   1      39.771  34.439  32.391  1.00  0.00     0.031 C 
ATOM     41  C   UNL A   1      38.449  29.049  28.310  1.00  0.00     0.029 A 
ATOM     42  C   UNL A   1      39.708  29.006  29.044  1.00  0.00     0.049 A 
ATOM     43  H   UNL A   1      40.453  30.427  30.372  1.00  0.00     0.167 HD
ATOM     44  C   UNL A   1      41.974  33.525  33.040  1.00  0.00     0.031 A 
ATOM     45  C   UNL A   1      40.614  28.014  28.970  1.00  0.00     0.031 A 
ATOM     46  C   UNL A   1      42.983  32.503  33.055  1.00  0.00     0.049 A 
ATOM     47  C   UNL A   1      41.869  28.103  29.789  1.00  0.00     0.074 A 
ATOM     48  C   UNL A   1      44.163  32.463  33.778  1.00  0.00     0.029 A 
ATOM     49  N   UNL A   1      42.921  31.327  32.324  1.00  0.00    -0.354 N 
ATOM     50  N   UNL A   1      42.263  29.057  30.597  1.00  0.00    -0.248 NA
ATOM     51  C   UNL A   1      42.797  26.968  29.694  1.00  0.00     0.031 C 
ATOM     52  C   UNL A   1      44.828  31.272  33.463  1.00  0.00     0.029 A 
ATOM     53  C   UNL A   1      44.042  30.555  32.576  1.00  0.00     0.049 A 
ATOM     54  H   UNL A   1      42.189  31.078  31.715  1.00  0.00     0.167 HD
ATOM     55  C   UNL A   1      43.471  28.627  31.127  1.00  0.00     0.074 A 
ATOM     56  C   UNL A   1      43.736  27.319  30.561  1.00  0.00     0.031 C 
ATOM     57  C   UNL A   1      44.289  29.258  32.003  1.00  0.00     0.031 A 
BRANCH  44  58
ATOM     58  C   UNL A   1      42.198  34.779  33.841  1.00  0.00    -0.014 A 
ATOM     59  C   UNL A   1      42.806  35.908  33.266  1.00  0.00     0.009 A 
ATOM     60  C   UNL A   1      41.809  34.830  35.187  1.00  0.00     0.009 A 
ATOM     61  C   UNL A   1      43.069  37.041  34.039  1.00  0.00     0.001 A 
ATOM     62  C   UNL A   1      42.042  35.978  35.949  1.00  0.00     0.001 A 
ATOM     63  C   UNL A   1      42.686  37.075  35.379  1.00  0.00     0.000 A 
ENDBRANCH  44  58
BRANCH  45  64
ATOM     64  C   UNL A   1      40.337  26.815  28.137  1.00  0.00    -0.014 A 
ATOM     65  C   UNL A   1      40.857  26.734  26.836  1.00  0.00     0.009 A 
ATOM     66  C   UNL A   1      39.563  25.755  28.628  1.00  0.00     0.009 A 
ATOM     67  C   UNL A   1      40.587  25.623  26.034  1.00  0.00     0.001 A 
ATOM     68  C   UNL A   1      39.316  24.633  27.832  1.00  0.00     0.001 A 
ATOM     69  C   UNL A   1      39.820  24.573  26.534  1.00  0.00     0.000 A 
ENDBRANCH  45  64
BRANCH  57  70
ATOM     70  C   UNL A   1      45.527  28.521  32.428  1.00  0.00    -0.014 A 
ATOM     71  C   UNL A   1      45.517  27.657  33.535  1.00  0.00     0.009 A 
ATOM     72  C   UNL A   1      46.715  28.685  31.700  1.00  0.00     0.009 A 
ATOM     73  C   UNL A   1      46.687  27.004  33.927  1.00  0.00     0.001 A 
ATOM     74  C   UNL A   1      47.875  28.010  32.079  1.00  0.00     0.001 A 
ATOM     75  C   UNL A   1      47.862  27.179  33.198  1.00  0.00     0.000 A 
ENDBRANCH  57  70
ENDBRANCH  31  32
ENDBRANCH  23  26
ENDBRANCH  21  22
ENDBRANCH  20  21
ENDBRANCH   1  20
TORSDOF 14
ENDMDL
MODEL 2
REMARK VINA RESULT:     -10.2      2.353      3.686
REMARK SMILES C=C(C)CN(CC)c1ccc(F)cc1C(=O)NCCCNC(=O)c1ccc(-c2c3nc(c(-c4ccccc4)c4ccc([nH]4)c(-c4ccccc4)c4nc(c(-c5ccccc5)c5ccc2[nH]5)C=C4)C=C3)cc1
REMARK SMILES IDX 18 1 17 2 15 3 16 4 14 6 8 7 9 8 10 9 13 10 11 11 12 12 5 13
REMARK SMILES IDX 4 14 2 15 1 16 3 17 6 18 7 19 19 20 20 21 21 22 22 23 23 25
REMARK SMILES IDX 24 26 25 27 71 28 26 29 70 30 27 31 28 32 29 33 64 34 30 35
REMARK SMILES IDX 69 36 63 37 65 38 31 39 68 40 62 41 61 42 32 44 54 45 39 46
REMARK SMILES IDX 53 47 40 48 43 49 52 50 66 51 41 52 42 53 51 55 67 56 44 57
REMARK SMILES IDX 33 58 34 59 38 60 35 61 37 62 36 63 55 64 56 65 60 66 57 67
REMARK SMILES IDX 59 68 58 69 45 70 46 71 50 72 47 73 49 74 48 75
REMARK H PARENT 17 5 21 24 65 43 43 54
REMARK Flexibility Score: inf
ROOT
ATOM      1  C   UNL A   1      31.635  30.108  25.568  1.00  0.00     0.118 C 
ENDROOT
BRANCH   1   2
ATOM      2  N   UNL A   1      32.363  29.681  24.408  1.00  0.00    -0.352 N 
ATOM      3  C   UNL A   1      31.937  28.842  23.413  1.00  0.00     0.253 C 
ATOM      4  O   UNL A   1      32.681  28.706  22.438  1.00  0.00    -0.269 OA
ATOM      5  H   UNL A   1      33.278  30.033  24.317  1.00  0.00     0.163 HD
BRANCH   3   6
ATOM      6  C   UNL A   1      30.697  28.015  23.489  1.00  0.00     0.066 A 
ATOM      7  C   UNL A   1      30.561  26.658  23.889  1.00  0.00     0.050 A 
ATOM      8  C   UNL A   1      29.245  26.156  24.016  1.00  0.00     0.030 A 
ATOM      9  C   UNL A   1      28.115  26.921  23.722  1.00  0.00     0.041 A 
ATOM     10  C   UNL A   1      29.542  28.780  23.207  1.00  0.00     0.055 A 
ATOM     11  C   UNL A   1      28.276  28.228  23.314  1.00  0.00     0.124 A 
ATOM     12  F   UNL A   1      27.201  28.976  23.042  1.00  0.00    -0.207 F 
BRANCH   7  13
ATOM     13  N   UNL A   1      31.613  25.802  24.220  1.00  0.00    -0.367 N 
BRANCH  13  14
ATOM     14  C   UNL A   1      31.714  24.480  23.569  1.00  0.00     0.146 C 
BRANCH  14  15
ATOM     15  C   UNL A   1      32.679  24.388  22.415  1.00  0.00    -0.061 C 
ATOM     16  C   UNL A   1      32.836  25.359  21.500  1.00  0.00     0.009 C 
ATOM     17  C   UNL A   1      33.400  23.070  22.291  1.00  0.00     0.041 C 
ENDBRANCH  14  15
ENDBRANCH  13  14
BRANCH  13  18
ATOM     18  C   UNL A   1      32.295  25.989  25.508  1.00  0.00     0.113 C 
ATOM     19  C   UNL A   1      33.779  26.290  25.369  1.00  0.00     0.027 C 
ENDBRANCH  13  18
ENDBRANCH   7  13
ENDBRANCH   3   6
ENDBRANCH   1   2
BRANCH   1  20
ATOM     20  C   UNL A   1      31.930  29.351  26.841  1.00  0.00     0.042 C 
BRANCH  20  21
ATOM     21  C   UNL A   1      33.371  29.476  27.318  1.00  0.00     0.118 C 
BRANCH  21  22
ATOM     22  N   UNL A   1      33.668  30.676  28.099  1.00  0.00    -0.352 N 
ATOM     23  C   UNL A   1      34.804  31.130  28.733  1.00  0.00     0.251 C 
ATOM     24  H   UNL A   1      32.900  31.284  28.190  1.00  0.00     0.163 HD
ATOM     25  O   UNL A   1      34.760  32.186  29.355  1.00  0.00    -0.269 OA
BRANCH  23  26
ATOM     26  C   UNL A   1      36.054  30.332  28.743  1.00  0.00     0.039 A 
ATOM     27  C   UNL A   1      36.893  30.368  27.625  1.00  0.00     0.014 A 
ATOM     28  C   UNL A   1      36.436  29.584  29.849  1.00  0.00     0.014 A 
ATOM     29  C   UNL A   1      38.161  29.780  27.685  1.00  0.00     0.010 A 
ATOM     30  C   UNL A   1      37.751  29.157  29.974  1.00  0.00     0.010 A 
ATOM     31  C   UNL A   1      38.637  29.246  28.894  1.00  0.00    -0.014 A 
BRANCH  31  32
ATOM     32  C   UNL A   1      40.043  28.786  29.060  1.00  0.00     0.031 A 
ATOM     33  C   UNL A   1      41.090  29.709  29.635  1.00  0.00     0.074 A 
ATOM     34  C   UNL A   1      40.409  27.572  28.600  1.00  0.00     0.049 A 
ATOM     35  N   UNL A   1      42.382  29.524  29.751  1.00  0.00    -0.248 NA
ATOM     36  C   UNL A   1      40.636  31.032  30.091  1.00  0.00     0.031 C 
ATOM     37  C   UNL A   1      39.527  26.602  27.946  1.00  0.00     0.029 A 
ATOM     38  N   UNL A   1      41.630  26.943  28.616  1.00  0.00    -0.354 N 
ATOM     39  C   UNL A   1      42.891  30.721  30.240  1.00  0.00     0.074 A 
ATOM     40  C   UNL A   1      41.783  31.645  30.334  1.00  0.00     0.031 C 
ATOM     41  C   UNL A   1      40.217  25.480  27.687  1.00  0.00     0.029 A 
ATOM     42  C   UNL A   1      41.599  25.666  28.110  1.00  0.00     0.049 A 
ATOM     43  H   UNL A   1      42.451  27.367  28.958  1.00  0.00     0.167 HD
ATOM     44  C   UNL A   1      44.158  31.024  30.613  1.00  0.00     0.031 A 
ATOM     45  C   UNL A   1      42.571  24.741  28.008  1.00  0.00     0.031 A 
ATOM     46  C   UNL A   1      45.252  30.094  30.578  1.00  0.00     0.049 A 
ATOM     47  C   UNL A   1      43.954  25.073  28.488  1.00  0.00     0.074 A 
ATOM     48  C   UNL A   1      46.556  30.276  31.008  1.00  0.00     0.029 A 
ATOM     49  N   UNL A   1      45.165  28.795  30.102  1.00  0.00    -0.354 N 
ATOM     50  N   UNL A   1      44.405  26.191  29.002  1.00  0.00    -0.248 NA
ATOM     51  C   UNL A   1      44.958  24.005  28.387  1.00  0.00     0.031 C 
ATOM     52  C   UNL A   1      47.264  29.092  30.766  1.00  0.00     0.029 A 
ATOM     53  C   UNL A   1      46.390  28.164  30.224  1.00  0.00     0.049 A 
ATOM     54  H   UNL A   1      44.351  28.384  29.731  1.00  0.00     0.167 HD
ATOM     55  C   UNL A   1      45.737  25.954  29.310  1.00  0.00     0.074 A 
ATOM     56  C   UNL A   1      46.016  24.581  28.940  1.00  0.00     0.031 C 
ATOM     57  C   UNL A   1      46.649  26.798  29.850  1.00  0.00     0.031 A 
BRANCH  44  58
ATOM     58  C   UNL A   1      44.410  32.423  31.106  1.00  0.00    -0.014 A 
ATOM     59  C   UNL A   1      44.268  32.752  32.465  1.00  0.00     0.009 A 
ATOM     60  C   UNL A   1      44.784  33.428  30.201  1.00  0.00     0.009 A 
ATOM     61  C   UNL A   1      44.439  34.068  32.897  1.00  0.00     0.001 A 
ATOM     62  C   UNL A   1      44.989  34.738  30.643  1.00  0.00     0.001 A 
ATOM     63  C   UNL A   1      44.801  35.059  31.986  1.00  0.00     0.000 A 
ENDBRANCH  44  58
BRANCH  45  64
ATOM     64  C   UNL A   1      42.255  23.386  27.487  1.00  0.00    -0.014 A 
ATOM     65  C   UNL A   1      41.699  22.421  28.342  1.00  0.00     0.009 A 
ATOM     66  C   UNL A   1      42.498  23.049  26.148  1.00  0.00     0.009 A 
ATOM     67  C   UNL A   1      41.416  21.137  27.872  1.00  0.00     0.001 A 
ATOM     68  C   UNL A   1      42.191  21.771  25.674  1.00  0.00     0.001 A 
ATOM     69  C   UNL A   1      41.658  20.815  26.539  1.00  0.00     0.000 A 
ENDBRANCH  45  64
BRANCH  57  70
ATOM     70  C   UNL A   1      48.021  26.243  30.104  1.00  0.00    -0.014 A 
ATOM     71  C   UNL A   1      48.978  26.167  29.080  1.00  0.00     0.009 A 
ATOM     72  C   UNL A   1      48.361  25.802  31.393  1.00  0.00     0.009 A 
ATOM     73  C   UNL A   1      50.238  25.622  29.335  1.00  0.00     0.001 A 
ATOM     74  C   UNL A   1      49.630  25.282  31.648  1.00  0.00     0.001 A 
ATOM     75  C   UNL A   1      50.563  25.182  30.617  1.00  0.00     0.000 A 
ENDBRANCH  57  70
ENDBRANCH  31  32
ENDBRANCH  23  26
ENDBRANCH  21  22
ENDBRANCH  20  21
ENDBRANCH   1  20
TORSDOF 14
ENDMDL
MODEL 3
REMARK VINA RESULT:     -10.2      4.347      9.001
REMARK SMILES C=C(C)CN(CC)c1ccc(F)cc1C(=O)NCCCNC(=O)c1ccc(-c2c3nc(c(-c4ccccc4)c4ccc([nH]4)c(-c4ccccc4)c4nc(c(-c5ccccc5)c5ccc2[nH]5)C=C4)C=C3)cc1
REMARK SMILES IDX 18 1 17 2 15 3 16 4 14 6 8 7 9 8 10 9 13 10 11 11 12 12 5 13
REMARK SMILES IDX 4 14 2 15 1 16 3 17 6 18 7 19 19 20 20 21 21 22 22 23 23 25
REMARK SMILES IDX 24 26 25 27 71 28 26 29 70 30 27 31 28 32 29 33 64 34 30 35
REMARK SMILES IDX 69 36 63 37 65 38 31 39 68 40 62 41 61 42 32 44 54 45 39 46
REMARK SMILES IDX 53 47 40 48 43 49 52 50 66 51 41 52 42 53 51 55 67 56 44 57
REMARK SMILES IDX 33 58 34 59 38 60 35 61 37 62 36 63 55 64 56 65 60 66 57 67
REMARK SMILES IDX 59 68 58 69 45 70 46 71 50 72 47 73 49 74 48 75
REMARK H PARENT 17 5 21 24 65 43 43 54
REMARK Flexibility Score: inf
ROOT
ATOM      1  C   UNL A   1      36.228  22.000  24.935  1.00  0.00     0.118 C 
ENDROOT
BRANCH   1   2
ATOM      2  N   UNL A   1      35.345  22.046  26.064  1.00  0.00    -0.352 N 
ATOM      3  C   UNL A   1      34.125  21.439  26.199  1.00  0.00     0.253 C 
ATOM      4  O   UNL A   1      33.585  21.505  27.307  1.00  0.00    -0.269 OA
ATOM      5  H   UNL A   1      35.653  22.577  26.833  1.00  0.00     0.163 HD
BRANCH   3   6
ATOM      6  C   UNL A   1      33.375  20.806  25.073  1.00  0.00     0.066 A 
ATOM      7  C   UNL A   1      32.666  21.438  24.016  1.00  0.00     0.050 A 
ATOM      8  C   UNL A   1      32.168  20.602  22.990  1.00  0.00     0.030 A 
ATOM      9  C   UNL A   1      32.309  19.214  23.013  1.00  0.00     0.041 A 
ATOM     10  C   UNL A   1      33.520  19.400  25.076  1.00  0.00     0.055 A 
ATOM     11  C   UNL A   1      32.983  18.625  24.062  1.00  0.00     0.124 A 
ATOM     12  F   UNL A   1      33.138  17.296  24.089  1.00  0.00    -0.207 F 
BRANCH   7  13
ATOM     13  N   UNL A   1      32.471  22.814  23.881  1.00  0.00    -0.367 N 
BRANCH  13  14
ATOM     14  C   UNL A   1      31.223  23.429  24.375  1.00  0.00     0.146 C 
BRANCH  14  15
ATOM     15  C   UNL A   1      31.152  23.667  25.862  1.00  0.00    -0.061 C 
ATOM     16  C   UNL A   1      31.882  24.598  26.499  1.00  0.00     0.009 C 
ATOM     17  C   UNL A   1      30.270  22.709  26.619  1.00  0.00     0.041 C 
ENDBRANCH  14  15
ENDBRANCH  13  14
BRANCH  13  18
ATOM     18  C   UNL A   1      33.234  23.535  22.852  1.00  0.00     0.113 C 
ATOM     19  C   UNL A   1      34.122  24.634  23.417  1.00  0.00     0.027 C 
ENDBRANCH  13  18
ENDBRANCH   7  13
ENDBRANCH   3   6
ENDBRANCH   1   2
BRANCH   1  20
ATOM     20  C   UNL A   1      37.191  20.836  24.903  1.00  0.00     0.042 C 
BRANCH  20  21
ATOM     21  C   UNL A   1      38.511  21.103  25.613  1.00  0.00     0.118 C 
BRANCH  21  22
ATOM     22  N   UNL A   1      39.488  20.017  25.545  1.00  0.00    -0.352 N 
ATOM     23  C   UNL A   1      40.801  19.903  25.947  1.00  0.00     0.251 C 
ATOM     24  H   UNL A   1      39.135  19.200  25.125  1.00  0.00     0.163 HD
ATOM     25  O   UNL A   1      41.403  18.857  25.732  1.00  0.00    -0.269 OA
BRANCH  23  26
ATOM     26  C   UNL A   1      41.521  21.044  26.563  1.00  0.00     0.039 A 
ATOM     27  C   UNL A   1      42.165  21.968  25.735  1.00  0.00     0.014 A 
ATOM     28  C   UNL A   1      41.536  21.245  27.938  1.00  0.00     0.014 A 
ATOM     29  C   UNL A   1      42.686  23.148  26.278  1.00  0.00     0.010 A 
ATOM     30  C   UNL A   1      41.889  22.485  28.451  1.00  0.00     0.010 A 
ATOM     31  C   UNL A   1      42.471  23.459  27.631  1.00  0.00    -0.014 A 
BRANCH  31  32
ATOM     32  C   UNL A   1      42.834  24.782  28.209  1.00  0.00     0.031 A 
ATOM     33  C   UNL A   1      41.776  25.833  28.442  1.00  0.00     0.074 A 
ATOM     34  C   UNL A   1      44.129  25.084  28.432  1.00  0.00     0.049 A 
ATOM     35  N   UNL A   1      41.917  27.077  28.829  1.00  0.00    -0.248 NA
ATOM     36  C   UNL A   1      40.384  25.456  28.151  1.00  0.00     0.031 C 
ATOM     37  C   UNL A   1      45.271  24.200  28.177  1.00  0.00     0.029 A 
ATOM     38  N   UNL A   1      44.706  26.227  28.929  1.00  0.00    -0.354 N 
ATOM     39  C   UNL A   1      40.645  27.635  28.776  1.00  0.00     0.074 A 
ATOM     40  C   UNL A   1      39.760  26.618  28.255  1.00  0.00     0.031 C 
ATOM     41  C   UNL A   1      46.398  24.805  28.582  1.00  0.00     0.029 A 
ATOM     42  C   UNL A   1      46.069  26.136  29.078  1.00  0.00     0.049 A 
ATOM     43  H   UNL A   1      44.192  27.035  29.156  1.00  0.00     0.167 HD
ATOM     44  C   UNL A   1      40.234  28.868  29.157  1.00  0.00     0.031 A 
ATOM     45  C   UNL A   1      46.956  27.019  29.572  1.00  0.00     0.031 A 
ATOM     46  C   UNL A   1      41.097  29.863  29.731  1.00  0.00     0.049 A 
ATOM     47  C   UNL A   1      46.472  28.356  30.051  1.00  0.00     0.074 A 
ATOM     48  C   UNL A   1      40.767  31.115  30.223  1.00  0.00     0.029 A 
ATOM     49  N   UNL A   1      42.463  29.711  29.908  1.00  0.00    -0.354 N 
ATOM     50  N   UNL A   1      45.256  28.845  30.047  1.00  0.00    -0.248 NA
ATOM     51  C   UNL A   1      47.486  29.258  30.617  1.00  0.00     0.031 C 
ATOM     52  C   UNL A   1      41.941  31.730  30.674  1.00  0.00     0.029 A 
ATOM     53  C   UNL A   1      42.992  30.845  30.500  1.00  0.00     0.049 A 
ATOM     54  H   UNL A   1      42.981  28.914  29.650  1.00  0.00     0.167 HD
ATOM     55  C   UNL A   1      45.353  30.100  30.632  1.00  0.00     0.074 A 
ATOM     56  C   UNL A   1      46.744  30.288  30.994  1.00  0.00     0.031 C 
ATOM     57  C   UNL A   1      44.378  31.015  30.851  1.00  0.00     0.031 A 
BRANCH  44  58
ATOM     58  C   UNL A   1      38.777  29.191  28.972  1.00  0.00    -0.014 A 
ATOM     59  C   UNL A   1      38.287  29.665  27.743  1.00  0.00     0.009 A 
ATOM     60  C   UNL A   1      37.882  29.031  30.041  1.00  0.00     0.009 A 
ATOM     61  C   UNL A   1      36.945  30.024  27.605  1.00  0.00     0.001 A 
ATOM     62  C   UNL A   1      36.532  29.359  29.889  1.00  0.00     0.001 A 
ATOM     63  C   UNL A   1      36.069  29.870  28.678  1.00  0.00     0.000 A 
ENDBRANCH  44  58
BRANCH  45  64
ATOM     64  C   UNL A   1      48.387  26.640  29.702  1.00  0.00    -0.014 A 
ATOM     65  C   UNL A   1      48.835  25.986  30.861  1.00  0.00     0.009 A 
ATOM     66  C   UNL A   1      49.307  26.922  28.682  1.00  0.00     0.009 A 
ATOM     67  C   UNL A   1      50.180  25.643  31.005  1.00  0.00     0.001 A 
ATOM     68  C   UNL A   1      50.648  26.555  28.819  1.00  0.00     0.001 A 
ATOM     69  C   UNL A   1      51.085  25.924  29.983  1.00  0.00     0.000 A 
ENDBRANCH  45  64
BRANCH  57  70
ATOM     70  C   UNL A   1      44.781  32.284  31.545  1.00  0.00    -0.014 A 
ATOM     71  C   UNL A   1      44.757  32.388  32.944  1.00  0.00     0.009 A 
ATOM     72  C   UNL A   1      45.203  33.385  30.784  1.00  0.00     0.009 A 
ATOM     73  C   UNL A   1      45.110  33.588  33.566  1.00  0.00     0.001 A 
ATOM     74  C   UNL A   1      45.580  34.573  31.411  1.00  0.00     0.001 A 
ATOM     75  C   UNL A   1      45.523  34.677  32.799  1.00  0.00     0.000 A 
ENDBRANCH  57  70
ENDBRANCH  31  32
ENDBRANCH  23  26
ENDBRANCH  21  22
ENDBRANCH  20  21
ENDBRANCH   1  20
TORSDOF 14
ENDMDL
