MODEL 1
REMARK VINA RESULT:      -9.0      0.000      0.000
REMARK SMILES CCOc1cccc2c(SCC(=O)NCCCNC(=O)c3ccc(-c4c5nc(c(-c6ccccc6)c6ccc([nH]6)c(-c6ccccc6)c6nc(c(-c7ccccc7)c7ccc4[nH]7)C=C6)C=C5)cc3)cc(C)nc12
REMARK SMILES IDX 15 1 14 2 12 3 13 4 11 6 10 7 9 8 4 9 5 10 73 11 6 12 8 13
REMARK SMILES IDX 72 14 7 15 70 16 69 17 71 18 3 19 2 20 1 21 16 22 17 23
REMARK SMILES IDX 18 24 19 25 20 27 21 28 22 29 68 30 23 31 67 32 24 33 25 34
REMARK SMILES IDX 26 35 61 36 27 37 66 38 60 39 62 40 28 41 65 42 59 43 58 44
REMARK SMILES IDX 29 46 51 47 36 48 50 49 37 50 40 51 49 52 63 53 38 54 39 55
REMARK SMILES IDX 48 57 64 58 41 59 30 60 31 61 35 62 32 63 34 64 33 65 52 66
REMARK SMILES IDX 53 67 57 68 54 69 56 70 55 71 42 72 43 73 47 74 44 75 46 76
REMARK SMILES IDX 45 77
REMARK H PARENT 14 5 18 26 62 45 40 56
REMARK Flexibility Score: inf
ROOT
ATOM      1  C   UNL A   1      32.697  35.716  31.176  1.00  0.00     0.117 C 
ENDROOT
BRANCH   1   2
ATOM      2  N   UNL A   1      33.207  36.186  32.450  1.00  0.00    -0.355 N 
ATOM      3  C   UNL A   1      34.283  35.755  33.163  1.00  0.00     0.230 C 
ATOM      4  O   UNL A   1      34.500  36.296  34.251  1.00  0.00    -0.274 OA
ATOM      5  H   UNL A   1      32.700  36.924  32.859  1.00  0.00     0.163 HD
BRANCH   3   6
ATOM      6  C   UNL A   1      35.229  34.708  32.605  1.00  0.00     0.174 C 
BRANCH   6   7
ATOM      7  S   UNL A   1      35.119  33.082  33.425  1.00  0.00    -0.115 SA
BRANCH   7   8
ATOM      8  C   UNL A   1      36.637  32.895  34.385  1.00  0.00     0.019 A 
ATOM      9  C   UNL A   1      39.592  30.663  34.638  1.00  0.00     0.145 A 
ATOM     10  C   UNL A   1      39.356  29.693  33.663  1.00  0.00     0.049 A 
ATOM     11  C   UNL A   1      38.700  31.717  34.878  1.00  0.00     0.114 A 
ATOM     12  C   UNL A   1      38.186  29.744  32.922  1.00  0.00     0.005 A 
ATOM     13  C   UNL A   1      37.510  31.793  34.121  1.00  0.00     0.018 A 
ATOM     14  N   UNL A   1      38.996  32.624  35.823  1.00  0.00    -0.249 NA
ATOM     15  C   UNL A   1      37.277  30.779  33.148  1.00  0.00     0.012 A 
ATOM     16  C   UNL A   1      38.152  33.634  36.086  1.00  0.00     0.039 A 
ATOM     17  C   UNL A   1      36.988  33.820  35.369  1.00  0.00     0.039 A 
ATOM     18  C   UNL A   1      38.515  34.516  37.239  1.00  0.00     0.067 C 
BRANCH   9  19
ATOM     19  O   UNL A   1      40.815  30.610  35.273  1.00  0.00    -0.492 OA
BRANCH  19  20
ATOM     20  C   UNL A   1      41.134  29.302  35.766  1.00  0.00     0.226 C 
ATOM     21  C   UNL A   1      42.618  29.145  36.064  1.00  0.00     0.049 C 
ENDBRANCH  19  20
ENDBRANCH   9  19
ENDBRANCH   7   8
ENDBRANCH   6   7
ENDBRANCH   3   6
ENDBRANCH   1   2
BRANCH   1  22
ATOM     22  C   UNL A   1      32.851  36.771  30.085  1.00  0.00     0.042 C 
BRANCH  22  23
ATOM     23  C   UNL A   1      33.527  36.254  28.818  1.00  0.00     0.118 C 
BRANCH  23  24
ATOM     24  N   UNL A   1      32.850  35.096  28.251  1.00  0.00    -0.352 N 
ATOM     25  C   UNL A   1      33.317  33.824  28.026  1.00  0.00     0.251 C 
ATOM     26  H   UNL A   1      31.914  35.247  27.990  1.00  0.00     0.163 HD
ATOM     27  O   UNL A   1      32.652  33.036  27.363  1.00  0.00    -0.269 OA
BRANCH  25  28
ATOM     28  C   UNL A   1      34.631  33.410  28.563  1.00  0.00     0.039 A 
ATOM     29  C   UNL A   1      34.673  32.506  29.628  1.00  0.00     0.014 A 
ATOM     30  C   UNL A   1      35.816  33.921  28.028  1.00  0.00     0.014 A 
ATOM     31  C   UNL A   1      35.906  32.057  30.108  1.00  0.00     0.010 A 
ATOM     32  C   UNL A   1      37.040  33.413  28.453  1.00  0.00     0.010 A 
ATOM     33  C   UNL A   1      37.099  32.477  29.497  1.00  0.00    -0.014 A 
BRANCH  33  34
ATOM     34  C   UNL A   1      38.422  31.960  29.930  1.00  0.00     0.031 A 
ATOM     35  C   UNL A   1      38.903  30.622  29.438  1.00  0.00     0.074 A 
ATOM     36  C   UNL A   1      39.157  32.656  30.821  1.00  0.00     0.049 A 
ATOM     37  N   UNL A   1      39.963  29.942  29.796  1.00  0.00    -0.248 NA
ATOM     38  C   UNL A   1      38.069  29.950  28.427  1.00  0.00     0.031 C 
ATOM     39  C   UNL A   1      38.796  33.956  31.392  1.00  0.00     0.029 A 
ATOM     40  N   UNL A   1      40.357  32.356  31.417  1.00  0.00    -0.354 N 
ATOM     41  C   UNL A   1      39.917  28.762  29.064  1.00  0.00     0.074 A 
ATOM     42  C   UNL A   1      38.698  28.792  28.285  1.00  0.00     0.031 C 
ATOM     43  C   UNL A   1      39.759  34.345  32.242  1.00  0.00     0.029 A 
ATOM     44  C   UNL A   1      40.778  33.304  32.318  1.00  0.00     0.049 A 
ATOM     45  H   UNL A   1      40.868  31.538  31.216  1.00  0.00     0.167 HD
ATOM     46  C   UNL A   1      40.820  27.755  29.023  1.00  0.00     0.031 A 
ATOM     47  C   UNL A   1      41.852  33.322  33.131  1.00  0.00     0.031 A 
ATOM     48  C   UNL A   1      42.032  27.722  29.796  1.00  0.00     0.049 A 
ATOM     49  C   UNL A   1      42.810  32.161  33.107  1.00  0.00     0.074 A 
ATOM     50  C   UNL A   1      43.020  26.752  29.810  1.00  0.00     0.029 A 
ATOM     51  N   UNL A   1      42.422  28.706  30.691  1.00  0.00    -0.354 N 
ATOM     52  N   UNL A   1      42.774  31.073  32.377  1.00  0.00    -0.248 NA
ATOM     53  C   UNL A   1      43.964  32.236  34.016  1.00  0.00     0.031 C 
ATOM     54  C   UNL A   1      43.985  27.126  30.750  1.00  0.00     0.029 A 
ATOM     55  C   UNL A   1      43.630  28.359  31.273  1.00  0.00     0.049 A 
ATOM     56  H   UNL A   1      41.917  29.528  30.884  1.00  0.00     0.167 HD
ATOM     57  C   UNL A   1      43.918  30.357  32.708  1.00  0.00     0.074 A 
ATOM     58  C   UNL A   1      44.633  31.138  33.695  1.00  0.00     0.031 C 
ATOM     59  C   UNL A   1      44.338  29.158  32.237  1.00  0.00     0.031 A 
BRANCH  46  60
ATOM     60  C   UNL A   1      40.530  26.601  28.103  1.00  0.00    -0.014 A 
ATOM     61  C   UNL A   1      39.657  25.571  28.489  1.00  0.00     0.009 A 
ATOM     62  C   UNL A   1      41.096  26.565  26.819  1.00  0.00     0.009 A 
ATOM     63  C   UNL A   1      39.382  24.512  27.621  1.00  0.00     0.001 A 
ATOM     64  C   UNL A   1      40.794  25.521  25.941  1.00  0.00     0.001 A 
ATOM     65  C   UNL A   1      39.945  24.492  26.346  1.00  0.00     0.000 A 
ENDBRANCH  46  60
BRANCH  47  66
ATOM     66  C   UNL A   1      42.082  34.467  34.053  1.00  0.00    -0.014 A 
ATOM     67  C   UNL A   1      41.796  34.350  35.423  1.00  0.00     0.009 A 
ATOM     68  C   UNL A   1      42.546  35.697  33.562  1.00  0.00     0.009 A 
ATOM     69  C   UNL A   1      41.926  35.454  36.270  1.00  0.00     0.001 A 
ATOM     70  C   UNL A   1      42.709  36.788  34.418  1.00  0.00     0.001 A 
ATOM     71  C   UNL A   1      42.385  36.670  35.768  1.00  0.00     0.000 A 
ENDBRANCH  47  66
BRANCH  59  72
ATOM     72  C   UNL A   1      45.662  28.644  32.732  1.00  0.00    -0.014 A 
ATOM     73  C   UNL A   1      45.761  27.871  33.898  1.00  0.00     0.009 A 
ATOM     74  C   UNL A   1      46.822  28.895  31.980  1.00  0.00     0.009 A 
ATOM     75  C   UNL A   1      47.001  27.385  34.318  1.00  0.00     0.001 A 
ATOM     76  C   UNL A   1      48.054  28.380  32.384  1.00  0.00     0.001 A 
ATOM     77  C   UNL A   1      48.144  27.634  33.557  1.00  0.00     0.000 A 
ENDBRANCH  59  72
ENDBRANCH  33  34
ENDBRANCH  25  28
ENDBRANCH  23  24
ENDBRANCH  22  23
ENDBRANCH   1  22
TORSDOF 14
ENDMDL
MODEL 2
REMARK VINA RESULT:      -8.7      6.043     11.584
REMARK SMILES CCOc1cccc2c(SCC(=O)NCCCNC(=O)c3ccc(-c4c5nc(c(-c6ccccc6)c6ccc([nH]6)c(-c6ccccc6)c6nc(c(-c7ccccc7)c7ccc4[nH]7)C=C6)C=C5)cc3)cc(C)nc12
REMARK SMILES IDX 15 1 14 2 12 3 13 4 11 6 10 7 9 8 4 9 5 10 73 11 6 12 8 13
REMARK SMILES IDX 72 14 7 15 70 16 69 17 71 18 3 19 2 20 1 21 16 22 17 23
REMARK SMILES IDX 18 24 19 25 20 27 21 28 22 29 68 30 23 31 67 32 24 33 25 34
REMARK SMILES IDX 26 35 61 36 27 37 66 38 60 39 62 40 28 41 65 42 59 43 58 44
REMARK SMILES IDX 29 46 51 47 36 48 50 49 37 50 40 51 49 52 63 53 38 54 39 55
REMARK SMILES IDX 48 57 64 58 41 59 30 60 31 61 35 62 32 63 34 64 33 65 52 66
REMARK SMILES IDX 53 67 57 68 54 69 56 70 55 71 42 72 43 73 47 74 44 75 46 76
REMARK SMILES IDX 45 77
REMARK H PARENT 14 5 18 26 62 45 40 56
REMARK Flexibility Score: inf
ROOT
ATOM      1  C   UNL A   1      37.101  21.197  24.714  1.00  0.00     0.117 C 
ENDROOT
BRANCH   1   2
ATOM      2  N   UNL A   1      36.306  21.506  25.887  1.00  0.00    -0.355 N 
ATOM      3  C   UNL A   1      34.983  21.289  26.118  1.00  0.00     0.230 C 
ATOM      4  O   UNL A   1      34.521  21.675  27.196  1.00  0.00    -0.274 OA
ATOM      5  H   UNL A   1      36.797  21.936  26.625  1.00  0.00     0.163 HD
BRANCH   3   6
ATOM      6  C   UNL A   1      34.125  20.527  25.124  1.00  0.00     0.174 C 
BRANCH   6   7
ATOM      7  S   UNL A   1      33.134  21.587  24.020  1.00  0.00    -0.115 SA
BRANCH   7   8
ATOM      8  C   UNL A   1      32.182  22.686  25.092  1.00  0.00     0.019 A 
ATOM      9  C   UNL A   1      32.181  26.197  26.295  1.00  0.00     0.145 A 
ATOM     10  C   UNL A   1      33.310  26.752  25.690  1.00  0.00     0.049 A 
ATOM     11  C   UNL A   1      31.808  24.860  26.100  1.00  0.00     0.114 A 
ATOM     12  C   UNL A   1      34.117  25.954  24.894  1.00  0.00     0.005 A 
ATOM     13  C   UNL A   1      32.610  24.038  25.279  1.00  0.00     0.018 A 
ATOM     14  N   UNL A   1      30.701  24.395  26.701  1.00  0.00    -0.249 NA
ATOM     15  C   UNL A   1      33.771  24.617  24.692  1.00  0.00     0.012 A 
ATOM     16  C   UNL A   1      30.329  23.114  26.546  1.00  0.00     0.039 A 
ATOM     17  C   UNL A   1      31.020  22.245  25.728  1.00  0.00     0.039 A 
ATOM     18  C   UNL A   1      29.153  22.665  27.356  1.00  0.00     0.067 C 
BRANCH   9  19
ATOM     19  O   UNL A   1      31.370  27.066  26.995  1.00  0.00    -0.492 OA
BRANCH  19  20
ATOM     20  C   UNL A   1      32.100  28.126  27.627  1.00  0.00     0.226 C 
ATOM     21  C   UNL A   1      31.764  29.487  27.036  1.00  0.00     0.049 C 
ENDBRANCH  19  20
ENDBRANCH   9  19
ENDBRANCH   7   8
ENDBRANCH   6   7
ENDBRANCH   3   6
ENDBRANCH   1   2
BRANCH   1  22
ATOM     22  C   UNL A   1      37.991  19.979  24.942  1.00  0.00     0.042 C 
BRANCH  22  23
ATOM     23  C   UNL A   1      39.083  20.199  25.985  1.00  0.00     0.118 C 
BRANCH  23  24
ATOM     24  N   UNL A   1      40.127  19.185  25.930  1.00  0.00    -0.352 N 
ATOM     25  C   UNL A   1      41.491  19.318  26.016  1.00  0.00     0.251 C 
ATOM     26  H   UNL A   1      39.806  18.263  25.812  1.00  0.00     0.163 HD
ATOM     27  O   UNL A   1      42.217  18.365  25.758  1.00  0.00    -0.269 OA
BRANCH  25  28
ATOM     28  C   UNL A   1      42.087  20.615  26.402  1.00  0.00     0.039 A 
ATOM     29  C   UNL A   1      42.468  21.511  25.400  1.00  0.00     0.014 A 
ATOM     30  C   UNL A   1      42.283  20.940  27.747  1.00  0.00     0.014 A 
ATOM     31  C   UNL A   1      42.976  22.765  25.748  1.00  0.00     0.010 A 
ATOM     32  C   UNL A   1      42.714  22.217  28.092  1.00  0.00     0.010 A 
ATOM     33  C   UNL A   1      43.065  23.143  27.097  1.00  0.00    -0.014 A 
BRANCH  33  34
ATOM     34  C   UNL A   1      43.527  24.496  27.501  1.00  0.00     0.031 A 
ATOM     35  C   UNL A   1      42.526  25.536  27.924  1.00  0.00     0.074 A 
ATOM     36  C   UNL A   1      44.834  24.813  27.416  1.00  0.00     0.049 A 
ATOM     37  N   UNL A   1      42.713  26.804  28.188  1.00  0.00    -0.248 NA
ATOM     38  C   UNL A   1      41.124  25.096  28.041  1.00  0.00     0.031 C 
ATOM     39  C   UNL A   1      45.906  23.904  27.002  1.00  0.00     0.029 A 
ATOM     40  N   UNL A   1      45.483  25.998  27.659  1.00  0.00    -0.354 N 
ATOM     41  C   UNL A   1      41.456  27.314  28.493  1.00  0.00     0.074 A 
ATOM     42  C   UNL A   1      40.508  26.234  28.325  1.00  0.00     0.031 C 
ATOM     43  C   UNL A   1      47.076  24.561  27.033  1.00  0.00     0.029 A 
ATOM     44  C   UNL A   1      46.835  25.948  27.418  1.00  0.00     0.049 A 
ATOM     45  H   UNL A   1      45.023  26.809  27.978  1.00  0.00     0.167 HD
ATOM     46  C   UNL A   1      41.123  28.561  28.900  1.00  0.00     0.031 A 
ATOM     47  C   UNL A   1      47.771  26.914  27.478  1.00  0.00     0.031 A 
ATOM     48  C   UNL A   1      42.064  29.636  29.067  1.00  0.00     0.049 A 
ATOM     49  C   UNL A   1      47.364  28.307  27.878  1.00  0.00     0.074 A 
ATOM     50  C   UNL A   1      41.826  30.932  29.493  1.00  0.00     0.029 A 
ATOM     51  N   UNL A   1      43.424  29.539  28.818  1.00  0.00    -0.354 N 
ATOM     52  N   UNL A   1      46.179  28.760  28.205  1.00  0.00    -0.248 NA
ATOM     53  C   UNL A   1      48.429  29.320  27.926  1.00  0.00     0.031 C 
ATOM     54  C   UNL A   1      43.035  31.632  29.455  1.00  0.00     0.029 A 
ATOM     55  C   UNL A   1      44.035  30.755  29.068  1.00  0.00     0.049 A 
ATOM     56  H   UNL A   1      43.886  28.726  28.510  1.00  0.00     0.167 HD
ATOM     57  C   UNL A   1      46.363  30.098  28.535  1.00  0.00     0.074 A 
ATOM     58  C   UNL A   1      47.775  30.378  28.382  1.00  0.00     0.031 C 
ATOM     59  C   UNL A   1      45.444  31.012  28.930  1.00  0.00     0.031 A 
BRANCH  46  60
ATOM     60  C   UNL A   1      39.675  28.829  29.200  1.00  0.00    -0.014 A 
ATOM     61  C   UNL A   1      39.154  28.629  30.489  1.00  0.00     0.009 A 
ATOM     62  C   UNL A   1      38.829  29.332  28.199  1.00  0.00     0.009 A 
ATOM     63  C   UNL A   1      37.812  28.896  30.761  1.00  0.00     0.001 A 
ATOM     64  C   UNL A   1      37.494  29.629  28.482  1.00  0.00     0.001 A 
ATOM     65  C   UNL A   1      36.985  29.402  29.759  1.00  0.00     0.000 A 
ENDBRANCH  46  60
BRANCH  47  66
ATOM     66  C   UNL A   1      49.189  26.614  27.138  1.00  0.00    -0.014 A 
ATOM     67  C   UNL A   1      49.632  26.670  25.807  1.00  0.00     0.009 A 
ATOM     68  C   UNL A   1      50.096  26.227  28.136  1.00  0.00     0.009 A 
ATOM     69  C   UNL A   1      50.939  26.301  25.480  1.00  0.00     0.001 A 
ATOM     70  C   UNL A   1      51.412  25.892  27.810  1.00  0.00     0.001 A 
ATOM     71  C   UNL A   1      51.828  25.915  26.480  1.00  0.00     0.000 A 
ENDBRANCH  47  66
BRANCH  59  72
ATOM     72  C   UNL A   1      45.942  32.385  29.288  1.00  0.00    -0.014 A 
ATOM     73  C   UNL A   1      46.386  32.692  30.583  1.00  0.00     0.009 A 
ATOM     74  C   UNL A   1      46.018  33.371  28.290  1.00  0.00     0.009 A 
ATOM     75  C   UNL A   1      46.868  33.969  30.878  1.00  0.00     0.001 A 
ATOM     76  C   UNL A   1      46.531  34.636  28.580  1.00  0.00     0.001 A 
ATOM     77  C   UNL A   1      46.947  34.936  29.876  1.00  0.00     0.000 A 
ENDBRANCH  59  72
ENDBRANCH  33  34
ENDBRANCH  25  28
ENDBRANCH  23  24
ENDBRANCH  22  23
ENDBRANCH   1  22
TORSDOF 14
ENDMDL
MODEL 3
REMARK VINA RESULT:      -8.6      5.021     10.403
REMARK SMILES CCOc1cccc2c(SCC(=O)NCCCNC(=O)c3ccc(-c4c5nc(c(-c6ccccc6)c6ccc([nH]6)c(-c6ccccc6)c6nc(c(-c7ccccc7)c7ccc4[nH]7)C=C6)C=C5)cc3)cc(C)nc12
REMARK SMILES IDX 15 1 14 2 12 3 13 4 11 6 10 7 9 8 4 9 5 10 73 11 6 12 8 13
REMARK SMILES IDX 72 14 7 15 70 16 69 17 71 18 3 19 2 20 1 21 16 22 17 23
REMARK SMILES IDX 18 24 19 25 20 27 21 28 22 29 68 30 23 31 67 32 24 33 25 34
REMARK SMILES IDX 26 35 61 36 27 37 66 38 60 39 62 40 28 41 65 42 59 43 58 44
REMARK SMILES IDX 29 46 51 47 36 48 50 49 37 50 40 51 49 52 63 53 38 54 39 55
REMARK SMILES IDX 48 57 64 58 41 59 30 60 31 61 35 62 32 63 34 64 33 65 52 66
REMARK SMILES IDX 53 67 57 68 54 69 56 70 55 71 42 72 43 73 47 74 44 75 46 76
REMARK SMILES IDX 45 77
REMARK H PARENT 14 5 18 26 62 45 40 56
REMARK Flexibility Score: inf
ROOT
ATOM      1  C   UNL A   1      32.741  27.748  25.120  1.00  0.00     0.117 C 
ENDROOT
BRANCH   1   2
ATOM      2  N   UNL A   1      31.795  26.914  25.835  1.00  0.00    -0.355 N 
ATOM      3  C   UNL A   1      31.934  25.636  26.283  1.00  0.00     0.230 C 
ATOM      4  O   UNL A   1      30.964  25.119  26.844  1.00  0.00    -0.274 OA
ATOM      5  H   UNL A   1      30.925  27.333  26.024  1.00  0.00     0.163 HD
BRANCH   3   6
ATOM      6  C   UNL A   1      33.259  24.903  26.173  1.00  0.00     0.174 C 
BRANCH   6   7
ATOM      7  S   UNL A   1      33.622  24.255  24.507  1.00  0.00    -0.115 SA
BRANCH   7   8
ATOM      8  C   UNL A   1      34.678  22.809  24.745  1.00  0.00     0.019 A 
ATOM      9  C   UNL A   1      34.509  19.104  24.605  1.00  0.00     0.145 A 
ATOM     10  C   UNL A   1      33.178  18.847  24.275  1.00  0.00     0.049 A 
ATOM     11  C   UNL A   1      35.006  20.405  24.761  1.00  0.00     0.114 A 
ATOM     12  C   UNL A   1      32.298  19.908  24.127  1.00  0.00     0.005 A 
ATOM     13  C   UNL A   1      34.126  21.498  24.597  1.00  0.00     0.018 A 
ATOM     14  N   UNL A   1      36.302  20.581  25.065  1.00  0.00    -0.249 NA
ATOM     15  C   UNL A   1      32.766  21.213  24.285  1.00  0.00     0.012 A 
ATOM     16  C   UNL A   1      36.800  21.816  25.236  1.00  0.00     0.039 A 
ATOM     17  C   UNL A   1      36.033  22.946  25.052  1.00  0.00     0.039 A 
ATOM     18  C   UNL A   1      38.223  21.897  25.693  1.00  0.00     0.067 C 
BRANCH   9  19
ATOM     19  O   UNL A   1      35.353  18.013  24.645  1.00  0.00    -0.492 OA
BRANCH  19  20
ATOM     20  C   UNL A   1      34.652  16.763  24.659  1.00  0.00     0.226 C 
ATOM     21  C   UNL A   1      35.472  15.650  25.292  1.00  0.00     0.049 C 
ENDBRANCH  19  20
ENDBRANCH   9  19
ENDBRANCH   7   8
ENDBRANCH   6   7
ENDBRANCH   3   6
ENDBRANCH   1   2
BRANCH   1  22
ATOM     22  C   UNL A   1      33.900  28.180  26.014  1.00  0.00     0.042 C 
BRANCH  22  23
ATOM     23  C   UNL A   1      33.471  28.615  27.412  1.00  0.00     0.118 C 
BRANCH  23  24
ATOM     24  N   UNL A   1      33.551  30.057  27.602  1.00  0.00    -0.352 N 
ATOM     25  C   UNL A   1      34.572  30.826  28.102  1.00  0.00     0.251 C 
ATOM     26  H   UNL A   1      32.748  30.558  27.329  1.00  0.00     0.163 HD
ATOM     27  O   UNL A   1      34.379  32.008  28.361  1.00  0.00    -0.269 OA
BRANCH  25  28
ATOM     28  C   UNL A   1      35.901  30.225  28.349  1.00  0.00     0.039 A 
ATOM     29  C   UNL A   1      36.841  30.212  27.316  1.00  0.00     0.014 A 
ATOM     30  C   UNL A   1      36.212  29.665  29.590  1.00  0.00     0.014 A 
ATOM     31  C   UNL A   1      38.121  29.704  27.550  1.00  0.00     0.010 A 
ATOM     32  C   UNL A   1      37.510  29.232  29.846  1.00  0.00     0.010 A 
ATOM     33  C   UNL A   1      38.478  29.247  28.829  1.00  0.00    -0.014 A 
BRANCH  33  34
ATOM     34  C   UNL A   1      39.852  28.773  29.134  1.00  0.00     0.031 A 
ATOM     35  C   UNL A   1      40.846  29.708  29.767  1.00  0.00     0.074 A 
ATOM     36  C   UNL A   1      40.230  27.530  28.775  1.00  0.00     0.049 A 
ATOM     37  N   UNL A   1      42.123  29.527  29.994  1.00  0.00    -0.248 NA
ATOM     38  C   UNL A   1      40.342  31.030  30.177  1.00  0.00     0.031 C 
ATOM     39  C   UNL A   1      39.370  26.530  28.136  1.00  0.00     0.029 A 
ATOM     40  N   UNL A   1      41.445  26.899  28.882  1.00  0.00    -0.354 N 
ATOM     41  C   UNL A   1      42.574  30.712  30.563  1.00  0.00     0.074 A 
ATOM     42  C   UNL A   1      41.451  31.624  30.594  1.00  0.00     0.031 C 
ATOM     43  C   UNL A   1      40.081  25.411  27.922  1.00  0.00     0.029 A 
ATOM     44  C   UNL A   1      41.456  25.628  28.359  1.00  0.00     0.049 A 
ATOM     45  H   UNL A   1      42.234  27.318  29.297  1.00  0.00     0.167 HD
ATOM     46  C   UNL A   1      43.806  31.008  31.040  1.00  0.00     0.031 A 
ATOM     47  C   UNL A   1      42.465  24.747  28.224  1.00  0.00     0.031 A 
ATOM     48  C   UNL A   1      44.924  30.104  31.009  1.00  0.00     0.049 A 
ATOM     49  C   UNL A   1      43.839  25.123  28.711  1.00  0.00     0.074 A 
ATOM     50  C   UNL A   1      46.209  30.305  31.485  1.00  0.00     0.029 A 
ATOM     51  N   UNL A   1      44.889  28.825  30.476  1.00  0.00    -0.354 N 
ATOM     52  N   UNL A   1      44.238  26.231  29.286  1.00  0.00    -0.248 NA
ATOM     53  C   UNL A   1      44.901  24.120  28.538  1.00  0.00     0.031 C 
ATOM     54  C   UNL A   1      46.964  29.166  31.196  1.00  0.00     0.029 A 
ATOM     55  C   UNL A   1      46.134  28.231  30.598  1.00  0.00     0.049 A 
ATOM     56  H   UNL A   1      44.098  28.402  30.072  1.00  0.00     0.167 HD
ATOM     57  C   UNL A   1      45.583  26.042  29.578  1.00  0.00     0.074 A 
ATOM     58  C   UNL A   1      45.929  24.710  29.130  1.00  0.00     0.031 C 
ATOM     59  C   UNL A   1      46.455  26.897  30.166  1.00  0.00     0.031 A 
BRANCH  46  60
ATOM     60  C   UNL A   1      44.007  32.370  31.643  1.00  0.00    -0.014 A 
ATOM     61  C   UNL A   1      44.397  33.462  30.848  1.00  0.00     0.009 A 
ATOM     62  C   UNL A   1      43.759  32.581  33.008  1.00  0.00     0.009 A 
ATOM     63  C   UNL A   1      44.566  34.726  31.414  1.00  0.00     0.001 A 
ATOM     64  C   UNL A   1      43.898  33.854  33.565  1.00  0.00     0.001 A 
ATOM     65  C   UNL A   1      44.310  34.922  32.770  1.00  0.00     0.000 A 
ENDBRANCH  46  60
BRANCH  47  66
ATOM     66  C   UNL A   1      42.230  23.421  27.588  1.00  0.00    -0.014 A 
ATOM     67  C   UNL A   1      42.502  23.225  26.225  1.00  0.00     0.009 A 
ATOM     68  C   UNL A   1      41.691  22.359  28.330  1.00  0.00     0.009 A 
ATOM     69  C   UNL A   1      42.196  22.008  25.610  1.00  0.00     0.001 A 
ATOM     70  C   UNL A   1      41.419  21.132  27.721  1.00  0.00     0.001 A 
ATOM     71  C   UNL A   1      41.658  20.963  26.358  1.00  0.00     0.000 A 
ENDBRANCH  47  66
BRANCH  59  72
ATOM     72  C   UNL A   1      47.851  26.399  30.418  1.00  0.00    -0.014 A 
ATOM     73  C   UNL A   1      48.212  25.811  31.640  1.00  0.00     0.009 A 
ATOM     74  C   UNL A   1      48.805  26.472  29.390  1.00  0.00     0.009 A 
ATOM     75  C   UNL A   1      49.509  25.332  31.836  1.00  0.00     0.001 A 
ATOM     76  C   UNL A   1      50.091  25.963  29.577  1.00  0.00     0.001 A 
ATOM     77  C   UNL A   1      50.444  25.403  30.802  1.00  0.00     0.000 A 
ENDBRANCH  59  72
ENDBRANCH  33  34
ENDBRANCH  25  28
ENDBRANCH  23  24
ENDBRANCH  22  23
ENDBRANCH   1  22
TORSDOF 14
ENDMDL
