MODEL 1
REMARK VINA RESULT:     -11.6      0.000      0.000
REMARK SMILES CC[C@@H](C)[C@H](NC(=O)NCc1ccc(C)cc1)C(=O)NCCCNC(=O)c1ccc(-c2c3nc(c(-c4ccccc4)c4ccc([nH]4)c(-c4ccccc4)c4nc(c(-c5ccccc5)c5ccc2[nH]5)C=C4)C=C3)cc1
REMARK SMILES IDX 21 1 20 2 18 3 19 4 5 6 3 7 4 8 2 9 1 10 6 11 7 12 8 14 9 15
REMARK SMILES IDX 10 17 11 18 12 19 17 20 13 21 16 22 14 23 15 24 22 25 23 26
REMARK SMILES IDX 24 27 25 28 26 30 27 31 28 32 74 33 29 34 73 35 30 36 31 37
REMARK SMILES IDX 32 38 67 39 33 40 72 41 66 42 68 43 34 44 71 45 65 46 64 47
REMARK SMILES IDX 35 49 57 50 42 51 56 52 43 53 46 54 55 55 69 56 44 57 45 58
REMARK SMILES IDX 54 60 70 61 47 62 36 63 37 64 41 65 38 66 40 67 39 68 58 69
REMARK SMILES IDX 59 70 63 71 60 72 62 73 61 74 48 75 49 76 53 77 50 78 52 79
REMARK SMILES IDX 51 80
REMARK H PARENT 20 5 6 13 9 16 24 29 68 48 46 59
REMARK Flexibility Score: inf
ROOT
ATOM      1  C   UNL A   1      32.110  29.844  25.581  1.00  0.00     0.117 C 
ENDROOT
BRANCH   1   2
ATOM      2  N   UNL A   1      33.224  29.766  24.661  1.00  0.00    -0.354 N 
ATOM      3  C   UNL A   1      33.719  28.721  23.941  1.00  0.00     0.242 C 
ATOM      4  O   UNL A   1      34.509  28.994  23.029  1.00  0.00    -0.273 OA
ATOM      5  H   UNL A   1      33.707  30.614  24.534  1.00  0.00     0.163 HD
BRANCH   3   6
ATOM      6  C   UNL A   1      33.277  27.257  24.169  1.00  0.00     0.175 C 
BRANCH   6   7
ATOM      7  C   UNL A   1      33.901  26.571  25.438  1.00  0.00     0.018 C 
ATOM      8  C   UNL A   1      34.477  25.162  25.279  1.00  0.00     0.010 C 
BRANCH   7   9
ATOM      9  C   UNL A   1      32.856  26.582  26.570  1.00  0.00     0.002 C 
ATOM     10  C   UNL A   1      31.520  25.920  26.269  1.00  0.00     0.004 C 
ENDBRANCH   7   9
ENDBRANCH   6   7
BRANCH   6  11
ATOM     11  N   UNL A   1      33.396  26.492  22.928  1.00  0.00    -0.326 N 
ATOM     12  C   UNL A   1      32.537  26.180  21.950  1.00  0.00     0.315 C 
ATOM     13  H   UNL A   1      34.299  26.131  22.780  1.00  0.00     0.166 HD
ATOM     14  O   UNL A   1      33.024  25.801  20.881  1.00  0.00    -0.249 OA
ATOM     15  N   UNL A   1      31.206  26.215  22.039  1.00  0.00    -0.334 N 
ATOM     16  H   UNL A   1      30.774  25.982  21.186  1.00  0.00     0.165 HD
BRANCH  15  17
ATOM     17  C   UNL A   1      30.235  26.513  23.078  1.00  0.00     0.153 C 
BRANCH  17  18
ATOM     18  C   UNL A   1      29.475  27.806  22.898  1.00  0.00    -0.029 A 
ATOM     19  C   UNL A   1      30.181  28.948  22.489  1.00  0.00     0.006 A 
ATOM     20  C   UNL A   1      28.107  27.929  23.172  1.00  0.00     0.006 A 
ATOM     21  C   UNL A   1      29.574  30.206  22.514  1.00  0.00     0.004 A 
ATOM     22  C   UNL A   1      27.500  29.188  23.203  1.00  0.00     0.004 A 
ATOM     23  C   UNL A   1      28.248  30.340  22.938  1.00  0.00    -0.051 A 
ATOM     24  C   UNL A   1      27.689  31.705  23.214  1.00  0.00     0.044 C 
ENDBRANCH  17  18
ENDBRANCH  15  17
ENDBRANCH   6  11
ENDBRANCH   3   6
ENDBRANCH   1   2
BRANCH   1  25
ATOM     25  C   UNL A   1      32.318  30.764  26.767  1.00  0.00     0.042 C 
BRANCH  25  26
ATOM     26  C   UNL A   1      33.511  30.314  27.586  1.00  0.00     0.118 C 
BRANCH  26  27
ATOM     27  N   UNL A   1      34.289  31.371  28.237  1.00  0.00    -0.352 N 
ATOM     28  C   UNL A   1      35.562  31.286  28.802  1.00  0.00     0.251 C 
ATOM     29  H   UNL A   1      33.857  32.255  28.281  1.00  0.00     0.163 HD
ATOM     30  O   UNL A   1      36.087  32.256  29.312  1.00  0.00    -0.269 OA
BRANCH  28  31
ATOM     31  C   UNL A   1      36.324  30.019  28.632  1.00  0.00     0.039 A 
ATOM     32  C   UNL A   1      36.578  29.266  29.782  1.00  0.00     0.014 A 
ATOM     33  C   UNL A   1      37.085  29.832  27.487  1.00  0.00     0.014 A 
ATOM     34  C   UNL A   1      37.792  28.598  29.887  1.00  0.00     0.010 A 
ATOM     35  C   UNL A   1      38.357  29.325  27.654  1.00  0.00     0.010 A 
ATOM     36  C   UNL A   1      38.741  28.779  28.882  1.00  0.00    -0.014 A 
BRANCH  36  37
ATOM     37  C   UNL A   1      40.167  28.524  29.078  1.00  0.00     0.031 A 
ATOM     38  C   UNL A   1      40.757  27.273  28.539  1.00  0.00     0.074 A 
ATOM     39  C   UNL A   1      40.963  29.414  29.725  1.00  0.00     0.049 A 
ATOM     40  N   UNL A   1      41.802  26.696  29.032  1.00  0.00    -0.248 NA
ATOM     41  C   UNL A   1      40.166  26.519  27.436  1.00  0.00     0.031 C 
ATOM     42  C   UNL A   1      42.426  29.367  29.808  1.00  0.00     0.029 A 
ATOM     43  N   UNL A   1      40.649  30.473  30.580  1.00  0.00    -0.354 N 
ATOM     44  C   UNL A   1      42.193  25.718  28.146  1.00  0.00     0.074 A 
ATOM     45  C   UNL A   1      41.077  25.562  27.249  1.00  0.00     0.031 C 
ATOM     46  C   UNL A   1      42.822  30.079  30.875  1.00  0.00     0.029 A 
ATOM     47  C   UNL A   1      41.623  30.473  31.589  1.00  0.00     0.049 A 
ATOM     48  H   UNL A   1      39.894  31.098  30.491  1.00  0.00     0.167 HD
ATOM     49  C   UNL A   1      43.475  25.260  28.181  1.00  0.00     0.031 A 
ATOM     50  C   UNL A   1      41.394  30.231  32.915  1.00  0.00     0.031 A 
ATOM     51  C   UNL A   1      44.210  25.796  29.328  1.00  0.00     0.049 A 
ATOM     52  C   UNL A   1      42.222  29.080  33.473  1.00  0.00     0.074 A 
ATOM     53  C   UNL A   1      45.182  26.774  29.455  1.00  0.00     0.029 A 
ATOM     54  N   UNL A   1      43.771  25.508  30.616  1.00  0.00    -0.354 N 
ATOM     55  N   UNL A   1      42.841  28.208  32.726  1.00  0.00    -0.248 NA
ATOM     56  C   UNL A   1      42.365  28.777  34.897  1.00  0.00     0.031 C 
ATOM     57  C   UNL A   1      45.287  27.113  30.830  1.00  0.00     0.029 A 
ATOM     58  C   UNL A   1      44.400  26.321  31.538  1.00  0.00     0.049 A 
ATOM     59  H   UNL A   1      43.104  24.820  30.839  1.00  0.00     0.167 HD
ATOM     60  C   UNL A   1      43.428  27.249  33.509  1.00  0.00     0.074 A 
ATOM     61  C   UNL A   1      43.115  27.658  34.866  1.00  0.00     0.031 C 
ATOM     62  C   UNL A   1      44.099  26.193  32.960  1.00  0.00     0.031 A 
BRANCH  49  63
ATOM     63  C   UNL A   1      44.155  24.544  27.029  1.00  0.00    -0.014 A 
ATOM     64  C   UNL A   1      44.910  25.290  26.103  1.00  0.00     0.009 A 
ATOM     65  C   UNL A   1      44.032  23.175  26.738  1.00  0.00     0.009 A 
ATOM     66  C   UNL A   1      45.432  24.722  24.931  1.00  0.00     0.001 A 
ATOM     67  C   UNL A   1      44.539  22.599  25.564  1.00  0.00     0.001 A 
ATOM     68  C   UNL A   1      45.228  23.378  24.651  1.00  0.00     0.000 A 
ENDBRANCH  49  63
BRANCH  50  69
ATOM     69  C   UNL A   1      40.030  30.577  33.387  1.00  0.00    -0.014 A 
ATOM     70  C   UNL A   1      39.707  31.937  33.559  1.00  0.00     0.009 A 
ATOM     71  C   UNL A   1      38.988  29.644  33.313  1.00  0.00     0.009 A 
ATOM     72  C   UNL A   1      38.378  32.365  33.520  1.00  0.00     0.001 A 
ATOM     73  C   UNL A   1      37.656  30.077  33.283  1.00  0.00     0.001 A 
ATOM     74  C   UNL A   1      37.354  31.436  33.346  1.00  0.00     0.000 A 
ENDBRANCH  50  69
BRANCH  62  75
ATOM     75  C   UNL A   1      44.594  24.956  33.678  1.00  0.00    -0.014 A 
ATOM     76  C   UNL A   1      43.871  23.765  33.813  1.00  0.00     0.009 A 
ATOM     77  C   UNL A   1      45.929  24.934  34.148  1.00  0.00     0.009 A 
ATOM     78  C   UNL A   1      44.437  22.629  34.415  1.00  0.00     0.001 A 
ATOM     79  C   UNL A   1      46.513  23.793  34.705  1.00  0.00     0.001 A 
ATOM     80  C   UNL A   1      45.760  22.639  34.849  1.00  0.00     0.000 A 
ENDBRANCH  62  75
ENDBRANCH  36  37
ENDBRANCH  28  31
ENDBRANCH  26  27
ENDBRANCH  25  26
ENDBRANCH   1  25
TORSDOF 15
ENDMDL
MODEL 2
REMARK VINA RESULT:     -11.4      1.777      2.957
REMARK SMILES CC[C@@H](C)[C@H](NC(=O)NCc1ccc(C)cc1)C(=O)NCCCNC(=O)c1ccc(-c2c3nc(c(-c4ccccc4)c4ccc([nH]4)c(-c4ccccc4)c4nc(c(-c5ccccc5)c5ccc2[nH]5)C=C4)C=C3)cc1
REMARK SMILES IDX 21 1 20 2 18 3 19 4 5 6 3 7 4 8 2 9 1 10 6 11 7 12 8 14 9 15
REMARK SMILES IDX 10 17 11 18 12 19 17 20 13 21 16 22 14 23 15 24 22 25 23 26
REMARK SMILES IDX 24 27 25 28 26 30 27 31 28 32 74 33 29 34 73 35 30 36 31 37
REMARK SMILES IDX 32 38 67 39 33 40 72 41 66 42 68 43 34 44 71 45 65 46 64 47
REMARK SMILES IDX 35 49 57 50 42 51 56 52 43 53 46 54 55 55 69 56 44 57 45 58
REMARK SMILES IDX 54 60 70 61 47 62 36 63 37 64 41 65 38 66 40 67 39 68 58 69
REMARK SMILES IDX 59 70 63 71 60 72 62 73 61 74 48 75 49 76 53 77 50 78 52 79
REMARK SMILES IDX 51 80
REMARK H PARENT 20 5 6 13 9 16 24 29 68 48 46 59
REMARK Flexibility Score: inf
ROOT
ATOM      1  C   UNL A   1      33.538  29.220  26.376  1.00  0.00     0.117 C 
ENDROOT
BRANCH   1   2
ATOM      2  N   UNL A   1      34.114  29.216  25.048  1.00  0.00    -0.354 N 
ATOM      3  C   UNL A   1      34.006  28.319  24.028  1.00  0.00     0.242 C 
ATOM      4  O   UNL A   1      34.382  28.694  22.911  1.00  0.00    -0.273 OA
ATOM      5  H   UNL A   1      34.681  29.995  24.848  1.00  0.00     0.163 HD
BRANCH   3   6
ATOM      6  C   UNL A   1      33.375  26.918  24.202  1.00  0.00     0.175 C 
BRANCH   6   7
ATOM      7  C   UNL A   1      33.796  26.165  25.516  1.00  0.00     0.018 C 
ATOM      8  C   UNL A   1      34.832  25.046  25.398  1.00  0.00     0.010 C 
BRANCH   7   9
ATOM      9  C   UNL A   1      32.528  25.631  26.207  1.00  0.00     0.002 C 
ATOM     10  C   UNL A   1      31.365  26.603  26.341  1.00  0.00     0.004 C 
ENDBRANCH   7   9
ENDBRANCH   6   7
BRANCH   6  11
ATOM     11  N   UNL A   1      33.516  26.143  22.970  1.00  0.00    -0.326 N 
ATOM     12  C   UNL A   1      32.690  25.870  21.953  1.00  0.00     0.315 C 
ATOM     13  H   UNL A   1      34.406  25.736  22.867  1.00  0.00     0.166 HD
ATOM     14  O   UNL A   1      33.209  25.461  20.909  1.00  0.00    -0.249 OA
ATOM     15  N   UNL A   1      31.360  25.972  21.977  1.00  0.00    -0.334 N 
ATOM     16  H   UNL A   1      30.958  25.756  21.104  1.00  0.00     0.165 HD
BRANCH  15  17
ATOM     17  C   UNL A   1      30.356  26.322  22.967  1.00  0.00     0.153 C 
BRANCH  17  18
ATOM     18  C   UNL A   1      29.801  27.722  22.853  1.00  0.00    -0.029 A 
ATOM     19  C   UNL A   1      28.455  27.941  23.184  1.00  0.00     0.006 A 
ATOM     20  C   UNL A   1      30.556  28.803  22.379  1.00  0.00     0.006 A 
ATOM     21  C   UNL A   1      27.840  29.160  22.894  1.00  0.00     0.004 A 
ATOM     22  C   UNL A   1      29.940  30.023  22.083  1.00  0.00     0.004 A 
ATOM     23  C   UNL A   1      28.564  30.185  22.278  1.00  0.00    -0.051 A 
ATOM     24  C   UNL A   1      27.843  31.384  21.733  1.00  0.00     0.044 C 
ENDBRANCH  17  18
ENDBRANCH  15  17
ENDBRANCH   6  11
ENDBRANCH   3   6
ENDBRANCH   1   2
BRANCH   1  25
ATOM     25  C   UNL A   1      34.541  29.192  27.511  1.00  0.00     0.042 C 
BRANCH  25  26
ATOM     26  C   UNL A   1      35.097  30.579  27.765  1.00  0.00     0.118 C 
BRANCH  26  27
ATOM     27  N   UNL A   1      34.139  31.685  27.704  1.00  0.00    -0.352 N 
ATOM     28  C   UNL A   1      34.080  32.825  28.506  1.00  0.00     0.251 C 
ATOM     29  H   UNL A   1      33.446  31.613  27.007  1.00  0.00     0.163 HD
ATOM     30  O   UNL A   1      33.220  33.666  28.338  1.00  0.00    -0.269 OA
BRANCH  28  31
ATOM     31  C   UNL A   1      35.185  33.061  29.475  1.00  0.00     0.039 A 
ATOM     32  C   UNL A   1      36.223  33.904  29.067  1.00  0.00     0.014 A 
ATOM     33  C   UNL A   1      35.372  32.171  30.523  1.00  0.00     0.014 A 
ATOM     34  C   UNL A   1      37.520  33.607  29.471  1.00  0.00     0.010 A 
ATOM     35  C   UNL A   1      36.665  31.766  30.781  1.00  0.00     0.010 A 
ATOM     36  C   UNL A   1      37.742  32.434  30.190  1.00  0.00    -0.014 A 
BRANCH  36  37
ATOM     37  C   UNL A   1      39.050  31.788  30.276  1.00  0.00     0.031 A 
ATOM     38  C   UNL A   1      39.257  30.485  29.593  1.00  0.00     0.074 A 
ATOM     39  C   UNL A   1      40.081  32.360  30.949  1.00  0.00     0.049 A 
ATOM     40  N   UNL A   1      40.121  29.602  29.969  1.00  0.00    -0.248 NA
ATOM     41  C   UNL A   1      38.444  30.033  28.466  1.00  0.00     0.031 C 
ATOM     42  C   UNL A   1      41.477  31.914  30.938  1.00  0.00     0.029 A 
ATOM     43  N   UNL A   1      40.098  33.373  31.911  1.00  0.00    -0.354 N 
ATOM     44  C   UNL A   1      40.199  28.650  28.978  1.00  0.00     0.074 A 
ATOM     45  C   UNL A   1      39.053  28.891  28.140  1.00  0.00     0.031 C 
ATOM     46  C   UNL A   1      42.089  32.381  32.038  1.00  0.00     0.029 A 
ATOM     47  C   UNL A   1      41.069  33.008  32.855  1.00  0.00     0.049 A 
ATOM     48  H   UNL A   1      39.539  34.183  31.924  1.00  0.00     0.167 HD
ATOM     49  C   UNL A   1      41.308  27.863  28.894  1.00  0.00     0.031 A 
ATOM     50  C   UNL A   1      40.829  32.704  34.166  1.00  0.00     0.031 A 
ATOM     51  C   UNL A   1      42.201  28.063  30.037  1.00  0.00     0.049 A 
ATOM     52  C   UNL A   1      41.330  31.323  34.569  1.00  0.00     0.074 A 
ATOM     53  C   UNL A   1      43.407  28.726  30.191  1.00  0.00     0.029 A 
ATOM     54  N   UNL A   1      41.745  27.775  31.319  1.00  0.00    -0.354 N 
ATOM     55  N   UNL A   1      41.661  30.396  33.711  1.00  0.00    -0.248 NA
ATOM     56  C   UNL A   1      41.434  30.849  35.949  1.00  0.00     0.031 C 
ATOM     57  C   UNL A   1      43.647  28.884  31.581  1.00  0.00     0.029 A 
ATOM     58  C   UNL A   1      42.603  28.290  32.269  1.00  0.00     0.049 A 
ATOM     59  H   UNL A   1      40.923  27.271  31.521  1.00  0.00     0.167 HD
ATOM     60  C   UNL A   1      41.991  29.241  34.370  1.00  0.00     0.074 A 
ATOM     61  C   UNL A   1      41.848  29.579  35.774  1.00  0.00     0.031 C 
ATOM     62  C   UNL A   1      42.328  28.105  33.690  1.00  0.00     0.031 A 
BRANCH  49  63
ATOM     63  C   UNL A   1      41.726  27.112  27.644  1.00  0.00    -0.014 A 
ATOM     64  C   UNL A   1      42.129  25.766  27.751  1.00  0.00     0.009 A 
ATOM     65  C   UNL A   1      41.833  27.670  26.359  1.00  0.00     0.009 A 
ATOM     66  C   UNL A   1      42.676  25.060  26.669  1.00  0.00     0.001 A 
ATOM     67  C   UNL A   1      42.389  26.978  25.274  1.00  0.00     0.001 A 
ATOM     68  C   UNL A   1      42.826  25.674  25.433  1.00  0.00     0.000 A 
ENDBRANCH  49  63
BRANCH  50  69
ATOM     69  C   UNL A   1      39.628  33.354  34.749  1.00  0.00    -0.014 A 
ATOM     70  C   UNL A   1      38.359  32.913  34.326  1.00  0.00     0.009 A 
ATOM     71  C   UNL A   1      39.720  34.104  35.927  1.00  0.00     0.009 A 
ATOM     72  C   UNL A   1      37.234  33.102  35.132  1.00  0.00     0.001 A 
ATOM     73  C   UNL A   1      38.588  34.299  36.728  1.00  0.00     0.001 A 
ATOM     74  C   UNL A   1      37.357  33.764  36.352  1.00  0.00     0.000 A 
ENDBRANCH  50  69
BRANCH  62  75
ATOM     75  C   UNL A   1      42.491  26.714  34.265  1.00  0.00    -0.014 A 
ATOM     76  C   UNL A   1      41.548  26.065  35.071  1.00  0.00     0.009 A 
ATOM     77  C   UNL A   1      43.614  25.946  33.872  1.00  0.00     0.009 A 
ATOM     78  C   UNL A   1      41.734  24.737  35.490  1.00  0.00     0.001 A 
ATOM     79  C   UNL A   1      43.781  24.610  34.248  1.00  0.00     0.001 A 
ATOM     80  C   UNL A   1      42.842  24.007  35.068  1.00  0.00     0.000 A 
ENDBRANCH  62  75
ENDBRANCH  36  37
ENDBRANCH  28  31
ENDBRANCH  26  27
ENDBRANCH  25  26
ENDBRANCH   1  25
TORSDOF 15
ENDMDL
MODEL 3
REMARK VINA RESULT:     -11.3      1.343      2.935
REMARK SMILES CC[C@@H](C)[C@H](NC(=O)NCc1ccc(C)cc1)C(=O)NCCCNC(=O)c1ccc(-c2c3nc(c(-c4ccccc4)c4ccc([nH]4)c(-c4ccccc4)c4nc(c(-c5ccccc5)c5ccc2[nH]5)C=C4)C=C3)cc1
REMARK SMILES IDX 21 1 20 2 18 3 19 4 5 6 3 7 4 8 2 9 1 10 6 11 7 12 8 14 9 15
REMARK SMILES IDX 10 17 11 18 12 19 17 20 13 21 16 22 14 23 15 24 22 25 23 26
REMARK SMILES IDX 24 27 25 28 26 30 27 31 28 32 74 33 29 34 73 35 30 36 31 37
REMARK SMILES IDX 32 38 67 39 33 40 72 41 66 42 68 43 34 44 71 45 65 46 64 47
REMARK SMILES IDX 35 49 57 50 42 51 56 52 43 53 46 54 55 55 69 56 44 57 45 58
REMARK SMILES IDX 54 60 70 61 47 62 36 63 37 64 41 65 38 66 40 67 39 68 58 69
REMARK SMILES IDX 59 70 63 71 60 72 62 73 61 74 48 75 49 76 53 77 50 78 52 79
REMARK SMILES IDX 51 80
REMARK H PARENT 20 5 6 13 9 16 24 29 68 48 46 59
REMARK Flexibility Score: inf
ROOT
ATOM      1  C   UNL A   1      32.147  29.769  25.732  1.00  0.00     0.117 C 
ENDROOT
BRANCH   1   2
ATOM      2  N   UNL A   1      33.070  29.698  24.620  1.00  0.00    -0.354 N 
ATOM      3  C   UNL A   1      33.319  28.701  23.725  1.00  0.00     0.242 C 
ATOM      4  O   UNL A   1      33.964  29.005  22.714  1.00  0.00    -0.273 OA
ATOM      5  H   UNL A   1      33.611  30.509  24.488  1.00  0.00     0.163 HD
BRANCH   3   6
ATOM      6  C   UNL A   1      32.771  27.265  23.891  1.00  0.00     0.175 C 
BRANCH   6   7
ATOM      7  C   UNL A   1      33.731  26.131  23.377  1.00  0.00     0.018 C 
ATOM      8  C   UNL A   1      33.173  25.122  22.370  1.00  0.00     0.010 C 
BRANCH   7   9
ATOM      9  C   UNL A   1      34.311  25.385  24.594  1.00  0.00     0.002 C 
ATOM     10  C   UNL A   1      34.977  24.046  24.317  1.00  0.00     0.004 C 
ENDBRANCH   7   9
ENDBRANCH   6   7
BRANCH   6  11
ATOM     11  N   UNL A   1      31.397  27.186  23.396  1.00  0.00    -0.326 N 
ATOM     12  C   UNL A   1      30.219  26.940  23.981  1.00  0.00     0.315 C 
ATOM     13  H   UNL A   1      31.323  27.349  22.428  1.00  0.00     0.166 HD
ATOM     14  O   UNL A   1      29.207  27.267  23.353  1.00  0.00    -0.249 OA
ATOM     15  N   UNL A   1      30.042  26.348  25.164  1.00  0.00    -0.334 N 
ATOM     16  H   UNL A   1      29.091  26.303  25.414  1.00  0.00     0.165 HD
BRANCH  15  17
ATOM     17  C   UNL A   1      30.901  25.754  26.174  1.00  0.00     0.153 C 
BRANCH  17  18
ATOM     18  C   UNL A   1      31.256  24.304  25.944  1.00  0.00    -0.029 A 
ATOM     19  C   UNL A   1      31.975  23.622  26.938  1.00  0.00     0.006 A 
ATOM     20  C   UNL A   1      30.946  23.623  24.759  1.00  0.00     0.006 A 
ATOM     21  C   UNL A   1      32.510  22.357  26.688  1.00  0.00     0.004 A 
ATOM     22  C   UNL A   1      31.485  22.358  24.505  1.00  0.00     0.004 A 
ATOM     23  C   UNL A   1      32.325  21.747  25.443  1.00  0.00    -0.051 A 
ATOM     24  C   UNL A   1      33.113  20.520  25.090  1.00  0.00     0.044 C 
ENDBRANCH  17  18
ENDBRANCH  15  17
ENDBRANCH   6  11
ENDBRANCH   3   6
ENDBRANCH   1   2
BRANCH   1  25
ATOM     25  C   UNL A   1      32.458  30.838  26.759  1.00  0.00     0.042 C 
BRANCH  25  26
ATOM     26  C   UNL A   1      33.572  30.383  27.680  1.00  0.00     0.118 C 
BRANCH  26  27
ATOM     27  N   UNL A   1      34.383  31.439  28.291  1.00  0.00    -0.352 N 
ATOM     28  C   UNL A   1      35.672  31.345  28.818  1.00  0.00     0.251 C 
ATOM     29  H   UNL A   1      33.964  32.329  28.334  1.00  0.00     0.163 HD
ATOM     30  O   UNL A   1      36.225  32.315  29.296  1.00  0.00    -0.269 OA
BRANCH  28  31
ATOM     31  C   UNL A   1      36.411  30.065  28.645  1.00  0.00     0.039 A 
ATOM     32  C   UNL A   1      36.661  29.310  29.795  1.00  0.00     0.014 A 
ATOM     33  C   UNL A   1      37.161  29.863  27.495  1.00  0.00     0.014 A 
ATOM     34  C   UNL A   1      37.865  28.622  29.892  1.00  0.00     0.010 A 
ATOM     35  C   UNL A   1      38.425  29.335  27.653  1.00  0.00     0.010 A 
ATOM     36  C   UNL A   1      38.809  28.785  28.880  1.00  0.00    -0.014 A 
BRANCH  36  37
ATOM     37  C   UNL A   1      40.231  28.507  29.065  1.00  0.00     0.031 A 
ATOM     38  C   UNL A   1      40.798  27.248  28.519  1.00  0.00     0.074 A 
ATOM     39  C   UNL A   1      41.046  29.381  29.710  1.00  0.00     0.049 A 
ATOM     40  N   UNL A   1      41.837  26.653  29.003  1.00  0.00    -0.248 NA
ATOM     41  C   UNL A   1      40.187  26.506  27.418  1.00  0.00     0.031 C 
ATOM     42  C   UNL A   1      42.509  29.310  29.782  1.00  0.00     0.029 A 
ATOM     43  N   UNL A   1      40.755  30.443  30.569  1.00  0.00    -0.354 N 
ATOM     44  C   UNL A   1      42.206  25.671  28.112  1.00  0.00     0.074 A 
ATOM     45  C   UNL A   1      41.081  25.536  27.222  1.00  0.00     0.031 C 
ATOM     46  C   UNL A   1      42.923  30.013  30.849  1.00  0.00     0.029 A 
ATOM     47  C   UNL A   1      41.736  30.424  31.572  1.00  0.00     0.049 A 
ATOM     48  H   UNL A   1      40.010  31.080  30.487  1.00  0.00     0.167 HD
ATOM     49  C   UNL A   1      43.481  25.192  28.137  1.00  0.00     0.031 A 
ATOM     50  C   UNL A   1      41.512  30.182  32.898  1.00  0.00     0.031 A 
ATOM     51  C   UNL A   1      44.232  25.713  29.281  1.00  0.00     0.049 A 
ATOM     52  C   UNL A   1      42.325  29.017  33.448  1.00  0.00     0.074 A 
ATOM     53  C   UNL A   1      45.220  26.674  29.404  1.00  0.00     0.029 A 
ATOM     54  N   UNL A   1      43.796  25.428  30.571  1.00  0.00    -0.354 N 
ATOM     55  N   UNL A   1      42.924  28.136  32.694  1.00  0.00    -0.248 NA
ATOM     56  C   UNL A   1      42.472  28.707  34.870  1.00  0.00     0.031 C 
ATOM     57  C   UNL A   1      45.339  27.008  30.779  1.00  0.00     0.029 A 
ATOM     58  C   UNL A   1      44.445  26.228  31.491  1.00  0.00     0.049 A 
ATOM     59  H   UNL A   1      43.120  24.750  30.796  1.00  0.00     0.167 HD
ATOM     60  C   UNL A   1      43.501  27.166  33.471  1.00  0.00     0.074 A 
ATOM     61  C   UNL A   1      43.203  27.576  34.831  1.00  0.00     0.031 C 
ATOM     62  C   UNL A   1      44.151  26.101  32.914  1.00  0.00     0.031 A 
BRANCH  49  63
ATOM     63  C   UNL A   1      44.141  24.468  26.978  1.00  0.00    -0.014 A 
ATOM     64  C   UNL A   1      44.939  25.198  26.076  1.00  0.00     0.009 A 
ATOM     65  C   UNL A   1      43.961  23.112  26.660  1.00  0.00     0.009 A 
ATOM     66  C   UNL A   1      45.449  24.629  24.899  1.00  0.00     0.001 A 
ATOM     67  C   UNL A   1      44.455  22.536  25.481  1.00  0.00     0.001 A 
ATOM     68  C   UNL A   1      45.189  23.301  24.590  1.00  0.00     0.000 A 
ENDBRANCH  49  63
BRANCH  50  69
ATOM     69  C   UNL A   1      40.156  30.549  33.380  1.00  0.00    -0.014 A 
ATOM     70  C   UNL A   1      39.843  31.914  33.520  1.00  0.00     0.009 A 
ATOM     71  C   UNL A   1      39.108  29.620  33.346  1.00  0.00     0.009 A 
ATOM     72  C   UNL A   1      38.516  32.349  33.489  1.00  0.00     0.001 A 
ATOM     73  C   UNL A   1      37.778  30.060  33.324  1.00  0.00     0.001 A 
ATOM     74  C   UNL A   1      37.485  31.422  33.354  1.00  0.00     0.000 A 
ENDBRANCH  50  69
BRANCH  62  75
ATOM     75  C   UNL A   1      44.631  24.854  33.626  1.00  0.00    -0.014 A 
ATOM     76  C   UNL A   1      45.785  24.776  34.415  1.00  0.00     0.009 A 
ATOM     77  C   UNL A   1      43.806  23.704  33.609  1.00  0.00     0.009 A 
ATOM     78  C   UNL A   1      46.114  23.605  35.118  1.00  0.00     0.001 A 
ATOM     79  C   UNL A   1      44.105  22.552  34.342  1.00  0.00     0.001 A 
ATOM     80  C   UNL A   1      45.269  22.499  35.091  1.00  0.00     0.000 A 
ENDBRANCH  62  75
ENDBRANCH  36  37
ENDBRANCH  28  31
ENDBRANCH  26  27
ENDBRANCH  25  26
ENDBRANCH   1  25
TORSDOF 15
ENDMDL
