MODEL 1
REMARK VINA RESULT:     -11.5      0.000      0.000
REMARK SMILES Cc1cc(OC(F)(F)F)cc2c1O[C@H](C(F)(F)F)C(C(=O)NCCCNC(=O)c1ccc(-c3c4nc(c(-c5ccccc5)c5ccc([nH]5)c(-c5ccccc5)c5nc(c(-c6ccccc6)c6ccc3[nH]6)C=C5)C=C4)cc1)=C2
REMARK SMILES IDX 24 1 23 2 22 3 20 4 21 5 19 7 1 8 2 9 3 10 12 11 4 12 11 13
REMARK SMILES IDX 13 14 10 15 77 16 14 17 5 18 6 19 7 20 8 21 9 22 15 23 16 24
REMARK SMILES IDX 17 25 18 26 25 27 26 28 27 29 28 31 29 32 30 33 76 34 31 35
REMARK SMILES IDX 75 36 32 37 33 38 34 39 69 40 35 41 74 42 68 43 70 44 36 45
REMARK SMILES IDX 73 46 67 47 66 48 37 50 59 51 44 52 58 53 45 54 48 55 57 56
REMARK SMILES IDX 71 57 46 58 47 59 56 61 72 62 49 63 38 64 39 65 43 66 40 67
REMARK SMILES IDX 42 68 41 69 60 70 61 71 65 72 62 73 64 74 63 75 50 76 51 77
REMARK SMILES IDX 55 78 52 79 54 80 53 81
REMARK H PARENT 22 6 26 30 70 49 48 60
REMARK Flexibility Score: inf
ROOT
ATOM      1  C   UNL A   1      36.162  23.484  24.638  1.00  0.00     0.042 C 
ENDROOT
BRANCH   1   2
ATOM      2  C   UNL A   1      34.723  23.013  24.487  1.00  0.00     0.118 C 
BRANCH   2   3
ATOM      3  N   UNL A   1      34.296  23.028  23.096  1.00  0.00    -0.352 N 
ATOM      4  C   UNL A   1      33.543  23.818  22.295  1.00  0.00     0.251 C 
ATOM      5  O   UNL A   1      33.423  23.420  21.132  1.00  0.00    -0.270 OA
ATOM      6  H   UNL A   1      34.651  22.253  22.603  1.00  0.00     0.163 HD
BRANCH   4   7
ATOM      7  C   UNL A   1      32.880  25.084  22.716  1.00  0.00     0.067 C 
ATOM      8  C   UNL A   1      29.828  29.191  23.297  1.00  0.00     0.048 C 
ATOM      9  C   UNL A   1      31.181  28.768  23.797  1.00  0.00    -0.005 A 
ATOM     10  C   UNL A   1      31.875  29.604  24.687  1.00  0.00     0.054 A 
ATOM     11  C   UNL A   1      31.785  27.578  23.378  1.00  0.00     0.131 A 
ATOM     12  C   UNL A   1      33.143  29.254  25.156  1.00  0.00     0.130 A 
ATOM     13  C   UNL A   1      33.049  27.210  23.846  1.00  0.00     0.021 A 
ATOM     14  O   UNL A   1      31.116  26.814  22.463  1.00  0.00    -0.475 OA
ATOM     15  C   UNL A   1      33.723  28.052  24.735  1.00  0.00     0.058 A 
ATOM     16  C   UNL A   1      33.652  25.967  23.376  1.00  0.00     0.025 C 
ATOM     17  C   UNL A   1      31.431  25.397  22.477  1.00  0.00     0.314 C 
BRANCH  12  18
ATOM     18  O   UNL A   1      33.916  29.983  26.016  1.00  0.00    -0.406 OA
BRANCH  18  19
ATOM     19  C   UNL A   1      33.513  30.042  27.374  1.00  0.00     0.573 C 
ATOM     20  F   UNL A   1      32.545  30.966  27.556  1.00  0.00    -0.132 F 
ATOM     21  F   UNL A   1      33.077  28.840  27.805  1.00  0.00    -0.132 F 
ATOM     22  F   UNL A   1      34.578  30.397  28.127  1.00  0.00    -0.132 F 
ENDBRANCH  18  19
ENDBRANCH  12  18
BRANCH  17  23
ATOM     23  C   UNL A   1      30.490  24.667  23.455  1.00  0.00     0.429 C 
ATOM     24  F   UNL A   1      31.017  24.672  24.706  1.00  0.00    -0.167 F 
ATOM     25  F   UNL A   1      29.277  25.261  23.548  1.00  0.00    -0.167 F 
ATOM     26  F   UNL A   1      30.270  23.379  23.113  1.00  0.00    -0.167 F 
ENDBRANCH  17  23
ENDBRANCH   4   7
ENDBRANCH   2   3
ENDBRANCH   1   2
BRANCH   1  27
ATOM     27  C   UNL A   1      36.654  23.347  26.075  1.00  0.00     0.118 C 
BRANCH  27  28
ATOM     28  N   UNL A   1      37.791  22.433  26.161  1.00  0.00    -0.352 N 
ATOM     29  C   UNL A   1      39.119  22.713  26.361  1.00  0.00     0.251 C 
ATOM     30  H   UNL A   1      37.572  21.479  26.062  1.00  0.00     0.163 HD
ATOM     31  O   UNL A   1      39.975  21.870  26.105  1.00  0.00    -0.269 OA
BRANCH  29  32
ATOM     32  C   UNL A   1      39.513  24.030  26.890  1.00  0.00     0.039 A 
ATOM     33  C   UNL A   1      40.117  24.961  26.042  1.00  0.00     0.014 A 
ATOM     34  C   UNL A   1      39.311  24.324  28.241  1.00  0.00     0.014 A 
ATOM     35  C   UNL A   1      40.469  26.215  26.541  1.00  0.00     0.010 A 
ATOM     36  C   UNL A   1      39.593  25.595  28.719  1.00  0.00     0.010 A 
ATOM     37  C   UNL A   1      40.190  26.544  27.878  1.00  0.00    -0.014 A 
BRANCH  37  38
ATOM     38  C   UNL A   1      40.565  27.858  28.442  1.00  0.00     0.031 A 
ATOM     39  C   UNL A   1      41.988  28.103  28.855  1.00  0.00     0.074 A 
ATOM     40  C   UNL A   1      39.623  28.800  28.631  1.00  0.00     0.049 A 
ATOM     41  N   UNL A   1      42.506  29.158  29.429  1.00  0.00    -0.248 NA
ATOM     42  C   UNL A   1      42.951  27.015  28.612  1.00  0.00     0.031 C 
ATOM     43  C   UNL A   1      38.206  28.663  28.290  1.00  0.00     0.029 A 
ATOM     44  N   UNL A   1      39.720  30.062  29.159  1.00  0.00    -0.354 N 
ATOM     45  C   UNL A   1      43.847  28.855  29.622  1.00  0.00     0.074 A 
ATOM     46  C   UNL A   1      44.056  27.505  29.153  1.00  0.00     0.031 C 
ATOM     47  C   UNL A   1      37.572  29.810  28.588  1.00  0.00     0.029 A 
ATOM     48  C   UNL A   1      38.529  30.746  29.169  1.00  0.00     0.049 A 
ATOM     49  H   UNL A   1      40.562  30.441  29.498  1.00  0.00     0.167 HD
ATOM     50  C   UNL A   1      44.824  29.645  30.121  1.00  0.00     0.031 A 
ATOM     51  C   UNL A   1      38.245  31.991  29.596  1.00  0.00     0.031 A 
ATOM     52  C   UNL A   1      44.620  30.995  30.559  1.00  0.00     0.049 A 
ATOM     53  C   UNL A   1      39.343  32.843  30.165  1.00  0.00     0.074 A 
ATOM     54  C   UNL A   1      45.558  31.893  31.035  1.00  0.00     0.029 A 
ATOM     55  N   UNL A   1      43.396  31.645  30.567  1.00  0.00    -0.354 N 
ATOM     56  N   UNL A   1      40.613  32.555  30.310  1.00  0.00    -0.248 NA
ATOM     57  C   UNL A   1      38.972  34.188  30.627  1.00  0.00     0.031 C 
ATOM     58  C   UNL A   1      44.895  33.077  31.364  1.00  0.00     0.029 A 
ATOM     59  C   UNL A   1      43.552  32.928  31.054  1.00  0.00     0.049 A 
ATOM     60  H   UNL A   1      42.545  31.251  30.269  1.00  0.00     0.167 HD
ATOM     61  C   UNL A   1      41.198  33.685  30.862  1.00  0.00     0.074 A 
ATOM     62  C   UNL A   1      40.145  34.668  31.021  1.00  0.00     0.031 C 
ATOM     63  C   UNL A   1      42.492  33.890  31.202  1.00  0.00     0.031 A 
BRANCH  50  64
ATOM     64  C   UNL A   1      46.210  29.078  30.197  1.00  0.00    -0.014 A 
ATOM     65  C   UNL A   1      47.104  29.228  29.126  1.00  0.00     0.009 A 
ATOM     66  C   UNL A   1      46.648  28.450  31.372  1.00  0.00     0.009 A 
ATOM     67  C   UNL A   1      48.410  28.747  29.225  1.00  0.00     0.001 A 
ATOM     68  C   UNL A   1      47.961  27.989  31.476  1.00  0.00     0.001 A 
ATOM     69  C   UNL A   1      48.840  28.135  30.403  1.00  0.00     0.000 A 
ENDBRANCH  50  64
BRANCH  51  70
ATOM     70  C   UNL A   1      36.861  32.510  29.456  1.00  0.00    -0.014 A 
ATOM     71  C   UNL A   1      35.944  32.354  30.506  1.00  0.00     0.009 A 
ATOM     72  C   UNL A   1      36.467  33.208  28.305  1.00  0.00     0.009 A 
ATOM     73  C   UNL A   1      34.656  32.884  30.403  1.00  0.00     0.001 A 
ATOM     74  C   UNL A   1      35.185  33.752  28.212  1.00  0.00     0.001 A 
ATOM     75  C   UNL A   1      34.280  33.588  29.260  1.00  0.00     0.000 A 
ENDBRANCH  51  70
BRANCH  63  76
ATOM     76  C   UNL A   1      42.867  35.225  31.773  1.00  0.00    -0.014 A 
ATOM     77  C   UNL A   1      42.762  35.469  33.150  1.00  0.00     0.009 A 
ATOM     78  C   UNL A   1      43.464  36.190  30.947  1.00  0.00     0.009 A 
ATOM     79  C   UNL A   1      43.248  36.659  33.690  1.00  0.00     0.001 A 
ATOM     80  C   UNL A   1      43.966  37.371  31.494  1.00  0.00     0.001 A 
ATOM     81  C   UNL A   1      43.860  37.604  32.864  1.00  0.00     0.000 A 
ENDBRANCH  63  76
ENDBRANCH  37  38
ENDBRANCH  29  32
ENDBRANCH  27  28
ENDBRANCH   1  27
TORSDOF 13
ENDMDL
MODEL 2
REMARK VINA RESULT:     -11.4      2.337      6.856
REMARK SMILES Cc1cc(OC(F)(F)F)cc2c1O[C@H](C(F)(F)F)C(C(=O)NCCCNC(=O)c1ccc(-c3c4nc(c(-c5ccccc5)c5ccc([nH]5)c(-c5ccccc5)c5nc(c(-c6ccccc6)c6ccc3[nH]6)C=C5)C=C4)cc1)=C2
REMARK SMILES IDX 24 1 23 2 22 3 20 4 21 5 19 7 1 8 2 9 3 10 12 11 4 12 11 13
REMARK SMILES IDX 13 14 10 15 77 16 14 17 5 18 6 19 7 20 8 21 9 22 15 23 16 24
REMARK SMILES IDX 17 25 18 26 25 27 26 28 27 29 28 31 29 32 30 33 76 34 31 35
REMARK SMILES IDX 75 36 32 37 33 38 34 39 69 40 35 41 74 42 68 43 70 44 36 45
REMARK SMILES IDX 73 46 67 47 66 48 37 50 59 51 44 52 58 53 45 54 48 55 57 56
REMARK SMILES IDX 71 57 46 58 47 59 56 61 72 62 49 63 38 64 39 65 43 66 40 67
REMARK SMILES IDX 42 68 41 69 60 70 61 71 65 72 62 73 64 74 63 75 50 76 51 77
REMARK SMILES IDX 55 78 52 79 54 80 53 81
REMARK H PARENT 22 6 26 30 70 49 48 60
REMARK Flexibility Score: inf
ROOT
ATOM      1  C   UNL A   1      37.763  19.617  24.993  1.00  0.00     0.042 C 
ENDROOT
BRANCH   1   2
ATOM      2  C   UNL A   1      36.674  20.630  24.667  1.00  0.00     0.118 C 
BRANCH   2   3
ATOM      3  N   UNL A   1      35.738  20.787  25.771  1.00  0.00    -0.352 N 
ATOM      4  C   UNL A   1      34.764  21.653  26.133  1.00  0.00     0.251 C 
ATOM      5  O   UNL A   1      34.216  21.403  27.211  1.00  0.00    -0.270 OA
ATOM      6  H   UNL A   1      35.842  20.067  26.435  1.00  0.00     0.163 HD
BRANCH   4   7
ATOM      7  C   UNL A   1      34.332  22.840  25.341  1.00  0.00     0.067 C 
ATOM      8  C   UNL A   1      33.066  26.231  21.680  1.00  0.00     0.048 C 
ATOM      9  C   UNL A   1      33.321  26.281  23.159  1.00  0.00    -0.005 A 
ATOM     10  C   UNL A   1      33.171  27.500  23.840  1.00  0.00     0.054 A 
ATOM     11  C   UNL A   1      33.735  25.154  23.877  1.00  0.00     0.131 A 
ATOM     12  C   UNL A   1      33.420  27.589  25.212  1.00  0.00     0.130 A 
ATOM     13  C   UNL A   1      33.978  25.225  25.251  1.00  0.00     0.021 A 
ATOM     14  O   UNL A   1      33.934  23.996  23.179  1.00  0.00    -0.475 OA
ATOM     15  C   UNL A   1      33.820  26.446  25.913  1.00  0.00     0.058 A 
ATOM     16  C   UNL A   1      34.421  24.030  25.962  1.00  0.00     0.025 C 
ATOM     17  C   UNL A   1      33.791  22.769  23.943  1.00  0.00     0.314 C 
BRANCH  12  18
ATOM     18  O   UNL A   1      33.314  28.714  25.980  1.00  0.00    -0.406 OA
BRANCH  18  19
ATOM     19  C   UNL A   1      32.015  29.127  26.368  1.00  0.00     0.573 C 
ATOM     20  F   UNL A   1      32.066  29.992  27.405  1.00  0.00    -0.132 F 
ATOM     21  F   UNL A   1      31.357  29.697  25.337  1.00  0.00    -0.132 F 
ATOM     22  F   UNL A   1      31.314  28.041  26.763  1.00  0.00    -0.132 F 
ENDBRANCH  18  19
ENDBRANCH  12  18
BRANCH  17  23
ATOM     23  C   UNL A   1      32.325  22.296  23.890  1.00  0.00     0.429 C 
ATOM     24  F   UNL A   1      32.268  20.940  23.916  1.00  0.00    -0.167 F 
ATOM     25  F   UNL A   1      31.601  22.730  24.949  1.00  0.00    -0.167 F 
ATOM     26  F   UNL A   1      31.678  22.708  22.779  1.00  0.00    -0.167 F 
ENDBRANCH  17  23
ENDBRANCH   4   7
ENDBRANCH   2   3
ENDBRANCH   1   2
BRANCH   1  27
ATOM     27  C   UNL A   1      38.917  20.256  25.758  1.00  0.00     0.118 C 
BRANCH  27  28
ATOM     28  N   UNL A   1      40.053  19.343  25.864  1.00  0.00    -0.352 N 
ATOM     29  C   UNL A   1      41.381  19.624  26.063  1.00  0.00     0.251 C 
ATOM     30  H   UNL A   1      39.833  18.387  25.780  1.00  0.00     0.163 HD
ATOM     31  O   UNL A   1      42.237  18.775  25.824  1.00  0.00    -0.269 OA
BRANCH  29  32
ATOM     32  C   UNL A   1      41.775  20.949  26.571  1.00  0.00     0.039 A 
ATOM     33  C   UNL A   1      42.222  21.925  25.677  1.00  0.00     0.014 A 
ATOM     34  C   UNL A   1      41.730  21.208  27.943  1.00  0.00     0.014 A 
ATOM     35  C   UNL A   1      42.574  23.185  26.159  1.00  0.00     0.010 A 
ATOM     36  C   UNL A   1      42.009  22.483  28.414  1.00  0.00     0.010 A 
ATOM     37  C   UNL A   1      42.449  23.475  27.528  1.00  0.00    -0.014 A 
BRANCH  37  38
ATOM     38  C   UNL A   1      42.829  24.796  28.073  1.00  0.00     0.031 A 
ATOM     39  C   UNL A   1      41.769  25.841  28.279  1.00  0.00     0.074 A 
ATOM     40  C   UNL A   1      44.121  25.071  28.327  1.00  0.00     0.049 A 
ATOM     41  N   UNL A   1      41.902  27.077  28.682  1.00  0.00    -0.248 NA
ATOM     42  C   UNL A   1      40.381  25.452  27.973  1.00  0.00     0.031 C 
ATOM     43  C   UNL A   1      45.237  24.142  28.141  1.00  0.00     0.029 A 
ATOM     44  N   UNL A   1      44.712  26.215  28.797  1.00  0.00    -0.354 N 
ATOM     45  C   UNL A   1      40.622  27.613  28.668  1.00  0.00     0.074 A 
ATOM     46  C   UNL A   1      39.731  26.589  28.172  1.00  0.00     0.031 C 
ATOM     47  C   UNL A   1      46.375  24.745  28.525  1.00  0.00     0.029 A 
ATOM     48  C   UNL A   1      46.072  26.107  28.951  1.00  0.00     0.049 A 
ATOM     49  H   UNL A   1      44.209  27.035  29.005  1.00  0.00     0.167 HD
ATOM     50  C   UNL A   1      40.220  28.842  29.063  1.00  0.00     0.031 A 
ATOM     51  C   UNL A   1      46.972  27.008  29.391  1.00  0.00     0.031 A 
ATOM     52  C   UNL A   1      41.101  29.847  29.582  1.00  0.00     0.049 A 
ATOM     53  C   UNL A   1      46.505  28.374  29.804  1.00  0.00     0.074 A 
ATOM     54  C   UNL A   1      40.782  31.107  30.054  1.00  0.00     0.029 A 
ATOM     55  N   UNL A   1      42.474  29.703  29.707  1.00  0.00    -0.354 N 
ATOM     56  N   UNL A   1      45.286  28.855  29.817  1.00  0.00    -0.248 NA
ATOM     57  C   UNL A   1      47.532  29.319  30.264  1.00  0.00     0.031 C 
ATOM     58  C   UNL A   1      41.967  31.740  30.434  1.00  0.00     0.029 A 
ATOM     59  C   UNL A   1      43.018  30.858  30.235  1.00  0.00     0.049 A 
ATOM     60  H   UNL A   1      42.983  28.899  29.458  1.00  0.00     0.167 HD
ATOM     61  C   UNL A   1      45.395  30.150  30.302  1.00  0.00     0.074 A 
ATOM     62  C   UNL A   1      46.798  30.380  30.577  1.00  0.00     0.031 C 
ATOM     63  C   UNL A   1      44.417  31.065  30.503  1.00  0.00     0.031 A 
BRANCH  50  64
ATOM     64  C   UNL A   1      38.758  29.162  28.971  1.00  0.00    -0.014 A 
ATOM     65  C   UNL A   1      37.918  28.997  30.083  1.00  0.00     0.009 A 
ATOM     66  C   UNL A   1      38.229  29.696  27.787  1.00  0.00     0.009 A 
ATOM     67  C   UNL A   1      36.570  29.350  30.006  1.00  0.00     0.001 A 
ATOM     68  C   UNL A   1      36.886  30.068  27.720  1.00  0.00     0.001 A 
ATOM     69  C   UNL A   1      36.057  29.892  28.828  1.00  0.00     0.000 A 
ENDBRANCH  50  64
BRANCH  51  70
ATOM     70  C   UNL A   1      48.400  26.617  29.497  1.00  0.00    -0.014 A 
ATOM     71  C   UNL A   1      49.286  26.905  28.449  1.00  0.00     0.009 A 
ATOM     72  C   UNL A   1      48.895  26.009  30.661  1.00  0.00     0.009 A 
ATOM     73  C   UNL A   1      50.641  26.586  28.562  1.00  0.00     0.001 A 
ATOM     74  C   UNL A   1      50.253  25.709  30.778  1.00  0.00     0.001 A 
ATOM     75  C   UNL A   1      51.125  25.995  29.729  1.00  0.00     0.000 A 
ENDBRANCH  51  70
BRANCH  63  76
ATOM     76  C   UNL A   1      44.807  32.402  31.057  1.00  0.00    -0.014 A 
ATOM     77  C   UNL A   1      44.913  32.600  32.441  1.00  0.00     0.009 A 
ATOM     78  C   UNL A   1      45.209  33.425  30.183  1.00  0.00     0.009 A 
ATOM     79  C   UNL A   1      45.415  33.801  32.940  1.00  0.00     0.001 A 
ATOM     80  C   UNL A   1      45.728  34.617  30.686  1.00  0.00     0.001 A 
ATOM     81  C   UNL A   1      45.834  34.804  32.064  1.00  0.00     0.000 A 
ENDBRANCH  63  76
ENDBRANCH  37  38
ENDBRANCH  29  32
ENDBRANCH  27  28
ENDBRANCH   1  27
TORSDOF 13
ENDMDL
MODEL 3
REMARK VINA RESULT:     -11.4      2.270      3.522
REMARK SMILES Cc1cc(OC(F)(F)F)cc2c1O[C@H](C(F)(F)F)C(C(=O)NCCCNC(=O)c1ccc(-c3c4nc(c(-c5ccccc5)c5ccc([nH]5)c(-c5ccccc5)c5nc(c(-c6ccccc6)c6ccc3[nH]6)C=C5)C=C4)cc1)=C2
REMARK SMILES IDX 24 1 23 2 22 3 20 4 21 5 19 7 1 8 2 9 3 10 12 11 4 12 11 13
REMARK SMILES IDX 13 14 10 15 77 16 14 17 5 18 6 19 7 20 8 21 9 22 15 23 16 24
REMARK SMILES IDX 17 25 18 26 25 27 26 28 27 29 28 31 29 32 30 33 76 34 31 35
REMARK SMILES IDX 75 36 32 37 33 38 34 39 69 40 35 41 74 42 68 43 70 44 36 45
REMARK SMILES IDX 73 46 67 47 66 48 37 50 59 51 44 52 58 53 45 54 48 55 57 56
REMARK SMILES IDX 71 57 46 58 47 59 56 61 72 62 49 63 38 64 39 65 43 66 40 67
REMARK SMILES IDX 42 68 41 69 60 70 61 71 65 72 62 73 64 74 63 75 50 76 51 77
REMARK SMILES IDX 55 78 52 79 54 80 53 81
REMARK H PARENT 22 6 26 30 70 49 48 60
REMARK Flexibility Score: inf
ROOT
ATOM      1  C   UNL A   1      37.504  19.410  24.996  1.00  0.00     0.042 C 
ENDROOT
BRANCH   1   2
ATOM      2  C   UNL A   1      36.350  20.345  24.664  1.00  0.00     0.118 C 
BRANCH   2   3
ATOM      3  N   UNL A   1      35.542  20.639  25.838  1.00  0.00    -0.352 N 
ATOM      4  C   UNL A   1      34.677  21.601  26.234  1.00  0.00     0.251 C 
ATOM      5  O   UNL A   1      34.220  21.457  27.372  1.00  0.00    -0.270 OA
ATOM      6  H   UNL A   1      35.654  19.950  26.533  1.00  0.00     0.163 HD
BRANCH   4   7
ATOM      7  C   UNL A   1      34.262  22.774  25.413  1.00  0.00     0.067 C 
ATOM      8  C   UNL A   1      32.913  26.053  21.679  1.00  0.00     0.048 C 
ATOM      9  C   UNL A   1      33.310  26.162  23.124  1.00  0.00    -0.005 A 
ATOM     10  C   UNL A   1      33.317  27.424  23.740  1.00  0.00     0.054 A 
ATOM     11  C   UNL A   1      33.704  25.046  23.869  1.00  0.00     0.131 A 
ATOM     12  C   UNL A   1      33.700  27.568  25.076  1.00  0.00     0.130 A 
ATOM     13  C   UNL A   1      34.081  25.172  25.209  1.00  0.00     0.021 A 
ATOM     14  O   UNL A   1      33.749  23.840  23.229  1.00  0.00    -0.475 OA
ATOM     15  C   UNL A   1      34.078  26.436  25.806  1.00  0.00     0.058 A 
ATOM     16  C   UNL A   1      34.498  23.986  25.950  1.00  0.00     0.025 C 
ATOM     17  C   UNL A   1      33.587  22.671  24.077  1.00  0.00     0.314 C 
BRANCH  12  18
ATOM     18  O   UNL A   1      33.752  28.738  25.780  1.00  0.00    -0.406 OA
BRANCH  18  19
ATOM     19  C   UNL A   1      32.631  29.076  26.579  1.00  0.00     0.573 C 
ATOM     20  F   UNL A   1      32.564  30.409  26.786  1.00  0.00    -0.132 F 
ATOM     21  F   UNL A   1      31.483  28.648  26.012  1.00  0.00    -0.132 F 
ATOM     22  F   UNL A   1      32.757  28.470  27.781  1.00  0.00    -0.132 F 
ENDBRANCH  18  19
ENDBRANCH  12  18
BRANCH  17  23
ATOM     23  C   UNL A   1      32.092  22.315  24.185  1.00  0.00     0.429 C 
ATOM     24  F   UNL A   1      31.449  22.629  23.032  1.00  0.00    -0.167 F 
ATOM     25  F   UNL A   1      31.887  20.993  24.391  1.00  0.00    -0.167 F 
ATOM     26  F   UNL A   1      31.466  22.969  25.188  1.00  0.00    -0.167 F 
ENDBRANCH  17  23
ENDBRANCH   4   7
ENDBRANCH   2   3
ENDBRANCH   1   2
BRANCH   1  27
ATOM     27  C   UNL A   1      38.742  20.177  25.446  1.00  0.00     0.118 C 
BRANCH  27  28
ATOM     28  N   UNL A   1      39.849  19.272  25.743  1.00  0.00    -0.352 N 
ATOM     29  C   UNL A   1      41.139  19.564  26.108  1.00  0.00     0.251 C 
ATOM     30  H   UNL A   1      39.639  18.313  25.671  1.00  0.00     0.163 HD
ATOM     31  O   UNL A   1      42.016  18.708  26.023  1.00  0.00    -0.269 OA
BRANCH  29  32
ATOM     32  C   UNL A   1      41.466  20.910  26.608  1.00  0.00     0.039 A 
ATOM     33  C   UNL A   1      41.996  21.861  25.733  1.00  0.00     0.014 A 
ATOM     34  C   UNL A   1      41.274  21.214  27.959  1.00  0.00     0.014 A 
ATOM     35  C   UNL A   1      42.284  23.141  26.206  1.00  0.00     0.010 A 
ATOM     36  C   UNL A   1      41.491  22.507  28.411  1.00  0.00     0.010 A 
ATOM     37  C   UNL A   1      42.013  23.475  27.543  1.00  0.00    -0.014 A 
BRANCH  37  38
ATOM     38  C   UNL A   1      42.322  24.818  28.079  1.00  0.00     0.031 A 
ATOM     39  C   UNL A   1      43.730  25.141  28.492  1.00  0.00     0.074 A 
ATOM     40  C   UNL A   1      41.335  25.718  28.243  1.00  0.00     0.049 A 
ATOM     41  N   UNL A   1      44.194  26.232  29.044  1.00  0.00    -0.248 NA
ATOM     42  C   UNL A   1      44.745  24.095  28.277  1.00  0.00     0.031 C 
ATOM     43  C   UNL A   1      39.928  25.505  27.899  1.00  0.00     0.029 A 
ATOM     44  N   UNL A   1      41.369  26.995  28.742  1.00  0.00    -0.354 N 
ATOM     45  C   UNL A   1      45.546  25.998  29.249  1.00  0.00     0.074 A 
ATOM     46  C   UNL A   1      45.823  24.649  28.812  1.00  0.00     0.031 C 
ATOM     47  C   UNL A   1      39.238  26.626  28.169  1.00  0.00     0.029 A 
ATOM     48  C   UNL A   1      40.147  27.620  28.732  1.00  0.00     0.049 A 
ATOM     49  H   UNL A   1      42.190  27.422  29.076  1.00  0.00     0.167 HD
ATOM     50  C   UNL A   1      46.482  26.845  29.734  1.00  0.00     0.031 A 
ATOM     51  C   UNL A   1      39.800  28.860  29.129  1.00  0.00     0.031 A 
ATOM     52  C   UNL A   1      46.211  28.194  30.141  1.00  0.00     0.049 A 
ATOM     53  C   UNL A   1      40.853  29.776  29.684  1.00  0.00     0.074 A 
ATOM     54  C   UNL A   1      47.103  29.146  30.600  1.00  0.00     0.029 A 
ATOM     55  N   UNL A   1      44.957  28.783  30.129  1.00  0.00    -0.354 N 
ATOM     56  N   UNL A   1      42.135  29.552  29.841  1.00  0.00    -0.248 NA
ATOM     57  C   UNL A   1      40.416  31.112  30.114  1.00  0.00     0.031 C 
ATOM     58  C   UNL A   1      46.382  30.304  30.900  1.00  0.00     0.029 A 
ATOM     59  C   UNL A   1      45.049  30.083  30.587  1.00  0.00     0.049 A 
ATOM     60  H   UNL A   1      44.127  28.343  29.837  1.00  0.00     0.167 HD
ATOM     61  C   UNL A   1      42.662  30.722  30.369  1.00  0.00     0.074 A 
ATOM     62  C   UNL A   1      41.563  31.656  30.502  1.00  0.00     0.031 C 
ATOM     63  C   UNL A   1      43.943  30.996  30.710  1.00  0.00     0.031 A 
BRANCH  50  64
ATOM     64  C   UNL A   1      47.893  26.347  29.828  1.00  0.00    -0.014 A 
ATOM     65  C   UNL A   1      48.381  25.802  31.026  1.00  0.00     0.009 A 
ATOM     66  C   UNL A   1      48.718  26.357  28.694  1.00  0.00     0.009 A 
ATOM     67  C   UNL A   1      49.677  25.289  31.090  1.00  0.00     0.001 A 
ATOM     68  C   UNL A   1      50.006  25.823  28.755  1.00  0.00     0.001 A 
ATOM     69  C   UNL A   1      50.485  25.292  29.953  1.00  0.00     0.000 A 
ENDBRANCH  50  64
BRANCH  51  70
ATOM     70  C   UNL A   1      38.394  29.308  28.973  1.00  0.00    -0.014 A 
ATOM     71  C   UNL A   1      37.513  29.249  30.063  1.00  0.00     0.009 A 
ATOM     72  C   UNL A   1      37.942  29.846  27.759  1.00  0.00     0.009 A 
ATOM     73  C   UNL A   1      36.203  29.716  29.938  1.00  0.00     0.001 A 
ATOM     74  C   UNL A   1      36.637  30.328  27.642  1.00  0.00     0.001 A 
ATOM     75  C   UNL A   1      35.768  30.261  28.730  1.00  0.00     0.000 A 
ENDBRANCH  51  70
BRANCH  63  76
ATOM     76  C   UNL A   1      44.251  32.360  31.253  1.00  0.00    -0.014 A 
ATOM     77  C   UNL A   1      44.538  33.425  30.388  1.00  0.00     0.009 A 
ATOM     78  C   UNL A   1      44.111  32.608  32.627  1.00  0.00     0.009 A 
ATOM     79  C   UNL A   1      44.679  34.718  30.892  1.00  0.00     0.001 A 
ATOM     80  C   UNL A   1      44.234  33.905  33.124  1.00  0.00     0.001 A 
ATOM     81  C   UNL A   1      44.516  34.959  32.257  1.00  0.00     0.000 A 
ENDBRANCH  63  76
ENDBRANCH  37  38
ENDBRANCH  29  32
ENDBRANCH  27  28
ENDBRANCH   1  27
TORSDOF 13
ENDMDL
