MODEL 1
REMARK VINA RESULT:     -10.8      0.000      0.000
REMARK SMILES Cc1noc(C)c1CNc1cnc(C(=O)NCCCNC(=O)c2ccc(-c3c4nc(c(-c5ccccc5)c5ccc([nH]5)c(-c5ccccc5)c5nc(c(-c6ccccc6)c6ccc3[nH]6)C=C5)C=C4)cc2)cn1
REMARK SMILES IDX 17 1 16 2 14 3 15 4 13 6 10 7 11 8 72 9 12 10 71 11 9 12
REMARK SMILES IDX 8 14 7 15 1 16 2 17 3 18 4 19 5 20 6 21 18 22 19 23 20 24
REMARK SMILES IDX 21 25 22 27 23 28 24 29 70 30 25 31 69 32 26 33 27 34 28 35
REMARK SMILES IDX 63 36 29 37 68 38 62 39 64 40 30 41 67 42 61 43 60 44 31 46
REMARK SMILES IDX 53 47 38 48 52 49 39 50 42 51 51 52 65 53 40 54 41 55 50 57
REMARK SMILES IDX 66 58 43 59 32 60 33 61 37 62 34 63 36 64 35 65 54 66 55 67
REMARK SMILES IDX 59 68 56 69 58 70 57 71 44 72 45 73 49 74 46 75 48 76 47 77
REMARK H PARENT 16 5 9 13 20 26 64 45 42 56
REMARK Flexibility Score: inf
ROOT
ATOM      1  C   UNL A   1      34.795  35.117  28.901  1.00  0.00     0.118 C 
ENDROOT
BRANCH   1   2
ATOM      2  N   UNL A   1      33.648  35.875  29.371  1.00  0.00    -0.351 N 
ATOM      3  C   UNL A   1      33.127  36.027  30.636  1.00  0.00     0.271 C 
ATOM      4  O   UNL A   1      32.129  36.741  30.764  1.00  0.00    -0.267 OA
ATOM      5  H   UNL A   1      33.161  36.360  28.666  1.00  0.00     0.163 HD
BRANCH   3   6
ATOM      6  C   UNL A   1      33.737  35.401  31.842  1.00  0.00     0.146 A 
ATOM      7  C   UNL A   1      35.087  34.375  33.963  1.00  0.00     0.144 A 
ATOM      8  C   UNL A   1      34.378  33.576  33.067  1.00  0.00     0.158 A 
ATOM      9  N   UNL A   1      35.066  35.716  33.833  1.00  0.00    -0.235 NA
ATOM     10  N   UNL A   1      33.691  34.058  32.004  1.00  0.00    -0.246 NA
ATOM     11  C   UNL A   1      34.392  36.211  32.759  1.00  0.00     0.147 A 
BRANCH   7  12
ATOM     12  N   UNL A   1      35.867  33.886  34.983  1.00  0.00    -0.365 N 
ATOM     13  H   UNL A   1      35.465  33.717  35.866  1.00  0.00     0.162 HD
BRANCH  12  14
ATOM     14  C   UNL A   1      37.277  33.616  34.771  1.00  0.00     0.156 C 
BRANCH  14  15
ATOM     15  C   UNL A   1      37.755  32.324  35.329  1.00  0.00     0.037 A 
ATOM     16  C   UNL A   1      38.122  30.914  33.155  1.00  0.00     0.071 C 
ATOM     17  C   UNL A   1      38.119  31.145  34.620  1.00  0.00     0.086 A 
ATOM     18  N   UNL A   1      38.494  30.169  35.456  1.00  0.00    -0.085 NA
ATOM     19  O   UNL A   1      38.378  30.696  36.727  1.00  0.00    -0.361 OA
ATOM     20  C   UNL A   1      37.936  31.977  36.651  1.00  0.00     0.138 A 
ATOM     21  C   UNL A   1      37.745  32.683  37.931  1.00  0.00     0.091 C 
ENDBRANCH  14  15
ENDBRANCH  12  14
ENDBRANCH   7  12
ENDBRANCH   3   6
ENDBRANCH   1   2
BRANCH   1  22
ATOM     22  C   UNL A   1      34.366  33.855  28.161  1.00  0.00     0.042 C 
BRANCH  22  23
ATOM     23  C   UNL A   1      34.763  32.580  28.901  1.00  0.00     0.118 C 
BRANCH  23  24
ATOM     24  N   UNL A   1      34.089  31.399  28.367  1.00  0.00    -0.352 N 
ATOM     25  C   UNL A   1      34.604  30.189  27.983  1.00  0.00     0.251 C 
ATOM     26  H   UNL A   1      33.114  31.486  28.268  1.00  0.00     0.163 HD
ATOM     27  O   UNL A   1      33.909  29.396  27.349  1.00  0.00    -0.269 OA
BRANCH  25  28
ATOM     28  C   UNL A   1      35.994  29.838  28.324  1.00  0.00     0.039 A 
ATOM     29  C   UNL A   1      36.286  29.342  29.597  1.00  0.00     0.014 A 
ATOM     30  C   UNL A   1      37.014  30.019  27.387  1.00  0.00     0.014 A 
ATOM     31  C   UNL A   1      37.593  28.963  29.910  1.00  0.00     0.010 A 
ATOM     32  C   UNL A   1      38.295  29.565  27.670  1.00  0.00     0.010 A 
ATOM     33  C   UNL A   1      38.600  29.041  28.936  1.00  0.00    -0.014 A 
BRANCH  33  34
ATOM     34  C   UNL A   1      39.995  28.617  29.205  1.00  0.00     0.031 A 
ATOM     35  C   UNL A   1      40.963  29.604  29.796  1.00  0.00     0.074 A 
ATOM     36  C   UNL A   1      40.415  27.396  28.823  1.00  0.00     0.049 A 
ATOM     37  N   UNL A   1      42.259  29.504  29.944  1.00  0.00    -0.248 NA
ATOM     38  C   UNL A   1      40.401  30.887  30.249  1.00  0.00     0.031 C 
ATOM     39  C   UNL A   1      39.577  26.355  28.225  1.00  0.00     0.029 A 
ATOM     40  N   UNL A   1      41.667  26.835  28.861  1.00  0.00    -0.354 N 
ATOM     41  C   UNL A   1      42.669  30.721  30.474  1.00  0.00     0.074 A 
ATOM     42  C   UNL A   1      41.494  31.558  30.579  1.00  0.00     0.031 C 
ATOM     43  C   UNL A   1      40.336  25.279  27.964  1.00  0.00     0.029 A 
ATOM     44  C   UNL A   1      41.720  25.572  28.322  1.00  0.00     0.049 A 
ATOM     45  H   UNL A   1      42.453  27.293  29.239  1.00  0.00     0.167 HD
ATOM     46  C   UNL A   1      43.911  31.103  30.852  1.00  0.00     0.031 A 
ATOM     47  C   UNL A   1      42.770  24.754  28.117  1.00  0.00     0.031 A 
ATOM     48  C   UNL A   1      45.073  30.262  30.758  1.00  0.00     0.049 A 
ATOM     49  C   UNL A   1      44.146  25.212  28.516  1.00  0.00     0.074 A 
ATOM     50  C   UNL A   1      46.368  30.535  31.160  1.00  0.00     0.029 A 
ATOM     51  N   UNL A   1      45.078  28.983  30.225  1.00  0.00    -0.354 N 
ATOM     52  N   UNL A   1      44.514  26.347  29.059  1.00  0.00    -0.248 NA
ATOM     53  C   UNL A   1      45.253  24.273  28.281  1.00  0.00     0.031 C 
ATOM     54  C   UNL A   1      47.168  29.442  30.818  1.00  0.00     0.029 A 
ATOM     55  C   UNL A   1      46.358  28.460  30.269  1.00  0.00     0.049 A 
ATOM     56  H   UNL A   1      44.287  28.515  29.869  1.00  0.00     0.167 HD
ATOM     57  C   UNL A   1      45.883  26.241  29.271  1.00  0.00     0.074 A 
ATOM     58  C   UNL A   1      46.280  24.932  28.799  1.00  0.00     0.031 C 
ATOM     59  C   UNL A   1      46.731  27.145  29.816  1.00  0.00     0.031 A 
BRANCH  46  60
ATOM     60  C   UNL A   1      44.077  32.499  31.388  1.00  0.00    -0.014 A 
ATOM     61  C   UNL A   1      43.963  32.772  32.761  1.00  0.00     0.009 A 
ATOM     62  C   UNL A   1      44.384  33.549  30.510  1.00  0.00     0.009 A 
ATOM     63  C   UNL A   1      44.111  34.077  33.236  1.00  0.00     0.001 A 
ATOM     64  C   UNL A   1      44.565  34.846  30.993  1.00  0.00     0.001 A 
ATOM     65  C   UNL A   1      44.418  35.112  32.354  1.00  0.00     0.000 A 
ENDBRANCH  46  60
BRANCH  47  66
ATOM     66  C   UNL A   1      42.563  23.413  27.506  1.00  0.00    -0.014 A 
ATOM     67  C   UNL A   1      42.192  22.319  28.304  1.00  0.00     0.009 A 
ATOM     68  C   UNL A   1      42.744  23.216  26.129  1.00  0.00     0.009 A 
ATOM     69  C   UNL A   1      42.037  21.050  27.739  1.00  0.00     0.001 A 
ATOM     70  C   UNL A   1      42.556  21.953  25.561  1.00  0.00     0.001 A 
ATOM     71  C   UNL A   1      42.214  20.870  26.368  1.00  0.00     0.000 A 
ENDBRANCH  47  66
BRANCH  59  72
ATOM     72  C   UNL A   1      48.164  26.735  30.005  1.00  0.00    -0.014 A 
ATOM     73  C   UNL A   1      48.582  26.011  31.131  1.00  0.00     0.009 A 
ATOM     74  C   UNL A   1      49.092  27.005  28.985  1.00  0.00     0.009 A 
ATOM     75  C   UNL A   1      49.907  25.583  31.240  1.00  0.00     0.001 A 
ATOM     76  C   UNL A   1      50.407  26.549  29.082  1.00  0.00     0.001 A 
ATOM     77  C   UNL A   1      50.814  25.843  30.213  1.00  0.00     0.000 A 
ENDBRANCH  59  72
ENDBRANCH  33  34
ENDBRANCH  25  28
ENDBRANCH  23  24
ENDBRANCH  22  23
ENDBRANCH   1  22
TORSDOF 13
ENDMDL
MODEL 2
REMARK VINA RESULT:     -10.6      0.929      6.123
REMARK SMILES Cc1noc(C)c1CNc1cnc(C(=O)NCCCNC(=O)c2ccc(-c3c4nc(c(-c5ccccc5)c5ccc([nH]5)c(-c5ccccc5)c5nc(c(-c6ccccc6)c6ccc3[nH]6)C=C5)C=C4)cc2)cn1
REMARK SMILES IDX 17 1 16 2 14 3 15 4 13 6 10 7 11 8 72 9 12 10 71 11 9 12
REMARK SMILES IDX 8 14 7 15 1 16 2 17 3 18 4 19 5 20 6 21 18 22 19 23 20 24
REMARK SMILES IDX 21 25 22 27 23 28 24 29 70 30 25 31 69 32 26 33 27 34 28 35
REMARK SMILES IDX 63 36 29 37 68 38 62 39 64 40 30 41 67 42 61 43 60 44 31 46
REMARK SMILES IDX 53 47 38 48 52 49 39 50 42 51 51 52 65 53 40 54 41 55 50 57
REMARK SMILES IDX 66 58 43 59 32 60 33 61 37 62 34 63 36 64 35 65 54 66 55 67
REMARK SMILES IDX 59 68 56 69 58 70 57 71 44 72 45 73 49 74 46 75 48 76 47 77
REMARK H PARENT 16 5 9 13 20 26 64 45 42 56
REMARK Flexibility Score: inf
ROOT
ATOM      1  C   UNL A   1      34.705  35.139  28.817  1.00  0.00     0.118 C 
ENDROOT
BRANCH   1   2
ATOM      2  N   UNL A   1      33.658  35.990  29.357  1.00  0.00    -0.351 N 
ATOM      3  C   UNL A   1      33.210  36.154  30.648  1.00  0.00     0.271 C 
ATOM      4  O   UNL A   1      32.292  36.956  30.839  1.00  0.00    -0.267 OA
ATOM      5  H   UNL A   1      33.191  36.540  28.688  1.00  0.00     0.163 HD
BRANCH   3   6
ATOM      6  C   UNL A   1      33.807  35.436  31.809  1.00  0.00     0.146 A 
ATOM      7  C   UNL A   1      35.140  34.160  33.800  1.00  0.00     0.144 A 
ATOM      8  C   UNL A   1      34.077  33.575  33.114  1.00  0.00     0.158 A 
ATOM      9  N   UNL A   1      35.499  35.430  33.531  1.00  0.00    -0.235 NA
ATOM     10  N   UNL A   1      33.390  34.187  32.121  1.00  0.00    -0.246 NA
ATOM     11  C   UNL A   1      34.826  36.051  32.524  1.00  0.00     0.147 A 
BRANCH   7  12
ATOM     12  N   UNL A   1      35.906  33.509  34.738  1.00  0.00    -0.365 N 
ATOM     13  H   UNL A   1      35.523  33.301  35.621  1.00  0.00     0.162 HD
BRANCH  12  14
ATOM     14  C   UNL A   1      37.272  33.126  34.439  1.00  0.00     0.156 C 
BRANCH  14  15
ATOM     15  C   UNL A   1      37.852  32.112  35.360  1.00  0.00     0.037 A 
ATOM     16  C   UNL A   1      38.494  30.195  33.699  1.00  0.00     0.071 C 
ATOM     17  C   UNL A   1      38.380  30.832  35.033  1.00  0.00     0.086 A 
ATOM     18  N   UNL A   1      38.806  30.187  36.125  1.00  0.00    -0.085 NA
ATOM     19  O   UNL A   1      38.560  31.036  37.186  1.00  0.00    -0.361 OA
ATOM     20  C   UNL A   1      37.990  32.181  36.730  1.00  0.00     0.138 A 
ATOM     21  C   UNL A   1      37.650  33.194  37.745  1.00  0.00     0.091 C 
ENDBRANCH  14  15
ENDBRANCH  12  14
ENDBRANCH   7  12
ENDBRANCH   3   6
ENDBRANCH   1   2
BRANCH   1  22
ATOM     22  C   UNL A   1      34.127  33.896  28.150  1.00  0.00     0.042 C 
BRANCH  22  23
ATOM     23  C   UNL A   1      34.454  32.617  28.914  1.00  0.00     0.118 C 
BRANCH  23  24
ATOM     24  N   UNL A   1      33.860  31.435  28.293  1.00  0.00    -0.352 N 
ATOM     25  C   UNL A   1      34.448  30.271  27.873  1.00  0.00     0.251 C 
ATOM     26  H   UNL A   1      32.887  31.483  28.154  1.00  0.00     0.163 HD
ATOM     27  O   UNL A   1      33.820  29.481  27.170  1.00  0.00    -0.269 OA
BRANCH  25  28
ATOM     28  C   UNL A   1      35.838  29.967  28.259  1.00  0.00     0.039 A 
ATOM     29  C   UNL A   1      36.099  29.431  29.523  1.00  0.00     0.014 A 
ATOM     30  C   UNL A   1      36.886  30.231  27.374  1.00  0.00     0.014 A 
ATOM     31  C   UNL A   1      37.408  29.096  29.876  1.00  0.00     0.010 A 
ATOM     32  C   UNL A   1      38.174  29.822  27.694  1.00  0.00     0.010 A 
ATOM     33  C   UNL A   1      38.450  29.259  28.950  1.00  0.00    -0.014 A 
BRANCH  33  34
ATOM     34  C   UNL A   1      39.850  28.885  29.261  1.00  0.00     0.031 A 
ATOM     35  C   UNL A   1      40.373  27.550  28.810  1.00  0.00     0.074 A 
ATOM     36  C   UNL A   1      40.608  29.687  30.034  1.00  0.00     0.049 A 
ATOM     37  N   UNL A   1      41.492  26.951  29.124  1.00  0.00    -0.248 NA
ATOM     38  C   UNL A   1      39.504  26.772  27.911  1.00  0.00     0.031 C 
ATOM     39  C   UNL A   1      40.210  30.999  30.548  1.00  0.00     0.029 A 
ATOM     40  N   UNL A   1      41.869  29.499  30.542  1.00  0.00    -0.354 N 
ATOM     41  C   UNL A   1      41.445  25.715  28.490  1.00  0.00     0.074 A 
ATOM     42  C   UNL A   1      40.170  25.632  27.813  1.00  0.00     0.031 C 
ATOM     43  C   UNL A   1      41.211  31.502  31.288  1.00  0.00     0.029 A 
ATOM     44  C   UNL A   1      42.296  30.528  31.347  1.00  0.00     0.049 A 
ATOM     45  H   UNL A   1      42.416  28.703  30.348  1.00  0.00     0.167 HD
ATOM     46  C   UNL A   1      42.385  24.742  28.464  1.00  0.00     0.031 A 
ATOM     47  C   UNL A   1      43.424  30.659  32.070  1.00  0.00     0.031 A 
ATOM     48  C   UNL A   1      43.656  24.835  29.128  1.00  0.00     0.049 A 
ATOM     49  C   UNL A   1      44.441  29.550  32.052  1.00  0.00     0.074 A 
ATOM     50  C   UNL A   1      44.699  23.927  29.123  1.00  0.00     0.029 A 
ATOM     51  N   UNL A   1      44.056  25.903  29.916  1.00  0.00    -0.354 N 
ATOM     52  N   UNL A   1      44.405  28.406  31.412  1.00  0.00    -0.248 NA
ATOM     53  C   UNL A   1      45.659  29.753  32.849  1.00  0.00     0.031 C 
ATOM     54  C   UNL A   1      45.709  24.419  29.954  1.00  0.00     0.029 A 
ATOM     55  C   UNL A   1      45.323  25.668  30.419  1.00  0.00     0.049 A 
ATOM     56  H   UNL A   1      43.519  26.710  30.090  1.00  0.00     0.167 HD
ATOM     57  C   UNL A   1      45.610  27.775  31.692  1.00  0.00     0.074 A 
ATOM     58  C   UNL A   1      46.356  28.662  32.560  1.00  0.00     0.031 C 
ATOM     59  C   UNL A   1      46.061  26.572  31.262  1.00  0.00     0.031 A 
BRANCH  46  60
ATOM     60  C   UNL A   1      42.064  23.485  27.703  1.00  0.00    -0.014 A 
ATOM     61  C   UNL A   1      42.454  23.322  26.363  1.00  0.00     0.009 A 
ATOM     62  C   UNL A   1      41.390  22.435  28.345  1.00  0.00     0.009 A 
ATOM     63  C   UNL A   1      42.137  22.150  25.672  1.00  0.00     0.001 A 
ATOM     64  C   UNL A   1      41.105  21.252  27.662  1.00  0.00     0.001 A 
ATOM     65  C   UNL A   1      41.469  21.114  26.323  1.00  0.00     0.000 A 
ENDBRANCH  46  60
BRANCH  47  66
ATOM     66  C   UNL A   1      43.657  31.889  32.874  1.00  0.00    -0.014 A 
ATOM     67  C   UNL A   1      44.311  32.994  32.306  1.00  0.00     0.009 A 
ATOM     68  C   UNL A   1      43.239  31.963  34.211  1.00  0.00     0.009 A 
ATOM     69  C   UNL A   1      44.566  34.136  33.071  1.00  0.00     0.001 A 
ATOM     70  C   UNL A   1      43.466  33.118  34.963  1.00  0.00     0.001 A 
ATOM     71  C   UNL A   1      44.140  34.198  34.396  1.00  0.00     0.000 A 
ENDBRANCH  47  66
BRANCH  59  72
ATOM     72  C   UNL A   1      47.452  26.164  31.657  1.00  0.00    -0.014 A 
ATOM     73  C   UNL A   1      47.704  25.448  32.835  1.00  0.00     0.009 A 
ATOM     74  C   UNL A   1      48.516  26.429  30.778  1.00  0.00     0.009 A 
ATOM     75  C   UNL A   1      49.000  25.022  33.135  1.00  0.00     0.001 A 
ATOM     76  C   UNL A   1      49.803  25.975  31.065  1.00  0.00     0.001 A 
ATOM     77  C   UNL A   1      50.045  25.277  32.247  1.00  0.00     0.000 A 
ENDBRANCH  59  72
ENDBRANCH  33  34
ENDBRANCH  25  28
ENDBRANCH  23  24
ENDBRANCH  22  23
ENDBRANCH   1  22
TORSDOF 13
ENDMDL
MODEL 3
REMARK VINA RESULT:     -10.5      4.256     10.232
REMARK SMILES Cc1noc(C)c1CNc1cnc(C(=O)NCCCNC(=O)c2ccc(-c3c4nc(c(-c5ccccc5)c5ccc([nH]5)c(-c5ccccc5)c5nc(c(-c6ccccc6)c6ccc3[nH]6)C=C5)C=C4)cc2)cn1
REMARK SMILES IDX 17 1 16 2 14 3 15 4 13 6 10 7 11 8 72 9 12 10 71 11 9 12
REMARK SMILES IDX 8 14 7 15 1 16 2 17 3 18 4 19 5 20 6 21 18 22 19 23 20 24
REMARK SMILES IDX 21 25 22 27 23 28 24 29 70 30 25 31 69 32 26 33 27 34 28 35
REMARK SMILES IDX 63 36 29 37 68 38 62 39 64 40 30 41 67 42 61 43 60 44 31 46
REMARK SMILES IDX 53 47 38 48 52 49 39 50 42 51 51 52 65 53 40 54 41 55 50 57
REMARK SMILES IDX 66 58 43 59 32 60 33 61 37 62 34 63 36 64 35 65 54 66 55 67
REMARK SMILES IDX 59 68 56 69 58 70 57 71 44 72 45 73 49 74 46 75 48 76 47 77
REMARK H PARENT 16 5 9 13 20 26 64 45 42 56
REMARK Flexibility Score: inf
ROOT
ATOM      1  C   UNL A   1      34.853  24.587  25.360  1.00  0.00     0.118 C 
ENDROOT
BRANCH   1   2
ATOM      2  N   UNL A   1      33.622  24.482  26.126  1.00  0.00    -0.351 N 
ATOM      3  C   UNL A   1      32.471  25.236  26.086  1.00  0.00     0.271 C 
ATOM      4  O   UNL A   1      31.557  24.929  26.855  1.00  0.00    -0.267 OA
ATOM      5  H   UNL A   1      33.610  23.751  26.785  1.00  0.00     0.163 HD
BRANCH   3   6
ATOM      6  C   UNL A   1      32.278  26.368  25.137  1.00  0.00     0.146 A 
ATOM      7  C   UNL A   1      31.741  28.531  23.587  1.00  0.00     0.144 A 
ATOM      8  C   UNL A   1      31.621  27.224  23.118  1.00  0.00     0.158 A 
ATOM      9  N   UNL A   1      32.200  28.762  24.832  1.00  0.00    -0.235 NA
ATOM     10  N   UNL A   1      31.887  26.126  23.864  1.00  0.00    -0.246 NA
ATOM     11  C   UNL A   1      32.455  27.665  25.598  1.00  0.00     0.147 A 
BRANCH   7  12
ATOM     12  N   UNL A   1      31.377  29.645  22.869  1.00  0.00    -0.365 N 
ATOM     13  H   UNL A   1      31.884  30.482  22.978  1.00  0.00     0.162 HD
BRANCH  12  14
ATOM     14  C   UNL A   1      30.254  29.600  21.952  1.00  0.00     0.156 C 
BRANCH  14  15
ATOM     15  C   UNL A   1      28.946  29.977  22.548  1.00  0.00     0.037 A 
ATOM     16  C   UNL A   1      28.039  27.654  23.344  1.00  0.00     0.071 C 
ATOM     17  C   UNL A   1      27.980  29.123  23.151  1.00  0.00     0.086 A 
ATOM     18  N   UNL A   1      26.912  29.814  23.570  1.00  0.00    -0.085 NA
ATOM     19  O   UNL A   1      27.164  31.132  23.245  1.00  0.00    -0.361 OA
ATOM     20  C   UNL A   1      28.373  31.228  22.634  1.00  0.00     0.138 A 
ATOM     21  C   UNL A   1      28.788  32.577  22.208  1.00  0.00     0.091 C 
ENDBRANCH  14  15
ENDBRANCH  12  14
ENDBRANCH   7  12
ENDBRANCH   3   6
ENDBRANCH   1   2
BRANCH   1  22
ATOM     22  C   UNL A   1      35.941  23.681  25.924  1.00  0.00     0.042 C 
BRANCH  22  23
ATOM     23  C   UNL A   1      37.173  23.618  25.026  1.00  0.00     0.118 C 
BRANCH  23  24
ATOM     24  N   UNL A   1      38.169  22.670  25.520  1.00  0.00    -0.352 N 
ATOM     25  C   UNL A   1      39.315  22.891  26.238  1.00  0.00     0.251 C 
ATOM     26  H   UNL A   1      37.989  21.727  25.304  1.00  0.00     0.163 HD
ATOM     27  O   UNL A   1      40.143  21.990  26.370  1.00  0.00    -0.269 OA
BRANCH  25  28
ATOM     28  C   UNL A   1      39.560  24.210  26.847  1.00  0.00     0.039 A 
ATOM     29  C   UNL A   1      39.083  24.473  28.134  1.00  0.00     0.014 A 
ATOM     30  C   UNL A   1      40.248  25.195  26.134  1.00  0.00     0.014 A 
ATOM     31  C   UNL A   1      39.355  25.705  28.734  1.00  0.00     0.010 A 
ATOM     32  C   UNL A   1      40.588  26.386  26.762  1.00  0.00     0.010 A 
ATOM     33  C   UNL A   1      40.138  26.657  28.063  1.00  0.00    -0.014 A 
BRANCH  33  34
ATOM     34  C   UNL A   1      40.485  27.964  28.671  1.00  0.00     0.031 A 
ATOM     35  C   UNL A   1      41.830  28.140  29.319  1.00  0.00     0.074 A 
ATOM     36  C   UNL A   1      39.565  28.944  28.736  1.00  0.00     0.049 A 
ATOM     37  N   UNL A   1      42.270  29.125  30.059  1.00  0.00    -0.248 NA
ATOM     38  C   UNL A   1      42.798  27.045  29.136  1.00  0.00     0.031 C 
ATOM     39  C   UNL A   1      38.220  28.891  28.160  1.00  0.00     0.029 A 
ATOM     40  N   UNL A   1      39.617  30.174  29.344  1.00  0.00    -0.354 N 
ATOM     41  C   UNL A   1      43.548  28.752  30.457  1.00  0.00     0.074 A 
ATOM     42  C   UNL A   1      43.795  27.434  29.914  1.00  0.00     0.031 C 
ATOM     43  C   UNL A   1      37.581  30.040  28.432  1.00  0.00     0.029 A 
ATOM     44  C   UNL A   1      38.446  30.886  29.246  1.00  0.00     0.049 A 
ATOM     45  H   UNL A   1      40.419  30.515  29.805  1.00  0.00     0.167 HD
ATOM     46  C   UNL A   1      44.441  29.450  31.196  1.00  0.00     0.031 A 
ATOM     47  C   UNL A   1      38.102  32.076  29.774  1.00  0.00     0.031 A 
ATOM     48  C   UNL A   1      44.194  30.766  31.721  1.00  0.00     0.049 A 
ATOM     49  C   UNL A   1      39.099  32.820  30.620  1.00  0.00     0.074 A 
ATOM     50  C   UNL A   1      45.050  31.579  32.440  1.00  0.00     0.029 A 
ATOM     51  N   UNL A   1      43.002  31.458  31.581  1.00  0.00    -0.354 N 
ATOM     52  N   UNL A   1      40.321  32.478  30.950  1.00  0.00    -0.248 NA
ATOM     53  C   UNL A   1      38.674  34.120  31.160  1.00  0.00     0.031 C 
ATOM     54  C   UNL A   1      44.357  32.743  32.784  1.00  0.00     0.029 A 
ATOM     55  C   UNL A   1      43.092  32.683  32.218  1.00  0.00     0.049 A 
ATOM     56  H   UNL A   1      42.209  31.128  31.099  1.00  0.00     0.167 HD
ATOM     57  C   UNL A   1      40.824  33.536  31.696  1.00  0.00     0.074 A 
ATOM     58  C   UNL A   1      39.776  34.532  31.770  1.00  0.00     0.031 C 
ATOM     59  C   UNL A   1      42.048  33.673  32.261  1.00  0.00     0.031 A 
BRANCH  46  60
ATOM     60  C   UNL A   1      45.762  28.795  31.492  1.00  0.00    -0.014 A 
ATOM     61  C   UNL A   1      46.866  28.959  30.640  1.00  0.00     0.009 A 
ATOM     62  C   UNL A   1      45.913  28.031  32.659  1.00  0.00     0.009 A 
ATOM     63  C   UNL A   1      48.081  28.333  30.929  1.00  0.00     0.001 A 
ATOM     64  C   UNL A   1      47.139  27.436  32.963  1.00  0.00     0.001 A 
ATOM     65  C   UNL A   1      48.219  27.578  32.093  1.00  0.00     0.000 A 
ENDBRANCH  46  60
BRANCH  47  66
ATOM     66  C   UNL A   1      36.751  32.643  29.519  1.00  0.00    -0.014 A 
ATOM     67  C   UNL A   1      36.485  33.334  28.326  1.00  0.00     0.009 A 
ATOM     68  C   UNL A   1      35.723  32.506  30.465  1.00  0.00     0.009 A 
ATOM     69  C   UNL A   1      35.228  33.903  28.101  1.00  0.00     0.001 A 
ATOM     70  C   UNL A   1      34.458  33.047  30.223  1.00  0.00     0.001 A 
ATOM     71  C   UNL A   1      34.215  33.754  29.047  1.00  0.00     0.000 A 
ENDBRANCH  47  66
BRANCH  59  72
ATOM     72  C   UNL A   1      42.359  34.971  32.951  1.00  0.00    -0.014 A 
ATOM     73  C   UNL A   1      41.972  35.213  34.277  1.00  0.00     0.009 A 
ATOM     74  C   UNL A   1      43.135  35.931  32.280  1.00  0.00     0.009 A 
ATOM     75  C   UNL A   1      42.341  36.401  34.911  1.00  0.00     0.001 A 
ATOM     76  C   UNL A   1      43.528  37.103  32.926  1.00  0.00     0.001 A 
ATOM     77  C   UNL A   1      43.125  37.340  34.240  1.00  0.00     0.000 A 
ENDBRANCH  59  72
ENDBRANCH  33  34
ENDBRANCH  25  28
ENDBRANCH  23  24
ENDBRANCH  22  23
ENDBRANCH   1  22
TORSDOF 13
ENDMDL
