MODEL 1
REMARK VINA RESULT:     -12.4      0.000      0.000
REMARK SMILES COC(=O)c1ccc([C@H]2CC(=O)Nc3c(C(=O)NCCCNC(=O)c4ccc(-c5c6nc(c(-c7ccccc7)c7ccc([nH]7)c(-c7ccccc7)c7nc(c(-c8ccccc8)c8ccc5[nH]8)C=C7)C=C6)cc4)cn(-c4ccccc4)c32)cc1
REMARK SMILES IDX 19 1 18 2 16 3 17 4 15 6 9 7 10 8 81 9 11 10 14 11 74 12
REMARK SMILES IDX 12 13 13 14 73 15 8 17 5 18 6 19 83 20 7 21 82 22 3 23 4 24
REMARK SMILES IDX 2 25 1 26 75 27 76 28 80 29 77 30 79 31 78 32 20 33 21 34
REMARK SMILES IDX 22 35 23 36 24 38 25 39 26 40 72 41 27 42 71 43 28 44 29 45
REMARK SMILES IDX 30 46 65 47 31 48 70 49 64 50 66 51 32 52 69 53 63 54 62 55
REMARK SMILES IDX 33 57 55 58 40 59 54 60 41 61 44 62 53 63 67 64 42 65 43 66
REMARK SMILES IDX 52 68 68 69 45 70 34 71 35 72 39 73 36 74 38 75 37 76 56 77
REMARK SMILES IDX 57 78 61 79 58 80 60 81 59 82 46 83 47 84 51 85 48 86 50 87
REMARK SMILES IDX 49 88
REMARK H PARENT 18 5 13 16 22 37 66 56 44 67
REMARK Flexibility Score: inf
ROOT
ATOM      1  C   UNL A   1      33.788  29.829  26.815  1.00  0.00     0.118 C 
ENDROOT
BRANCH   1   2
ATOM      2  N   UNL A   1      32.703  29.260  27.576  1.00  0.00    -0.352 N 
ATOM      3  C   UNL A   1      32.021  28.078  27.496  1.00  0.00     0.254 C 
ATOM      4  O   UNL A   1      31.195  27.907  28.399  1.00  0.00    -0.269 OA
ATOM      5  H   UNL A   1      32.388  29.844  28.303  1.00  0.00     0.163 HD
BRANCH   3   6
ATOM      6  C   UNL A   1      32.195  27.060  26.448  1.00  0.00     0.081 A 
ATOM      7  C   UNL A   1      31.577  24.494  23.788  1.00  0.00     0.078 C 
ATOM      8  C   UNL A   1      30.067  24.710  23.609  1.00  0.00     0.115 C 
ATOM      9  C   UNL A   1      32.134  25.440  24.828  1.00  0.00     0.055 A 
ATOM     10  C   UNL A   1      29.620  26.126  23.813  1.00  0.00     0.225 C 
ATOM     11  C   UNL A   1      31.453  26.521  25.350  1.00  0.00     0.076 A 
ATOM     12  N   UNL A   1      33.393  25.424  25.397  1.00  0.00    -0.317 N 
ATOM     13  O   UNL A   1      28.624  26.587  23.256  1.00  0.00    -0.275 OA
ATOM     14  N   UNL A   1      30.268  26.864  24.755  1.00  0.00    -0.324 N 
ATOM     15  C   UNL A   1      33.366  26.297  26.456  1.00  0.00     0.107 A 
ATOM     16  H   UNL A   1      29.852  27.713  25.031  1.00  0.00     0.170 HD
BRANCH   7  17
ATOM     17  C   UNL A   1      31.771  22.998  24.044  1.00  0.00    -0.038 A 
ATOM     18  C   UNL A   1      32.272  20.254  24.429  1.00  0.00     0.060 A 
ATOM     19  C   UNL A   1      32.345  20.807  23.148  1.00  0.00     0.016 A 
ATOM     20  C   UNL A   1      31.890  21.057  25.506  1.00  0.00     0.016 A 
ATOM     21  C   UNL A   1      32.109  22.169  22.960  1.00  0.00     0.005 A 
ATOM     22  C   UNL A   1      31.597  22.405  25.303  1.00  0.00     0.005 A 
BRANCH  18  23
ATOM     23  C   UNL A   1      32.632  18.822  24.602  1.00  0.00     0.337 C 
ATOM     24  O   UNL A   1      32.259  18.141  25.537  1.00  0.00    -0.246 OA
BRANCH  23  25
ATOM     25  O   UNL A   1      33.425  18.416  23.577  1.00  0.00    -0.465 OA
ATOM     26  C   UNL A   1      33.581  17.002  23.490  1.00  0.00     0.282 C 
ENDBRANCH  23  25
ENDBRANCH  18  23
ENDBRANCH   7  17
BRANCH  12  27
ATOM     27  C   UNL A   1      34.479  24.583  25.056  1.00  0.00     0.045 A 
ATOM     28  C   UNL A   1      34.903  24.495  23.727  1.00  0.00     0.026 A 
ATOM     29  C   UNL A   1      35.024  23.740  26.034  1.00  0.00     0.026 A 
ATOM     30  C   UNL A   1      35.813  23.507  23.357  1.00  0.00     0.002 A 
ATOM     31  C   UNL A   1      35.908  22.732  25.648  1.00  0.00     0.002 A 
ATOM     32  C   UNL A   1      36.290  22.608  24.310  1.00  0.00     0.000 A 
ENDBRANCH  12  27
ENDBRANCH   3   6
ENDBRANCH   1   2
BRANCH   1  33
ATOM     33  C   UNL A   1      34.025  31.306  27.174  1.00  0.00     0.042 C 
BRANCH  33  34
ATOM     34  C   UNL A   1      35.285  31.484  27.991  1.00  0.00     0.118 C 
BRANCH  34  35
ATOM     35  N   UNL A   1      35.004  32.247  29.213  1.00  0.00    -0.352 N 
ATOM     36  C   UNL A   1      35.457  32.024  30.494  1.00  0.00     0.251 C 
ATOM     37  H   UNL A   1      34.411  33.025  29.101  1.00  0.00     0.163 HD
ATOM     38  O   UNL A   1      34.892  32.520  31.460  1.00  0.00    -0.269 OA
BRANCH  36  39
ATOM     39  C   UNL A   1      36.635  31.168  30.674  1.00  0.00     0.039 A 
ATOM     40  C   UNL A   1      36.505  29.793  30.878  1.00  0.00     0.014 A 
ATOM     41  C   UNL A   1      37.886  31.768  30.571  1.00  0.00     0.014 A 
ATOM     42  C   UNL A   1      37.657  29.018  30.898  1.00  0.00     0.010 A 
ATOM     43  C   UNL A   1      38.991  30.986  30.389  1.00  0.00     0.010 A 
ATOM     44  C   UNL A   1      38.895  29.623  30.627  1.00  0.00    -0.014 A 
BRANCH  44  45
ATOM     45  C   UNL A   1      40.102  28.827  30.484  1.00  0.00     0.031 A 
ATOM     46  C   UNL A   1      40.824  28.580  31.759  1.00  0.00     0.074 A 
ATOM     47  C   UNL A   1      40.418  28.187  29.338  1.00  0.00     0.049 A 
ATOM     48  N   UNL A   1      41.982  29.035  32.101  1.00  0.00    -0.248 NA
ATOM     49  C   UNL A   1      40.121  27.864  32.838  1.00  0.00     0.031 C 
ATOM     50  C   UNL A   1      39.629  28.061  28.105  1.00  0.00     0.029 A 
ATOM     51  N   UNL A   1      41.485  27.390  29.082  1.00  0.00    -0.354 N 
ATOM     52  C   UNL A   1      42.249  28.502  33.357  1.00  0.00     0.074 A 
ATOM     53  C   UNL A   1      41.009  27.944  33.832  1.00  0.00     0.031 C 
ATOM     54  C   UNL A   1      40.113  27.041  27.361  1.00  0.00     0.029 A 
ATOM     55  C   UNL A   1      41.342  26.570  27.970  1.00  0.00     0.049 A 
ATOM     56  H   UNL A   1      42.296  27.393  29.639  1.00  0.00     0.167 HD
ATOM     57  C   UNL A   1      43.530  28.341  33.793  1.00  0.00     0.031 A 
ATOM     58  C   UNL A   1      42.158  25.548  27.610  1.00  0.00     0.031 A 
ATOM     59  C   UNL A   1      44.461  29.086  32.983  1.00  0.00     0.049 A 
ATOM     60  C   UNL A   1      43.448  25.752  28.314  1.00  0.00     0.074 A 
ATOM     61  C   UNL A   1      44.608  30.421  32.658  1.00  0.00     0.029 A 
ATOM     62  N   UNL A   1      45.157  28.388  32.023  1.00  0.00    -0.354 N 
ATOM     63  N   UNL A   1      44.246  26.750  28.064  1.00  0.00    -0.248 NA
ATOM     64  C   UNL A   1      43.605  25.137  29.624  1.00  0.00     0.031 C 
ATOM     65  C   UNL A   1      44.932  30.422  31.268  1.00  0.00     0.029 A 
ATOM     66  C   UNL A   1      45.058  29.095  30.852  1.00  0.00     0.049 A 
ATOM     67  H   UNL A   1      45.638  27.539  32.153  1.00  0.00     0.167 HD
ATOM     68  C   UNL A   1      44.677  27.177  29.312  1.00  0.00     0.074 A 
ATOM     69  C   UNL A   1      44.318  26.093  30.229  1.00  0.00     0.031 C 
ATOM     70  C   UNL A   1      45.010  28.483  29.543  1.00  0.00     0.031 A 
BRANCH  57  71
ATOM     71  C   UNL A   1      43.976  27.191  34.660  1.00  0.00    -0.014 A 
ATOM     72  C   UNL A   1      44.908  27.443  35.684  1.00  0.00     0.009 A 
ATOM     73  C   UNL A   1      43.749  25.842  34.331  1.00  0.00     0.009 A 
ATOM     74  C   UNL A   1      45.632  26.405  36.283  1.00  0.00     0.001 A 
ATOM     75  C   UNL A   1      44.438  24.800  34.956  1.00  0.00     0.001 A 
ATOM     76  C   UNL A   1      45.403  25.084  35.911  1.00  0.00     0.000 A 
ENDBRANCH  57  71
BRANCH  58  77
ATOM     77  C   UNL A   1      41.800  24.267  26.961  1.00  0.00    -0.014 A 
ATOM     78  C   UNL A   1      42.675  23.649  26.053  1.00  0.00     0.009 A 
ATOM     79  C   UNL A   1      40.718  23.505  27.444  1.00  0.00     0.009 A 
ATOM     80  C   UNL A   1      42.497  22.310  25.676  1.00  0.00     0.001 A 
ATOM     81  C   UNL A   1      40.540  22.170  27.065  1.00  0.00     0.001 A 
ATOM     82  C   UNL A   1      41.438  21.567  26.193  1.00  0.00     0.000 A 
ENDBRANCH  58  77
BRANCH  70  83
ATOM     83  C   UNL A   1      45.100  29.421  28.362  1.00  0.00    -0.014 A 
ATOM     84  C   UNL A   1      43.997  30.121  27.839  1.00  0.00     0.009 A 
ATOM     85  C   UNL A   1      46.375  29.737  27.870  1.00  0.00     0.009 A 
ATOM     86  C   UNL A   1      44.167  31.085  26.838  1.00  0.00     0.001 A 
ATOM     87  C   UNL A   1      46.548  30.713  26.887  1.00  0.00     0.001 A 
ATOM     88  C   UNL A   1      45.443  31.384  26.367  1.00  0.00     0.000 A 
ENDBRANCH  70  83
ENDBRANCH  44  45
ENDBRANCH  36  39
ENDBRANCH  34  35
ENDBRANCH  33  34
ENDBRANCH   1  33
TORSDOF 14
ENDMDL
MODEL 2
REMARK VINA RESULT:     -12.3      1.774      2.462
REMARK SMILES COC(=O)c1ccc([C@H]2CC(=O)Nc3c(C(=O)NCCCNC(=O)c4ccc(-c5c6nc(c(-c7ccccc7)c7ccc([nH]7)c(-c7ccccc7)c7nc(c(-c8ccccc8)c8ccc5[nH]8)C=C7)C=C6)cc4)cn(-c4ccccc4)c32)cc1
REMARK SMILES IDX 19 1 18 2 16 3 17 4 15 6 9 7 10 8 81 9 11 10 14 11 74 12
REMARK SMILES IDX 12 13 13 14 73 15 8 17 5 18 6 19 83 20 7 21 82 22 3 23 4 24
REMARK SMILES IDX 2 25 1 26 75 27 76 28 80 29 77 30 79 31 78 32 20 33 21 34
REMARK SMILES IDX 22 35 23 36 24 38 25 39 26 40 72 41 27 42 71 43 28 44 29 45
REMARK SMILES IDX 30 46 65 47 31 48 70 49 64 50 66 51 32 52 69 53 63 54 62 55
REMARK SMILES IDX 33 57 55 58 40 59 54 60 41 61 44 62 53 63 67 64 42 65 43 66
REMARK SMILES IDX 52 68 68 69 45 70 34 71 35 72 39 73 36 74 38 75 37 76 56 77
REMARK SMILES IDX 57 78 61 79 58 80 60 81 59 82 46 83 47 84 51 85 48 86 50 87
REMARK SMILES IDX 49 88
REMARK H PARENT 18 5 13 16 22 37 66 56 44 67
REMARK Flexibility Score: inf
ROOT
ATOM      1  C   UNL A   1      32.046  29.677  25.196  1.00  0.00     0.118 C 
ENDROOT
BRANCH   1   2
ATOM      2  N   UNL A   1      30.857  29.081  24.640  1.00  0.00    -0.352 N 
ATOM      3  C   UNL A   1      30.562  27.826  24.184  1.00  0.00     0.254 C 
ATOM      4  O   UNL A   1      29.380  27.671  23.856  1.00  0.00    -0.269 OA
ATOM      5  H   UNL A   1      30.101  29.708  24.574  1.00  0.00     0.163 HD
BRANCH   3   6
ATOM      6  C   UNL A   1      31.520  26.716  24.057  1.00  0.00     0.081 A 
ATOM      7  C   UNL A   1      33.545  23.845  22.755  1.00  0.00     0.078 C 
ATOM      8  C   UNL A   1      33.148  23.938  21.274  1.00  0.00     0.115 C 
ATOM      9  C   UNL A   1      32.870  24.932  23.560  1.00  0.00     0.055 A 
ATOM     10  C   UNL A   1      32.892  25.335  20.793  1.00  0.00     0.225 C 
ATOM     11  C   UNL A   1      32.207  26.015  23.017  1.00  0.00     0.076 A 
ATOM     12  N   UNL A   1      32.826  25.062  24.935  1.00  0.00    -0.317 N 
ATOM     13  O   UNL A   1      33.058  25.666  19.619  1.00  0.00    -0.275 OA
ATOM     14  N   UNL A   1      32.327  26.212  21.667  1.00  0.00    -0.324 N 
ATOM     15  C   UNL A   1      31.904  26.039  25.218  1.00  0.00     0.107 A 
ATOM     16  H   UNL A   1      31.976  27.055  21.300  1.00  0.00     0.170 HD
BRANCH   7  17
ATOM     17  C   UNL A   1      33.275  22.402  23.183  1.00  0.00    -0.038 A 
ATOM     18  C   UNL A   1      32.835  19.784  24.123  1.00  0.00     0.060 A 
ATOM     19  C   UNL A   1      34.080  20.394  24.302  1.00  0.00     0.016 A 
ATOM     20  C   UNL A   1      31.833  20.456  23.422  1.00  0.00     0.016 A 
ATOM     21  C   UNL A   1      34.292  21.695  23.847  1.00  0.00     0.005 A 
ATOM     22  C   UNL A   1      32.070  21.734  22.917  1.00  0.00     0.005 A 
BRANCH  18  23
ATOM     23  C   UNL A   1      32.617  18.437  24.713  1.00  0.00     0.337 C 
ATOM     24  O   UNL A   1      32.529  18.230  25.907  1.00  0.00    -0.246 OA
BRANCH  23  25
ATOM     25  O   UNL A   1      32.541  17.506  23.727  1.00  0.00    -0.465 OA
ATOM     26  C   UNL A   1      33.766  16.820  23.483  1.00  0.00     0.282 C 
ENDBRANCH  23  25
ENDBRANCH  18  23
ENDBRANCH   7  17
BRANCH  12  27
ATOM     27  C   UNL A   1      33.494  24.264  25.895  1.00  0.00     0.045 A 
ATOM     28  C   UNL A   1      34.891  24.251  25.941  1.00  0.00     0.026 A 
ATOM     29  C   UNL A   1      32.748  23.388  26.694  1.00  0.00     0.026 A 
ATOM     30  C   UNL A   1      35.547  23.305  26.724  1.00  0.00     0.002 A 
ATOM     31  C   UNL A   1      33.413  22.421  27.448  1.00  0.00     0.002 A 
ATOM     32  C   UNL A   1      34.809  22.371  27.451  1.00  0.00     0.000 A 
ENDBRANCH  12  27
ENDBRANCH   3   6
ENDBRANCH   1   2
BRANCH   1  33
ATOM     33  C   UNL A   1      32.135  29.463  26.716  1.00  0.00     0.042 C 
BRANCH  33  34
ATOM     34  C   UNL A   1      33.527  29.743  27.237  1.00  0.00     0.118 C 
BRANCH  34  35
ATOM     35  N   UNL A   1      33.854  31.167  27.098  1.00  0.00    -0.352 N 
ATOM     36  C   UNL A   1      34.893  31.873  27.661  1.00  0.00     0.251 C 
ATOM     37  H   UNL A   1      33.247  31.688  26.524  1.00  0.00     0.163 HD
ATOM     38  O   UNL A   1      34.860  33.094  27.737  1.00  0.00    -0.269 OA
BRANCH  36  39
ATOM     39  C   UNL A   1      36.045  31.123  28.175  1.00  0.00     0.039 A 
ATOM     40  C   UNL A   1      36.202  29.763  27.900  1.00  0.00     0.014 A 
ATOM     41  C   UNL A   1      37.005  31.831  28.890  1.00  0.00     0.014 A 
ATOM     42  C   UNL A   1      37.382  29.144  28.291  1.00  0.00     0.010 A 
ATOM     43  C   UNL A   1      38.236  31.276  29.091  1.00  0.00     0.010 A 
ATOM     44  C   UNL A   1      38.404  29.917  28.866  1.00  0.00    -0.014 A 
BRANCH  44  45
ATOM     45  C   UNL A   1      39.709  29.344  29.146  1.00  0.00     0.031 A 
ATOM     46  C   UNL A   1      39.994  29.156  30.592  1.00  0.00     0.074 A 
ATOM     47  C   UNL A   1      40.497  28.825  28.180  1.00  0.00     0.049 A 
ATOM     48  N   UNL A   1      40.872  29.781  31.301  1.00  0.00    -0.248 NA
ATOM     49  C   UNL A   1      39.108  28.277  31.376  1.00  0.00     0.031 C 
ATOM     50  C   UNL A   1      40.201  28.632  26.754  1.00  0.00     0.029 A 
ATOM     51  N   UNL A   1      41.710  28.233  28.307  1.00  0.00    -0.354 N 
ATOM     52  C   UNL A   1      40.793  29.237  32.579  1.00  0.00     0.074 A 
ATOM     53  C   UNL A   1      39.583  28.455  32.611  1.00  0.00     0.031 C 
ATOM     54  C   UNL A   1      41.077  27.747  26.227  1.00  0.00     0.029 A 
ATOM     55  C   UNL A   1      42.093  27.458  27.219  1.00  0.00     0.049 A 
ATOM     56  H   UNL A   1      42.275  28.342  29.106  1.00  0.00     0.167 HD
ATOM     57  C   UNL A   1      41.861  29.271  33.423  1.00  0.00     0.031 A 
ATOM     58  C   UNL A   1      43.149  26.608  27.165  1.00  0.00     0.031 A 
ATOM     59  C   UNL A   1      42.864  30.202  32.969  1.00  0.00     0.049 A 
ATOM     60  C   UNL A   1      44.072  26.988  28.263  1.00  0.00     0.074 A 
ATOM     61  C   UNL A   1      42.875  31.557  32.703  1.00  0.00     0.029 A 
ATOM     62  N   UNL A   1      43.952  29.680  32.308  1.00  0.00    -0.354 N 
ATOM     63  N   UNL A   1      44.720  28.117  28.288  1.00  0.00    -0.248 NA
ATOM     64  C   UNL A   1      43.887  26.342  29.554  1.00  0.00     0.031 C 
ATOM     65  C   UNL A   1      43.639  31.683  31.504  1.00  0.00     0.029 A 
ATOM     66  C   UNL A   1      44.128  30.419  31.167  1.00  0.00     0.049 A 
ATOM     67  H   UNL A   1      44.502  28.919  32.601  1.00  0.00     0.167 HD
ATOM     68  C   UNL A   1      44.626  28.547  29.605  1.00  0.00     0.074 A 
ATOM     69  C   UNL A   1      44.177  27.372  30.355  1.00  0.00     0.031 C 
ATOM     70  C   UNL A   1      44.629  29.876  29.924  1.00  0.00     0.031 A 
BRANCH  57  71
ATOM     71  C   UNL A   1      42.186  28.169  34.400  1.00  0.00    -0.014 A 
ATOM     72  C   UNL A   1      42.753  26.979  33.907  1.00  0.00     0.009 A 
ATOM     73  C   UNL A   1      41.697  28.135  35.719  1.00  0.00     0.009 A 
ATOM     74  C   UNL A   1      42.751  25.802  34.664  1.00  0.00     0.001 A 
ATOM     75  C   UNL A   1      41.731  26.973  36.494  1.00  0.00     0.001 A 
ATOM     76  C   UNL A   1      42.230  25.797  35.954  1.00  0.00     0.000 A 
ENDBRANCH  57  71
BRANCH  58  77
ATOM     77  C   UNL A   1      43.259  25.319  26.445  1.00  0.00    -0.014 A 
ATOM     78  C   UNL A   1      44.081  25.193  25.314  1.00  0.00     0.009 A 
ATOM     79  C   UNL A   1      42.772  24.134  27.032  1.00  0.00     0.009 A 
ATOM     80  C   UNL A   1      44.434  23.931  24.815  1.00  0.00     0.001 A 
ATOM     81  C   UNL A   1      43.124  22.876  26.532  1.00  0.00     0.001 A 
ATOM     82  C   UNL A   1      43.967  22.772  25.433  1.00  0.00     0.000 A 
ENDBRANCH  58  77
BRANCH  70  83
ATOM     83  C   UNL A   1      44.942  30.875  28.834  1.00  0.00    -0.014 A 
ATOM     84  C   UNL A   1      46.224  31.415  28.618  1.00  0.00     0.009 A 
ATOM     85  C   UNL A   1      43.943  31.149  27.889  1.00  0.00     0.009 A 
ATOM     86  C   UNL A   1      46.484  32.223  27.505  1.00  0.00     0.001 A 
ATOM     87  C   UNL A   1      44.208  31.939  26.767  1.00  0.00     0.001 A 
ATOM     88  C   UNL A   1      45.477  32.480  26.578  1.00  0.00     0.000 A 
ENDBRANCH  70  83
ENDBRANCH  44  45
ENDBRANCH  36  39
ENDBRANCH  34  35
ENDBRANCH  33  34
ENDBRANCH   1  33
TORSDOF 14
ENDMDL
MODEL 3
REMARK VINA RESULT:     -12.0      5.237      9.959
REMARK SMILES COC(=O)c1ccc([C@H]2CC(=O)Nc3c(C(=O)NCCCNC(=O)c4ccc(-c5c6nc(c(-c7ccccc7)c7ccc([nH]7)c(-c7ccccc7)c7nc(c(-c8ccccc8)c8ccc5[nH]8)C=C7)C=C6)cc4)cn(-c4ccccc4)c32)cc1
REMARK SMILES IDX 19 1 18 2 16 3 17 4 15 6 9 7 10 8 81 9 11 10 14 11 74 12
REMARK SMILES IDX 12 13 13 14 73 15 8 17 5 18 6 19 83 20 7 21 82 22 3 23 4 24
REMARK SMILES IDX 2 25 1 26 75 27 76 28 80 29 77 30 79 31 78 32 20 33 21 34
REMARK SMILES IDX 22 35 23 36 24 38 25 39 26 40 72 41 27 42 71 43 28 44 29 45
REMARK SMILES IDX 30 46 65 47 31 48 70 49 64 50 66 51 32 52 69 53 63 54 62 55
REMARK SMILES IDX 33 57 55 58 40 59 54 60 41 61 44 62 53 63 67 64 42 65 43 66
REMARK SMILES IDX 52 68 68 69 45 70 34 71 35 72 39 73 36 74 38 75 37 76 56 77
REMARK SMILES IDX 57 78 61 79 58 80 60 81 59 82 46 83 47 84 51 85 48 86 50 87
REMARK SMILES IDX 49 88
REMARK H PARENT 18 5 13 16 22 37 66 56 44 67
REMARK Flexibility Score: inf
ROOT
ATOM      1  C   UNL A   1      35.453  32.245  28.028  1.00  0.00     0.118 C 
ENDROOT
BRANCH   1   2
ATOM      2  N   UNL A   1      34.559  32.963  28.902  1.00  0.00    -0.352 N 
ATOM      3  C   UNL A   1      34.731  33.602  30.099  1.00  0.00     0.254 C 
ATOM      4  O   UNL A   1      33.724  34.191  30.508  1.00  0.00    -0.269 OA
ATOM      5  H   UNL A   1      33.634  33.002  28.568  1.00  0.00     0.163 HD
BRANCH   3   6
ATOM      6  C   UNL A   1      35.972  33.616  30.890  1.00  0.00     0.081 A 
ATOM      7  C   UNL A   1      39.568  33.564  31.940  1.00  0.00     0.078 C 
ATOM      8  C   UNL A   1      40.213  33.698  30.553  1.00  0.00     0.115 C 
ATOM      9  C   UNL A   1      38.060  33.574  31.833  1.00  0.00     0.055 A 
ATOM     10  C   UNL A   1      39.423  34.526  29.585  1.00  0.00     0.225 C 
ATOM     11  C   UNL A   1      37.356  33.920  30.697  1.00  0.00     0.076 A 
ATOM     12  N   UNL A   1      37.140  33.289  32.825  1.00  0.00    -0.317 N 
ATOM     13  O   UNL A   1      39.955  35.146  28.664  1.00  0.00    -0.275 OA
ATOM     14  N   UNL A   1      38.066  34.464  29.660  1.00  0.00    -0.324 N 
ATOM     15  C   UNL A   1      35.914  33.178  32.216  1.00  0.00     0.107 A 
ATOM     16  H   UNL A   1      37.553  34.840  28.909  1.00  0.00     0.170 HD
BRANCH   7  17
ATOM     17  C   UNL A   1      40.204  32.336  32.595  1.00  0.00    -0.038 A 
ATOM     18  C   UNL A   1      41.330  30.138  33.948  1.00  0.00     0.060 A 
ATOM     19  C   UNL A   1      41.655  31.441  34.335  1.00  0.00     0.016 A 
ATOM     20  C   UNL A   1      40.493  29.934  32.849  1.00  0.00     0.016 A 
ATOM     21  C   UNL A   1      41.086  32.529  33.672  1.00  0.00     0.005 A 
ATOM     22  C   UNL A   1      39.975  31.025  32.153  1.00  0.00     0.005 A 
BRANCH  18  23
ATOM     23  C   UNL A   1      41.875  29.009  34.745  1.00  0.00     0.337 C 
ATOM     24  O   UNL A   1      42.828  29.108  35.493  1.00  0.00    -0.246 OA
BRANCH  23  25
ATOM     25  O   UNL A   1      41.156  27.881  34.503  1.00  0.00    -0.465 OA
ATOM     26  C   UNL A   1      41.911  26.678  34.621  1.00  0.00     0.282 C 
ENDBRANCH  23  25
ENDBRANCH  18  23
ENDBRANCH   7  17
BRANCH  12  27
ATOM     27  C   UNL A   1      37.403  33.028  34.190  1.00  0.00     0.045 A 
ATOM     28  C   UNL A   1      37.661  34.086  35.067  1.00  0.00     0.026 A 
ATOM     29  C   UNL A   1      37.540  31.701  34.618  1.00  0.00     0.026 A 
ATOM     30  C   UNL A   1      38.139  33.820  36.347  1.00  0.00     0.002 A 
ATOM     31  C   UNL A   1      38.051  31.445  35.891  1.00  0.00     0.002 A 
ATOM     32  C   UNL A   1      38.363  32.503  36.747  1.00  0.00     0.000 A 
ENDBRANCH  12  27
ENDBRANCH   3   6
ENDBRANCH   1   2
BRANCH   1  33
ATOM     33  C   UNL A   1      34.841  30.917  27.552  1.00  0.00     0.042 C 
BRANCH  33  34
ATOM     34  C   UNL A   1      35.447  29.735  28.274  1.00  0.00     0.118 C 
BRANCH  34  35
ATOM     35  N   UNL A   1      35.642  30.043  29.696  1.00  0.00    -0.352 N 
ATOM     36  C   UNL A   1      36.652  29.633  30.538  1.00  0.00     0.251 C 
ATOM     37  H   UNL A   1      34.958  30.622  30.103  1.00  0.00     0.163 HD
ATOM     38  O   UNL A   1      36.520  29.681  31.753  1.00  0.00    -0.269 OA
BRANCH  36  39
ATOM     39  C   UNL A   1      37.894  29.129  29.939  1.00  0.00     0.039 A 
ATOM     40  C   UNL A   1      38.563  29.851  28.949  1.00  0.00     0.014 A 
ATOM     41  C   UNL A   1      38.411  27.940  30.441  1.00  0.00     0.014 A 
ATOM     42  C   UNL A   1      39.804  29.394  28.526  1.00  0.00     0.010 A 
ATOM     43  C   UNL A   1      39.708  27.607  30.172  1.00  0.00     0.010 A 
ATOM     44  C   UNL A   1      40.379  28.282  29.163  1.00  0.00    -0.014 A 
BRANCH  44  45
ATOM     45  C   UNL A   1      41.738  27.866  28.861  1.00  0.00     0.031 A 
ATOM     46  C   UNL A   1      41.830  26.593  28.100  1.00  0.00     0.074 A 
ATOM     47  C   UNL A   1      42.804  28.670  29.057  1.00  0.00     0.049 A 
ATOM     48  N   UNL A   1      42.304  25.468  28.517  1.00  0.00    -0.248 NA
ATOM     49  C   UNL A   1      41.193  26.518  26.773  1.00  0.00     0.031 C 
ATOM     50  C   UNL A   1      42.833  30.076  29.482  1.00  0.00     0.029 A 
ATOM     51  N   UNL A   1      44.110  28.423  28.788  1.00  0.00    -0.354 N 
ATOM     52  C   UNL A   1      42.212  24.590  27.442  1.00  0.00     0.074 A 
ATOM     53  C   UNL A   1      41.367  25.231  26.468  1.00  0.00     0.031 C 
ATOM     54  C   UNL A   1      44.037  30.614  29.184  1.00  0.00     0.029 A 
ATOM     55  C   UNL A   1      44.913  29.554  28.724  1.00  0.00     0.049 A 
ATOM     56  H   UNL A   1      44.461  27.514  28.648  1.00  0.00     0.167 HD
ATOM     57  C   UNL A   1      43.047  23.518  27.339  1.00  0.00     0.031 A 
ATOM     58  C   UNL A   1      46.194  29.611  28.281  1.00  0.00     0.031 A 
ATOM     59  C   UNL A   1      43.718  23.250  28.586  1.00  0.00     0.049 A 
ATOM     60  C   UNL A   1      46.731  28.229  28.320  1.00  0.00     0.074 A 
ATOM     61  C   UNL A   1      43.296  22.954  29.868  1.00  0.00     0.029 A 
ATOM     62  N   UNL A   1      45.013  23.699  28.712  1.00  0.00    -0.354 N 
ATOM     63  N   UNL A   1      46.928  27.573  29.428  1.00  0.00    -0.248 NA
ATOM     64  C   UNL A   1      46.577  27.411  27.127  1.00  0.00     0.031 C 
ATOM     65  C   UNL A   1      44.153  23.718  30.716  1.00  0.00     0.029 A 
ATOM     66  C   UNL A   1      45.103  24.354  29.913  1.00  0.00     0.049 A 
ATOM     67  H   UNL A   1      45.740  23.573  28.061  1.00  0.00     0.167 HD
ATOM     68  C   UNL A   1      46.475  26.289  29.161  1.00  0.00     0.074 A 
ATOM     69  C   UNL A   1      46.351  26.226  27.704  1.00  0.00     0.031 C 
ATOM     70  C   UNL A   1      45.959  25.495  30.148  1.00  0.00     0.031 A 
BRANCH  57  71
ATOM     71  C   UNL A   1      43.574  22.996  26.026  1.00  0.00    -0.014 A 
ATOM     72  C   UNL A   1      43.517  21.611  25.782  1.00  0.00     0.009 A 
ATOM     73  C   UNL A   1      44.377  23.758  25.157  1.00  0.00     0.009 A 
ATOM     74  C   UNL A   1      44.290  21.016  24.778  1.00  0.00     0.001 A 
ATOM     75  C   UNL A   1      45.117  23.174  24.127  1.00  0.00     0.001 A 
ATOM     76  C   UNL A   1      45.097  21.797  23.957  1.00  0.00     0.000 A 
ENDBRANCH  57  71
BRANCH  58  77
ATOM     77  C   UNL A   1      46.866  30.704  27.543  1.00  0.00    -0.014 A 
ATOM     78  C   UNL A   1      46.121  31.724  26.928  1.00  0.00     0.009 A 
ATOM     79  C   UNL A   1      48.254  30.902  27.675  1.00  0.00     0.009 A 
ATOM     80  C   UNL A   1      46.735  32.910  26.501  1.00  0.00     0.001 A 
ATOM     81  C   UNL A   1      48.867  32.085  27.247  1.00  0.00     0.001 A 
ATOM     82  C   UNL A   1      48.105  33.096  26.673  1.00  0.00     0.000 A 
ENDBRANCH  58  77
BRANCH  70  83
ATOM     83  C   UNL A   1      46.075  25.962  31.580  1.00  0.00    -0.014 A 
ATOM     84  C   UNL A   1      47.132  25.598  32.434  1.00  0.00     0.009 A 
ATOM     85  C   UNL A   1      45.174  26.941  32.025  1.00  0.00     0.009 A 
ATOM     86  C   UNL A   1      47.263  26.177  33.702  1.00  0.00     0.001 A 
ATOM     87  C   UNL A   1      45.316  27.534  33.282  1.00  0.00     0.001 A 
ATOM     88  C   UNL A   1      46.358  27.148  34.123  1.00  0.00     0.000 A 
ENDBRANCH  70  83
ENDBRANCH  44  45
ENDBRANCH  36  39
ENDBRANCH  34  35
ENDBRANCH  33  34
ENDBRANCH   1  33
TORSDOF 14
ENDMDL
