MODEL 1
REMARK VINA RESULT:     -10.9      0.000      0.000
REMARK SMILES CC[C@@H](Nc1ccc([N+](=O)[O-])c(N)n1)C(=O)NCCCNC(=O)c1ccc(-c2c3nc(c(-c4ccccc4)c4ccc([nH]4)c(-c4ccccc4)c4nc(c(-c5ccccc5)c5ccc2[nH]5)C=C4)C=C3)cc1
REMARK SMILES IDX 18 1 17 2 15 3 16 4 3 6 2 7 1 8 4 9 5 11 6 12 14 13 7 14
REMARK SMILES IDX 12 15 8 16 13 17 9 20 10 21 11 22 19 23 20 24 21 25 22 26
REMARK SMILES IDX 23 28 24 29 25 30 71 31 26 32 70 33 27 34 28 35 29 36 64 37
REMARK SMILES IDX 30 38 69 39 63 40 65 41 31 42 68 43 62 44 61 45 32 47 54 48
REMARK SMILES IDX 39 49 53 50 40 51 43 52 52 53 66 54 41 55 42 56 51 58 67 59
REMARK SMILES IDX 44 60 33 61 34 62 38 63 35 64 37 65 36 66 55 67 56 68 60 69
REMARK SMILES IDX 57 70 59 71 58 72 45 73 46 74 50 75 47 76 49 77 48 78
REMARK H PARENT 17 5 4 10 13 18 13 19 21 27 65 46 43 57
REMARK Flexibility Score: inf
ROOT
ATOM      1  C   UNL A   1      35.756  21.085  25.254  1.00  0.00     0.117 C 
ENDROOT
BRANCH   1   2
ATOM      2  N   UNL A   1      35.551  22.027  24.159  1.00  0.00    -0.354 N 
ATOM      3  C   UNL A   1      34.463  22.784  23.805  1.00  0.00     0.242 C 
ATOM      4  O   UNL A   1      34.566  23.489  22.797  1.00  0.00    -0.273 OA
ATOM      5  H   UNL A   1      36.331  22.140  23.570  1.00  0.00     0.163 HD
BRANCH   3   6
ATOM      6  C   UNL A   1      33.143  22.747  24.628  1.00  0.00     0.169 C 
BRANCH   6   7
ATOM      7  C   UNL A   1      32.617  24.190  24.722  1.00  0.00     0.031 C 
ATOM      8  C   UNL A   1      31.185  24.457  24.299  1.00  0.00     0.006 C 
ENDBRANCH   6   7
BRANCH   6   9
ATOM      9  N   UNL A   1      32.242  21.784  24.002  1.00  0.00    -0.358 N 
ATOM     10  H   UNL A   1      31.461  22.181  23.553  1.00  0.00     0.162 HD
BRANCH   9  11
ATOM     11  C   UNL A   1      32.307  20.429  23.938  1.00  0.00     0.129 A 
ATOM     12  C   UNL A   1      32.322  19.700  22.761  1.00  0.00     0.054 A 
ATOM     13  N   UNL A   1      32.420  19.827  25.141  1.00  0.00    -0.208 NA
ATOM     14  C   UNL A   1      32.621  18.343  22.808  1.00  0.00     0.093 A 
ATOM     15  C   UNL A   1      32.653  18.497  25.209  1.00  0.00     0.204 A 
ATOM     16  C   UNL A   1      32.820  17.747  24.053  1.00  0.00     0.311 A 
BRANCH  15  17
ATOM     17  N   UNL A   1      32.802  18.011  26.492  1.00  0.00    -0.378 N 
ATOM     18  H   UNL A   1      32.625  17.062  26.682  1.00  0.00     0.158 HD
ATOM     19  H   UNL A   1      33.085  18.614  27.217  1.00  0.00     0.158 HD
ENDBRANCH  15  17
BRANCH  16  20
ATOM     20  N   UNL A   1      33.218  16.356  24.111  1.00  0.00     0.066 N 
ATOM     21  O   UNL A   1      32.720  15.640  24.993  1.00  0.00    -0.258 OA
ATOM     22  O   UNL A   1      34.017  15.962  23.247  1.00  0.00    -0.258 OA
ENDBRANCH  16  20
ENDBRANCH   9  11
ENDBRANCH   6   9
ENDBRANCH   3   6
ENDBRANCH   1   2
BRANCH   1  23
ATOM     23  C   UNL A   1      36.913  20.121  25.001  1.00  0.00     0.042 C 
BRANCH  23  24
ATOM     24  C   UNL A   1      38.292  20.704  25.270  1.00  0.00     0.118 C 
BRANCH  24  25
ATOM     25  N   UNL A   1      39.304  19.679  25.480  1.00  0.00    -0.352 N 
ATOM     26  C   UNL A   1      40.582  19.779  25.961  1.00  0.00     0.251 C 
ATOM     27  H   UNL A   1      39.024  18.767  25.238  1.00  0.00     0.163 HD
ATOM     28  O   UNL A   1      41.335  18.804  25.876  1.00  0.00    -0.269 OA
BRANCH  26  29
ATOM     29  C   UNL A   1      41.087  21.034  26.559  1.00  0.00     0.039 A 
ATOM     30  C   UNL A   1      41.646  22.004  25.719  1.00  0.00     0.014 A 
ATOM     31  C   UNL A   1      41.058  21.251  27.940  1.00  0.00     0.014 A 
ATOM     32  C   UNL A   1      42.115  23.206  26.254  1.00  0.00     0.010 A 
ATOM     33  C   UNL A   1      41.447  22.483  28.461  1.00  0.00     0.010 A 
ATOM     34  C   UNL A   1      41.988  23.471  27.626  1.00  0.00    -0.014 A 
BRANCH  34  35
ATOM     35  C   UNL A   1      42.418  24.770  28.205  1.00  0.00     0.031 A 
ATOM     36  C   UNL A   1      41.419  25.874  28.420  1.00  0.00     0.074 A 
ATOM     37  C   UNL A   1      43.721  24.979  28.480  1.00  0.00     0.049 A 
ATOM     38  N   UNL A   1      41.618  27.094  28.857  1.00  0.00    -0.248 NA
ATOM     39  C   UNL A   1      40.019  25.581  28.079  1.00  0.00     0.031 C 
ATOM     40  C   UNL A   1      44.797  24.006  28.285  1.00  0.00     0.029 A 
ATOM     41  N   UNL A   1      44.361  26.086  28.981  1.00  0.00    -0.354 N 
ATOM     42  C   UNL A   1      40.376  27.715  28.821  1.00  0.00     0.074 A 
ATOM     43  C   UNL A   1      39.439  26.756  28.278  1.00  0.00     0.031 C 
ATOM     44  C   UNL A   1      45.958  24.548  28.685  1.00  0.00     0.029 A 
ATOM     45  C   UNL A   1      45.716  25.918  29.127  1.00  0.00     0.049 A 
ATOM     46  H   UNL A   1      43.893  26.920  29.213  1.00  0.00     0.167 HD
ATOM     47  C   UNL A   1      40.040  28.965  29.220  1.00  0.00     0.031 A 
ATOM     48  C   UNL A   1      46.663  26.772  29.560  1.00  0.00     0.031 A 
ATOM     49  C   UNL A   1      40.965  29.917  29.774  1.00  0.00     0.049 A 
ATOM     50  C   UNL A   1      46.266  28.157  29.987  1.00  0.00     0.074 A 
ATOM     51  C   UNL A   1      40.707  31.185  30.264  1.00  0.00     0.029 A 
ATOM     52  N   UNL A   1      42.328  29.704  29.910  1.00  0.00    -0.354 N 
ATOM     53  N   UNL A   1      45.076  28.706  30.007  1.00  0.00    -0.248 NA
ATOM     54  C   UNL A   1      47.343  29.037  30.460  1.00  0.00     0.031 C 
ATOM     55  C   UNL A   1      41.923  31.760  30.648  1.00  0.00     0.029 A 
ATOM     56  C   UNL A   1      42.929  30.828  30.452  1.00  0.00     0.049 A 
ATOM     57  H   UNL A   1      42.799  28.876  29.658  1.00  0.00     0.167 HD
ATOM     58  C   UNL A   1      45.257  29.984  30.521  1.00  0.00     0.074 A 
ATOM     59  C   UNL A   1      46.669  30.122  30.813  1.00  0.00     0.031 C 
ATOM     60  C   UNL A   1      44.335  30.954  30.734  1.00  0.00     0.031 A 
BRANCH  47  61
ATOM     61  C   UNL A   1      38.602  29.379  29.061  1.00  0.00    -0.014 A 
ATOM     62  C   UNL A   1      38.116  29.876  27.841  1.00  0.00     0.009 A 
ATOM     63  C   UNL A   1      37.711  29.234  30.137  1.00  0.00     0.009 A 
ATOM     64  C   UNL A   1      36.778  30.255  27.714  1.00  0.00     0.001 A 
ATOM     65  C   UNL A   1      36.367  29.585  29.998  1.00  0.00     0.001 A 
ATOM     66  C   UNL A   1      35.905  30.106  28.790  1.00  0.00     0.000 A 
ENDBRANCH  47  61
BRANCH  48  67
ATOM     67  C   UNL A   1      48.082  26.337  29.627  1.00  0.00    -0.014 A 
ATOM     68  C   UNL A   1      48.599  25.778  30.805  1.00  0.00     0.009 A 
ATOM     69  C   UNL A   1      48.927  26.477  28.515  1.00  0.00     0.009 A 
ATOM     70  C   UNL A   1      49.940  25.393  30.878  1.00  0.00     0.001 A 
ATOM     71  C   UNL A   1      50.259  26.064  28.581  1.00  0.00     0.001 A 
ATOM     72  C   UNL A   1      50.766  25.531  29.764  1.00  0.00     0.000 A 
ENDBRANCH  48  67
BRANCH  60  73
ATOM     73  C   UNL A   1      44.818  32.241  31.341  1.00  0.00    -0.014 A 
ATOM     74  C   UNL A   1      45.228  33.318  30.539  1.00  0.00     0.009 A 
ATOM     75  C   UNL A   1      44.826  32.389  32.736  1.00  0.00     0.009 A 
ATOM     76  C   UNL A   1      45.666  34.506  31.126  1.00  0.00     0.001 A 
ATOM     77  C   UNL A   1      45.238  33.588  33.319  1.00  0.00     0.001 A 
ATOM     78  C   UNL A   1      45.667  34.643  32.514  1.00  0.00     0.000 A 
ENDBRANCH  60  73
ENDBRANCH  34  35
ENDBRANCH  26  29
ENDBRANCH  24  25
ENDBRANCH  23  24
ENDBRANCH   1  23
TORSDOF 15
ENDMDL
MODEL 2
REMARK VINA RESULT:     -10.8      2.226      6.902
REMARK SMILES CC[C@@H](Nc1ccc([N+](=O)[O-])c(N)n1)C(=O)NCCCNC(=O)c1ccc(-c2c3nc(c(-c4ccccc4)c4ccc([nH]4)c(-c4ccccc4)c4nc(c(-c5ccccc5)c5ccc2[nH]5)C=C4)C=C3)cc1
REMARK SMILES IDX 18 1 17 2 15 3 16 4 3 6 2 7 1 8 4 9 5 11 6 12 14 13 7 14
REMARK SMILES IDX 12 15 8 16 13 17 9 20 10 21 11 22 19 23 20 24 21 25 22 26
REMARK SMILES IDX 23 28 24 29 25 30 71 31 26 32 70 33 27 34 28 35 29 36 64 37
REMARK SMILES IDX 30 38 69 39 63 40 65 41 31 42 68 43 62 44 61 45 32 47 54 48
REMARK SMILES IDX 39 49 53 50 40 51 43 52 52 53 66 54 41 55 42 56 51 58 67 59
REMARK SMILES IDX 44 60 33 61 34 62 38 63 35 64 37 65 36 66 55 67 56 68 60 69
REMARK SMILES IDX 57 70 59 71 58 72 45 73 46 74 50 75 47 76 49 77 48 78
REMARK H PARENT 17 5 4 10 13 18 13 19 21 27 65 46 43 57
REMARK Flexibility Score: inf
ROOT
ATOM      1  C   UNL A   1      34.543  23.625  25.541  1.00  0.00     0.117 C 
ENDROOT
BRANCH   1   2
ATOM      2  N   UNL A   1      34.521  23.643  24.083  1.00  0.00    -0.354 N 
ATOM      3  C   UNL A   1      33.612  23.147  23.183  1.00  0.00     0.242 C 
ATOM      4  O   UNL A   1      33.866  23.289  21.983  1.00  0.00    -0.273 OA
ATOM      5  H   UNL A   1      35.294  24.091  23.671  1.00  0.00     0.163 HD
BRANCH   3   6
ATOM      6  C   UNL A   1      32.319  22.418  23.650  1.00  0.00     0.169 C 
BRANCH   6   7
ATOM      7  C   UNL A   1      31.149  23.407  23.492  1.00  0.00     0.031 C 
ATOM      8  C   UNL A   1      30.807  24.301  24.668  1.00  0.00     0.006 C 
ENDBRANCH   6   7
BRANCH   6   9
ATOM      9  N   UNL A   1      32.201  21.172  22.898  1.00  0.00    -0.358 N 
ATOM     10  H   UNL A   1      32.008  21.285  21.939  1.00  0.00     0.162 HD
BRANCH   9  11
ATOM     11  C   UNL A   1      32.315  19.883  23.307  1.00  0.00     0.129 A 
ATOM     12  C   UNL A   1      32.416  18.796  22.455  1.00  0.00     0.054 A 
ATOM     13  N   UNL A   1      32.386  19.735  24.647  1.00  0.00    -0.208 NA
ATOM     14  C   UNL A   1      32.758  17.554  22.977  1.00  0.00     0.093 A 
ATOM     15  C   UNL A   1      32.660  18.523  25.178  1.00  0.00     0.204 A 
ATOM     16  C   UNL A   1      32.912  17.431  24.357  1.00  0.00     0.311 A 
BRANCH  15  17
ATOM     17  N   UNL A   1      32.759  18.513  26.554  1.00  0.00    -0.378 N 
ATOM     18  H   UNL A   1      33.402  19.105  27.005  1.00  0.00     0.158 HD
ATOM     19  H   UNL A   1      32.187  17.911  27.084  1.00  0.00     0.158 HD
ENDBRANCH  15  17
BRANCH  16  20
ATOM     20  N   UNL A   1      33.354  16.165  24.906  1.00  0.00     0.066 N 
ATOM     21  O   UNL A   1      32.701  15.670  25.836  1.00  0.00    -0.258 OA
ATOM     22  O   UNL A   1      34.349  15.641  24.382  1.00  0.00    -0.258 OA
ENDBRANCH  16  20
ENDBRANCH   9  11
ENDBRANCH   6   9
ENDBRANCH   3   6
ENDBRANCH   1   2
BRANCH   1  23
ATOM     23  C   UNL A   1      35.958  23.639  26.115  1.00  0.00     0.042 C 
BRANCH  23  24
ATOM     24  C   UNL A   1      37.064  23.577  25.072  1.00  0.00     0.118 C 
BRANCH  24  25
ATOM     25  N   UNL A   1      38.135  22.664  25.444  1.00  0.00    -0.352 N 
ATOM     26  C   UNL A   1      39.313  22.899  26.103  1.00  0.00     0.251 C 
ATOM     27  H   UNL A   1      37.990  21.727  25.180  1.00  0.00     0.163 HD
ATOM     28  O   UNL A   1      40.167  22.009  26.144  1.00  0.00    -0.269 OA
BRANCH  26  29
ATOM     29  C   UNL A   1      39.591  24.202  26.746  1.00  0.00     0.039 A 
ATOM     30  C   UNL A   1      39.137  24.418  28.052  1.00  0.00     0.014 A 
ATOM     31  C   UNL A   1      40.255  25.228  26.068  1.00  0.00     0.014 A 
ATOM     32  C   UNL A   1      39.400  25.632  28.692  1.00  0.00     0.010 A 
ATOM     33  C   UNL A   1      40.590  26.404  26.735  1.00  0.00     0.010 A 
ATOM     34  C   UNL A   1      40.159  26.623  28.051  1.00  0.00    -0.014 A 
BRANCH  34  35
ATOM     35  C   UNL A   1      40.509  27.893  28.738  1.00  0.00     0.031 A 
ATOM     36  C   UNL A   1      41.862  28.069  29.370  1.00  0.00     0.074 A 
ATOM     37  C   UNL A   1      39.584  28.869  28.848  1.00  0.00     0.049 A 
ATOM     38  N   UNL A   1      42.325  29.081  30.063  1.00  0.00    -0.248 NA
ATOM     39  C   UNL A   1      42.813  26.955  29.227  1.00  0.00     0.031 C 
ATOM     40  C   UNL A   1      38.223  28.812  28.312  1.00  0.00     0.029 A 
ATOM     41  N   UNL A   1      39.652  30.098  29.453  1.00  0.00    -0.354 N 
ATOM     42  C   UNL A   1      43.608  28.716  30.454  1.00  0.00     0.074 A 
ATOM     43  C   UNL A   1      43.834  27.374  29.962  1.00  0.00     0.031 C 
ATOM     44  C   UNL A   1      37.593  29.965  28.590  1.00  0.00     0.029 A 
ATOM     45  C   UNL A   1      38.490  30.825  29.356  1.00  0.00     0.049 A 
ATOM     46  H   UNL A   1      40.457  30.430  29.914  1.00  0.00     0.167 HD
ATOM     47  C   UNL A   1      44.522  29.436  31.145  1.00  0.00     0.031 A 
ATOM     48  C   UNL A   1      38.175  32.043  29.835  1.00  0.00     0.031 A 
ATOM     49  C   UNL A   1      44.307  30.776  31.623  1.00  0.00     0.049 A 
ATOM     50  C   UNL A   1      39.204  32.818  30.608  1.00  0.00     0.074 A 
ATOM     51  C   UNL A   1      45.196  31.610  32.279  1.00  0.00     0.029 A 
ATOM     52  N   UNL A   1      43.118  31.476  31.498  1.00  0.00    -0.354 N 
ATOM     53  N   UNL A   1      40.435  32.484  30.913  1.00  0.00    -0.248 NA
ATOM     54  C   UNL A   1      38.804  34.146  31.095  1.00  0.00     0.031 C 
ATOM     55  C   UNL A   1      44.527  32.796  32.597  1.00  0.00     0.029 A 
ATOM     56  C   UNL A   1      43.241  32.723  32.087  1.00  0.00     0.049 A 
ATOM     57  H   UNL A   1      42.305  31.137  31.055  1.00  0.00     0.167 HD
ATOM     58  C   UNL A   1      40.963  33.568  31.602  1.00  0.00     0.074 A 
ATOM     59  C   UNL A   1      39.925  34.577  31.656  1.00  0.00     0.031 C 
ATOM     60  C   UNL A   1      42.199  33.716  32.138  1.00  0.00     0.031 A 
BRANCH  47  61
ATOM     61  C   UNL A   1      45.845  28.781  31.434  1.00  0.00    -0.014 A 
ATOM     62  C   UNL A   1      46.929  28.903  30.550  1.00  0.00     0.009 A 
ATOM     63  C   UNL A   1      46.022  28.063  32.628  1.00  0.00     0.009 A 
ATOM     64  C   UNL A   1      48.150  28.288  30.837  1.00  0.00     0.001 A 
ATOM     65  C   UNL A   1      47.252  27.474  32.926  1.00  0.00     0.001 A 
ATOM     66  C   UNL A   1      48.311  27.578  32.025  1.00  0.00     0.000 A 
ENDBRANCH  47  61
BRANCH  48  67
ATOM     67  C   UNL A   1      36.827  32.614  29.586  1.00  0.00    -0.014 A 
ATOM     68  C   UNL A   1      36.540  33.253  28.370  1.00  0.00     0.009 A 
ATOM     69  C   UNL A   1      35.820  32.525  30.559  1.00  0.00     0.009 A 
ATOM     70  C   UNL A   1      35.281  33.813  28.144  1.00  0.00     0.001 A 
ATOM     71  C   UNL A   1      34.553  33.061  30.319  1.00  0.00     0.001 A 
ATOM     72  C   UNL A   1      34.288  33.712  29.116  1.00  0.00     0.000 A 
ENDBRANCH  48  67
BRANCH  60  73
ATOM     73  C   UNL A   1      42.508  35.027  32.803  1.00  0.00    -0.014 A 
ATOM     74  C   UNL A   1      42.060  35.311  34.102  1.00  0.00     0.009 A 
ATOM     75  C   UNL A   1      43.293  35.976  32.131  1.00  0.00     0.009 A 
ATOM     76  C   UNL A   1      42.366  36.534  34.702  1.00  0.00     0.001 A 
ATOM     77  C   UNL A   1      43.622  37.187  32.744  1.00  0.00     0.001 A 
ATOM     78  C   UNL A   1      43.149  37.468  34.026  1.00  0.00     0.000 A 
ENDBRANCH  60  73
ENDBRANCH  34  35
ENDBRANCH  26  29
ENDBRANCH  24  25
ENDBRANCH  23  24
ENDBRANCH   1  23
TORSDOF 15
ENDMDL
MODEL 3
REMARK VINA RESULT:     -10.8      3.922      8.413
REMARK SMILES CC[C@@H](Nc1ccc([N+](=O)[O-])c(N)n1)C(=O)NCCCNC(=O)c1ccc(-c2c3nc(c(-c4ccccc4)c4ccc([nH]4)c(-c4ccccc4)c4nc(c(-c5ccccc5)c5ccc2[nH]5)C=C4)C=C3)cc1
REMARK SMILES IDX 18 1 17 2 15 3 16 4 3 6 2 7 1 8 4 9 5 11 6 12 14 13 7 14
REMARK SMILES IDX 12 15 8 16 13 17 9 20 10 21 11 22 19 23 20 24 21 25 22 26
REMARK SMILES IDX 23 28 24 29 25 30 71 31 26 32 70 33 27 34 28 35 29 36 64 37
REMARK SMILES IDX 30 38 69 39 63 40 65 41 31 42 68 43 62 44 61 45 32 47 54 48
REMARK SMILES IDX 39 49 53 50 40 51 43 52 52 53 66 54 41 55 42 56 51 58 67 59
REMARK SMILES IDX 44 60 33 61 34 62 38 63 35 64 37 65 36 66 55 67 56 68 60 69
REMARK SMILES IDX 57 70 59 71 58 72 45 73 46 74 50 75 47 76 49 77 48 78
REMARK H PARENT 17 5 4 10 13 18 13 19 21 27 65 46 43 57
REMARK Flexibility Score: inf
ROOT
ATOM      1  C   UNL A   1      33.210  26.481  25.904  1.00  0.00     0.117 C 
ENDROOT
BRANCH   1   2
ATOM      2  N   UNL A   1      31.895  26.108  26.415  1.00  0.00    -0.354 N 
ATOM      3  C   UNL A   1      30.701  25.890  25.776  1.00  0.00     0.242 C 
ATOM      4  O   UNL A   1      29.727  25.602  26.477  1.00  0.00    -0.273 OA
ATOM      5  H   UNL A   1      31.858  25.990  27.392  1.00  0.00     0.163 HD
BRANCH   3   6
ATOM      6  C   UNL A   1      30.570  26.016  24.231  1.00  0.00     0.169 C 
BRANCH   6   7
ATOM      7  C   UNL A   1      30.941  24.652  23.623  1.00  0.00     0.031 C 
ATOM      8  C   UNL A   1      32.293  24.514  22.949  1.00  0.00     0.006 C 
ENDBRANCH   6   7
BRANCH   6   9
ATOM      9  N   UNL A   1      29.228  26.502  23.925  1.00  0.00    -0.358 N 
ATOM     10  H   UNL A   1      28.499  25.897  24.193  1.00  0.00     0.162 HD
BRANCH   9  11
ATOM     11  C   UNL A   1      28.822  27.654  23.331  1.00  0.00     0.129 A 
ATOM     12  C   UNL A   1      27.539  28.167  23.412  1.00  0.00     0.054 A 
ATOM     13  N   UNL A   1      29.806  28.315  22.685  1.00  0.00    -0.208 NA
ATOM     14  C   UNL A   1      27.295  29.459  22.961  1.00  0.00     0.093 A 
ATOM     15  C   UNL A   1      29.572  29.551  22.188  1.00  0.00     0.204 A 
ATOM     16  C   UNL A   1      28.342  30.167  22.371  1.00  0.00     0.311 A 
BRANCH  15  17
ATOM     17  N   UNL A   1      30.671  30.144  21.599  1.00  0.00    -0.378 N 
ATOM     18  H   UNL A   1      31.423  30.447  22.156  1.00  0.00     0.158 HD
ATOM     19  H   UNL A   1      30.699  30.265  20.623  1.00  0.00     0.158 HD
ENDBRANCH  15  17
BRANCH  16  20
ATOM     20  N   UNL A   1      28.125  31.545  21.979  1.00  0.00     0.066 N 
ATOM     21  O   UNL A   1      27.690  32.334  22.830  1.00  0.00    -0.258 OA
ATOM     22  O   UNL A   1      28.422  31.852  20.814  1.00  0.00    -0.258 OA
ENDBRANCH  16  20
ENDBRANCH   9  11
ENDBRANCH   6   9
ENDBRANCH   3   6
ENDBRANCH   1   2
BRANCH   1  23
ATOM     23  C   UNL A   1      33.507  27.970  26.059  1.00  0.00     0.042 C 
BRANCH  23  24
ATOM     24  C   UNL A   1      33.311  28.511  27.467  1.00  0.00     0.118 C 
BRANCH  24  25
ATOM     25  N   UNL A   1      33.406  29.963  27.529  1.00  0.00    -0.352 N 
ATOM     26  C   UNL A   1      34.424  30.768  27.966  1.00  0.00     0.251 C 
ATOM     27  H   UNL A   1      32.610  30.443  27.205  1.00  0.00     0.163 HD
ATOM     28  O   UNL A   1      34.217  31.976  28.108  1.00  0.00    -0.269 OA
BRANCH  26  29
ATOM     29  C   UNL A   1      35.759  30.218  28.289  1.00  0.00     0.039 A 
ATOM     30  C   UNL A   1      36.744  30.214  27.295  1.00  0.00     0.014 A 
ATOM     31  C   UNL A   1      36.042  29.668  29.543  1.00  0.00     0.014 A 
ATOM     32  C   UNL A   1      38.020  29.718  27.576  1.00  0.00     0.010 A 
ATOM     33  C   UNL A   1      37.336  29.252  29.847  1.00  0.00     0.010 A 
ATOM     34  C   UNL A   1      38.337  29.264  28.866  1.00  0.00    -0.014 A 
BRANCH  34  35
ATOM     35  C   UNL A   1      39.705  28.795  29.204  1.00  0.00     0.031 A 
ATOM     36  C   UNL A   1      40.659  29.698  29.939  1.00  0.00     0.074 A 
ATOM     37  C   UNL A   1      40.114  27.577  28.796  1.00  0.00     0.049 A 
ATOM     38  N   UNL A   1      41.910  29.487  30.267  1.00  0.00    -0.248 NA
ATOM     39  C   UNL A   1      40.150  31.021  30.335  1.00  0.00     0.031 C 
ATOM     40  C   UNL A   1      39.302  26.617  28.046  1.00  0.00     0.029 A 
ATOM     41  N   UNL A   1      41.320  26.941  28.954  1.00  0.00    -0.354 N 
ATOM     42  C   UNL A   1      42.340  30.653  30.887  1.00  0.00     0.074 A 
ATOM     43  C   UNL A   1      41.234  31.585  30.848  1.00  0.00     0.031 C 
ATOM     44  C   UNL A   1      40.023  25.505  27.831  1.00  0.00     0.029 A 
ATOM     45  C   UNL A   1      41.359  25.688  28.391  1.00  0.00     0.049 A 
ATOM     46  H   UNL A   1      42.085  27.344  29.424  1.00  0.00     0.167 HD
ATOM     47  C   UNL A   1      43.541  30.921  31.452  1.00  0.00     0.031 A 
ATOM     48  C   UNL A   1      42.358  24.787  28.326  1.00  0.00     0.031 A 
ATOM     49  C   UNL A   1      44.638  29.992  31.506  1.00  0.00     0.049 A 
ATOM     50  C   UNL A   1      43.684  25.113  28.952  1.00  0.00     0.074 A 
ATOM     51  C   UNL A   1      45.872  30.150  32.112  1.00  0.00     0.029 A 
ATOM     52  N   UNL A   1      44.633  28.732  30.930  1.00  0.00    -0.354 N 
ATOM     53  N   UNL A   1      44.053  26.196  29.591  1.00  0.00    -0.248 NA
ATOM     54  C   UNL A   1      44.730  24.085  28.857  1.00  0.00     0.031 C 
ATOM     55  C   UNL A   1      46.633  29.005  31.857  1.00  0.00     0.029 A 
ATOM     56  C   UNL A   1      45.852  28.111  31.143  1.00  0.00     0.049 A 
ATOM     57  H   UNL A   1      43.874  28.336  30.440  1.00  0.00     0.167 HD
ATOM     58  C   UNL A   1      45.362  25.969  29.997  1.00  0.00     0.074 A 
ATOM     59  C   UNL A   1      45.717  24.640  29.546  1.00  0.00     0.031 C 
ATOM     60  C   UNL A   1      46.194  26.789  30.685  1.00  0.00     0.031 A 
BRANCH  47  61
ATOM     61  C   UNL A   1      43.734  32.286  32.055  1.00  0.00    -0.014 A 
ATOM     62  C   UNL A   1      44.202  33.363  31.286  1.00  0.00     0.009 A 
ATOM     63  C   UNL A   1      43.405  32.507  33.402  1.00  0.00     0.009 A 
ATOM     64  C   UNL A   1      44.374  34.624  31.864  1.00  0.00     0.001 A 
ATOM     65  C   UNL A   1      43.549  33.774  33.970  1.00  0.00     0.001 A 
ATOM     66  C   UNL A   1      44.044  34.828  33.203  1.00  0.00     0.000 A 
ENDBRANCH  47  61
BRANCH  48  67
ATOM     67  C   UNL A   1      42.138  23.482  27.652  1.00  0.00    -0.014 A 
ATOM     68  C   UNL A   1      41.582  22.403  28.357  1.00  0.00     0.009 A 
ATOM     69  C   UNL A   1      42.483  23.305  26.304  1.00  0.00     0.009 A 
ATOM     70  C   UNL A   1      41.399  21.168  27.732  1.00  0.00     0.001 A 
ATOM     71  C   UNL A   1      42.273  22.077  25.673  1.00  0.00     0.001 A 
ATOM     72  C   UNL A   1      41.739  21.007  26.390  1.00  0.00     0.000 A 
ENDBRANCH  48  67
BRANCH  60  73
ATOM     73  C   UNL A   1      47.559  26.259  31.021  1.00  0.00    -0.014 A 
ATOM     74  C   UNL A   1      48.616  26.327  30.099  1.00  0.00     0.009 A 
ATOM     75  C   UNL A   1      47.799  25.719  32.294  1.00  0.00     0.009 A 
ATOM     76  C   UNL A   1      49.878  25.834  30.437  1.00  0.00     0.001 A 
ATOM     77  C   UNL A   1      49.070  25.254  32.638  1.00  0.00     0.001 A 
ATOM     78  C   UNL A   1      50.105  25.303  31.705  1.00  0.00     0.000 A 
ENDBRANCH  60  73
ENDBRANCH  34  35
ENDBRANCH  26  29
ENDBRANCH  24  25
ENDBRANCH  23  24
ENDBRANCH   1  23
TORSDOF 15
ENDMDL
