MODEL 1
REMARK VINA RESULT:     -11.2      0.000      0.000
REMARK SMILES CCc1nn(-c2ccncn2)c(Cl)c1C(=O)NCCCNC(=O)c1ccc(-c2c3nc(c(-c4ccccc4)c4ccc([nH]4)c(-c4ccccc4)c4nc(c(-c5ccccc5)c5ccc2[nH]5)C=C4)C=C3)cc1
REMARK SMILES IDX 19 1 18 2 17 3 15 4 16 5 14 7 3 8 4 9 5 10 12 11 13 12 2 13
REMARK SMILES IDX 1 14 6 15 7 16 11 17 8 18 10 19 9 20 20 21 21 22 22 23 23 25
REMARK SMILES IDX 24 26 25 27 71 28 26 29 70 30 27 31 28 32 29 33 64 34 30 35
REMARK SMILES IDX 69 36 63 37 65 38 31 39 68 40 62 41 61 42 32 44 54 45 39 46
REMARK SMILES IDX 53 47 40 48 43 49 52 50 66 51 41 52 42 53 51 55 67 56 44 57
REMARK SMILES IDX 33 58 34 59 38 60 35 61 37 62 36 63 55 64 56 65 60 66 57 67
REMARK SMILES IDX 59 68 58 69 45 70 46 71 50 72 47 73 49 74 48 75
REMARK H PARENT 17 6 21 24 65 43 43 54
REMARK Flexibility Score: inf
ROOT
ATOM      1  C   UNL A   1      33.423  29.293  27.290  1.00  0.00     0.042 C 
ENDROOT
BRANCH   1   2
ATOM      2  C   UNL A   1      33.070  30.177  26.095  1.00  0.00     0.118 C 
BRANCH   2   3
ATOM      3  N   UNL A   1      33.627  29.701  24.857  1.00  0.00    -0.352 N 
ATOM      4  C   UNL A   1      33.299  28.758  23.927  1.00  0.00     0.256 C 
ATOM      5  O   UNL A   1      34.042  28.821  22.940  1.00  0.00    -0.269 OA
ATOM      6  H   UNL A   1      34.457  30.175  24.622  1.00  0.00     0.163 HD
BRANCH   4   7
ATOM      7  C   UNL A   1      32.232  27.750  24.006  1.00  0.00     0.100 A 
ATOM      8  C   UNL A   1      30.845  27.623  23.636  1.00  0.00     0.077 A 
ATOM      9  N   UNL A   1      30.357  26.397  23.883  1.00  0.00    -0.169 NA
ATOM     10  N   UNL A   1      31.328  25.747  24.560  1.00  0.00    -0.203 N 
ATOM     11  C   UNL A   1      32.476  26.503  24.581  1.00  0.00     0.147 A 
ATOM     12  Cl  UNL A   1      33.945  25.793  25.132  1.00  0.00    -0.061 Cl
BRANCH   8  13
ATOM     13  C   UNL A   1      29.843  28.570  23.056  1.00  0.00     0.056 C 
ATOM     14  C   UNL A   1      28.403  28.074  23.138  1.00  0.00     0.011 C 
ENDBRANCH   8  13
BRANCH  10  15
ATOM     15  C   UNL A   1      31.062  24.469  25.143  1.00  0.00     0.158 A 
ATOM     16  C   UNL A   1      31.343  23.317  24.429  1.00  0.00     0.069 A 
ATOM     17  N   UNL A   1      30.548  24.438  26.397  1.00  0.00    -0.217 NA
ATOM     18  C   UNL A   1      31.010  22.131  25.040  1.00  0.00     0.117 A 
ATOM     19  C   UNL A   1      30.239  23.227  26.877  1.00  0.00     0.224 A 
ATOM     20  N   UNL A   1      30.439  22.057  26.254  1.00  0.00    -0.245 NA
ENDBRANCH  10  15
ENDBRANCH   4   7
ENDBRANCH   2   3
ENDBRANCH   1   2
BRANCH   1  21
ATOM     21  C   UNL A   1      34.926  29.240  27.534  1.00  0.00     0.118 C 
BRANCH  21  22
ATOM     22  N   UNL A   1      35.335  30.181  28.577  1.00  0.00    -0.352 N 
ATOM     23  C   UNL A   1      36.504  30.220  29.314  1.00  0.00     0.251 C 
ATOM     24  H   UNL A   1      34.683  30.890  28.784  1.00  0.00     0.163 HD
ATOM     25  O   UNL A   1      36.596  30.896  30.314  1.00  0.00    -0.269 OA
BRANCH  23  26
ATOM     26  C   UNL A   1      37.626  29.378  28.865  1.00  0.00     0.039 A 
ATOM     27  C   UNL A   1      38.288  29.697  27.682  1.00  0.00     0.014 A 
ATOM     28  C   UNL A   1      38.088  28.366  29.705  1.00  0.00     0.014 A 
ATOM     29  C   UNL A   1      39.506  29.082  27.414  1.00  0.00     0.010 A 
ATOM     30  C   UNL A   1      39.346  27.836  29.490  1.00  0.00     0.010 A 
ATOM     31  C   UNL A   1      40.069  28.195  28.351  1.00  0.00    -0.014 A 
BRANCH  31  32
ATOM     32  C   UNL A   1      41.476  27.808  28.199  1.00  0.00     0.031 A 
ATOM     33  C   UNL A   1      41.712  26.509  27.498  1.00  0.00     0.074 A 
ATOM     34  C   UNL A   1      42.546  28.587  28.462  1.00  0.00     0.049 A 
ATOM     35  N   UNL A   1      42.191  25.420  28.003  1.00  0.00    -0.248 NA
ATOM     36  C   UNL A   1      41.287  26.379  26.095  1.00  0.00     0.031 C 
ATOM     37  C   UNL A   1      42.575  29.998  28.854  1.00  0.00     0.029 A 
ATOM     38  N   UNL A   1      43.869  28.282  28.323  1.00  0.00    -0.354 N 
ATOM     39  C   UNL A   1      42.306  24.517  26.950  1.00  0.00     0.074 A 
ATOM     40  C   UNL A   1      41.606  25.108  25.837  1.00  0.00     0.031 C 
ATOM     41  C   UNL A   1      43.825  30.484  28.689  1.00  0.00     0.029 A 
ATOM     42  C   UNL A   1      44.712  29.383  28.360  1.00  0.00     0.049 A 
ATOM     43  H   UNL A   1      44.197  27.361  28.207  1.00  0.00     0.167 HD
ATOM     44  C   UNL A   1      43.164  23.460  27.009  1.00  0.00     0.031 A 
ATOM     45  C   UNL A   1      46.046  29.403  28.133  1.00  0.00     0.031 A 
ATOM     46  C   UNL A   1      43.610  23.201  28.355  1.00  0.00     0.049 A 
ATOM     47  C   UNL A   1      46.557  28.031  28.336  1.00  0.00     0.074 A 
ATOM     48  C   UNL A   1      42.989  22.942  29.563  1.00  0.00     0.029 A 
ATOM     49  N   UNL A   1      44.898  23.558  28.674  1.00  0.00    -0.354 N 
ATOM     50  N   UNL A   1      46.625  27.453  29.499  1.00  0.00    -0.248 NA
ATOM     51  C   UNL A   1      46.656  27.142  27.191  1.00  0.00     0.031 C 
ATOM     52  C   UNL A   1      43.771  23.639  30.533  1.00  0.00     0.029 A 
ATOM     53  C   UNL A   1      44.850  24.223  29.868  1.00  0.00     0.049 A 
ATOM     54  H   UNL A   1      45.705  23.370  28.141  1.00  0.00     0.167 HD
ATOM     55  C   UNL A   1      46.318  26.126  29.249  1.00  0.00     0.074 A 
ATOM     56  C   UNL A   1      46.485  25.969  27.806  1.00  0.00     0.031 C 
ATOM     57  C   UNL A   1      45.684  25.360  30.187  1.00  0.00     0.031 A 
BRANCH  44  58
ATOM     58  C   UNL A   1      43.936  22.941  25.814  1.00  0.00    -0.014 A 
ATOM     59  C   UNL A   1      43.991  21.549  25.597  1.00  0.00     0.009 A 
ATOM     60  C   UNL A   1      44.854  23.724  25.092  1.00  0.00     0.009 A 
ATOM     61  C   UNL A   1      44.980  20.972  24.792  1.00  0.00     0.001 A 
ATOM     62  C   UNL A   1      45.813  23.155  24.247  1.00  0.00     0.001 A 
ATOM     63  C   UNL A   1      45.899  21.776  24.126  1.00  0.00     0.000 A 
ENDBRANCH  44  58
BRANCH  45  64
ATOM     64  C   UNL A   1      46.896  30.492  27.618  1.00  0.00    -0.014 A 
ATOM     65  C   UNL A   1      46.371  31.458  26.746  1.00  0.00     0.009 A 
ATOM     66  C   UNL A   1      48.158  30.738  28.190  1.00  0.00     0.009 A 
ATOM     67  C   UNL A   1      47.061  32.650  26.495  1.00  0.00     0.001 A 
ATOM     68  C   UNL A   1      48.851  31.925  27.933  1.00  0.00     0.001 A 
ATOM     69  C   UNL A   1      48.293  32.890  27.100  1.00  0.00     0.000 A 
ENDBRANCH  45  64
BRANCH  57  70
ATOM     70  C   UNL A   1      45.605  25.880  31.601  1.00  0.00    -0.014 A 
ATOM     71  C   UNL A   1      44.586  26.736  32.055  1.00  0.00     0.009 A 
ATOM     72  C   UNL A   1      46.518  25.379  32.543  1.00  0.00     0.009 A 
ATOM     73  C   UNL A   1      44.512  27.113  33.400  1.00  0.00     0.001 A 
ATOM     74  C   UNL A   1      46.429  25.734  33.890  1.00  0.00     0.001 A 
ATOM     75  C   UNL A   1      45.432  26.608  34.317  1.00  0.00     0.000 A 
ENDBRANCH  57  70
ENDBRANCH  31  32
ENDBRANCH  23  26
ENDBRANCH  21  22
ENDBRANCH   1  21
TORSDOF 12
ENDMDL
MODEL 2
REMARK VINA RESULT:     -11.0      4.222      9.128
REMARK SMILES CCc1nn(-c2ccncn2)c(Cl)c1C(=O)NCCCNC(=O)c1ccc(-c2c3nc(c(-c4ccccc4)c4ccc([nH]4)c(-c4ccccc4)c4nc(c(-c5ccccc5)c5ccc2[nH]5)C=C4)C=C3)cc1
REMARK SMILES IDX 19 1 18 2 17 3 15 4 16 5 14 7 3 8 4 9 5 10 12 11 13 12 2 13
REMARK SMILES IDX 1 14 6 15 7 16 11 17 8 18 10 19 9 20 20 21 21 22 22 23 23 25
REMARK SMILES IDX 24 26 25 27 71 28 26 29 70 30 27 31 28 32 29 33 64 34 30 35
REMARK SMILES IDX 69 36 63 37 65 38 31 39 68 40 62 41 61 42 32 44 54 45 39 46
REMARK SMILES IDX 53 47 40 48 43 49 52 50 66 51 41 52 42 53 51 55 67 56 44 57
REMARK SMILES IDX 33 58 34 59 38 60 35 61 37 62 36 63 55 64 56 65 60 66 57 67
REMARK SMILES IDX 59 68 58 69 45 70 46 71 50 72 47 73 49 74 48 75
REMARK H PARENT 17 6 21 24 65 43 43 54
REMARK Flexibility Score: inf
ROOT
ATOM      1  C   UNL A   1      37.298  23.341  25.116  1.00  0.00     0.042 C 
ENDROOT
BRANCH   1   2
ATOM      2  C   UNL A   1      36.963  21.890  25.458  1.00  0.00     0.118 C 
BRANCH   2   3
ATOM      3  N   UNL A   1      35.947  21.771  26.470  1.00  0.00    -0.352 N 
ATOM      4  C   UNL A   1      34.583  21.781  26.503  1.00  0.00     0.256 C 
ATOM      5  O   UNL A   1      34.158  21.497  27.629  1.00  0.00    -0.269 OA
ATOM      6  H   UNL A   1      36.335  21.652  27.367  1.00  0.00     0.163 HD
BRANCH   4   7
ATOM      7  C   UNL A   1      33.659  22.091  25.403  1.00  0.00     0.100 A 
ATOM      8  C   UNL A   1      32.791  21.382  24.497  1.00  0.00     0.077 A 
ATOM      9  N   UNL A   1      32.085  22.208  23.710  1.00  0.00    -0.169 NA
ATOM     10  N   UNL A   1      32.573  23.444  23.946  1.00  0.00    -0.203 N 
ATOM     11  C   UNL A   1      33.456  23.410  24.999  1.00  0.00     0.147 A 
ATOM     12  Cl  UNL A   1      34.007  24.890  25.688  1.00  0.00    -0.061 Cl
BRANCH   8  13
ATOM     13  C   UNL A   1      32.532  19.931  24.243  1.00  0.00     0.056 C 
ATOM     14  C   UNL A   1      32.152  19.613  22.800  1.00  0.00     0.011 C 
ENDBRANCH   8  13
BRANCH  10  15
ATOM     15  C   UNL A   1      32.165  24.545  23.128  1.00  0.00     0.158 A 
ATOM     16  C   UNL A   1      32.852  24.822  21.959  1.00  0.00     0.069 A 
ATOM     17  N   UNL A   1      31.098  25.275  23.533  1.00  0.00    -0.217 NA
ATOM     18  C   UNL A   1      32.429  25.928  21.258  1.00  0.00     0.117 A 
ATOM     19  C   UNL A   1      30.796  26.344  22.785  1.00  0.00     0.224 A 
ATOM     20  N   UNL A   1      31.418  26.717  21.658  1.00  0.00    -0.245 NA
ENDBRANCH  10  15
ENDBRANCH   4   7
ENDBRANCH   2   3
ENDBRANCH   1   2
BRANCH   1  21
ATOM     21  C   UNL A   1      37.930  24.073  26.294  1.00  0.00     0.118 C 
BRANCH  21  22
ATOM     22  N   UNL A   1      39.384  23.910  26.311  1.00  0.00    -0.352 N 
ATOM     23  C   UNL A   1      40.360  24.795  26.729  1.00  0.00     0.251 C 
ATOM     24  H   UNL A   1      39.715  23.045  25.975  1.00  0.00     0.163 HD
ATOM     25  O   UNL A   1      41.526  24.627  26.447  1.00  0.00    -0.269 OA
BRANCH  23  26
ATOM     26  C   UNL A   1      39.931  25.977  27.497  1.00  0.00     0.039 A 
ATOM     27  C   UNL A   1      39.495  25.815  28.810  1.00  0.00     0.014 A 
ATOM     28  C   UNL A   1      40.105  27.242  26.941  1.00  0.00     0.014 A 
ATOM     29  C   UNL A   1      39.365  26.944  29.612  1.00  0.00     0.010 A 
ATOM     30  C   UNL A   1      40.078  28.349  27.767  1.00  0.00     0.010 A 
ATOM     31  C   UNL A   1      39.719  28.210  29.109  1.00  0.00    -0.014 A 
BRANCH  31  32
ATOM     32  C   UNL A   1      39.875  29.325  30.051  1.00  0.00     0.031 A 
ATOM     33  C   UNL A   1      38.624  30.081  30.362  1.00  0.00     0.074 A 
ATOM     34  C   UNL A   1      40.978  29.599  30.779  1.00  0.00     0.049 A 
ATOM     35  N   UNL A   1      38.346  31.302  30.044  1.00  0.00    -0.248 NA
ATOM     36  C   UNL A   1      37.520  29.373  31.029  1.00  0.00     0.031 C 
ATOM     37  C   UNL A   1      42.217  28.826  30.890  1.00  0.00     0.029 A 
ATOM     38  N   UNL A   1      41.168  30.609  31.676  1.00  0.00    -0.354 N 
ATOM     39  C   UNL A   1      37.113  31.588  30.625  1.00  0.00     0.074 A 
ATOM     40  C   UNL A   1      36.590  30.329  31.093  1.00  0.00     0.031 C 
ATOM     41  C   UNL A   1      42.919  29.254  31.962  1.00  0.00     0.029 A 
ATOM     42  C   UNL A   1      42.274  30.439  32.496  1.00  0.00     0.049 A 
ATOM     43  H   UNL A   1      40.573  31.391  31.737  1.00  0.00     0.167 HD
ATOM     44  C   UNL A   1      36.725  32.869  30.879  1.00  0.00     0.031 A 
ATOM     45  C   UNL A   1      42.643  31.209  33.546  1.00  0.00     0.031 A 
ATOM     46  C   UNL A   1      37.530  33.829  30.165  1.00  0.00     0.049 A 
ATOM     47  C   UNL A   1      41.993  32.527  33.389  1.00  0.00     0.074 A 
ATOM     48  C   UNL A   1      37.855  34.045  28.838  1.00  0.00     0.029 A 
ATOM     49  N   UNL A   1      38.450  34.546  30.890  1.00  0.00    -0.354 N 
ATOM     50  N   UNL A   1      42.322  33.385  32.469  1.00  0.00    -0.248 NA
ATOM     51  C   UNL A   1      40.709  32.758  34.027  1.00  0.00     0.031 C 
ATOM     52  C   UNL A   1      39.224  34.449  28.859  1.00  0.00     0.029 A 
ATOM     53  C   UNL A   1      39.627  34.515  30.193  1.00  0.00     0.049 A 
ATOM     54  H   UNL A   1      38.292  34.997  31.751  1.00  0.00     0.167 HD
ATOM     55  C   UNL A   1      41.126  33.975  32.096  1.00  0.00     0.074 A 
ATOM     56  C   UNL A   1      40.198  33.654  33.178  1.00  0.00     0.031 C 
ATOM     57  C   UNL A   1      40.927  34.419  30.819  1.00  0.00     0.031 A 
BRANCH  44  58
ATOM     58  C   UNL A   1      35.918  33.273  32.095  1.00  0.00    -0.014 A 
ATOM     59  C   UNL A   1      34.808  34.123  31.918  1.00  0.00     0.009 A 
ATOM     60  C   UNL A   1      36.381  33.114  33.414  1.00  0.00     0.009 A 
ATOM     61  C   UNL A   1      34.269  34.855  32.983  1.00  0.00     0.001 A 
ATOM     62  C   UNL A   1      35.814  33.806  34.488  1.00  0.00     0.001 A 
ATOM     63  C   UNL A   1      34.781  34.705  34.267  1.00  0.00     0.000 A 
ENDBRANCH  44  58
BRANCH  45  64
ATOM     64  C   UNL A   1      43.407  30.847  34.755  1.00  0.00    -0.014 A 
ATOM     65  C   UNL A   1      44.403  31.699  35.254  1.00  0.00     0.009 A 
ATOM     66  C   UNL A   1      42.977  29.787  35.574  1.00  0.00     0.009 A 
ATOM     67  C   UNL A   1      44.915  31.528  36.545  1.00  0.00     0.001 A 
ATOM     68  C   UNL A   1      43.495  29.610  36.861  1.00  0.00     0.001 A 
ATOM     69  C   UNL A   1      44.451  30.493  37.354  1.00  0.00     0.000 A 
ENDBRANCH  45  64
BRANCH  57  70
ATOM     70  C   UNL A   1      42.125  34.546  29.910  1.00  0.00    -0.014 A 
ATOM     71  C   UNL A   1      42.795  33.442  29.355  1.00  0.00     0.009 A 
ATOM     72  C   UNL A   1      42.506  35.831  29.492  1.00  0.00     0.009 A 
ATOM     73  C   UNL A   1      43.843  33.621  28.446  1.00  0.00     0.001 A 
ATOM     74  C   UNL A   1      43.534  36.010  28.565  1.00  0.00     0.001 A 
ATOM     75  C   UNL A   1      44.208  34.906  28.049  1.00  0.00     0.000 A 
ENDBRANCH  57  70
ENDBRANCH  31  32
ENDBRANCH  23  26
ENDBRANCH  21  22
ENDBRANCH   1  21
TORSDOF 12
ENDMDL
MODEL 3
REMARK VINA RESULT:     -11.0      1.619      2.034
REMARK SMILES CCc1nn(-c2ccncn2)c(Cl)c1C(=O)NCCCNC(=O)c1ccc(-c2c3nc(c(-c4ccccc4)c4ccc([nH]4)c(-c4ccccc4)c4nc(c(-c5ccccc5)c5ccc2[nH]5)C=C4)C=C3)cc1
REMARK SMILES IDX 19 1 18 2 17 3 15 4 16 5 14 7 3 8 4 9 5 10 12 11 13 12 2 13
REMARK SMILES IDX 1 14 6 15 7 16 11 17 8 18 10 19 9 20 20 21 21 22 22 23 23 25
REMARK SMILES IDX 24 26 25 27 71 28 26 29 70 30 27 31 28 32 29 33 64 34 30 35
REMARK SMILES IDX 69 36 63 37 65 38 31 39 68 40 62 41 61 42 32 44 54 45 39 46
REMARK SMILES IDX 53 47 40 48 43 49 52 50 66 51 41 52 42 53 51 55 67 56 44 57
REMARK SMILES IDX 33 58 34 59 38 60 35 61 37 62 36 63 55 64 56 65 60 66 57 67
REMARK SMILES IDX 59 68 58 69 45 70 46 71 50 72 47 73 49 74 48 75
REMARK H PARENT 17 6 21 24 65 43 43 54
REMARK Flexibility Score: inf
ROOT
ATOM      1  C   UNL A   1      33.481  29.141  26.880  1.00  0.00     0.042 C 
ENDROOT
BRANCH   1   2
ATOM      2  C   UNL A   1      33.123  28.112  25.809  1.00  0.00     0.118 C 
BRANCH   2   3
ATOM      3  N   UNL A   1      31.903  27.404  26.094  1.00  0.00    -0.352 N 
ATOM      4  C   UNL A   1      31.403  26.161  25.836  1.00  0.00     0.256 C 
ATOM      5  O   UNL A   1      30.332  25.976  26.426  1.00  0.00    -0.269 OA
ATOM      6  H   UNL A   1      31.269  27.957  26.604  1.00  0.00     0.163 HD
BRANCH   4   7
ATOM      7  C   UNL A   1      31.981  25.119  24.975  1.00  0.00     0.100 A 
ATOM      8  C   UNL A   1      32.349  24.950  23.592  1.00  0.00     0.077 A 
ATOM      9  N   UNL A   1      32.933  23.765  23.357  1.00  0.00    -0.169 NA
ATOM     10  N   UNL A   1      32.820  23.067  24.507  1.00  0.00    -0.203 N 
ATOM     11  C   UNL A   1      32.325  23.874  25.503  1.00  0.00     0.147 A 
ATOM     12  Cl  UNL A   1      32.347  23.317  27.133  1.00  0.00    -0.061 Cl
BRANCH   8  13
ATOM     13  C   UNL A   1      32.199  25.806  22.376  1.00  0.00     0.056 C 
ATOM     14  C   UNL A   1      33.370  26.755  22.138  1.00  0.00     0.011 C 
ENDBRANCH   8  13
BRANCH  10  15
ATOM     15  C   UNL A   1      33.178  21.682  24.543  1.00  0.00     0.158 A 
ATOM     16  C   UNL A   1      34.464  21.316  24.897  1.00  0.00     0.069 A 
ATOM     17  N   UNL A   1      32.222  20.772  24.235  1.00  0.00    -0.217 NA
ATOM     18  C   UNL A   1      34.741  19.969  24.856  1.00  0.00     0.117 A 
ATOM     19  C   UNL A   1      32.616  19.493  24.202  1.00  0.00     0.224 A 
ATOM     20  N   UNL A   1      33.843  19.038  24.494  1.00  0.00    -0.245 NA
ENDBRANCH  10  15
ENDBRANCH   4   7
ENDBRANCH   2   3
ENDBRANCH   1   2
BRANCH   1  21
ATOM     21  C   UNL A   1      34.916  28.979  27.368  1.00  0.00     0.118 C 
BRANCH  21  22
ATOM     22  N   UNL A   1      35.241  29.949  28.414  1.00  0.00    -0.352 N 
ATOM     23  C   UNL A   1      36.380  30.051  29.191  1.00  0.00     0.251 C 
ATOM     24  H   UNL A   1      34.549  30.628  28.588  1.00  0.00     0.163 HD
ATOM     25  O   UNL A   1      36.403  30.741  30.186  1.00  0.00    -0.269 OA
BRANCH  23  26
ATOM     26  C   UNL A   1      37.555  29.258  28.794  1.00  0.00     0.039 A 
ATOM     27  C   UNL A   1      38.272  29.625  27.657  1.00  0.00     0.014 A 
ATOM     28  C   UNL A   1      38.005  28.247  29.640  1.00  0.00     0.014 A 
ATOM     29  C   UNL A   1      39.526  29.059  27.449  1.00  0.00     0.010 A 
ATOM     30  C   UNL A   1      39.291  27.766  29.489  1.00  0.00     0.010 A 
ATOM     31  C   UNL A   1      40.066  28.173  28.401  1.00  0.00    -0.014 A 
BRANCH  31  32
ATOM     32  C   UNL A   1      41.493  27.840  28.324  1.00  0.00     0.031 A 
ATOM     33  C   UNL A   1      41.821  26.599  27.559  1.00  0.00     0.074 A 
ATOM     34  C   UNL A   1      42.514  28.631  28.714  1.00  0.00     0.049 A 
ATOM     35  N   UNL A   1      42.301  25.493  28.025  1.00  0.00    -0.248 NA
ATOM     36  C   UNL A   1      41.498  26.551  26.124  1.00  0.00     0.031 C 
ATOM     37  C   UNL A   1      42.468  30.013  29.198  1.00  0.00     0.029 A 
ATOM     38  N   UNL A   1      43.853  28.376  28.649  1.00  0.00    -0.354 N 
ATOM     39  C   UNL A   1      42.520  24.667  26.926  1.00  0.00     0.074 A 
ATOM     40  C   UNL A   1      41.878  25.311  25.806  1.00  0.00     0.031 C 
ATOM     41  C   UNL A   1      43.709  30.546  29.154  1.00  0.00     0.029 A 
ATOM     42  C   UNL A   1      44.654  29.496  28.818  1.00  0.00     0.049 A 
ATOM     43  H   UNL A   1      44.220  27.475  28.497  1.00  0.00     0.167 HD
ATOM     44  C   UNL A   1      43.408  23.634  26.976  1.00  0.00     0.031 A 
ATOM     45  C   UNL A   1      45.998  29.571  28.689  1.00  0.00     0.031 A 
ATOM     46  C   UNL A   1      43.768  23.299  28.331  1.00  0.00     0.049 A 
ATOM     47  C   UNL A   1      46.541  28.204  28.836  1.00  0.00     0.074 A 
ATOM     48  C   UNL A   1      43.075  22.940  29.472  1.00  0.00     0.029 A 
ATOM     49  N   UNL A   1      45.018  23.671  28.763  1.00  0.00    -0.354 N 
ATOM     50  N   UNL A   1      46.548  27.551  29.961  1.00  0.00    -0.248 NA
ATOM     51  C   UNL A   1      46.749  27.398  27.646  1.00  0.00     0.031 C 
ATOM     52  C   UNL A   1      43.764  23.593  30.539  1.00  0.00     0.029 A 
ATOM     53  C   UNL A   1      44.865  24.253  29.992  1.00  0.00     0.049 A 
ATOM     54  H   UNL A   1      45.866  23.544  28.277  1.00  0.00     0.167 HD
ATOM     55  C   UNL A   1      46.305  26.236  29.604  1.00  0.00     0.074 A 
ATOM     56  C   UNL A   1      46.577  26.182  28.170  1.00  0.00     0.031 C 
ATOM     57  C   UNL A   1      45.635  25.390  30.443  1.00  0.00     0.031 A 
BRANCH  44  58
ATOM     58  C   UNL A   1      44.278  23.220  25.808  1.00  0.00    -0.014 A 
ATOM     59  C   UNL A   1      44.352  21.854  25.471  1.00  0.00     0.009 A 
ATOM     60  C   UNL A   1      45.252  24.060  25.239  1.00  0.00     0.009 A 
ATOM     61  C   UNL A   1      45.406  21.346  24.702  1.00  0.00     0.001 A 
ATOM     62  C   UNL A   1      46.278  23.563  24.429  1.00  0.00     0.001 A 
ATOM     63  C   UNL A   1      46.376  22.200  24.192  1.00  0.00     0.000 A 
ENDBRANCH  44  58
BRANCH  45  64
ATOM     64  C   UNL A   1      46.844  30.717  28.307  1.00  0.00    -0.014 A 
ATOM     65  C   UNL A   1      46.814  31.225  26.999  1.00  0.00     0.009 A 
ATOM     66  C   UNL A   1      47.487  31.484  29.296  1.00  0.00     0.009 A 
ATOM     67  C   UNL A   1      47.363  32.478  26.702  1.00  0.00     0.001 A 
ATOM     68  C   UNL A   1      48.043  32.732  28.997  1.00  0.00     0.001 A 
ATOM     69  C   UNL A   1      47.964  33.237  27.703  1.00  0.00     0.000 A 
ENDBRANCH  45  64
BRANCH  57  70
ATOM     70  C   UNL A   1      45.441  25.811  31.879  1.00  0.00    -0.014 A 
ATOM     71  C   UNL A   1      44.313  26.516  32.332  1.00  0.00     0.009 A 
ATOM     72  C   UNL A   1      46.368  25.360  32.832  1.00  0.00     0.009 A 
ATOM     73  C   UNL A   1      44.143  26.799  33.692  1.00  0.00     0.001 A 
ATOM     74  C   UNL A   1      46.186  25.620  34.191  1.00  0.00     0.001 A 
ATOM     75  C   UNL A   1      45.078  26.347  34.620  1.00  0.00     0.000 A 
ENDBRANCH  57  70
ENDBRANCH  31  32
ENDBRANCH  23  26
ENDBRANCH  21  22
ENDBRANCH   1  21
TORSDOF 12
ENDMDL
