MODEL 1
REMARK VINA RESULT:     -12.0      0.000      0.000
REMARK SMILES Cn1c(C(=O)N2CCC[C@@H](C(=O)NCCCNC(=O)c3ccc(-c4c5nc(c(-c6ccccc6)c6ccc([nH]6)c(-c6ccccc6)c6nc(c(-c7ccccc7)c7ccc4[nH]7)C=C6)C=C5)cc3)C2)cc2sccc21
REMARK SMILES IDX 15 1 14 2 13 3 11 4 12 5 10 7 6 8 7 9 68 10 8 11 9 12 4 13
REMARK SMILES IDX 5 14 3 15 1 16 2 17 74 18 69 19 70 20 73 21 71 22 72 23
REMARK SMILES IDX 16 24 17 25 18 26 19 28 20 29 21 30 67 31 22 32 66 33 23 34
REMARK SMILES IDX 24 35 25 36 60 37 26 38 65 39 59 40 61 41 27 42 64 43 58 44
REMARK SMILES IDX 57 45 28 47 50 48 35 49 49 50 36 51 39 52 48 53 62 54 37 55
REMARK SMILES IDX 38 56 47 58 63 59 40 60 29 61 30 62 34 63 31 64 33 65 32 66
REMARK SMILES IDX 51 67 52 68 56 69 53 70 55 71 54 72 41 73 42 74 46 75 43 76
REMARK SMILES IDX 45 77 44 78
REMARK H PARENT 13 6 17 27 61 46 39 57
REMARK Flexibility Score: inf
ROOT
ATOM      1  C   UNL A   1      31.403  31.873  26.486  1.00  0.00     0.042 C 
ENDROOT
BRANCH   1   2
ATOM      2  C   UNL A   1      31.714  30.479  25.933  1.00  0.00     0.117 C 
BRANCH   2   3
ATOM      3  N   UNL A   1      33.005  29.977  26.385  1.00  0.00    -0.356 N 
ATOM      4  C   UNL A   1      33.506  28.708  26.342  1.00  0.00     0.224 C 
ATOM      5  O   UNL A   1      34.609  28.492  26.844  1.00  0.00    -0.275 OA
ATOM      6  H   UNL A   1      33.602  30.651  26.781  1.00  0.00     0.163 HD
BRANCH   4   7
ATOM      7  C   UNL A   1      32.720  27.633  25.620  1.00  0.00     0.098 C 
ATOM      8  N   UNL A   1      32.454  26.563  23.420  1.00  0.00    -0.337 N 
ATOM      9  C   UNL A   1      32.531  25.224  23.990  1.00  0.00     0.120 C 
ATOM     10  C   UNL A   1      33.153  27.624  24.147  1.00  0.00     0.133 C 
ATOM     11  C   UNL A   1      32.135  25.204  25.460  1.00  0.00     0.022 C 
ATOM     12  C   UNL A   1      32.928  26.249  26.247  1.00  0.00     0.017 C 
BRANCH   8  13
ATOM     13  C   UNL A   1      31.581  26.797  22.363  1.00  0.00     0.270 C 
ATOM     14  O   UNL A   1      31.683  26.134  21.332  1.00  0.00    -0.267 OA
BRANCH  13  15
ATOM     15  C   UNL A   1      30.653  27.924  22.495  1.00  0.00     0.108 A 
ATOM     16  C   UNL A   1      28.743  26.763  23.745  1.00  0.00     0.150 C 
ATOM     17  N   UNL A   1      29.388  27.858  23.061  1.00  0.00    -0.339 N 
ATOM     18  C   UNL A   1      28.736  29.057  22.852  1.00  0.00     0.059 A 
ATOM     19  C   UNL A   1      30.799  29.207  21.967  1.00  0.00     0.053 A 
ATOM     20  C   UNL A   1      29.583  29.898  22.201  1.00  0.00     0.053 A 
ATOM     21  C   UNL A   1      27.455  29.625  23.104  1.00  0.00     0.038 A 
ATOM     22  S   UNL A   1      28.868  31.441  21.876  1.00  0.00    -0.142 S 
ATOM     23  C   UNL A   1      27.404  30.910  22.605  1.00  0.00     0.068 A 
ENDBRANCH  13  15
ENDBRANCH   8  13
ENDBRANCH   4   7
ENDBRANCH   2   3
ENDBRANCH   1   2
BRANCH   1  24
ATOM     24  C   UNL A   1      32.596  32.487  27.204  1.00  0.00     0.118 C 
BRANCH  24  25
ATOM     25  N   UNL A   1      32.354  33.859  27.659  1.00  0.00    -0.352 N 
ATOM     26  C   UNL A   1      33.035  34.584  28.625  1.00  0.00     0.251 C 
ATOM     27  H   UNL A   1      31.608  34.329  27.221  1.00  0.00     0.163 HD
ATOM     28  O   UNL A   1      32.552  35.591  29.110  1.00  0.00    -0.269 OA
BRANCH  26  29
ATOM     29  C   UNL A   1      34.362  34.107  29.058  1.00  0.00     0.039 A 
ATOM     30  C   UNL A   1      34.536  33.414  30.259  1.00  0.00     0.014 A 
ATOM     31  C   UNL A   1      35.440  34.340  28.213  1.00  0.00     0.014 A 
ATOM     32  C   UNL A   1      35.792  32.883  30.552  1.00  0.00     0.010 A 
ATOM     33  C   UNL A   1      36.612  33.662  28.405  1.00  0.00     0.010 A 
ATOM     34  C   UNL A   1      36.821  32.994  29.606  1.00  0.00    -0.014 A 
BRANCH  34  35
ATOM     35  C   UNL A   1      38.109  32.336  29.794  1.00  0.00     0.031 A 
ATOM     36  C   UNL A   1      38.138  30.901  29.404  1.00  0.00     0.074 A 
ATOM     37  C   UNL A   1      39.241  33.028  30.056  1.00  0.00     0.049 A 
ATOM     38  N   UNL A   1      38.345  29.882  30.169  1.00  0.00    -0.248 NA
ATOM     39  C   UNL A   1      37.780  30.544  28.020  1.00  0.00     0.031 C 
ATOM     40  C   UNL A   1      39.417  34.485  30.150  1.00  0.00     0.029 A 
ATOM     41  N   UNL A   1      40.519  32.574  30.156  1.00  0.00    -0.354 N 
ATOM     42  C   UNL A   1      38.340  28.766  29.337  1.00  0.00     0.074 A 
ATOM     43  C   UNL A   1      37.822  29.211  28.068  1.00  0.00     0.031 C 
ATOM     44  C   UNL A   1      40.725  34.795  30.032  1.00  0.00     0.029 A 
ATOM     45  C   UNL A   1      41.489  33.563  30.046  1.00  0.00     0.049 A 
ATOM     46  H   UNL A   1      40.738  31.625  30.296  1.00  0.00     0.167 HD
ATOM     47  C   UNL A   1      38.999  27.626  29.681  1.00  0.00     0.031 A 
ATOM     48  C   UNL A   1      42.829  33.384  29.952  1.00  0.00     0.031 A 
ATOM     49  C   UNL A   1      39.365  27.625  31.075  1.00  0.00     0.049 A 
ATOM     50  C   UNL A   1      43.125  32.026  30.453  1.00  0.00     0.074 A 
ATOM     51  C   UNL A   1      38.675  27.676  32.268  1.00  0.00     0.029 A 
ATOM     52  N   UNL A   1      40.663  27.968  31.370  1.00  0.00    -0.354 N 
ATOM     53  N   UNL A   1      42.958  31.671  31.694  1.00  0.00    -0.248 NA
ATOM     54  C   UNL A   1      43.169  30.936  29.492  1.00  0.00     0.031 C 
ATOM     55  C   UNL A   1      39.472  28.504  33.115  1.00  0.00     0.029 A 
ATOM     56  C   UNL A   1      40.633  28.848  32.419  1.00  0.00     0.049 A 
ATOM     57  H   UNL A   1      41.469  27.640  30.911  1.00  0.00     0.167 HD
ATOM     58  C   UNL A   1      42.426  30.393  31.624  1.00  0.00     0.074 A 
ATOM     59  C   UNL A   1      42.685  29.951  30.254  1.00  0.00     0.031 C 
ATOM     60  C   UNL A   1      41.574  29.933  32.590  1.00  0.00     0.031 A 
BRANCH  47  61
ATOM     61  C   UNL A   1      39.701  26.729  28.688  1.00  0.00    -0.014 A 
ATOM     62  C   UNL A   1      40.656  27.301  27.826  1.00  0.00     0.009 A 
ATOM     63  C   UNL A   1      39.252  25.436  28.362  1.00  0.00     0.009 A 
ATOM     64  C   UNL A   1      41.065  26.651  26.656  1.00  0.00     0.001 A 
ATOM     65  C   UNL A   1      39.689  24.766  27.215  1.00  0.00     0.001 A 
ATOM     66  C   UNL A   1      40.572  25.388  26.345  1.00  0.00     0.000 A 
ENDBRANCH  47  61
BRANCH  48  67
ATOM     67  C   UNL A   1      43.830  34.198  29.230  1.00  0.00    -0.014 A 
ATOM     68  C   UNL A   1      43.889  34.195  27.828  1.00  0.00     0.009 A 
ATOM     69  C   UNL A   1      44.549  35.197  29.914  1.00  0.00     0.009 A 
ATOM     70  C   UNL A   1      44.610  35.179  27.136  1.00  0.00     0.001 A 
ATOM     71  C   UNL A   1      45.268  36.178  29.223  1.00  0.00     0.001 A 
ATOM     72  C   UNL A   1      45.285  36.178  27.833  1.00  0.00     0.000 A 
ENDBRANCH  48  67
BRANCH  60  73
ATOM     73  C   UNL A   1      41.415  30.763  33.842  1.00  0.00    -0.014 A 
ATOM     74  C   UNL A   1      40.495  31.823  33.953  1.00  0.00     0.009 A 
ATOM     75  C   UNL A   1      42.100  30.357  34.995  1.00  0.00     0.009 A 
ATOM     76  C   UNL A   1      40.288  32.469  35.176  1.00  0.00     0.001 A 
ATOM     77  C   UNL A   1      41.879  30.988  36.221  1.00  0.00     0.001 A 
ATOM     78  C   UNL A   1      40.976  32.046  36.311  1.00  0.00     0.000 A 
ENDBRANCH  60  73
ENDBRANCH  34  35
ENDBRANCH  26  29
ENDBRANCH  24  25
ENDBRANCH   1  24
TORSDOF 12
ENDMDL
MODEL 2
REMARK VINA RESULT:     -11.8      3.342      7.345
REMARK SMILES Cn1c(C(=O)N2CCC[C@@H](C(=O)NCCCNC(=O)c3ccc(-c4c5nc(c(-c6ccccc6)c6ccc([nH]6)c(-c6ccccc6)c6nc(c(-c7ccccc7)c7ccc4[nH]7)C=C6)C=C5)cc3)C2)cc2sccc21
REMARK SMILES IDX 15 1 14 2 13 3 11 4 12 5 10 7 6 8 7 9 68 10 8 11 9 12 4 13
REMARK SMILES IDX 5 14 3 15 1 16 2 17 74 18 69 19 70 20 73 21 71 22 72 23
REMARK SMILES IDX 16 24 17 25 18 26 19 28 20 29 21 30 67 31 22 32 66 33 23 34
REMARK SMILES IDX 24 35 25 36 60 37 26 38 65 39 59 40 61 41 27 42 64 43 58 44
REMARK SMILES IDX 57 45 28 47 50 48 35 49 49 50 36 51 39 52 48 53 62 54 37 55
REMARK SMILES IDX 38 56 47 58 63 59 40 60 29 61 30 62 34 63 31 64 33 65 32 66
REMARK SMILES IDX 51 67 52 68 56 69 53 70 55 71 54 72 41 73 42 74 46 75 43 76
REMARK SMILES IDX 45 77 44 78
REMARK H PARENT 13 6 17 27 61 46 39 57
REMARK Flexibility Score: inf
ROOT
ATOM      1  C   UNL A   1      33.601  30.822  27.396  1.00  0.00     0.042 C 
ENDROOT
BRANCH   1   2
ATOM      2  C   UNL A   1      33.962  29.336  27.320  1.00  0.00     0.117 C 
BRANCH   2   3
ATOM      3  N   UNL A   1      32.834  28.472  27.643  1.00  0.00    -0.356 N 
ATOM      4  C   UNL A   1      32.029  27.748  26.812  1.00  0.00     0.224 C 
ATOM      5  O   UNL A   1      31.083  27.129  27.299  1.00  0.00    -0.275 OA
ATOM      6  H   UNL A   1      32.621  28.401  28.601  1.00  0.00     0.163 HD
BRANCH   4   7
ATOM      7  C   UNL A   1      32.370  27.679  25.338  1.00  0.00     0.098 C 
ATOM      8  N   UNL A   1      32.254  26.191  23.382  1.00  0.00    -0.337 N 
ATOM      9  C   UNL A   1      31.674  27.232  22.542  1.00  0.00     0.120 C 
ATOM     10  C   UNL A   1      31.989  26.285  24.817  1.00  0.00     0.133 C 
ATOM     11  C   UNL A   1      32.009  28.628  23.049  1.00  0.00     0.022 C 
ATOM     12  C   UNL A   1      31.650  28.766  24.529  1.00  0.00     0.017 C 
BRANCH   8  13
ATOM     13  C   UNL A   1      33.168  25.306  22.821  1.00  0.00     0.270 C 
ATOM     14  O   UNL A   1      33.809  25.641  21.827  1.00  0.00    -0.267 OA
BRANCH  13  15
ATOM     15  C   UNL A   1      33.226  23.953  23.385  1.00  0.00     0.108 A 
ATOM     16  C   UNL A   1      35.322  24.184  24.840  1.00  0.00     0.150 C 
ATOM     17  N   UNL A   1      34.221  23.479  24.228  1.00  0.00    -0.339 N 
ATOM     18  C   UNL A   1      34.048  22.121  24.411  1.00  0.00     0.059 A 
ATOM     19  C   UNL A   1      32.398  22.873  23.081  1.00  0.00     0.053 A 
ATOM     20  C   UNL A   1      32.935  21.735  23.734  1.00  0.00     0.053 A 
ATOM     21  C   UNL A   1      34.709  21.049  25.075  1.00  0.00     0.038 A 
ATOM     22  S   UNL A   1      32.619  20.039  23.886  1.00  0.00    -0.142 S 
ATOM     23  C   UNL A   1      34.033  19.868  24.848  1.00  0.00     0.068 A 
ENDBRANCH  13  15
ENDBRANCH   8  13
ENDBRANCH   4   7
ENDBRANCH   2   3
ENDBRANCH   1   2
BRANCH   1  24
ATOM     24  C   UNL A   1      34.785  31.681  27.821  1.00  0.00     0.118 C 
BRANCH  24  25
ATOM     25  N   UNL A   1      34.682  32.164  29.201  1.00  0.00    -0.352 N 
ATOM     26  C   UNL A   1      35.411  31.769  30.313  1.00  0.00     0.251 C 
ATOM     27  H   UNL A   1      34.006  32.861  29.360  1.00  0.00     0.163 HD
ATOM     28  O   UNL A   1      35.028  32.032  31.439  1.00  0.00    -0.269 OA
BRANCH  26  29
ATOM     29  C   UNL A   1      36.663  31.018  30.104  1.00  0.00     0.039 A 
ATOM     30  C   UNL A   1      37.893  31.668  29.961  1.00  0.00     0.014 A 
ATOM     31  C   UNL A   1      36.590  29.631  30.089  1.00  0.00     0.014 A 
ATOM     32  C   UNL A   1      39.054  30.898  29.890  1.00  0.00     0.010 A 
ATOM     33  C   UNL A   1      37.732  28.890  30.212  1.00  0.00     0.010 A 
ATOM     34  C   UNL A   1      38.965  29.507  30.039  1.00  0.00    -0.014 A 
BRANCH  34  35
ATOM     35  C   UNL A   1      40.154  28.667  30.118  1.00  0.00     0.031 A 
ATOM     36  C   UNL A   1      40.723  28.520  31.484  1.00  0.00     0.074 A 
ATOM     37  C   UNL A   1      40.556  27.886  29.090  1.00  0.00     0.049 A 
ATOM     38  N   UNL A   1      41.881  28.911  31.901  1.00  0.00    -0.248 NA
ATOM     39  C   UNL A   1      39.860  27.976  32.547  1.00  0.00     0.031 C 
ATOM     40  C   UNL A   1      39.902  27.689  27.787  1.00  0.00     0.029 A 
ATOM     41  N   UNL A   1      41.572  26.983  29.045  1.00  0.00    -0.354 N 
ATOM     42  C   UNL A   1      41.978  28.493  33.225  1.00  0.00     0.074 A 
ATOM     43  C   UNL A   1      40.653  28.081  33.615  1.00  0.00     0.031 C 
ATOM     44  C   UNL A   1      40.374  26.566  27.205  1.00  0.00     0.029 A 
ATOM     45  C   UNL A   1      41.486  26.075  27.995  1.00  0.00     0.049 A 
ATOM     46  H   UNL A   1      42.306  26.974  29.700  1.00  0.00     0.167 HD
ATOM     47  C   UNL A   1      43.188  28.281  33.812  1.00  0.00     0.031 A 
ATOM     48  C   UNL A   1      42.262  24.982  27.798  1.00  0.00     0.031 A 
ATOM     49  C   UNL A   1      44.260  28.853  33.038  1.00  0.00     0.049 A 
ATOM     50  C   UNL A   1      43.492  25.169  28.596  1.00  0.00     0.074 A 
ATOM     51  C   UNL A   1      44.598  30.125  32.625  1.00  0.00     0.029 A 
ATOM     52  N   UNL A   1      44.966  27.991  32.234  1.00  0.00    -0.354 N 
ATOM     53  N   UNL A   1      44.373  26.093  28.344  1.00  0.00    -0.248 NA
ATOM     54  C   UNL A   1      43.520  24.630  29.946  1.00  0.00     0.031 C 
ATOM     55  C   UNL A   1      45.105  29.956  31.302  1.00  0.00     0.029 A 
ATOM     56  C   UNL A   1      45.117  28.590  31.012  1.00  0.00     0.049 A 
ATOM     57  H   UNL A   1      45.304  27.102  32.490  1.00  0.00     0.167 HD
ATOM     58  C   UNL A   1      44.747  26.570  29.591  1.00  0.00     0.074 A 
ATOM     59  C   UNL A   1      44.278  25.558  30.537  1.00  0.00     0.031 C 
ATOM     60  C   UNL A   1      45.138  27.870  29.757  1.00  0.00     0.031 A 
BRANCH  47  61
ATOM     61  C   UNL A   1      43.449  27.191  34.825  1.00  0.00    -0.014 A 
ATOM     62  C   UNL A   1      43.277  25.851  34.430  1.00  0.00     0.009 A 
ATOM     63  C   UNL A   1      43.557  27.431  36.208  1.00  0.00     0.009 A 
ATOM     64  C   UNL A   1      43.129  24.826  35.370  1.00  0.00     0.001 A 
ATOM     65  C   UNL A   1      43.451  26.403  37.149  1.00  0.00     0.001 A 
ATOM     66  C   UNL A   1      43.205  25.104  36.731  1.00  0.00     0.000 A 
ENDBRANCH  47  61
BRANCH  48  67
ATOM     67  C   UNL A   1      41.909  23.687  27.178  1.00  0.00    -0.014 A 
ATOM     68  C   UNL A   1      42.650  23.174  26.103  1.00  0.00     0.009 A 
ATOM     69  C   UNL A   1      41.010  22.820  27.827  1.00  0.00     0.009 A 
ATOM     70  C   UNL A   1      42.524  21.833  25.716  1.00  0.00     0.001 A 
ATOM     71  C   UNL A   1      40.884  21.481  27.441  1.00  0.00     0.001 A 
ATOM     72  C   UNL A   1      41.653  20.983  26.395  1.00  0.00     0.000 A 
ENDBRANCH  48  67
BRANCH  60  73
ATOM     73  C   UNL A   1      45.372  28.699  28.517  1.00  0.00    -0.014 A 
ATOM     74  C   UNL A   1      44.363  29.459  27.895  1.00  0.00     0.009 A 
ATOM     75  C   UNL A   1      46.688  28.844  28.058  1.00  0.00     0.009 A 
ATOM     76  C   UNL A   1      44.663  30.319  26.833  1.00  0.00     0.001 A 
ATOM     77  C   UNL A   1      46.991  29.717  27.011  1.00  0.00     0.001 A 
ATOM     78  C   UNL A   1      45.979  30.451  26.396  1.00  0.00     0.000 A 
ENDBRANCH  60  73
ENDBRANCH  34  35
ENDBRANCH  26  29
ENDBRANCH  24  25
ENDBRANCH   1  24
TORSDOF 12
ENDMDL
MODEL 3
REMARK VINA RESULT:     -11.8      4.241      8.857
REMARK SMILES Cn1c(C(=O)N2CCC[C@@H](C(=O)NCCCNC(=O)c3ccc(-c4c5nc(c(-c6ccccc6)c6ccc([nH]6)c(-c6ccccc6)c6nc(c(-c7ccccc7)c7ccc4[nH]7)C=C6)C=C5)cc3)C2)cc2sccc21
REMARK SMILES IDX 15 1 14 2 13 3 11 4 12 5 10 7 6 8 7 9 68 10 8 11 9 12 4 13
REMARK SMILES IDX 5 14 3 15 1 16 2 17 74 18 69 19 70 20 73 21 71 22 72 23
REMARK SMILES IDX 16 24 17 25 18 26 19 28 20 29 21 30 67 31 22 32 66 33 23 34
REMARK SMILES IDX 24 35 25 36 60 37 26 38 65 39 59 40 61 41 27 42 64 43 58 44
REMARK SMILES IDX 57 45 28 47 50 48 35 49 49 50 36 51 39 52 48 53 62 54 37 55
REMARK SMILES IDX 38 56 47 58 63 59 40 60 29 61 30 62 34 63 31 64 33 65 32 66
REMARK SMILES IDX 51 67 52 68 56 69 53 70 55 71 54 72 41 73 42 74 46 75 43 76
REMARK SMILES IDX 45 77 44 78
REMARK H PARENT 13 6 17 27 61 46 39 57
REMARK Flexibility Score: inf
ROOT
ATOM      1  C   UNL A   1      37.783  19.671  24.905  1.00  0.00     0.042 C 
ENDROOT
BRANCH   1   2
ATOM      2  C   UNL A   1      36.561  20.564  25.143  1.00  0.00     0.117 C 
BRANCH   2   3
ATOM      3  N   UNL A   1      36.499  21.682  24.211  1.00  0.00    -0.356 N 
ATOM      4  C   UNL A   1      35.445  22.491  23.894  1.00  0.00     0.224 C 
ATOM      5  O   UNL A   1      35.599  23.345  23.022  1.00  0.00    -0.275 OA
ATOM      6  H   UNL A   1      37.339  21.883  23.740  1.00  0.00     0.163 HD
BRANCH   4   7
ATOM      7  C   UNL A   1      34.154  22.351  24.674  1.00  0.00     0.098 C 
ATOM      8  N   UNL A   1      32.095  23.564  25.260  1.00  0.00    -0.337 N 
ATOM      9  C   UNL A   1      31.248  22.434  24.899  1.00  0.00     0.120 C 
ATOM     10  C   UNL A   1      33.377  23.671  24.563  1.00  0.00     0.133 C 
ATOM     11  C   UNL A   1      32.000  21.111  24.970  1.00  0.00     0.022 C 
ATOM     12  C   UNL A   1      33.299  21.183  24.167  1.00  0.00     0.017 C 
BRANCH   8  13
ATOM     13  C   UNL A   1      31.745  24.343  26.358  1.00  0.00     0.270 C 
ATOM     14  O   UNL A   1      31.297  23.803  27.368  1.00  0.00    -0.267 OA
BRANCH  13  15
ATOM     15  C   UNL A   1      31.817  25.799  26.200  1.00  0.00     0.108 A 
ATOM     16  C   UNL A   1      29.702  26.183  24.807  1.00  0.00     0.150 C 
ATOM     17  N   UNL A   1      30.928  26.569  25.464  1.00  0.00    -0.339 N 
ATOM     18  C   UNL A   1      31.406  27.863  25.390  1.00  0.00     0.059 A 
ATOM     19  C   UNL A   1      32.837  26.647  26.628  1.00  0.00     0.053 A 
ATOM     20  C   UNL A   1      32.559  27.936  26.105  1.00  0.00     0.053 A 
ATOM     21  C   UNL A   1      31.042  29.093  24.772  1.00  0.00     0.038 A 
ATOM     22  S   UNL A   1      33.257  29.520  26.081  1.00  0.00    -0.142 S 
ATOM     23  C   UNL A   1      31.980  30.061  25.063  1.00  0.00     0.068 A 
ENDBRANCH  13  15
ENDBRANCH   8  13
ENDBRANCH   4   7
ENDBRANCH   2   3
ENDBRANCH   1   2
BRANCH   1  24
ATOM     24  C   UNL A   1      39.007  20.156  25.667  1.00  0.00     0.118 C 
BRANCH  24  25
ATOM     25  N   UNL A   1      40.097  19.177  25.694  1.00  0.00    -0.352 N 
ATOM     26  C   UNL A   1      41.448  19.390  25.925  1.00  0.00     0.251 C 
ATOM     27  H   UNL A   1      39.836  18.243  25.525  1.00  0.00     0.163 HD
ATOM     28  O   UNL A   1      42.275  18.547  25.629  1.00  0.00    -0.269 OA
BRANCH  26  29
ATOM     29  C   UNL A   1      41.865  20.666  26.537  1.00  0.00     0.039 A 
ATOM     30  C   UNL A   1      42.365  21.719  25.767  1.00  0.00     0.014 A 
ATOM     31  C   UNL A   1      41.712  20.804  27.911  1.00  0.00     0.014 A 
ATOM     32  C   UNL A   1      42.626  22.940  26.388  1.00  0.00     0.010 A 
ATOM     33  C   UNL A   1      41.784  22.045  28.480  1.00  0.00     0.010 A 
ATOM     34  C   UNL A   1      42.311  23.100  27.745  1.00  0.00    -0.014 A 
BRANCH  34  35
ATOM     35  C   UNL A   1      42.426  24.392  28.412  1.00  0.00     0.031 A 
ATOM     36  C   UNL A   1      41.319  25.343  28.123  1.00  0.00     0.074 A 
ATOM     37  C   UNL A   1      43.319  24.617  29.402  1.00  0.00     0.049 A 
ATOM     38  N   UNL A   1      41.398  26.483  27.521  1.00  0.00    -0.248 NA
ATOM     39  C   UNL A   1      39.940  24.929  28.435  1.00  0.00     0.031 C 
ATOM     40  C   UNL A   1      44.261  23.665  30.011  1.00  0.00     0.029 A 
ATOM     41  N   UNL A   1      43.478  25.721  30.179  1.00  0.00    -0.354 N 
ATOM     42  C   UNL A   1      40.116  27.025  27.549  1.00  0.00     0.074 A 
ATOM     43  C   UNL A   1      39.237  25.960  27.966  1.00  0.00     0.031 C 
ATOM     44  C   UNL A   1      44.688  24.144  31.199  1.00  0.00     0.029 A 
ATOM     45  C   UNL A   1      44.206  25.503  31.344  1.00  0.00     0.049 A 
ATOM     46  H   UNL A   1      43.110  26.601  29.936  1.00  0.00     0.167 HD
ATOM     47  C   UNL A   1      39.916  28.369  27.474  1.00  0.00     0.031 A 
ATOM     48  C   UNL A   1      44.383  26.372  32.368  1.00  0.00     0.031 A 
ATOM     49  C   UNL A   1      41.102  29.058  27.034  1.00  0.00     0.049 A 
ATOM     50  C   UNL A   1      44.087  27.724  31.851  1.00  0.00     0.074 A 
ATOM     51  C   UNL A   1      41.883  29.034  25.897  1.00  0.00     0.029 A 
ATOM     52  N   UNL A   1      41.868  29.648  28.011  1.00  0.00    -0.354 N 
ATOM     53  N   UNL A   1      44.815  28.319  30.950  1.00  0.00    -0.248 NA
ATOM     54  C   UNL A   1      42.732  28.230  31.994  1.00  0.00     0.031 C 
ATOM     55  C   UNL A   1      43.223  29.165  26.373  1.00  0.00     0.029 A 
ATOM     56  C   UNL A   1      43.178  29.336  27.758  1.00  0.00     0.049 A 
ATOM     57  H   UNL A   1      41.537  30.196  28.758  1.00  0.00     0.167 HD
ATOM     58  C   UNL A   1      43.899  28.941  30.115  1.00  0.00     0.074 A 
ATOM     59  C   UNL A   1      42.646  28.948  30.870  1.00  0.00     0.031 C 
ATOM     60  C   UNL A   1      44.171  29.127  28.789  1.00  0.00     0.031 A 
BRANCH  47  61
ATOM     61  C   UNL A   1      38.817  29.097  28.213  1.00  0.00    -0.014 A 
ATOM     62  C   UNL A   1      38.751  28.969  29.614  1.00  0.00     0.009 A 
ATOM     63  C   UNL A   1      37.687  29.642  27.576  1.00  0.00     0.009 A 
ATOM     64  C   UNL A   1      37.586  29.282  30.321  1.00  0.00     0.001 A 
ATOM     65  C   UNL A   1      36.535  29.995  28.285  1.00  0.00     0.001 A 
ATOM     66  C   UNL A   1      36.473  29.785  29.655  1.00  0.00     0.000 A 
ENDBRANCH  47  61
BRANCH  48  67
ATOM     67  C   UNL A   1      44.541  26.092  33.811  1.00  0.00    -0.014 A 
ATOM     68  C   UNL A   1      43.488  25.547  34.561  1.00  0.00     0.009 A 
ATOM     69  C   UNL A   1      45.823  26.101  34.393  1.00  0.00     0.009 A 
ATOM     70  C   UNL A   1      43.716  24.998  35.830  1.00  0.00     0.001 A 
ATOM     71  C   UNL A   1      46.051  25.552  35.659  1.00  0.00     0.001 A 
ATOM     72  C   UNL A   1      45.000  24.986  36.372  1.00  0.00     0.000 A 
ENDBRANCH  48  67
BRANCH  60  73
ATOM     73  C   UNL A   1      45.577  28.847  28.312  1.00  0.00    -0.014 A 
ATOM     74  C   UNL A   1      46.021  27.569  27.926  1.00  0.00     0.009 A 
ATOM     75  C   UNL A   1      46.430  29.939  28.094  1.00  0.00     0.009 A 
ATOM     76  C   UNL A   1      47.288  27.389  27.361  1.00  0.00     0.001 A 
ATOM     77  C   UNL A   1      47.686  29.762  27.511  1.00  0.00     0.001 A 
ATOM     78  C   UNL A   1      48.118  28.488  27.148  1.00  0.00     0.000 A 
ENDBRANCH  60  73
ENDBRANCH  34  35
ENDBRANCH  26  29
ENDBRANCH  24  25
ENDBRANCH   1  24
TORSDOF 12
ENDMDL
