MODEL 1
REMARK VINA RESULT:     -11.8      0.000      0.000
REMARK SMILES COc1cc(OC)cc(-c2cc3nc(C)c(CCC(=O)NCCCNC(=O)c4ccc(-c5c6nc(c(-c7ccccc7)c7ccc([nH]7)c(-c7ccccc7)c7nc(c(-c8ccccc8)c8ccc5[nH]8)C=C7)C=C6)cc4)c(C)n3n2)c1
REMARK SMILES IDX 22 1 21 2 19 3 20 4 18 6 17 7 16 8 10 9 11 10 79 11 12 12
REMARK SMILES IDX 78 13 13 14 76 15 14 16 77 17 15 18 9 19 3 20 4 21 80 22
REMARK SMILES IDX 5 23 8 24 2 25 1 26 6 27 7 28 23 29 24 30 25 31 26 32 27 34
REMARK SMILES IDX 28 35 29 36 75 37 30 38 74 39 31 40 32 41 33 42 68 43 34 44
REMARK SMILES IDX 73 45 67 46 69 47 35 48 72 49 66 50 65 51 36 53 58 54 43 55
REMARK SMILES IDX 57 56 44 57 47 58 56 59 70 60 45 61 46 62 55 64 71 65 48 66
REMARK SMILES IDX 37 67 38 68 42 69 39 70 41 71 40 72 59 73 60 74 64 75 61 76
REMARK SMILES IDX 63 77 62 78 49 79 50 80 54 81 51 82 53 83 52 84
REMARK H PARENT 21 5 25 33 69 52 47 63
REMARK Flexibility Score: inf
ROOT
ATOM      1  C   UNL A   1      37.309  32.849  33.612  1.00  0.00     0.117 C 
ENDROOT
BRANCH   1   2
ATOM      2  N   UNL A   1      35.890  32.836  33.281  1.00  0.00    -0.356 N 
ATOM      3  C   UNL A   1      35.223  32.324  32.211  1.00  0.00     0.220 C 
ATOM      4  O   UNL A   1      34.043  32.645  32.058  1.00  0.00    -0.275 OA
ATOM      5  H   UNL A   1      35.313  33.272  33.949  1.00  0.00     0.163 HD
BRANCH   3   6
ATOM      6  C   UNL A   1      35.898  31.358  31.258  1.00  0.00     0.105 C 
BRANCH   6   7
ATOM      7  C   UNL A   1      36.365  32.043  29.959  1.00  0.00     0.049 C 
BRANCH   7   8
ATOM      8  C   UNL A   1      35.487  31.662  28.790  1.00  0.00    -0.005 A 
ATOM      9  C   UNL A   1      33.031  28.854  26.343  1.00  0.00     0.095 A 
ATOM     10  C   UNL A   1      32.384  30.070  26.643  1.00  0.00     0.080 A 
ATOM     11  N   UNL A   1      34.339  28.914  26.634  1.00  0.00    -0.166 NA
ATOM     12  C   UNL A   1      33.345  30.872  27.210  1.00  0.00     0.156 A 
ATOM     13  N   UNL A   1      34.513  30.109  27.264  1.00  0.00    -0.219 N 
ATOM     14  N   UNL A   1      33.276  32.131  27.721  1.00  0.00    -0.234 NA
ATOM     15  C   UNL A   1      35.606  30.526  28.058  1.00  0.00     0.046 A 
ATOM     16  C   UNL A   1      34.279  32.520  28.452  1.00  0.00     0.045 A 
ATOM     17  C   UNL A   1      36.771  29.583  28.173  1.00  0.00     0.067 C 
ATOM     18  C   UNL A   1      34.231  33.964  28.917  1.00  0.00     0.067 C 
BRANCH   9  19
ATOM     19  C   UNL A   1      32.426  27.671  25.738  1.00  0.00     0.009 A 
ATOM     20  C   UNL A   1      31.862  26.320  23.801  1.00  0.00     0.123 A 
ATOM     21  C   UNL A   1      31.323  25.360  24.662  1.00  0.00     0.092 A 
ATOM     22  C   UNL A   1      32.433  27.474  24.342  1.00  0.00     0.057 A 
ATOM     23  C   UNL A   1      31.319  25.539  26.045  1.00  0.00     0.123 A 
ATOM     24  C   UNL A   1      31.861  26.703  26.581  1.00  0.00     0.057 A 
BRANCH  20  25
ATOM     25  O   UNL A   1      31.759  25.977  22.485  1.00  0.00    -0.497 OA
ATOM     26  C   UNL A   1      32.900  26.039  21.644  1.00  0.00     0.278 C 
ENDBRANCH  20  25
BRANCH  23  27
ATOM     27  O   UNL A   1      30.765  24.508  26.752  1.00  0.00    -0.497 OA
ATOM     28  C   UNL A   1      31.593  23.378  26.990  1.00  0.00     0.278 C 
ENDBRANCH  23  27
ENDBRANCH   9  19
ENDBRANCH   7   8
ENDBRANCH   6   7
ENDBRANCH   3   6
ENDBRANCH   1   2
BRANCH   1  29
ATOM     29  C   UNL A   1      37.898  34.256  33.595  1.00  0.00     0.042 C 
BRANCH  29  30
ATOM     30  C   UNL A   1      39.196  34.372  32.810  1.00  0.00     0.118 C 
BRANCH  30  31
ATOM     31  N   UNL A   1      38.999  34.464  31.383  1.00  0.00    -0.352 N 
ATOM     32  C   UNL A   1      39.488  33.647  30.398  1.00  0.00     0.251 C 
ATOM     33  H   UNL A   1      38.439  35.213  31.077  1.00  0.00     0.163 HD
ATOM     34  O   UNL A   1      39.295  33.978  29.222  1.00  0.00    -0.269 OA
BRANCH  32  35
ATOM     35  C   UNL A   1      40.181  32.366  30.683  1.00  0.00     0.039 A 
ATOM     36  C   UNL A   1      41.488  32.207  30.200  1.00  0.00     0.014 A 
ATOM     37  C   UNL A   1      39.515  31.268  31.241  1.00  0.00     0.014 A 
ATOM     38  C   UNL A   1      42.068  30.944  30.174  1.00  0.00     0.010 A 
ATOM     39  C   UNL A   1      40.114  30.024  31.281  1.00  0.00     0.010 A 
ATOM     40  C   UNL A   1      41.343  29.851  30.656  1.00  0.00    -0.014 A 
BRANCH  40  41
ATOM     41  C   UNL A   1      41.822  28.503  30.399  1.00  0.00     0.031 A 
ATOM     42  C   UNL A   1      42.662  27.877  31.441  1.00  0.00     0.074 A 
ATOM     43  C   UNL A   1      41.409  27.791  29.329  1.00  0.00     0.049 A 
ATOM     44  N   UNL A   1      43.896  27.510  31.342  1.00  0.00    -0.248 NA
ATOM     45  C   UNL A   1      42.069  27.667  32.768  1.00  0.00     0.031 C 
ATOM     46  C   UNL A   1      40.339  28.129  28.384  1.00  0.00     0.029 A 
ATOM     47  N   UNL A   1      41.791  26.545  28.932  1.00  0.00    -0.354 N 
ATOM     48  C   UNL A   1      44.201  26.868  32.537  1.00  0.00     0.074 A 
ATOM     49  C   UNL A   1      43.087  27.107  33.423  1.00  0.00     0.031 C 
ATOM     50  C   UNL A   1      40.010  27.028  27.674  1.00  0.00     0.029 A 
ATOM     51  C   UNL A   1      40.939  25.962  28.008  1.00  0.00     0.049 A 
ATOM     52  H   UNL A   1      42.600  26.098  29.273  1.00  0.00     0.167 HD
ATOM     53  C   UNL A   1      45.247  26.002  32.633  1.00  0.00     0.031 A 
ATOM     54  C   UNL A   1      40.962  24.679  27.576  1.00  0.00     0.031 A 
ATOM     55  C   UNL A   1      46.162  26.129  31.528  1.00  0.00     0.049 A 
ATOM     56  C   UNL A   1      42.299  24.122  27.876  1.00  0.00     0.074 A 
ATOM     57  C   UNL A   1      46.913  27.158  30.994  1.00  0.00     0.029 A 
ATOM     58  N   UNL A   1      46.131  25.149  30.564  1.00  0.00    -0.354 N 
ATOM     59  N   UNL A   1      43.388  24.477  27.257  1.00  0.00    -0.248 NA
ATOM     60  C   UNL A   1      42.500  23.430  29.139  1.00  0.00     0.031 C 
ATOM     61  C   UNL A   1      46.888  26.944  29.585  1.00  0.00     0.029 A 
ATOM     62  C   UNL A   1      46.162  25.775  29.345  1.00  0.00     0.049 A 
ATOM     63  H   UNL A   1      46.093  24.178  30.720  1.00  0.00     0.167 HD
ATOM     64  C   UNL A   1      44.370  24.461  28.236  1.00  0.00     0.074 A 
ATOM     65  C   UNL A   1      43.798  23.681  29.329  1.00  0.00     0.031 C 
ATOM     66  C   UNL A   1      45.433  25.318  28.182  1.00  0.00     0.031 A 
BRANCH  53  67
ATOM     67  C   UNL A   1      45.238  24.779  33.517  1.00  0.00    -0.014 A 
ATOM     68  C   UNL A   1      44.326  23.745  33.234  1.00  0.00     0.009 A 
ATOM     69  C   UNL A   1      45.881  24.730  34.768  1.00  0.00     0.009 A 
ATOM     70  C   UNL A   1      44.021  22.763  34.182  1.00  0.00     0.001 A 
ATOM     71  C   UNL A   1      45.613  23.724  35.700  1.00  0.00     0.001 A 
ATOM     72  C   UNL A   1      44.659  22.757  35.418  1.00  0.00     0.000 A 
ENDBRANCH  53  67
BRANCH  54  73
ATOM     73  C   UNL A   1      39.843  23.844  27.095  1.00  0.00    -0.014 A 
ATOM     74  C   UNL A   1      38.617  24.426  26.740  1.00  0.00     0.009 A 
ATOM     75  C   UNL A   1      40.055  22.497  26.746  1.00  0.00     0.009 A 
ATOM     76  C   UNL A   1      37.656  23.696  26.028  1.00  0.00     0.001 A 
ATOM     77  C   UNL A   1      39.093  21.767  26.044  1.00  0.00     0.001 A 
ATOM     78  C   UNL A   1      37.898  22.373  25.670  1.00  0.00     0.000 A 
ENDBRANCH  54  73
BRANCH  66  79
ATOM     79  C   UNL A   1      45.681  26.067  26.895  1.00  0.00    -0.014 A 
ATOM     80  C   UNL A   1      44.998  27.247  26.552  1.00  0.00     0.009 A 
ATOM     81  C   UNL A   1      46.735  25.647  26.069  1.00  0.00     0.009 A 
ATOM     82  C   UNL A   1      45.331  27.959  25.395  1.00  0.00     0.001 A 
ATOM     83  C   UNL A   1      47.085  26.372  24.927  1.00  0.00     0.001 A 
ATOM     84  C   UNL A   1      46.377  27.522  24.585  1.00  0.00     0.000 A 
ENDBRANCH  66  79
ENDBRANCH  40  41
ENDBRANCH  32  35
ENDBRANCH  30  31
ENDBRANCH  29  30
ENDBRANCH   1  29
TORSDOF 15
ENDMDL
MODEL 2
REMARK VINA RESULT:     -11.6      3.171      7.487
REMARK SMILES COc1cc(OC)cc(-c2cc3nc(C)c(CCC(=O)NCCCNC(=O)c4ccc(-c5c6nc(c(-c7ccccc7)c7ccc([nH]7)c(-c7ccccc7)c7nc(c(-c8ccccc8)c8ccc5[nH]8)C=C7)C=C6)cc4)c(C)n3n2)c1
REMARK SMILES IDX 22 1 21 2 19 3 20 4 18 6 17 7 16 8 10 9 11 10 79 11 12 12
REMARK SMILES IDX 78 13 13 14 76 15 14 16 77 17 15 18 9 19 3 20 4 21 80 22
REMARK SMILES IDX 5 23 8 24 2 25 1 26 6 27 7 28 23 29 24 30 25 31 26 32 27 34
REMARK SMILES IDX 28 35 29 36 75 37 30 38 74 39 31 40 32 41 33 42 68 43 34 44
REMARK SMILES IDX 73 45 67 46 69 47 35 48 72 49 66 50 65 51 36 53 58 54 43 55
REMARK SMILES IDX 57 56 44 57 47 58 56 59 70 60 45 61 46 62 55 64 71 65 48 66
REMARK SMILES IDX 37 67 38 68 42 69 39 70 41 71 40 72 59 73 60 74 64 75 61 76
REMARK SMILES IDX 63 77 62 78 49 79 50 80 54 81 51 82 53 83 52 84
REMARK H PARENT 21 5 25 33 69 52 47 63
REMARK Flexibility Score: inf
ROOT
ATOM      1  C   UNL A   1      33.211  29.237  26.402  1.00  0.00     0.117 C 
ENDROOT
BRANCH   1   2
ATOM      2  N   UNL A   1      33.737  29.345  25.048  1.00  0.00    -0.356 N 
ATOM      3  C   UNL A   1      33.144  29.158  23.838  1.00  0.00     0.220 C 
ATOM      4  O   UNL A   1      33.870  29.089  22.844  1.00  0.00    -0.275 OA
ATOM      5  H   UNL A   1      34.687  29.599  25.001  1.00  0.00     0.163 HD
BRANCH   3   6
ATOM      6  C   UNL A   1      31.637  29.076  23.710  1.00  0.00     0.105 C 
BRANCH   6   7
ATOM      7  C   UNL A   1      31.194  28.363  22.418  1.00  0.00     0.049 C 
BRANCH   7   8
ATOM      8  C   UNL A   1      30.973  26.887  22.651  1.00  0.00    -0.005 A 
ATOM      9  C   UNL A   1      32.207  22.765  23.835  1.00  0.00     0.095 A 
ATOM     10  C   UNL A   1      31.019  23.208  24.451  1.00  0.00     0.080 A 
ATOM     11  N   UNL A   1      32.565  23.577  22.828  1.00  0.00    -0.166 NA
ATOM     12  C   UNL A   1      30.690  24.385  23.823  1.00  0.00     0.156 A 
ATOM     13  N   UNL A   1      31.699  24.627  22.888  1.00  0.00    -0.219 N 
ATOM     14  N   UNL A   1      29.669  25.259  24.031  1.00  0.00    -0.234 NA
ATOM     15  C   UNL A   1      31.826  25.898  22.282  1.00  0.00     0.046 A 
ATOM     16  C   UNL A   1      29.781  26.431  23.478  1.00  0.00     0.045 A 
ATOM     17  C   UNL A   1      33.018  26.119  21.393  1.00  0.00     0.067 C 
ATOM     18  C   UNL A   1      28.581  27.346  23.632  1.00  0.00     0.067 C 
BRANCH   9  19
ATOM     19  C   UNL A   1      32.964  21.561  24.163  1.00  0.00     0.009 A 
ATOM     20  C   UNL A   1      33.173  19.145  24.290  1.00  0.00     0.123 A 
ATOM     21  C   UNL A   1      34.487  19.310  24.739  1.00  0.00     0.092 A 
ATOM     22  C   UNL A   1      32.413  20.275  23.984  1.00  0.00     0.057 A 
ATOM     23  C   UNL A   1      35.046  20.576  24.911  1.00  0.00     0.123 A 
ATOM     24  C   UNL A   1      34.277  21.702  24.634  1.00  0.00     0.057 A 
BRANCH  20  25
ATOM     25  O   UNL A   1      32.799  17.836  24.201  1.00  0.00    -0.497 OA
ATOM     26  C   UNL A   1      32.613  17.069  25.379  1.00  0.00     0.278 C 
ENDBRANCH  20  25
BRANCH  23  27
ATOM     27  O   UNL A   1      36.342  20.572  25.346  1.00  0.00    -0.497 OA
ATOM     28  C   UNL A   1      37.275  21.326  24.585  1.00  0.00     0.278 C 
ENDBRANCH  23  27
ENDBRANCH   9  19
ENDBRANCH   7   8
ENDBRANCH   6   7
ENDBRANCH   3   6
ENDBRANCH   1   2
BRANCH   1  29
ATOM     29  C   UNL A   1      34.314  29.105  27.448  1.00  0.00     0.042 C 
BRANCH  29  30
ATOM     30  C   UNL A   1      35.108  30.383  27.672  1.00  0.00     0.118 C 
BRANCH  30  31
ATOM     31  N   UNL A   1      35.413  30.634  29.061  1.00  0.00    -0.352 N 
ATOM     32  C   UNL A   1      36.424  30.109  29.822  1.00  0.00     0.251 C 
ATOM     33  H   UNL A   1      34.816  31.266  29.521  1.00  0.00     0.163 HD
ATOM     34  O   UNL A   1      36.433  30.368  31.031  1.00  0.00    -0.269 OA
BRANCH  32  35
ATOM     35  C   UNL A   1      37.527  29.299  29.248  1.00  0.00     0.039 A 
ATOM     36  C   UNL A   1      38.077  28.283  30.045  1.00  0.00     0.014 A 
ATOM     37  C   UNL A   1      38.147  29.636  28.040  1.00  0.00     0.014 A 
ATOM     38  C   UNL A   1      39.287  27.702  29.688  1.00  0.00     0.010 A 
ATOM     39  C   UNL A   1      39.314  29.012  27.645  1.00  0.00     0.010 A 
ATOM     40  C   UNL A   1      39.928  28.124  28.520  1.00  0.00    -0.014 A 
BRANCH  40  41
ATOM     41  C   UNL A   1      41.303  27.721  28.270  1.00  0.00     0.031 A 
ATOM     42  C   UNL A   1      41.514  26.407  27.628  1.00  0.00     0.074 A 
ATOM     43  C   UNL A   1      42.340  28.559  28.478  1.00  0.00     0.049 A 
ATOM     44  N   UNL A   1      42.111  25.375  28.125  1.00  0.00    -0.248 NA
ATOM     45  C   UNL A   1      40.960  26.201  26.284  1.00  0.00     0.031 C 
ATOM     46  C   UNL A   1      42.289  29.991  28.794  1.00  0.00     0.029 A 
ATOM     47  N   UNL A   1      43.674  28.322  28.331  1.00  0.00    -0.354 N 
ATOM     48  C   UNL A   1      42.162  24.435  27.102  1.00  0.00     0.074 A 
ATOM     49  C   UNL A   1      41.330  24.944  26.039  1.00  0.00     0.031 C 
ATOM     50  C   UNL A   1      43.509  30.534  28.592  1.00  0.00     0.029 A 
ATOM     51  C   UNL A   1      44.448  29.470  28.282  1.00  0.00     0.049 A 
ATOM     52  H   UNL A   1      44.053  27.416  28.264  1.00  0.00     0.167 HD
ATOM     53  C   UNL A   1      43.063  23.413  27.119  1.00  0.00     0.031 A 
ATOM     54  C   UNL A   1      45.762  29.552  27.965  1.00  0.00     0.031 A 
ATOM     55  C   UNL A   1      43.645  23.222  28.423  1.00  0.00     0.049 A 
ATOM     56  C   UNL A   1      46.356  28.208  28.133  1.00  0.00     0.074 A 
ATOM     57  C   UNL A   1      43.149  22.959  29.685  1.00  0.00     0.029 A 
ATOM     58  N   UNL A   1      44.936  23.655  28.610  1.00  0.00    -0.354 N 
ATOM     59  N   UNL A   1      46.545  27.639  29.288  1.00  0.00    -0.248 NA
ATOM     60  C   UNL A   1      46.398  27.315  26.985  1.00  0.00     0.031 C 
ATOM     61  C   UNL A   1      43.990  23.693  30.573  1.00  0.00     0.029 A 
ATOM     62  C   UNL A   1      44.973  24.322  29.807  1.00  0.00     0.049 A 
ATOM     63  H   UNL A   1      45.693  23.514  27.997  1.00  0.00     0.167 HD
ATOM     64  C   UNL A   1      46.287  26.294  29.064  1.00  0.00     0.074 A 
ATOM     65  C   UNL A   1      46.339  26.138  27.614  1.00  0.00     0.031 C 
ATOM     66  C   UNL A   1      45.775  25.501  30.052  1.00  0.00     0.031 A 
BRANCH  53  67
ATOM     67  C   UNL A   1      43.702  22.846  25.876  1.00  0.00    -0.014 A 
ATOM     68  C   UNL A   1      43.755  21.449  25.718  1.00  0.00     0.009 A 
ATOM     69  C   UNL A   1      44.497  23.611  25.003  1.00  0.00     0.009 A 
ATOM     70  C   UNL A   1      44.617  20.852  24.790  1.00  0.00     0.001 A 
ATOM     71  C   UNL A   1      45.324  23.021  24.044  1.00  0.00     0.001 A 
ATOM     72  C   UNL A   1      45.406  21.639  23.958  1.00  0.00     0.000 A 
ENDBRANCH  53  67
BRANCH  54  73
ATOM     73  C   UNL A   1      46.495  30.672  27.343  1.00  0.00    -0.014 A 
ATOM     74  C   UNL A   1      45.815  31.819  26.904  1.00  0.00     0.009 A 
ATOM     75  C   UNL A   1      47.900  30.727  27.402  1.00  0.00     0.009 A 
ATOM     76  C   UNL A   1      46.514  32.987  26.576  1.00  0.00     0.001 A 
ATOM     77  C   UNL A   1      48.599  31.890  27.066  1.00  0.00     0.001 A 
ATOM     78  C   UNL A   1      47.903  33.026  26.667  1.00  0.00     0.000 A 
ENDBRANCH  54  73
BRANCH  66  79
ATOM     79  C   UNL A   1      45.779  26.031  31.465  1.00  0.00    -0.014 A 
ATOM     80  C   UNL A   1      46.851  25.835  32.354  1.00  0.00     0.009 A 
ATOM     81  C   UNL A   1      44.730  26.872  31.867  1.00  0.00     0.009 A 
ATOM     82  C   UNL A   1      46.850  26.429  33.620  1.00  0.00     0.001 A 
ATOM     83  C   UNL A   1      44.742  27.486  33.122  1.00  0.00     0.001 A 
ATOM     84  C   UNL A   1      45.797  27.257  34.002  1.00  0.00     0.000 A 
ENDBRANCH  66  79
ENDBRANCH  40  41
ENDBRANCH  32  35
ENDBRANCH  30  31
ENDBRANCH  29  30
ENDBRANCH   1  29
TORSDOF 15
ENDMDL
MODEL 3
REMARK VINA RESULT:     -11.6      3.219      9.692
REMARK SMILES COc1cc(OC)cc(-c2cc3nc(C)c(CCC(=O)NCCCNC(=O)c4ccc(-c5c6nc(c(-c7ccccc7)c7ccc([nH]7)c(-c7ccccc7)c7nc(c(-c8ccccc8)c8ccc5[nH]8)C=C7)C=C6)cc4)c(C)n3n2)c1
REMARK SMILES IDX 22 1 21 2 19 3 20 4 18 6 17 7 16 8 10 9 11 10 79 11 12 12
REMARK SMILES IDX 78 13 13 14 76 15 14 16 77 17 15 18 9 19 3 20 4 21 80 22
REMARK SMILES IDX 5 23 8 24 2 25 1 26 6 27 7 28 23 29 24 30 25 31 26 32 27 34
REMARK SMILES IDX 28 35 29 36 75 37 30 38 74 39 31 40 32 41 33 42 68 43 34 44
REMARK SMILES IDX 73 45 67 46 69 47 35 48 72 49 66 50 65 51 36 53 58 54 43 55
REMARK SMILES IDX 57 56 44 57 47 58 56 59 70 60 45 61 46 62 55 64 71 65 48 66
REMARK SMILES IDX 37 67 38 68 42 69 39 70 41 71 40 72 59 73 60 74 64 75 61 76
REMARK SMILES IDX 63 77 62 78 49 79 50 80 54 81 51 82 53 83 52 84
REMARK H PARENT 21 5 25 33 69 52 47 63
REMARK Flexibility Score: inf
ROOT
ATOM      1  C   UNL A   1      45.618  25.228  25.416  1.00  0.00     0.117 C 
ENDROOT
BRANCH   1   2
ATOM      2  N   UNL A   1      44.270  25.781  25.392  1.00  0.00    -0.356 N 
ATOM      3  C   UNL A   1      43.058  25.183  25.234  1.00  0.00     0.220 C 
ATOM      4  O   UNL A   1      42.081  25.906  25.024  1.00  0.00    -0.275 OA
ATOM      5  H   UNL A   1      44.230  26.757  25.513  1.00  0.00     0.163 HD
BRANCH   3   6
ATOM      6  C   UNL A   1      42.907  23.680  25.350  1.00  0.00     0.105 C 
BRANCH   6   7
ATOM      7  C   UNL A   1      42.384  23.247  26.734  1.00  0.00     0.049 C 
BRANCH   7   8
ATOM      8  C   UNL A   1      41.055  22.539  26.624  1.00  0.00    -0.005 A 
ATOM      9  C   UNL A   1      36.919  21.954  25.053  1.00  0.00     0.095 A 
ATOM     10  C   UNL A   1      37.725  20.799  24.993  1.00  0.00     0.080 A 
ATOM     11  N   UNL A   1      37.487  22.904  25.811  1.00  0.00    -0.166 NA
ATOM     12  C   UNL A   1      38.866  21.104  25.694  1.00  0.00     0.156 A 
ATOM     13  N   UNL A   1      38.726  22.428  26.116  1.00  0.00    -0.219 N 
ATOM     14  N   UNL A   1      39.995  20.383  25.930  1.00  0.00    -0.234 NA
ATOM     15  C   UNL A   1      39.842  23.147  26.604  1.00  0.00     0.046 A 
ATOM     16  C   UNL A   1      41.025  21.039  26.379  1.00  0.00     0.045 A 
ATOM     17  C   UNL A   1      39.639  24.606  26.908  1.00  0.00     0.067 C 
ATOM     18  C   UNL A   1      42.234  20.196  26.739  1.00  0.00     0.067 C 
BRANCH   9  19
ATOM     19  C   UNL A   1      35.605  22.134  24.444  1.00  0.00     0.009 A 
ATOM     20  C   UNL A   1      34.090  23.311  22.956  1.00  0.00     0.123 A 
ATOM     21  C   UNL A   1      33.101  22.373  23.266  1.00  0.00     0.092 A 
ATOM     22  C   UNL A   1      35.354  23.181  23.534  1.00  0.00     0.057 A 
ATOM     23  C   UNL A   1      33.340  21.328  24.157  1.00  0.00     0.123 A 
ATOM     24  C   UNL A   1      34.591  21.217  24.756  1.00  0.00     0.057 A 
BRANCH  20  25
ATOM     25  O   UNL A   1      33.666  24.267  22.080  1.00  0.00    -0.497 OA
ATOM     26  C   UNL A   1      32.363  24.814  22.202  1.00  0.00     0.278 C 
ENDBRANCH  20  25
BRANCH  23  27
ATOM     27  O   UNL A   1      32.277  20.489  24.350  1.00  0.00    -0.497 OA
ATOM     28  C   UNL A   1      32.356  19.207  23.744  1.00  0.00     0.278 C 
ENDBRANCH  23  27
ENDBRANCH   9  19
ENDBRANCH   7   8
ENDBRANCH   6   7
ENDBRANCH   3   6
ENDBRANCH   1   2
BRANCH   1  29
ATOM     29  C   UNL A   1      46.578  26.068  26.252  1.00  0.00     0.042 C 
BRANCH  29  30
ATOM     30  C   UNL A   1      46.180  26.186  27.716  1.00  0.00     0.118 C 
BRANCH  30  31
ATOM     31  N   UNL A   1      45.836  24.922  28.322  1.00  0.00    -0.352 N 
ATOM     32  C   UNL A   1      44.853  24.652  29.238  1.00  0.00     0.251 C 
ATOM     33  H   UNL A   1      46.378  24.151  28.039  1.00  0.00     0.163 HD
ATOM     34  O   UNL A   1      44.806  23.514  29.720  1.00  0.00    -0.269 OA
BRANCH  32  35
ATOM     35  C   UNL A   1      43.820  25.645  29.627  1.00  0.00     0.039 A 
ATOM     36  C   UNL A   1      42.688  25.766  28.807  1.00  0.00     0.014 A 
ATOM     37  C   UNL A   1      44.029  26.572  30.654  1.00  0.00     0.014 A 
ATOM     38  C   UNL A   1      41.848  26.864  28.946  1.00  0.00     0.010 A 
ATOM     39  C   UNL A   1      43.157  27.627  30.841  1.00  0.00     0.010 A 
ATOM     40  C   UNL A   1      42.132  27.821  29.923  1.00  0.00    -0.014 A 
BRANCH  40  41
ATOM     41  C   UNL A   1      41.425  29.092  29.911  1.00  0.00     0.031 A 
ATOM     42  C   UNL A   1      42.216  30.300  29.599  1.00  0.00     0.074 A 
ATOM     43  C   UNL A   1      40.083  29.161  30.037  1.00  0.00     0.049 A 
ATOM     44  N   UNL A   1      42.446  31.311  30.369  1.00  0.00    -0.248 NA
ATOM     45  C   UNL A   1      42.862  30.378  28.282  1.00  0.00     0.031 C 
ATOM     46  C   UNL A   1      39.121  28.053  30.024  1.00  0.00     0.029 A 
ATOM     47  N   UNL A   1      39.285  30.264  30.084  1.00  0.00    -0.354 N 
ATOM     48  C   UNL A   1      43.127  32.238  29.589  1.00  0.00     0.074 A 
ATOM     49  C   UNL A   1      43.467  31.563  28.359  1.00  0.00     0.031 C 
ATOM     50  C   UNL A   1      37.877  28.548  29.835  1.00  0.00     0.029 A 
ATOM     51  C   UNL A   1      37.942  29.999  29.865  1.00  0.00     0.049 A 
ATOM     52  H   UNL A   1      39.631  31.170  30.257  1.00  0.00     0.167 HD
ATOM     53  C   UNL A   1      43.166  33.558  29.922  1.00  0.00     0.031 A 
ATOM     54  C   UNL A   1      36.954  30.905  29.676  1.00  0.00     0.031 A 
ATOM     55  C   UNL A   1      42.773  33.785  31.289  1.00  0.00     0.049 A 
ATOM     56  C   UNL A   1      37.425  32.207  30.195  1.00  0.00     0.074 A 
ATOM     57  C   UNL A   1      43.216  33.342  32.520  1.00  0.00     0.029 A 
ATOM     58  N   UNL A   1      41.524  34.314  31.510  1.00  0.00    -0.354 N 
ATOM     59  N   UNL A   1      37.586  32.467  31.460  1.00  0.00    -0.248 NA
ATOM     60  C   UNL A   1      38.090  33.123  29.282  1.00  0.00     0.031 C 
ATOM     61  C   UNL A   1      42.037  33.195  33.308  1.00  0.00     0.029 A 
ATOM     62  C   UNL A   1      40.951  33.599  32.529  1.00  0.00     0.049 A 
ATOM     63  H   UNL A   1      41.116  35.067  31.025  1.00  0.00     0.167 HD
ATOM     64  C   UNL A   1      38.707  33.283  31.512  1.00  0.00     0.074 A 
ATOM     65  C   UNL A   1      38.886  33.761  30.144  1.00  0.00     0.031 C 
ATOM     66  C   UNL A   1      39.545  33.262  32.591  1.00  0.00     0.031 A 
BRANCH  53  67
ATOM     67  C   UNL A   1      43.182  34.673  28.907  1.00  0.00    -0.014 A 
ATOM     68  C   UNL A   1      41.971  35.312  28.582  1.00  0.00     0.009 A 
ATOM     69  C   UNL A   1      44.277  34.924  28.058  1.00  0.00     0.009 A 
ATOM     70  C   UNL A   1      41.847  36.095  27.429  1.00  0.00     0.001 A 
ATOM     71  C   UNL A   1      44.168  35.743  26.932  1.00  0.00     0.001 A 
ATOM     72  C   UNL A   1      42.944  36.304  26.600  1.00  0.00     0.000 A 
ENDBRANCH  53  67
BRANCH  54  73
ATOM     73  C   UNL A   1      35.705  30.763  28.903  1.00  0.00    -0.014 A 
ATOM     74  C   UNL A   1      34.754  31.794  28.880  1.00  0.00     0.009 A 
ATOM     75  C   UNL A   1      35.551  29.711  27.980  1.00  0.00     0.009 A 
ATOM     76  C   UNL A   1      33.712  31.791  27.943  1.00  0.00     0.001 A 
ATOM     77  C   UNL A   1      34.507  29.703  27.051  1.00  0.00     0.001 A 
ATOM     78  C   UNL A   1      33.596  30.753  27.023  1.00  0.00     0.000 A 
ENDBRANCH  54  73
BRANCH  66  79
ATOM     79  C   UNL A   1      39.074  32.569  33.846  1.00  0.00    -0.014 A 
ATOM     80  C   UNL A   1      39.325  31.212  34.113  1.00  0.00     0.009 A 
ATOM     81  C   UNL A   1      38.480  33.344  34.855  1.00  0.00     0.009 A 
ATOM     82  C   UNL A   1      38.954  30.639  35.333  1.00  0.00     0.001 A 
ATOM     83  C   UNL A   1      38.132  32.778  36.084  1.00  0.00     0.001 A 
ATOM     84  C   UNL A   1      38.361  31.424  36.320  1.00  0.00     0.000 A 
ENDBRANCH  66  79
ENDBRANCH  40  41
ENDBRANCH  32  35
ENDBRANCH  30  31
ENDBRANCH  29  30
ENDBRANCH   1  29
TORSDOF 15
ENDMDL
