MODEL 1
REMARK VINA RESULT:     -11.6      0.000      0.000
REMARK SMILES O=C(NCCCNC(=O)c1cccnc1-c1ccccn1)c1ccc(-c2c3nc(c(-c4ccccc4)c4ccc([nH]4)c(-c4ccccc4)c4nc(c(-c5ccccc5)c5ccc2[nH]5)C=C4)C=C3)cc1
REMARK SMILES IDX 4 1 3 2 1 3 2 4 22 6 23 7 69 8 24 9 68 10 25 11 26 12 27 13
REMARK SMILES IDX 62 14 28 15 67 16 61 17 63 18 29 19 66 20 60 21 59 22 30 24
REMARK SMILES IDX 52 25 37 26 51 27 38 28 41 29 50 30 64 31 39 32 40 33 49 35
REMARK SMILES IDX 65 36 42 37 31 38 32 39 36 40 33 41 35 42 34 43 53 44 54 45
REMARK SMILES IDX 58 46 55 47 57 48 56 49 43 50 44 51 48 52 45 53 47 54 46 55
REMARK SMILES IDX 5 56 6 57 7 58 8 59 9 61 10 62 11 63 15 64 12 65 14 66 13 67
REMARK SMILES IDX 16 68 17 69 21 70 18 71 20 72 19 73
REMARK H PARENT 3 5 63 23 41 34 7 60
REMARK Flexibility Score: inf
ROOT
ATOM      1  C   UNL A   1      38.701  20.182  25.756  1.00  0.00     0.118 C 
ENDROOT
BRANCH   1   2
ATOM      2  N   UNL A   1      39.883  19.330  25.763  1.00  0.00    -0.352 N 
ATOM      3  O   UNL A   1      42.061  18.773  25.813  1.00  0.00    -0.269 OA
ATOM      4  C   UNL A   1      41.197  19.614  26.047  1.00  0.00     0.251 C 
ATOM      5  H   UNL A   1      39.711  18.391  25.523  1.00  0.00     0.163 HD
BRANCH   4   6
ATOM      6  C   UNL A   1      41.586  20.926  26.609  1.00  0.00     0.039 A 
ATOM      7  C   UNL A   1      41.552  21.157  27.983  1.00  0.00     0.014 A 
ATOM      8  C   UNL A   1      42.036  21.933  25.747  1.00  0.00     0.014 A 
ATOM      9  C   UNL A   1      41.794  22.434  28.477  1.00  0.00     0.010 A 
ATOM     10  C   UNL A   1      42.385  23.187  26.259  1.00  0.00     0.010 A 
ATOM     11  C   UNL A   1      42.233  23.459  27.626  1.00  0.00    -0.014 A 
BRANCH  11  12
ATOM     12  C   UNL A   1      42.584  24.778  28.211  1.00  0.00     0.031 A 
ATOM     13  C   UNL A   1      44.006  25.133  28.546  1.00  0.00     0.074 A 
ATOM     14  C   UNL A   1      41.603  25.686  28.387  1.00  0.00     0.049 A 
ATOM     15  N   UNL A   1      44.483  26.264  29.008  1.00  0.00    -0.248 NA
ATOM     16  C   UNL A   1      45.025  24.092  28.345  1.00  0.00     0.031 C 
ATOM     17  C   UNL A   1      40.182  25.459  28.105  1.00  0.00     0.029 A 
ATOM     18  N   UNL A   1      41.651  26.989  28.814  1.00  0.00    -0.354 N 
ATOM     19  C   UNL A   1      45.851  26.067  29.159  1.00  0.00     0.074 A 
ATOM     20  C   UNL A   1      46.124  24.699  28.773  1.00  0.00     0.031 C 
ATOM     21  C   UNL A   1      39.505  26.597  28.308  1.00  0.00     0.029 A 
ATOM     22  C   UNL A   1      40.427  27.613  28.800  1.00  0.00     0.049 A 
ATOM     23  H   UNL A   1      42.480  27.433  29.103  1.00  0.00     0.167 HD
ATOM     24  C   UNL A   1      46.793  26.948  29.573  1.00  0.00     0.031 A 
ATOM     25  C   UNL A   1      40.077  28.862  29.157  1.00  0.00     0.031 A 
ATOM     26  C   UNL A   1      46.520  28.307  29.967  1.00  0.00     0.049 A 
ATOM     27  C   UNL A   1      41.137  29.802  29.650  1.00  0.00     0.074 A 
ATOM     28  C   UNL A   1      47.410  29.277  30.395  1.00  0.00     0.029 A 
ATOM     29  N   UNL A   1      45.261  28.887  29.980  1.00  0.00    -0.354 N 
ATOM     30  N   UNL A   1      42.428  29.604  29.762  1.00  0.00    -0.248 NA
ATOM     31  C   UNL A   1      40.690  31.138  30.063  1.00  0.00     0.031 C 
ATOM     32  C   UNL A   1      46.682  30.429  30.713  1.00  0.00     0.029 A 
ATOM     33  C   UNL A   1      45.348  30.196  30.428  1.00  0.00     0.049 A 
ATOM     34  H   UNL A   1      44.428  28.436  29.712  1.00  0.00     0.167 HD
ATOM     35  C   UNL A   1      42.950  30.796  30.244  1.00  0.00     0.074 A 
ATOM     36  C   UNL A   1      41.841  31.718  30.375  1.00  0.00     0.031 C 
ATOM     37  C   UNL A   1      44.234  31.098  30.557  1.00  0.00     0.031 A 
BRANCH  24  38
ATOM     38  C   UNL A   1      48.217  26.466  29.637  1.00  0.00    -0.014 A 
ATOM     39  C   UNL A   1      49.097  26.650  28.559  1.00  0.00     0.009 A 
ATOM     40  C   UNL A   1      48.700  25.866  30.811  1.00  0.00     0.009 A 
ATOM     41  C   UNL A   1      50.422  26.219  28.645  1.00  0.00     0.001 A 
ATOM     42  C   UNL A   1      50.033  25.459  30.903  1.00  0.00     0.001 A 
ATOM     43  C   UNL A   1      50.891  25.629  29.819  1.00  0.00     0.000 A 
ENDBRANCH  24  38
BRANCH  25  44
ATOM     44  C   UNL A   1      38.655  29.285  29.082  1.00  0.00    -0.014 A 
ATOM     45  C   UNL A   1      37.803  29.147  30.188  1.00  0.00     0.009 A 
ATOM     46  C   UNL A   1      38.141  29.830  27.894  1.00  0.00     0.009 A 
ATOM     47  C   UNL A   1      36.460  29.519  30.096  1.00  0.00     0.001 A 
ATOM     48  C   UNL A   1      36.807  30.232  27.816  1.00  0.00     0.001 A 
ATOM     49  C   UNL A   1      35.965  30.065  28.913  1.00  0.00     0.000 A 
ENDBRANCH  25  44
BRANCH  37  50
ATOM     50  C   UNL A   1      44.502  32.494  31.041  1.00  0.00    -0.014 A 
ATOM     51  C   UNL A   1      44.482  32.806  32.410  1.00  0.00     0.009 A 
ATOM     52  C   UNL A   1      44.791  33.507  30.115  1.00  0.00     0.009 A 
ATOM     53  C   UNL A   1      44.705  34.117  32.837  1.00  0.00     0.001 A 
ATOM     54  C   UNL A   1      45.043  34.810  30.547  1.00  0.00     0.001 A 
ATOM     55  C   UNL A   1      44.989  35.116  31.905  1.00  0.00     0.000 A 
ENDBRANCH  37  50
ENDBRANCH  11  12
ENDBRANCH   4   6
ENDBRANCH   1   2
BRANCH   1  56
ATOM     56  C   UNL A   1      37.595  19.659  24.848  1.00  0.00     0.042 C 
BRANCH  56  57
ATOM     57  C   UNL A   1      36.457  20.645  24.631  1.00  0.00     0.118 C 
BRANCH  57  58
ATOM     58  N   UNL A   1      35.545  20.704  25.765  1.00  0.00    -0.352 N 
ATOM     59  C   UNL A   1      34.186  20.898  25.807  1.00  0.00     0.253 C 
ATOM     60  H   UNL A   1      35.972  20.587  26.645  1.00  0.00     0.163 HD
ATOM     61  O   UNL A   1      33.627  21.004  26.894  1.00  0.00    -0.269 OA
BRANCH  59  62
ATOM     62  C   UNL A   1      33.418  20.971  24.553  1.00  0.00     0.067 A 
ATOM     63  C   UNL A   1      33.225  22.220  23.947  1.00  0.00     0.018 A 
ATOM     64  C   UNL A   1      32.915  19.829  23.926  1.00  0.00     0.101 A 
ATOM     65  C   UNL A   1      32.463  22.313  22.789  1.00  0.00     0.021 A 
ATOM     66  N   UNL A   1      32.144  19.924  22.799  1.00  0.00    -0.254 NA
ATOM     67  C   UNL A   1      31.939  21.147  22.264  1.00  0.00     0.112 A 
BRANCH  64  68
ATOM     68  C   UNL A   1      33.164  18.453  24.396  1.00  0.00     0.089 A 
ATOM     69  C   UNL A   1      34.267  17.707  23.981  1.00  0.00     0.031 A 
ATOM     70  N   UNL A   1      32.247  17.953  25.269  1.00  0.00    -0.255 NA
ATOM     71  C   UNL A   1      34.418  16.403  24.452  1.00  0.00     0.004 A 
ATOM     72  C   UNL A   1      32.418  16.688  25.706  1.00  0.00     0.112 A 
ATOM     73  C   UNL A   1      33.475  15.880  25.327  1.00  0.00     0.020 A 
ENDBRANCH  64  68
ENDBRANCH  59  62
ENDBRANCH  57  58
ENDBRANCH  56  57
ENDBRANCH   1  56
TORSDOF 11
ENDMDL
MODEL 2
REMARK VINA RESULT:     -11.4      0.333      6.191
REMARK SMILES O=C(NCCCNC(=O)c1cccnc1-c1ccccn1)c1ccc(-c2c3nc(c(-c4ccccc4)c4ccc([nH]4)c(-c4ccccc4)c4nc(c(-c5ccccc5)c5ccc2[nH]5)C=C4)C=C3)cc1
REMARK SMILES IDX 4 1 3 2 1 3 2 4 22 6 23 7 69 8 24 9 68 10 25 11 26 12 27 13
REMARK SMILES IDX 62 14 28 15 67 16 61 17 63 18 29 19 66 20 60 21 59 22 30 24
REMARK SMILES IDX 52 25 37 26 51 27 38 28 41 29 50 30 64 31 39 32 40 33 49 35
REMARK SMILES IDX 65 36 42 37 31 38 32 39 36 40 33 41 35 42 34 43 53 44 54 45
REMARK SMILES IDX 58 46 55 47 57 48 56 49 43 50 44 51 48 52 45 53 47 54 46 55
REMARK SMILES IDX 5 56 6 57 7 58 8 59 9 61 10 62 11 63 15 64 12 65 14 66 13 67
REMARK SMILES IDX 16 68 17 69 21 70 18 71 20 72 19 73
REMARK H PARENT 3 5 63 23 41 34 7 60
REMARK Flexibility Score: inf
ROOT
ATOM      1  C   UNL A   1      38.736  20.263  25.711  1.00  0.00     0.118 C 
ENDROOT
BRANCH   1   2
ATOM      2  N   UNL A   1      39.899  19.387  25.775  1.00  0.00    -0.352 N 
ATOM      3  O   UNL A   1      42.063  18.787  25.885  1.00  0.00    -0.269 OA
ATOM      4  C   UNL A   1      41.214  19.656  26.068  1.00  0.00     0.251 C 
ATOM      5  H   UNL A   1      39.710  18.443  25.572  1.00  0.00     0.163 HD
BRANCH   4   6
ATOM      6  C   UNL A   1      41.622  20.982  26.582  1.00  0.00     0.039 A 
ATOM      7  C   UNL A   1      41.598  21.263  27.947  1.00  0.00     0.014 A 
ATOM      8  C   UNL A   1      42.078  21.952  25.682  1.00  0.00     0.014 A 
ATOM      9  C   UNL A   1      41.858  22.553  28.393  1.00  0.00     0.010 A 
ATOM     10  C   UNL A   1      42.446  23.219  26.146  1.00  0.00     0.010 A 
ATOM     11  C   UNL A   1      42.304  23.541  27.504  1.00  0.00    -0.014 A 
BRANCH  11  12
ATOM     12  C   UNL A   1      42.675  24.876  28.039  1.00  0.00     0.031 A 
ATOM     13  C   UNL A   1      41.637  25.934  28.294  1.00  0.00     0.074 A 
ATOM     14  C   UNL A   1      43.966  25.110  28.350  1.00  0.00     0.049 A 
ATOM     15  N   UNL A   1      41.792  27.128  28.812  1.00  0.00    -0.248 NA
ATOM     16  C   UNL A   1      40.250  25.620  27.917  1.00  0.00     0.031 C 
ATOM     17  C   UNL A   1      45.068  24.165  28.144  1.00  0.00     0.029 A 
ATOM     18  N   UNL A   1      44.567  26.197  28.932  1.00  0.00    -0.354 N 
ATOM     19  C   UNL A   1      40.529  27.709  28.816  1.00  0.00     0.074 A 
ATOM     20  C   UNL A   1      39.624  26.751  28.218  1.00  0.00     0.031 C 
ATOM     21  C   UNL A   1      46.195  24.687  28.645  1.00  0.00     0.029 A 
ATOM     22  C   UNL A   1      45.914  26.027  29.144  1.00  0.00     0.049 A 
ATOM     23  H   UNL A   1      44.082  27.018  29.174  1.00  0.00     0.167 HD
ATOM     24  C   UNL A   1      40.156  28.925  29.284  1.00  0.00     0.031 A 
ATOM     25  C   UNL A   1      46.829  26.860  29.669  1.00  0.00     0.031 A 
ATOM     26  C   UNL A   1      41.059  29.883  29.870  1.00  0.00     0.049 A 
ATOM     27  C   UNL A   1      46.394  28.216  30.141  1.00  0.00     0.074 A 
ATOM     28  C   UNL A   1      40.774  31.139  30.378  1.00  0.00     0.029 A 
ATOM     29  N   UNL A   1      42.423  29.689  30.026  1.00  0.00    -0.354 N 
ATOM     30  N   UNL A   1      45.190  28.736  30.158  1.00  0.00    -0.248 NA
ATOM     31  C   UNL A   1      47.444  29.098  30.667  1.00  0.00     0.031 C 
ATOM     32  C   UNL A   1      41.974  31.724  30.798  1.00  0.00     0.029 A 
ATOM     33  C   UNL A   1      42.996  30.811  30.605  1.00  0.00     0.049 A 
ATOM     34  H   UNL A   1      42.912  28.876  29.764  1.00  0.00     0.167 HD
ATOM     35  C   UNL A   1      45.336  30.000  30.711  1.00  0.00     0.074 A 
ATOM     36  C   UNL A   1      46.738  30.156  31.041  1.00  0.00     0.031 C 
ATOM     37  C   UNL A   1      44.393  30.951  30.921  1.00  0.00     0.031 A 
BRANCH  24  38
ATOM     38  C   UNL A   1      38.704  29.300  29.167  1.00  0.00    -0.014 A 
ATOM     39  C   UNL A   1      37.826  29.154  30.252  1.00  0.00     0.009 A 
ATOM     40  C   UNL A   1      38.219  29.858  27.973  1.00  0.00     0.009 A 
ATOM     41  C   UNL A   1      36.487  29.532  30.136  1.00  0.00     0.001 A 
ATOM     42  C   UNL A   1      36.885  30.258  27.868  1.00  0.00     0.001 A 
ATOM     43  C   UNL A   1      36.019  30.088  28.946  1.00  0.00     0.000 A 
ENDBRANCH  24  38
BRANCH  25  44
ATOM     44  C   UNL A   1      48.253  26.443  29.753  1.00  0.00    -0.014 A 
ATOM     45  C   UNL A   1      48.740  25.768  30.881  1.00  0.00     0.009 A 
ATOM     46  C   UNL A   1      49.136  26.727  28.698  1.00  0.00     0.009 A 
ATOM     47  C   UNL A   1      50.088  25.409  30.963  1.00  0.00     0.001 A 
ATOM     48  C   UNL A   1      50.474  26.337  28.767  1.00  0.00     0.001 A 
ATOM     49  C   UNL A   1      50.951  25.690  29.905  1.00  0.00     0.000 A 
ENDBRANCH  25  44
BRANCH  37  50
ATOM     50  C   UNL A   1      44.851  32.228  31.565  1.00  0.00    -0.014 A 
ATOM     51  C   UNL A   1      45.280  33.320  30.794  1.00  0.00     0.009 A 
ATOM     52  C   UNL A   1      44.842  32.344  32.964  1.00  0.00     0.009 A 
ATOM     53  C   UNL A   1      45.730  34.488  31.413  1.00  0.00     0.001 A 
ATOM     54  C   UNL A   1      45.263  33.523  33.579  1.00  0.00     0.001 A 
ATOM     55  C   UNL A   1      45.717  34.589  32.805  1.00  0.00     0.000 A 
ENDBRANCH  37  50
ENDBRANCH  11  12
ENDBRANCH   4   6
ENDBRANCH   1   2
BRANCH   1  56
ATOM     56  C   UNL A   1      37.595  19.678  24.888  1.00  0.00     0.042 C 
BRANCH  56  57
ATOM     57  C   UNL A   1      36.447  20.648  24.648  1.00  0.00     0.118 C 
BRANCH  57  58
ATOM     58  N   UNL A   1      35.523  20.710  25.772  1.00  0.00    -0.352 N 
ATOM     59  C   UNL A   1      34.161  20.887  25.798  1.00  0.00     0.253 C 
ATOM     60  H   UNL A   1      35.943  20.609  26.657  1.00  0.00     0.163 HD
ATOM     61  O   UNL A   1      33.590  20.999  26.878  1.00  0.00    -0.269 OA
BRANCH  59  62
ATOM     62  C   UNL A   1      33.405  20.934  24.536  1.00  0.00     0.067 A 
ATOM     63  C   UNL A   1      33.197  22.173  23.915  1.00  0.00     0.018 A 
ATOM     64  C   UNL A   1      32.928  19.777  23.915  1.00  0.00     0.101 A 
ATOM     65  C   UNL A   1      32.445  22.241  22.749  1.00  0.00     0.021 A 
ATOM     66  N   UNL A   1      32.168  19.848  22.779  1.00  0.00    -0.254 NA
ATOM     67  C   UNL A   1      31.947  21.062  22.230  1.00  0.00     0.112 A 
BRANCH  64  68
ATOM     68  C   UNL A   1      33.197  18.411  24.401  1.00  0.00     0.089 A 
ATOM     69  C   UNL A   1      34.308  17.673  23.991  1.00  0.00     0.031 A 
ATOM     70  N   UNL A   1      32.290  17.910  25.284  1.00  0.00    -0.255 NA
ATOM     71  C   UNL A   1      34.477  16.378  24.477  1.00  0.00     0.004 A 
ATOM     72  C   UNL A   1      32.479  16.653  25.736  1.00  0.00     0.112 A 
ATOM     73  C   UNL A   1      33.544  15.854  25.363  1.00  0.00     0.020 A 
ENDBRANCH  64  68
ENDBRANCH  59  62
ENDBRANCH  57  58
ENDBRANCH  56  57
ENDBRANCH   1  56
TORSDOF 11
ENDMDL
MODEL 3
REMARK VINA RESULT:     -11.4      5.493     10.190
REMARK SMILES O=C(NCCCNC(=O)c1cccnc1-c1ccccn1)c1ccc(-c2c3nc(c(-c4ccccc4)c4ccc([nH]4)c(-c4ccccc4)c4nc(c(-c5ccccc5)c5ccc2[nH]5)C=C4)C=C3)cc1
REMARK SMILES IDX 4 1 3 2 1 3 2 4 22 6 23 7 69 8 24 9 68 10 25 11 26 12 27 13
REMARK SMILES IDX 62 14 28 15 67 16 61 17 63 18 29 19 66 20 60 21 59 22 30 24
REMARK SMILES IDX 52 25 37 26 51 27 38 28 41 29 50 30 64 31 39 32 40 33 49 35
REMARK SMILES IDX 65 36 42 37 31 38 32 39 36 40 33 41 35 42 34 43 53 44 54 45
REMARK SMILES IDX 58 46 55 47 57 48 56 49 43 50 44 51 48 52 45 53 47 54 46 55
REMARK SMILES IDX 5 56 6 57 7 58 8 59 9 61 10 62 11 63 15 64 12 65 14 66 13 67
REMARK SMILES IDX 16 68 17 69 21 70 18 71 20 72 19 73
REMARK H PARENT 3 5 63 23 41 34 7 60
REMARK Flexibility Score: inf
ROOT
ATOM      1  C   UNL A   1      32.577  32.200  26.876  1.00  0.00     0.118 C 
ENDROOT
BRANCH   1   2
ATOM      2  N   UNL A   1      32.404  33.540  27.421  1.00  0.00    -0.352 N 
ATOM      3  O   UNL A   1      32.681  35.286  28.810  1.00  0.00    -0.269 OA
ATOM      4  C   UNL A   1      33.118  34.224  28.375  1.00  0.00     0.251 C 
ATOM      5  H   UNL A   1      31.647  34.041  27.040  1.00  0.00     0.163 HD
BRANCH   4   6
ATOM      6  C   UNL A   1      34.393  33.687  28.899  1.00  0.00     0.039 A 
ATOM      7  C   UNL A   1      35.615  34.070  28.349  1.00  0.00     0.014 A 
ATOM      8  C   UNL A   1      34.368  32.814  29.993  1.00  0.00     0.014 A 
ATOM      9  C   UNL A   1      36.787  33.454  28.769  1.00  0.00     0.010 A 
ATOM     10  C   UNL A   1      35.562  32.278  30.488  1.00  0.00     0.010 A 
ATOM     11  C   UNL A   1      36.780  32.567  29.855  1.00  0.00    -0.014 A 
BRANCH  11  12
ATOM     12  C   UNL A   1      38.070  32.014  30.341  1.00  0.00     0.031 A 
ATOM     13  C   UNL A   1      38.810  32.643  31.488  1.00  0.00     0.074 A 
ATOM     14  C   UNL A   1      38.547  30.891  29.766  1.00  0.00     0.049 A 
ATOM     15  N   UNL A   1      39.917  32.247  32.068  1.00  0.00    -0.248 NA
ATOM     16  C   UNL A   1      38.244  33.875  32.059  1.00  0.00     0.031 C 
ATOM     17  C   UNL A   1      37.923  30.189  28.640  1.00  0.00     0.029 A 
ATOM     18  N   UNL A   1      39.644  30.124  30.066  1.00  0.00    -0.354 N 
ATOM     19  C   UNL A   1      40.184  33.181  33.061  1.00  0.00     0.074 A 
ATOM     20  C   UNL A   1      39.142  34.184  32.986  1.00  0.00     0.031 C 
ATOM     21  C   UNL A   1      38.610  29.068  28.384  1.00  0.00     0.029 A 
ATOM     22  C   UNL A   1      39.760  29.005  29.278  1.00  0.00     0.049 A 
ATOM     23  H   UNL A   1      40.286  30.354  30.776  1.00  0.00     0.167 HD
ATOM     24  C   UNL A   1      41.197  33.198  33.960  1.00  0.00     0.031 A 
ATOM     25  C   UNL A   1      40.695  28.039  29.262  1.00  0.00     0.031 A 
ATOM     26  C   UNL A   1      42.240  32.206  34.028  1.00  0.00     0.049 A 
ATOM     27  C   UNL A   1      41.829  28.106  30.242  1.00  0.00     0.074 A 
ATOM     28  C   UNL A   1      43.307  32.134  34.908  1.00  0.00     0.029 A 
ATOM     29  N   UNL A   1      42.346  31.112  33.184  1.00  0.00    -0.354 N 
ATOM     30  N   UNL A   1      42.048  28.986  31.190  1.00  0.00    -0.248 NA
ATOM     31  C   UNL A   1      42.841  27.046  30.151  1.00  0.00     0.031 C 
ATOM     32  C   UNL A   1      44.084  31.022  34.564  1.00  0.00     0.029 A 
ATOM     33  C   UNL A   1      43.471  30.370  33.509  1.00  0.00     0.049 A 
ATOM     34  H   UNL A   1      41.716  30.894  32.459  1.00  0.00     0.167 HD
ATOM     35  C   UNL A   1      43.215  28.576  31.818  1.00  0.00     0.074 A 
ATOM     36  C   UNL A   1      43.640  27.356  31.163  1.00  0.00     0.031 C 
ATOM     37  C   UNL A   1      43.881  29.161  32.843  1.00  0.00     0.031 A 
BRANCH  24  38
ATOM     38  C   UNL A   1      41.241  34.339  34.940  1.00  0.00    -0.014 A 
ATOM     39  C   UNL A   1      40.630  34.238  36.200  1.00  0.00     0.009 A 
ATOM     40  C   UNL A   1      41.947  35.509  34.620  1.00  0.00     0.009 A 
ATOM     41  C   UNL A   1      40.702  35.297  37.108  1.00  0.00     0.001 A 
ATOM     42  C   UNL A   1      42.039  36.556  35.540  1.00  0.00     0.001 A 
ATOM     43  C   UNL A   1      41.410  36.453  36.779  1.00  0.00     0.000 A 
ENDBRANCH  24  38
BRANCH  25  44
ATOM     44  C   UNL A   1      40.610  26.938  28.267  1.00  0.00    -0.014 A 
ATOM     45  C   UNL A   1      41.243  27.044  27.020  1.00  0.00     0.009 A 
ATOM     46  C   UNL A   1      39.887  25.772  28.564  1.00  0.00     0.009 A 
ATOM     47  C   UNL A   1      41.129  26.017  26.080  1.00  0.00     0.001 A 
ATOM     48  C   UNL A   1      39.804  24.732  27.637  1.00  0.00     0.001 A 
ATOM     49  C   UNL A   1      40.415  24.861  26.391  1.00  0.00     0.000 A 
ENDBRANCH  25  44
BRANCH  37  50
ATOM     50  C   UNL A   1      45.120  28.467  33.332  1.00  0.00    -0.014 A 
ATOM     51  C   UNL A   1      46.386  28.786  32.815  1.00  0.00     0.009 A 
ATOM     52  C   UNL A   1      45.018  27.487  34.331  1.00  0.00     0.009 A 
ATOM     53  C   UNL A   1      47.521  28.106  33.262  1.00  0.00     0.001 A 
ATOM     54  C   UNL A   1      46.158  26.832  34.797  1.00  0.00     0.001 A 
ATOM     55  C   UNL A   1      47.406  27.133  34.256  1.00  0.00     0.000 A 
ENDBRANCH  37  50
ENDBRANCH  11  12
ENDBRANCH   4   6
ENDBRANCH   1   2
BRANCH   1  56
ATOM     56  C   UNL A   1      31.268  31.574  26.410  1.00  0.00     0.042 C 
BRANCH  56  57
ATOM     57  C   UNL A   1      31.403  30.127  25.956  1.00  0.00     0.118 C 
BRANCH  57  58
ATOM     58  N   UNL A   1      31.973  30.011  24.621  1.00  0.00    -0.352 N 
ATOM     59  C   UNL A   1      31.647  29.173  23.583  1.00  0.00     0.253 C 
ATOM     60  H   UNL A   1      32.712  30.633  24.432  1.00  0.00     0.163 HD
ATOM     61  O   UNL A   1      32.329  29.186  22.564  1.00  0.00    -0.269 OA
BRANCH  59  62
ATOM     62  C   UNL A   1      30.485  28.277  23.702  1.00  0.00     0.067 A 
ATOM     63  C   UNL A   1      30.654  27.022  24.304  1.00  0.00     0.018 A 
ATOM     64  C   UNL A   1      29.211  28.657  23.276  1.00  0.00     0.101 A 
ATOM     65  C   UNL A   1      29.579  26.146  24.382  1.00  0.00     0.021 A 
ATOM     66  N   UNL A   1      28.158  27.784  23.332  1.00  0.00    -0.254 NA
ATOM     67  C   UNL A   1      28.364  26.565  23.876  1.00  0.00     0.112 A 
BRANCH  64  68
ATOM     68  C   UNL A   1      28.883  29.996  22.750  1.00  0.00     0.089 A 
ATOM     69  C   UNL A   1      28.739  31.111  23.575  1.00  0.00     0.031 A 
ATOM     70  N   UNL A   1      28.732  30.078  21.400  1.00  0.00    -0.255 NA
ATOM     71  C   UNL A   1      28.402  32.338  23.003  1.00  0.00     0.004 A 
ATOM     72  C   UNL A   1      28.405  31.277  20.875  1.00  0.00     0.112 A 
ATOM     73  C   UNL A   1      28.227  32.423  21.627  1.00  0.00     0.020 A 
ENDBRANCH  64  68
ENDBRANCH  59  62
ENDBRANCH  57  58
ENDBRANCH  56  57
ENDBRANCH   1  56
TORSDOF 11
ENDMDL
