MODEL 1
REMARK VINA RESULT:     -11.4      0.000      0.000
REMARK SMILES Cc1cc(C(=O)N[C@@H](Cc2ccccc2)C(=O)NCCCNC(=O)c2ccc(-c3c4nc(c(-c5ccccc5)c5ccc([nH]5)c(-c5ccccc5)c5nc(c(-c6ccccc6)c6ccc3[nH]6)C=C5)C=C4)cc2)c(C)o1
REMARK SMILES IDX 20 1 19 2 18 3 16 4 17 5 8 7 7 8 5 9 6 10 4 12 1 13 2 14
REMARK SMILES IDX 3 15 75 16 73 17 74 18 9 19 10 20 11 21 15 22 12 23 14 24
REMARK SMILES IDX 13 25 21 26 22 27 23 28 24 30 25 31 26 32 72 33 27 34 71 35
REMARK SMILES IDX 28 36 29 37 30 38 65 39 31 40 70 41 64 42 66 43 32 44 69 45
REMARK SMILES IDX 63 46 62 47 33 49 55 50 40 51 54 52 41 53 44 54 53 55 67 56
REMARK SMILES IDX 42 57 43 58 52 60 68 61 45 62 34 63 35 64 39 65 36 66 38 67
REMARK SMILES IDX 37 68 56 69 57 70 61 71 58 72 60 73 59 74 46 75 47 76 51 77
REMARK SMILES IDX 48 78 50 79 49 80
REMARK H PARENT 18 6 7 11 22 29 66 48 44 59
REMARK Flexibility Score: inf
ROOT
ATOM      1  C   UNL A   1      31.957  28.550  27.178  1.00  0.00     0.042 C 
ENDROOT
BRANCH   1   2
ATOM      2  C   UNL A   1      31.420  28.588  25.762  1.00  0.00     0.117 C 
BRANCH   2   3
ATOM      3  N   UNL A   1      32.288  29.173  24.765  1.00  0.00    -0.354 N 
ATOM      4  C   UNL A   1      32.928  28.544  23.731  1.00  0.00     0.242 C 
ATOM      5  O   UNL A   1      33.297  29.250  22.785  1.00  0.00    -0.273 OA
ATOM      6  H   UNL A   1      32.437  30.143  24.839  1.00  0.00     0.163 HD
BRANCH   4   7
ATOM      7  C   UNL A   1      33.176  27.012  23.699  1.00  0.00     0.176 C 
BRANCH   7   8
ATOM      8  N   UNL A   1      33.332  26.548  22.321  1.00  0.00    -0.340 N 
ATOM      9  C   UNL A   1      33.019  25.366  21.697  1.00  0.00     0.255 C 
ATOM     10  O   UNL A   1      33.141  25.374  20.470  1.00  0.00    -0.269 OA
ATOM     11  H   UNL A   1      33.743  27.214  21.723  1.00  0.00     0.164 HD
BRANCH   9  12
ATOM     12  C   UNL A   1      32.635  24.159  22.425  1.00  0.00     0.081 A 
ATOM     13  C   UNL A   1      32.494  20.694  23.793  1.00  0.00     0.087 C 
ATOM     14  C   UNL A   1      32.433  22.097  23.339  1.00  0.00     0.101 A 
ATOM     15  C   UNL A   1      33.312  22.925  22.680  1.00  0.00     0.059 A 
ATOM     16  O   UNL A   1      31.289  22.769  23.614  1.00  0.00    -0.466 OA
ATOM     17  C   UNL A   1      31.421  24.021  23.096  1.00  0.00     0.113 A 
ATOM     18  C   UNL A   1      30.263  24.907  23.359  1.00  0.00     0.088 C 
ENDBRANCH   9  12
ENDBRANCH   7   8
BRANCH   7  19
ATOM     19  C   UNL A   1      34.196  26.448  24.716  1.00  0.00     0.070 C 
BRANCH  19  20
ATOM     20  C   UNL A   1      33.836  25.248  25.556  1.00  0.00    -0.045 A 
ATOM     21  C   UNL A   1      34.753  24.196  25.711  1.00  0.00     0.004 A 
ATOM     22  C   UNL A   1      32.580  25.143  26.174  1.00  0.00     0.004 A 
ATOM     23  C   UNL A   1      34.392  23.032  26.394  1.00  0.00     0.000 A 
ATOM     24  C   UNL A   1      32.214  23.970  26.838  1.00  0.00     0.000 A 
ATOM     25  C   UNL A   1      33.114  22.910  26.935  1.00  0.00     0.000 A 
ENDBRANCH  19  20
ENDBRANCH   7  19
ENDBRANCH   4   7
ENDBRANCH   2   3
ENDBRANCH   1   2
BRANCH   1  26
ATOM     26  C   UNL A   1      33.409  28.978  27.298  1.00  0.00     0.118 C 
BRANCH  26  27
ATOM     27  N   UNL A   1      33.582  30.313  27.868  1.00  0.00    -0.352 N 
ATOM     28  C   UNL A   1      34.631  30.918  28.523  1.00  0.00     0.251 C 
ATOM     29  H   UNL A   1      32.793  30.893  27.766  1.00  0.00     0.163 HD
ATOM     30  O   UNL A   1      34.459  32.017  29.038  1.00  0.00    -0.269 OA
BRANCH  28  31
ATOM     31  C   UNL A   1      35.949  30.254  28.648  1.00  0.00     0.039 A 
ATOM     32  C   UNL A   1      36.843  30.304  27.571  1.00  0.00     0.014 A 
ATOM     33  C   UNL A   1      36.313  29.568  29.803  1.00  0.00     0.014 A 
ATOM     34  C   UNL A   1      38.125  29.758  27.698  1.00  0.00     0.010 A 
ATOM     35  C   UNL A   1      37.626  29.149  29.979  1.00  0.00     0.010 A 
ATOM     36  C   UNL A   1      38.547  29.229  28.927  1.00  0.00    -0.014 A 
BRANCH  36  37
ATOM     37  C   UNL A   1      39.932  28.736  29.145  1.00  0.00     0.031 A 
ATOM     38  C   UNL A   1      40.983  29.664  29.700  1.00  0.00     0.074 A 
ATOM     39  C   UNL A   1      40.276  27.498  28.742  1.00  0.00     0.049 A 
ATOM     40  N   UNL A   1      42.271  29.472  29.830  1.00  0.00    -0.248 NA
ATOM     41  C   UNL A   1      40.532  31.001  30.119  1.00  0.00     0.031 C 
ATOM     42  C   UNL A   1      39.374  26.520  28.130  1.00  0.00     0.029 A 
ATOM     43  N   UNL A   1      41.488  26.854  28.775  1.00  0.00    -0.354 N 
ATOM     44  C   UNL A   1      42.785  30.677  30.295  1.00  0.00     0.074 A 
ATOM     45  C   UNL A   1      41.681  31.606  30.375  1.00  0.00     0.031 C 
ATOM     46  C   UNL A   1      40.055  25.391  27.876  1.00  0.00     0.029 A 
ATOM     47  C   UNL A   1      41.448  25.580  28.263  1.00  0.00     0.049 A 
ATOM     48  H   UNL A   1      42.308  27.267  29.131  1.00  0.00     0.167 HD
ATOM     49  C   UNL A   1      44.057  30.979  30.649  1.00  0.00     0.031 A 
ATOM     50  C   UNL A   1      42.425  24.666  28.115  1.00  0.00     0.031 A 
ATOM     51  C   UNL A   1      45.146  30.041  30.615  1.00  0.00     0.049 A 
ATOM     52  C   UNL A   1      43.821  25.005  28.554  1.00  0.00     0.074 A 
ATOM     53  C   UNL A   1      46.451  30.218  31.038  1.00  0.00     0.029 A 
ATOM     54  N   UNL A   1      45.051  28.744  30.135  1.00  0.00    -0.354 N 
ATOM     55  N   UNL A   1      44.276  26.126  29.062  1.00  0.00    -0.248 NA
ATOM     56  C   UNL A   1      44.834  23.951  28.410  1.00  0.00     0.031 C 
ATOM     57  C   UNL A   1      47.157  29.039  30.775  1.00  0.00     0.029 A 
ATOM     58  C   UNL A   1      46.280  28.114  30.234  1.00  0.00     0.049 A 
ATOM     59  H   UNL A   1      44.231  28.333  29.776  1.00  0.00     0.167 HD
ATOM     60  C   UNL A   1      45.623  25.905  29.317  1.00  0.00     0.074 A 
ATOM     61  C   UNL A   1      45.905  24.539  28.925  1.00  0.00     0.031 C 
ATOM     62  C   UNL A   1      46.542  26.756  29.834  1.00  0.00     0.031 A 
BRANCH  49  63
ATOM     63  C   UNL A   1      44.329  32.387  31.102  1.00  0.00    -0.014 A 
ATOM     64  C   UNL A   1      44.700  33.390  30.192  1.00  0.00     0.009 A 
ATOM     65  C   UNL A   1      44.209  32.717  32.461  1.00  0.00     0.009 A 
ATOM     66  C   UNL A   1      44.996  34.680  30.640  1.00  0.00     0.001 A 
ATOM     67  C   UNL A   1      44.473  34.015  32.902  1.00  0.00     0.001 A 
ATOM     68  C   UNL A   1      44.880  34.991  31.993  1.00  0.00     0.000 A 
ENDBRANCH  49  63
BRANCH  50  69
ATOM     69  C   UNL A   1      42.106  23.329  27.551  1.00  0.00    -0.014 A 
ATOM     70  C   UNL A   1      42.417  23.034  26.215  1.00  0.00     0.009 A 
ATOM     71  C   UNL A   1      41.513  22.337  28.346  1.00  0.00     0.009 A 
ATOM     72  C   UNL A   1      42.122  21.777  25.681  1.00  0.00     0.001 A 
ATOM     73  C   UNL A   1      41.244  21.073  27.816  1.00  0.00     0.001 A 
ATOM     74  C   UNL A   1      41.542  20.796  26.483  1.00  0.00     0.000 A 
ENDBRANCH  50  69
BRANCH  62  75
ATOM     75  C   UNL A   1      47.933  26.225  30.029  1.00  0.00    -0.014 A 
ATOM     76  C   UNL A   1      48.851  26.186  28.969  1.00  0.00     0.009 A 
ATOM     77  C   UNL A   1      48.342  25.803  31.304  1.00  0.00     0.009 A 
ATOM     78  C   UNL A   1      50.145  25.704  29.176  1.00  0.00     0.001 A 
ATOM     79  C   UNL A   1      49.643  25.348  31.513  1.00  0.00     0.001 A 
ATOM     80  C   UNL A   1      50.541  25.291  30.448  1.00  0.00     0.000 A 
ENDBRANCH  62  75
ENDBRANCH  36  37
ENDBRANCH  28  31
ENDBRANCH  26  27
ENDBRANCH   1  26
TORSDOF 14
ENDMDL
MODEL 2
REMARK VINA RESULT:     -11.0      2.215      7.193
REMARK SMILES Cc1cc(C(=O)N[C@@H](Cc2ccccc2)C(=O)NCCCNC(=O)c2ccc(-c3c4nc(c(-c5ccccc5)c5ccc([nH]5)c(-c5ccccc5)c5nc(c(-c6ccccc6)c6ccc3[nH]6)C=C5)C=C4)cc2)c(C)o1
REMARK SMILES IDX 20 1 19 2 18 3 16 4 17 5 8 7 7 8 5 9 6 10 4 12 1 13 2 14
REMARK SMILES IDX 3 15 75 16 73 17 74 18 9 19 10 20 11 21 15 22 12 23 14 24
REMARK SMILES IDX 13 25 21 26 22 27 23 28 24 30 25 31 26 32 72 33 27 34 71 35
REMARK SMILES IDX 28 36 29 37 30 38 65 39 31 40 70 41 64 42 66 43 32 44 69 45
REMARK SMILES IDX 63 46 62 47 33 49 55 50 40 51 54 52 41 53 44 54 53 55 67 56
REMARK SMILES IDX 42 57 43 58 52 60 68 61 45 62 34 63 35 64 39 65 36 66 38 67
REMARK SMILES IDX 37 68 56 69 57 70 61 71 58 72 60 73 59 74 46 75 47 76 51 77
REMARK SMILES IDX 48 78 50 79 49 80
REMARK H PARENT 18 6 7 11 22 29 66 48 44 59
REMARK Flexibility Score: inf
ROOT
ATOM      1  C   UNL A   1      36.800  20.376  25.009  1.00  0.00     0.042 C 
ENDROOT
BRANCH   1   2
ATOM      2  C   UNL A   1      35.679  21.107  25.716  1.00  0.00     0.117 C 
BRANCH   2   3
ATOM      3  N   UNL A   1      34.456  20.363  25.915  1.00  0.00    -0.354 N 
ATOM      4  C   UNL A   1      33.209  20.640  25.419  1.00  0.00     0.242 C 
ATOM      5  O   UNL A   1      32.400  19.706  25.376  1.00  0.00    -0.273 OA
ATOM      6  H   UNL A   1      34.527  19.557  26.476  1.00  0.00     0.163 HD
BRANCH   4   7
ATOM      7  C   UNL A   1      32.801  22.045  24.903  1.00  0.00     0.176 C 
BRANCH   7   8
ATOM      8  N   UNL A   1      33.518  22.364  23.668  1.00  0.00    -0.340 N 
ATOM      9  C   UNL A   1      34.147  23.501  23.227  1.00  0.00     0.255 C 
ATOM     10  O   UNL A   1      34.799  23.369  22.188  1.00  0.00    -0.269 OA
ATOM     11  H   UNL A   1      33.557  21.617  23.028  1.00  0.00     0.164 HD
BRANCH   9  12
ATOM     12  C   UNL A   1      34.008  24.797  23.887  1.00  0.00     0.081 A 
ATOM     13  C   UNL A   1      33.822  27.523  26.422  1.00  0.00     0.087 C 
ATOM     14  C   UNL A   1      33.878  26.550  25.314  1.00  0.00     0.101 A 
ATOM     15  C   UNL A   1      34.307  25.246  25.212  1.00  0.00     0.059 A 
ATOM     16  O   UNL A   1      33.432  26.983  24.111  1.00  0.00    -0.466 OA
ATOM     17  C   UNL A   1      33.542  25.941  23.240  1.00  0.00     0.113 A 
ATOM     18  C   UNL A   1      33.139  26.269  21.853  1.00  0.00     0.088 C 
ENDBRANCH   9  12
ENDBRANCH   7   8
BRANCH   7  19
ATOM     19  C   UNL A   1      31.291  22.380  24.906  1.00  0.00     0.070 C 
BRANCH  19  20
ATOM     20  C   UNL A   1      30.837  23.815  24.808  1.00  0.00    -0.045 A 
ATOM     21  C   UNL A   1      30.810  24.624  25.955  1.00  0.00     0.004 A 
ATOM     22  C   UNL A   1      30.410  24.361  23.588  1.00  0.00     0.004 A 
ATOM     23  C   UNL A   1      30.289  25.920  25.900  1.00  0.00     0.000 A 
ATOM     24  C   UNL A   1      29.869  25.648  23.539  1.00  0.00     0.000 A 
ATOM     25  C   UNL A   1      29.796  26.421  24.697  1.00  0.00     0.000 A 
ENDBRANCH  19  20
ENDBRANCH   7  19
ENDBRANCH   4   7
ENDBRANCH   2   3
ENDBRANCH   1   2
BRANCH   1  26
ATOM     26  C   UNL A   1      38.187  20.885  25.365  1.00  0.00     0.118 C 
BRANCH  26  27
ATOM     27  N   UNL A   1      39.184  19.824  25.500  1.00  0.00    -0.352 N 
ATOM     28  C   UNL A   1      40.485  19.820  25.950  1.00  0.00     0.251 C 
ATOM     29  H   UNL A   1      38.862  18.939  25.213  1.00  0.00     0.163 HD
ATOM     30  O   UNL A   1      41.158  18.803  25.819  1.00  0.00    -0.269 OA
BRANCH  28  31
ATOM     31  C   UNL A   1      41.098  21.026  26.553  1.00  0.00     0.039 A 
ATOM     32  C   UNL A   1      41.662  21.996  25.716  1.00  0.00     0.014 A 
ATOM     33  C   UNL A   1      41.141  21.209  27.932  1.00  0.00     0.014 A 
ATOM     34  C   UNL A   1      42.169  23.182  26.259  1.00  0.00     0.010 A 
ATOM     35  C   UNL A   1      41.516  22.437  28.460  1.00  0.00     0.010 A 
ATOM     36  C   UNL A   1      42.045  23.436  27.633  1.00  0.00    -0.014 A 
BRANCH  36  37
ATOM     37  C   UNL A   1      42.468  24.724  28.243  1.00  0.00     0.031 A 
ATOM     38  C   UNL A   1      41.455  25.816  28.477  1.00  0.00     0.074 A 
ATOM     39  C   UNL A   1      43.773  24.959  28.481  1.00  0.00     0.049 A 
ATOM     40  N   UNL A   1      41.645  27.053  28.861  1.00  0.00    -0.248 NA
ATOM     41  C   UNL A   1      40.048  25.487  28.194  1.00  0.00     0.031 C 
ATOM     42  C   UNL A   1      44.866  24.013  28.239  1.00  0.00     0.029 A 
ATOM     43  N   UNL A   1      44.404  26.076  28.967  1.00  0.00    -0.354 N 
ATOM     44  C   UNL A   1      40.393  27.656  28.817  1.00  0.00     0.074 A 
ATOM     45  C   UNL A   1      39.463  26.668  28.319  1.00  0.00     0.031 C 
ATOM     46  C   UNL A   1      46.026  24.578  28.610  1.00  0.00     0.029 A 
ATOM     47  C   UNL A   1      45.767  25.937  29.069  1.00  0.00     0.049 A 
ATOM     48  H   UNL A   1      43.925  26.898  29.219  1.00  0.00     0.167 HD
ATOM     49  C   UNL A   1      40.041  28.913  29.180  1.00  0.00     0.031 A 
ATOM     50  C   UNL A   1      46.707  26.809  29.481  1.00  0.00     0.031 A 
ATOM     51  C   UNL A   1      40.957  29.880  29.719  1.00  0.00     0.049 A 
ATOM     52  C   UNL A   1      46.290  28.183  29.921  1.00  0.00     0.074 A 
ATOM     53  C   UNL A   1      40.688  31.148  30.204  1.00  0.00     0.029 A 
ATOM     54  N   UNL A   1      42.323  29.682  29.851  1.00  0.00    -0.354 N 
ATOM     55  N   UNL A   1      45.091  28.714  29.943  1.00  0.00    -0.248 NA
ATOM     56  C   UNL A   1      47.355  29.074  30.404  1.00  0.00     0.031 C 
ATOM     57  C   UNL A   1      41.898  31.732  30.592  1.00  0.00     0.029 A 
ATOM     58  C   UNL A   1      42.913  30.811  30.394  1.00  0.00     0.049 A 
ATOM     59  H   UNL A   1      42.801  28.859  29.597  1.00  0.00     0.167 HD
ATOM     60  C   UNL A   1      45.254  29.992  30.461  1.00  0.00     0.074 A 
ATOM     61  C   UNL A   1      46.663  30.149  30.755  1.00  0.00     0.031 C 
ATOM     62  C   UNL A   1      44.318  30.949  30.675  1.00  0.00     0.031 A 
BRANCH  49  63
ATOM     63  C   UNL A   1      38.600  29.303  29.000  1.00  0.00    -0.014 A 
ATOM     64  C   UNL A   1      38.105  29.722  27.755  1.00  0.00     0.009 A 
ATOM     65  C   UNL A   1      37.722  29.247  30.093  1.00  0.00     0.009 A 
ATOM     66  C   UNL A   1      36.775  30.126  27.620  1.00  0.00     0.001 A 
ATOM     67  C   UNL A   1      36.384  29.620  29.949  1.00  0.00     0.001 A 
ATOM     68  C   UNL A   1      35.916  30.073  28.716  1.00  0.00     0.000 A 
ENDBRANCH  49  63
BRANCH  50  69
ATOM     69  C   UNL A   1      48.132  26.392  29.525  1.00  0.00    -0.014 A 
ATOM     70  C   UNL A   1      48.968  26.619  28.421  1.00  0.00     0.009 A 
ATOM     71  C   UNL A   1      48.669  25.789  30.672  1.00  0.00     0.009 A 
ATOM     72  C   UNL A   1      50.310  26.233  28.458  1.00  0.00     0.001 A 
ATOM     73  C   UNL A   1      50.018  25.427  30.715  1.00  0.00     0.001 A 
ATOM     74  C   UNL A   1      50.835  25.643  29.607  1.00  0.00     0.000 A 
ENDBRANCH  50  69
BRANCH  62  75
ATOM     75  C   UNL A   1      44.786  32.240  31.282  1.00  0.00    -0.014 A 
ATOM     76  C   UNL A   1      45.233  33.301  30.478  1.00  0.00     0.009 A 
ATOM     77  C   UNL A   1      44.735  32.411  32.674  1.00  0.00     0.009 A 
ATOM     78  C   UNL A   1      45.648  34.499  31.063  1.00  0.00     0.001 A 
ATOM     79  C   UNL A   1      45.124  33.620  33.252  1.00  0.00     0.001 A 
ATOM     80  C   UNL A   1      45.588  34.659  32.447  1.00  0.00     0.000 A 
ENDBRANCH  62  75
ENDBRANCH  36  37
ENDBRANCH  28  31
ENDBRANCH  26  27
ENDBRANCH   1  26
TORSDOF 14
ENDMDL
MODEL 3
REMARK VINA RESULT:     -10.9      1.257      2.159
REMARK SMILES Cc1cc(C(=O)N[C@@H](Cc2ccccc2)C(=O)NCCCNC(=O)c2ccc(-c3c4nc(c(-c5ccccc5)c5ccc([nH]5)c(-c5ccccc5)c5nc(c(-c6ccccc6)c6ccc3[nH]6)C=C5)C=C4)cc2)c(C)o1
REMARK SMILES IDX 20 1 19 2 18 3 16 4 17 5 8 7 7 8 5 9 6 10 4 12 1 13 2 14
REMARK SMILES IDX 3 15 75 16 73 17 74 18 9 19 10 20 11 21 15 22 12 23 14 24
REMARK SMILES IDX 13 25 21 26 22 27 23 28 24 30 25 31 26 32 72 33 27 34 71 35
REMARK SMILES IDX 28 36 29 37 30 38 65 39 31 40 70 41 64 42 66 43 32 44 69 45
REMARK SMILES IDX 63 46 62 47 33 49 55 50 40 51 54 52 41 53 44 54 53 55 67 56
REMARK SMILES IDX 42 57 43 58 52 60 68 61 45 62 34 63 35 64 39 65 36 66 38 67
REMARK SMILES IDX 37 68 56 69 57 70 61 71 58 72 60 73 59 74 46 75 47 76 51 77
REMARK SMILES IDX 48 78 50 79 49 80
REMARK H PARENT 18 6 7 11 22 29 66 48 44 59
REMARK Flexibility Score: inf
ROOT
ATOM      1  C   UNL A   1      33.907  28.102  26.095  1.00  0.00     0.042 C 
ENDROOT
BRANCH   1   2
ATOM      2  C   UNL A   1      32.949  27.754  24.976  1.00  0.00     0.117 C 
BRANCH   2   3
ATOM      3  N   UNL A   1      33.540  27.512  23.680  1.00  0.00    -0.354 N 
ATOM      4  C   UNL A   1      33.704  26.314  23.038  1.00  0.00     0.242 C 
ATOM      5  O   UNL A   1      33.868  26.349  21.813  1.00  0.00    -0.273 OA
ATOM      6  H   UNL A   1      33.866  28.307  23.199  1.00  0.00     0.163 HD
BRANCH   4   7
ATOM      7  C   UNL A   1      33.669  24.949  23.777  1.00  0.00     0.176 C 
BRANCH   7   8
ATOM      8  N   UNL A   1      32.288  24.504  23.962  1.00  0.00    -0.340 N 
ATOM      9  C   UNL A   1      31.744  23.358  24.486  1.00  0.00     0.255 C 
ATOM     10  O   UNL A   1      30.521  23.383  24.640  1.00  0.00    -0.269 OA
ATOM     11  H   UNL A   1      31.617  25.153  23.650  1.00  0.00     0.164 HD
BRANCH   9  12
ATOM     12  C   UNL A   1      32.533  22.164  24.780  1.00  0.00     0.081 A 
ATOM     13  C   UNL A   1      34.138  18.803  24.622  1.00  0.00     0.087 C 
ATOM     14  C   UNL A   1      33.580  20.157  24.810  1.00  0.00     0.101 A 
ATOM     15  C   UNL A   1      32.918  21.038  23.986  1.00  0.00     0.059 A 
ATOM     16  O   UNL A   1      33.734  20.704  26.040  1.00  0.00    -0.466 OA
ATOM     17  C   UNL A   1      33.135  21.928  26.015  1.00  0.00     0.113 A 
ATOM     18  C   UNL A   1      33.261  22.686  27.281  1.00  0.00     0.088 C 
ENDBRANCH   9  12
ENDBRANCH   7   8
BRANCH   7  19
ATOM     19  C   UNL A   1      34.663  23.867  23.293  1.00  0.00     0.070 C 
BRANCH  19  20
ATOM     20  C   UNL A   1      35.768  23.398  24.207  1.00  0.00    -0.045 A 
ATOM     21  C   UNL A   1      36.105  24.146  25.346  1.00  0.00     0.004 A 
ATOM     22  C   UNL A   1      36.496  22.231  23.928  1.00  0.00     0.004 A 
ATOM     23  C   UNL A   1      37.196  23.783  26.139  1.00  0.00     0.000 A 
ATOM     24  C   UNL A   1      37.600  21.882  24.709  1.00  0.00     0.000 A 
ATOM     25  C   UNL A   1      37.958  22.665  25.805  1.00  0.00     0.000 A 
ENDBRANCH  19  20
ENDBRANCH   7  19
ENDBRANCH   4   7
ENDBRANCH   2   3
ENDBRANCH   1   2
BRANCH   1  26
ATOM     26  C   UNL A   1      33.224  28.599  27.358  1.00  0.00     0.118 C 
BRANCH  26  27
ATOM     27  N   UNL A   1      33.428  30.025  27.612  1.00  0.00    -0.352 N 
ATOM     28  C   UNL A   1      34.505  30.744  28.080  1.00  0.00     0.251 C 
ATOM     29  H   UNL A   1      32.640  30.579  27.411  1.00  0.00     0.163 HD
ATOM     30  O   UNL A   1      34.360  31.932  28.344  1.00  0.00    -0.269 OA
BRANCH  28  31
ATOM     31  C   UNL A   1      35.822  30.104  28.304  1.00  0.00     0.039 A 
ATOM     32  C   UNL A   1      36.772  30.122  27.275  1.00  0.00     0.014 A 
ATOM     33  C   UNL A   1      36.130  29.471  29.504  1.00  0.00     0.014 A 
ATOM     34  C   UNL A   1      38.052  29.600  27.494  1.00  0.00     0.010 A 
ATOM     35  C   UNL A   1      37.436  29.078  29.769  1.00  0.00     0.010 A 
ATOM     36  C   UNL A   1      38.412  29.127  28.766  1.00  0.00    -0.014 A 
BRANCH  36  37
ATOM     37  C   UNL A   1      39.789  28.664  29.079  1.00  0.00     0.031 A 
ATOM     38  C   UNL A   1      40.772  29.605  29.727  1.00  0.00     0.074 A 
ATOM     39  C   UNL A   1      40.193  27.441  28.683  1.00  0.00     0.049 A 
ATOM     40  N   UNL A   1      42.052  29.442  29.949  1.00  0.00    -0.248 NA
ATOM     41  C   UNL A   1      40.258  30.924  30.132  1.00  0.00     0.031 C 
ATOM     42  C   UNL A   1      39.363  26.453  27.988  1.00  0.00     0.029 A 
ATOM     43  N   UNL A   1      41.414  26.826  28.795  1.00  0.00    -0.354 N 
ATOM     44  C   UNL A   1      42.499  30.649  30.472  1.00  0.00     0.074 A 
ATOM     45  C   UNL A   1      41.369  31.551  30.483  1.00  0.00     0.031 C 
ATOM     46  C   UNL A   1      40.089  25.345  27.768  1.00  0.00     0.029 A 
ATOM     47  C   UNL A   1      41.444  25.560  28.261  1.00  0.00     0.049 A 
ATOM     48  H   UNL A   1      42.195  27.251  29.219  1.00  0.00     0.167 HD
ATOM     49  C   UNL A   1      43.733  30.975  30.924  1.00  0.00     0.031 A 
ATOM     50  C   UNL A   1      42.452  24.672  28.172  1.00  0.00     0.031 A 
ATOM     51  C   UNL A   1      44.844  30.063  30.957  1.00  0.00     0.049 A 
ATOM     52  C   UNL A   1      43.802  25.036  28.720  1.00  0.00     0.074 A 
ATOM     53  C   UNL A   1      46.110  30.263  31.480  1.00  0.00     0.029 A 
ATOM     54  N   UNL A   1      44.818  28.774  30.449  1.00  0.00    -0.354 N 
ATOM     55  N   UNL A   1      44.190  26.158  29.278  1.00  0.00    -0.248 NA
ATOM     56  C   UNL A   1      44.849  24.009  28.635  1.00  0.00     0.031 C 
ATOM     57  C   UNL A   1      46.862  29.107  31.251  1.00  0.00     0.029 A 
ATOM     58  C   UNL A   1      46.051  28.171  30.630  1.00  0.00     0.049 A 
ATOM     59  H   UNL A   1      44.037  28.350  30.024  1.00  0.00     0.167 HD
ATOM     60  C   UNL A   1      45.519  25.964  29.631  1.00  0.00     0.074 A 
ATOM     61  C   UNL A   1      45.863  24.612  29.238  1.00  0.00     0.031 C 
ATOM     62  C   UNL A   1      46.376  26.827  30.228  1.00  0.00     0.031 A 
BRANCH  49  63
ATOM     63  C   UNL A   1      43.936  32.381  31.420  1.00  0.00    -0.014 A 
ATOM     64  C   UNL A   1      43.719  32.721  32.764  1.00  0.00     0.009 A 
ATOM     65  C   UNL A   1      44.355  33.380  30.528  1.00  0.00     0.009 A 
ATOM     66  C   UNL A   1      43.866  34.042  33.194  1.00  0.00     0.001 A 
ATOM     67  C   UNL A   1      44.534  34.693  30.966  1.00  0.00     0.001 A 
ATOM     68  C   UNL A   1      44.275  35.026  32.296  1.00  0.00     0.000 A 
ENDBRANCH  49  63
BRANCH  50  69
ATOM     69  C   UNL A   1      42.209  23.338  27.564  1.00  0.00    -0.014 A 
ATOM     70  C   UNL A   1      42.596  23.086  26.238  1.00  0.00     0.009 A 
ATOM     71  C   UNL A   1      41.613  22.308  28.306  1.00  0.00     0.009 A 
ATOM     72  C   UNL A   1      42.373  21.832  25.663  1.00  0.00     0.001 A 
ATOM     73  C   UNL A   1      41.416  21.049  27.736  1.00  0.00     0.001 A 
ATOM     74  C   UNL A   1      41.789  20.814  26.414  1.00  0.00     0.000 A 
ENDBRANCH  50  69
BRANCH  62  75
ATOM     75  C   UNL A   1      47.761  26.326  30.519  1.00  0.00    -0.014 A 
ATOM     76  C   UNL A   1      48.099  25.813  31.781  1.00  0.00     0.009 A 
ATOM     77  C   UNL A   1      48.726  26.325  29.500  1.00  0.00     0.009 A 
ATOM     78  C   UNL A   1      49.388  25.337  32.024  1.00  0.00     0.001 A 
ATOM     79  C   UNL A   1      50.006  25.823  29.739  1.00  0.00     0.001 A 
ATOM     80  C   UNL A   1      50.338  25.337  31.003  1.00  0.00     0.000 A 
ENDBRANCH  62  75
ENDBRANCH  36  37
ENDBRANCH  28  31
ENDBRANCH  26  27
ENDBRANCH   1  26
TORSDOF 14
ENDMDL
