MODEL 1
REMARK VINA RESULT:     -12.0      0.000      0.000
REMARK SMILES O=C(NCCCNC(=O)c1ccc(-c2c3nc(c(-c4ccccc4)c4ccc([nH]4)c(-c4ccccc4)c4nc(c(-c5ccccc5)c5ccc2[nH]5)C=C4)C=C3)cc1)C1=Cc2c(Cl)cc(Cl)cc2O[C@@H]1C(F)(F)F
REMARK SMILES IDX 5 1 4 2 3 3 1 4 2 5 58 7 59 8 69 9 60 10 68 11 61 12 67 13
REMARK SMILES IDX 62 14 63 15 66 16 64 17 65 18 70 19 71 20 72 21 73 22 6 23
REMARK SMILES IDX 7 24 8 25 9 27 10 28 11 29 57 30 12 31 56 32 13 33 14 34
REMARK SMILES IDX 15 35 50 36 16 37 55 38 49 39 51 40 17 41 54 42 48 43 47 44
REMARK SMILES IDX 18 46 40 47 25 48 39 49 26 50 29 51 38 52 52 53 27 54 28 55
REMARK SMILES IDX 37 57 53 58 30 59 19 60 20 61 24 62 21 63 23 64 22 65 41 66
REMARK SMILES IDX 42 67 46 68 43 69 45 70 44 71 31 72 32 73 36 74 33 75 35 76
REMARK SMILES IDX 34 77
REMARK H PARENT 3 6 7 26 51 45 29 56
REMARK Flexibility Score: inf
ROOT
ATOM      1  C   UNL A   1      31.393  30.961  26.264  1.00  0.00     0.042 C 
ENDROOT
BRANCH   1   2
ATOM      2  C   UNL A   1      31.809  29.768  25.409  1.00  0.00     0.118 C 
BRANCH   2   3
ATOM      3  N   UNL A   1      31.661  28.484  26.094  1.00  0.00    -0.352 N 
ATOM      4  O   UNL A   1      31.445  26.235  26.278  1.00  0.00    -0.270 OA
ATOM      5  C   UNL A   1      31.324  27.246  25.602  1.00  0.00     0.251 C 
ATOM      6  H   UNL A   1      31.829  28.512  27.065  1.00  0.00     0.163 HD
BRANCH   5   7
ATOM      7  C   UNL A   1      30.870  27.185  24.201  1.00  0.00     0.067 C 
ATOM      8  C   UNL A   1      29.549  27.216  23.991  1.00  0.00     0.027 C 
ATOM      9  C   UNL A   1      31.874  27.502  23.142  1.00  0.00     0.314 C 
ATOM     10  C   UNL A   1      29.134  28.227  23.000  1.00  0.00     0.036 A 
ATOM     11  O   UNL A   1      31.473  28.632  22.331  1.00  0.00    -0.475 OA
ATOM     12  C   UNL A   1      27.826  28.748  23.026  1.00  0.00     0.053 A 
ATOM     13  C   UNL A   1      30.137  28.961  22.328  1.00  0.00     0.130 A 
ATOM     14  Cl  UNL A   1      26.524  27.948  23.842  1.00  0.00    -0.083 Cl
ATOM     15  C   UNL A   1      27.561  30.017  22.507  1.00  0.00     0.042 A 
ATOM     16  C   UNL A   1      29.860  30.217  21.787  1.00  0.00     0.067 A 
ATOM     17  C   UNL A   1      28.584  30.754  21.919  1.00  0.00     0.046 A 
ATOM     18  Cl  UNL A   1      28.290  32.378  21.436  1.00  0.00    -0.084 Cl
BRANCH   9  19
ATOM     19  C   UNL A   1      32.155  26.274  22.264  1.00  0.00     0.429 C 
ATOM     20  F   UNL A   1      31.415  26.308  21.129  1.00  0.00    -0.167 F 
ATOM     21  F   UNL A   1      33.452  26.211  21.884  1.00  0.00    -0.167 F 
ATOM     22  F   UNL A   1      31.863  25.115  22.899  1.00  0.00    -0.167 F 
ENDBRANCH   9  19
ENDBRANCH   5   7
ENDBRANCH   2   3
ENDBRANCH   1   2
BRANCH   1  23
ATOM     23  C   UNL A   1      32.586  31.659  26.903  1.00  0.00     0.118 C 
BRANCH  23  24
ATOM     24  N   UNL A   1      32.302  33.011  27.375  1.00  0.00    -0.352 N 
ATOM     25  C   UNL A   1      33.042  33.840  28.187  1.00  0.00     0.251 C 
ATOM     26  H   UNL A   1      31.447  33.388  27.064  1.00  0.00     0.163 HD
ATOM     27  O   UNL A   1      32.586  34.934  28.513  1.00  0.00    -0.269 OA
BRANCH  25  28
ATOM     28  C   UNL A   1      34.364  33.413  28.701  1.00  0.00     0.039 A 
ATOM     29  C   UNL A   1      34.430  32.675  29.887  1.00  0.00     0.014 A 
ATOM     30  C   UNL A   1      35.538  33.727  28.017  1.00  0.00     0.014 A 
ATOM     31  C   UNL A   1      35.665  32.205  30.345  1.00  0.00     0.010 A 
ATOM     32  C   UNL A   1      36.739  33.144  28.396  1.00  0.00     0.010 A 
ATOM     33  C   UNL A   1      36.826  32.408  29.585  1.00  0.00    -0.014 A 
BRANCH  33  34
ATOM     34  C   UNL A   1      38.156  31.929  30.037  1.00  0.00     0.031 A 
ATOM     35  C   UNL A   1      38.706  30.634  29.489  1.00  0.00     0.074 A 
ATOM     36  C   UNL A   1      38.835  32.606  30.982  1.00  0.00     0.049 A 
ATOM     37  N   UNL A   1      39.804  29.998  29.809  1.00  0.00    -0.248 NA
ATOM     38  C   UNL A   1      37.885  29.934  28.485  1.00  0.00     0.031 C 
ATOM     39  C   UNL A   1      38.383  33.832  31.644  1.00  0.00     0.029 A 
ATOM     40  N   UNL A   1      40.056  32.353  31.554  1.00  0.00    -0.354 N 
ATOM     41  C   UNL A   1      39.777  28.814  29.082  1.00  0.00     0.074 A 
ATOM     42  C   UNL A   1      38.525  28.783  28.365  1.00  0.00     0.031 C 
ATOM     43  C   UNL A   1      39.335  34.248  32.495  1.00  0.00     0.029 A 
ATOM     44  C   UNL A   1      40.445  33.303  32.466  1.00  0.00     0.049 A 
ATOM     45  H   UNL A   1      40.603  31.564  31.331  1.00  0.00     0.167 HD
ATOM     46  C   UNL A   1      40.723  27.851  28.987  1.00  0.00     0.031 A 
ATOM     47  C   UNL A   1      41.577  33.405  33.187  1.00  0.00     0.031 A 
ATOM     48  C   UNL A   1      41.991  27.910  29.659  1.00  0.00     0.049 A 
ATOM     49  C   UNL A   1      42.644  32.360  33.017  1.00  0.00     0.074 A 
ATOM     50  C   UNL A   1      43.057  27.032  29.573  1.00  0.00     0.029 A 
ATOM     51  N   UNL A   1      42.368  28.919  30.531  1.00  0.00    -0.354 N 
ATOM     52  N   UNL A   1      42.635  31.281  32.270  1.00  0.00    -0.248 NA
ATOM     53  C   UNL A   1      43.888  32.561  33.771  1.00  0.00     0.031 C 
ATOM     54  C   UNL A   1      44.068  27.494  30.425  1.00  0.00     0.029 A 
ATOM     55  C   UNL A   1      43.649  28.685  30.999  1.00  0.00     0.049 A 
ATOM     56  H   UNL A   1      41.807  29.689  30.780  1.00  0.00     0.167 HD
ATOM     57  C   UNL A   1      43.879  30.691  32.442  1.00  0.00     0.074 A 
ATOM     58  C   UNL A   1      44.624  31.544  33.346  1.00  0.00     0.031 C 
ATOM     59  C   UNL A   1      44.366  29.547  31.900  1.00  0.00     0.031 A 
BRANCH  46  60
ATOM     60  C   UNL A   1      40.413  26.662  28.116  1.00  0.00    -0.014 A 
ATOM     61  C   UNL A   1      40.883  26.581  26.795  1.00  0.00     0.009 A 
ATOM     62  C   UNL A   1      39.635  25.609  28.622  1.00  0.00     0.009 A 
ATOM     63  C   UNL A   1      40.537  25.500  25.983  1.00  0.00     0.001 A 
ATOM     64  C   UNL A   1      39.320  24.512  27.818  1.00  0.00     0.001 A 
ATOM     65  C   UNL A   1      39.759  24.464  26.496  1.00  0.00     0.000 A 
ENDBRANCH  46  60
BRANCH  47  66
ATOM     66  C   UNL A   1      41.784  34.568  34.089  1.00  0.00    -0.014 A 
ATOM     67  C   UNL A   1      41.405  34.494  35.438  1.00  0.00     0.009 A 
ATOM     68  C   UNL A   1      42.364  35.753  33.612  1.00  0.00     0.009 A 
ATOM     69  C   UNL A   1      41.575  35.594  36.284  1.00  0.00     0.001 A 
ATOM     70  C   UNL A   1      42.559  36.841  34.467  1.00  0.00     0.001 A 
ATOM     71  C   UNL A   1      42.155  36.764  35.799  1.00  0.00     0.000 A 
ENDBRANCH  47  66
BRANCH  59  72
ATOM     72  C   UNL A   1      45.782  29.180  32.244  1.00  0.00    -0.014 A 
ATOM     73  C   UNL A   1      46.077  28.359  33.344  1.00  0.00     0.009 A 
ATOM     74  C   UNL A   1      46.832  29.649  31.440  1.00  0.00     0.009 A 
ATOM     75  C   UNL A   1      47.403  28.052  33.657  1.00  0.00     0.001 A 
ATOM     76  C   UNL A   1      48.154  29.314  31.737  1.00  0.00     0.001 A 
ATOM     77  C   UNL A   1      48.438  28.527  32.851  1.00  0.00     0.000 A 
ENDBRANCH  59  72
ENDBRANCH  33  34
ENDBRANCH  25  28
ENDBRANCH  23  24
ENDBRANCH   1  23
TORSDOF 11
ENDMDL
MODEL 2
REMARK VINA RESULT:     -11.9      2.273      6.834
REMARK SMILES O=C(NCCCNC(=O)c1ccc(-c2c3nc(c(-c4ccccc4)c4ccc([nH]4)c(-c4ccccc4)c4nc(c(-c5ccccc5)c5ccc2[nH]5)C=C4)C=C3)cc1)C1=Cc2c(Cl)cc(Cl)cc2O[C@@H]1C(F)(F)F
REMARK SMILES IDX 5 1 4 2 3 3 1 4 2 5 58 7 59 8 69 9 60 10 68 11 61 12 67 13
REMARK SMILES IDX 62 14 63 15 66 16 64 17 65 18 70 19 71 20 72 21 73 22 6 23
REMARK SMILES IDX 7 24 8 25 9 27 10 28 11 29 57 30 12 31 56 32 13 33 14 34
REMARK SMILES IDX 15 35 50 36 16 37 55 38 49 39 51 40 17 41 54 42 48 43 47 44
REMARK SMILES IDX 18 46 40 47 25 48 39 49 26 50 29 51 38 52 52 53 27 54 28 55
REMARK SMILES IDX 37 57 53 58 30 59 19 60 20 61 24 62 21 63 23 64 22 65 41 66
REMARK SMILES IDX 42 67 46 68 43 69 45 70 44 71 31 72 32 73 36 74 33 75 35 76
REMARK SMILES IDX 34 77
REMARK H PARENT 3 6 7 26 51 45 29 56
REMARK Flexibility Score: inf
ROOT
ATOM      1  C   UNL A   1      33.178  27.834  26.665  1.00  0.00     0.042 C 
ENDROOT
BRANCH   1   2
ATOM      2  C   UNL A   1      33.021  26.844  25.516  1.00  0.00     0.118 C 
BRANCH   2   3
ATOM      3  N   UNL A   1      33.359  27.412  24.211  1.00  0.00    -0.352 N 
ATOM      4  O   UNL A   1      33.107  28.738  22.389  1.00  0.00    -0.270 OA
ATOM      5  C   UNL A   1      32.605  28.172  23.349  1.00  0.00     0.251 C 
ATOM      6  H   UNL A   1      34.273  27.217  23.900  1.00  0.00     0.163 HD
BRANCH   5   7
ATOM      7  C   UNL A   1      31.174  28.325  23.670  1.00  0.00     0.067 C 
ATOM      8  C   UNL A   1      30.819  29.425  24.343  1.00  0.00     0.027 C 
ATOM      9  C   UNL A   1      30.207  27.492  22.895  1.00  0.00     0.314 C 
ATOM     10  C   UNL A   1      29.699  30.159  23.724  1.00  0.00     0.036 A 
ATOM     11  O   UNL A   1      29.256  28.301  22.162  1.00  0.00    -0.475 OA
ATOM     12  C   UNL A   1      29.534  31.535  23.969  1.00  0.00     0.053 A 
ATOM     13  C   UNL A   1      29.076  29.598  22.586  1.00  0.00     0.130 A 
ATOM     14  Cl  UNL A   1      30.273  32.334  25.316  1.00  0.00    -0.083 Cl
ATOM     15  C   UNL A   1      28.874  32.343  23.040  1.00  0.00     0.042 A 
ATOM     16  C   UNL A   1      28.394  30.406  21.676  1.00  0.00     0.067 A 
ATOM     17  C   UNL A   1      28.336  31.779  21.888  1.00  0.00     0.046 A 
ATOM     18  Cl  UNL A   1      27.675  32.800  20.672  1.00  0.00    -0.084 Cl
BRANCH   9  19
ATOM     19  C   UNL A   1      29.482  26.494  23.810  1.00  0.00     0.429 C 
ATOM     20  F   UNL A   1      29.868  26.648  25.100  1.00  0.00    -0.167 F 
ATOM     21  F   UNL A   1      28.140  26.663  23.780  1.00  0.00    -0.167 F 
ATOM     22  F   UNL A   1      29.736  25.209  23.466  1.00  0.00    -0.167 F 
ENDBRANCH   9  19
ENDBRANCH   5   7
ENDBRANCH   2   3
ENDBRANCH   1   2
BRANCH   1  23
ATOM     23  C   UNL A   1      34.104  28.990  26.311  1.00  0.00     0.118 C 
BRANCH  23  24
ATOM     24  N   UNL A   1      33.783  30.240  26.992  1.00  0.00    -0.352 N 
ATOM     25  C   UNL A   1      34.495  30.944  27.936  1.00  0.00     0.251 C 
ATOM     26  H   UNL A   1      32.923  30.644  26.734  1.00  0.00     0.163 HD
ATOM     27  O   UNL A   1      34.009  31.961  28.428  1.00  0.00    -0.269 OA
BRANCH  25  28
ATOM     28  C   UNL A   1      35.822  30.469  28.393  1.00  0.00     0.039 A 
ATOM     29  C   UNL A   1      35.917  29.759  29.594  1.00  0.00     0.014 A 
ATOM     30  C   UNL A   1      36.971  30.711  27.641  1.00  0.00     0.014 A 
ATOM     31  C   UNL A   1      37.151  29.244  30.001  1.00  0.00     0.010 A 
ATOM     32  C   UNL A   1      38.162  30.083  27.973  1.00  0.00     0.010 A 
ATOM     33  C   UNL A   1      38.279  29.374  29.176  1.00  0.00    -0.014 A 
BRANCH  33  34
ATOM     34  C   UNL A   1      39.608  28.845  29.571  1.00  0.00     0.031 A 
ATOM     35  C   UNL A   1      40.481  29.649  30.504  1.00  0.00     0.074 A 
ATOM     36  C   UNL A   1      40.064  27.693  29.045  1.00  0.00     0.049 A 
ATOM     37  N   UNL A   1      41.702  29.411  30.910  1.00  0.00    -0.248 NA
ATOM     38  C   UNL A   1      39.926  30.918  31.007  1.00  0.00     0.031 C 
ATOM     39  C   UNL A   1      39.349  26.856  28.078  1.00  0.00     0.029 A 
ATOM     40  N   UNL A   1      41.245  27.025  29.251  1.00  0.00    -0.354 N 
ATOM     41  C   UNL A   1      42.067  30.515  31.671  1.00  0.00     0.074 A 
ATOM     42  C   UNL A   1      40.973  31.454  31.610  1.00  0.00     0.031 C 
ATOM     43  C   UNL A   1      40.086  25.764  27.813  1.00  0.00     0.029 A 
ATOM     44  C   UNL A   1      41.336  25.841  28.561  1.00  0.00     0.049 A 
ATOM     45  H   UNL A   1      41.959  27.362  29.840  1.00  0.00     0.167 HD
ATOM     46  C   UNL A   1      43.197  30.719  32.389  1.00  0.00     0.031 A 
ATOM     47  C   UNL A   1      42.314  24.917  28.544  1.00  0.00     0.031 A 
ATOM     48  C   UNL A   1      44.260  29.759  32.492  1.00  0.00     0.049 A 
ATOM     49  C   UNL A   1      43.531  25.131  29.400  1.00  0.00     0.074 A 
ATOM     50  C   UNL A   1      45.413  29.824  33.254  1.00  0.00     0.029 A 
ATOM     51  N   UNL A   1      44.288  28.547  31.820  1.00  0.00    -0.354 N 
ATOM     52  N   UNL A   1      43.831  26.149  30.173  1.00  0.00    -0.248 NA
ATOM     53  C   UNL A   1      44.532  24.057  29.402  1.00  0.00     0.031 C 
ATOM     54  C   UNL A   1      46.158  28.664  33.012  1.00  0.00     0.029 A 
ATOM     55  C   UNL A   1      45.442  27.856  32.141  1.00  0.00     0.049 A 
ATOM     56  H   UNL A   1      43.590  28.226  31.204  1.00  0.00     0.167 HD
ATOM     57  C   UNL A   1      45.040  25.825  30.773  1.00  0.00     0.074 A 
ATOM     58  C   UNL A   1      45.405  24.508  30.291  1.00  0.00     0.031 C 
ATOM     59  C   UNL A   1      45.783  26.548  31.646  1.00  0.00     0.031 A 
BRANCH  46  60
ATOM     60  C   UNL A   1      43.322  32.029  33.121  1.00  0.00    -0.014 A 
ATOM     61  C   UNL A   1      44.005  33.120  32.555  1.00  0.00     0.009 A 
ATOM     62  C   UNL A   1      42.754  32.176  34.395  1.00  0.00     0.009 A 
ATOM     63  C   UNL A   1      44.162  34.307  33.271  1.00  0.00     0.001 A 
ATOM     64  C   UNL A   1      42.882  33.377  35.095  1.00  0.00     0.001 A 
ATOM     65  C   UNL A   1      43.598  34.437  34.539  1.00  0.00     0.000 A 
ENDBRANCH  46  60
BRANCH  47  66
ATOM     66  C   UNL A   1      42.158  23.681  27.735  1.00  0.00    -0.014 A 
ATOM     67  C   UNL A   1      42.618  23.638  26.409  1.00  0.00     0.009 A 
ATOM     68  C   UNL A   1      41.555  22.537  28.279  1.00  0.00     0.009 A 
ATOM     69  C   UNL A   1      42.451  22.486  25.637  1.00  0.00     0.001 A 
ATOM     70  C   UNL A   1      41.415  21.377  27.514  1.00  0.00     0.001 A 
ATOM     71  C   UNL A   1      41.853  21.355  26.191  1.00  0.00     0.000 A 
ENDBRANCH  47  66
BRANCH  59  72
ATOM     72  C   UNL A   1      47.041  25.909  32.162  1.00  0.00    -0.014 A 
ATOM     73  C   UNL A   1      47.047  25.161  33.349  1.00  0.00     0.009 A 
ATOM     74  C   UNL A   1      48.233  26.044  31.432  1.00  0.00     0.009 A 
ATOM     75  C   UNL A   1      48.235  24.597  33.819  1.00  0.00     0.001 A 
ATOM     76  C   UNL A   1      49.411  25.452  31.889  1.00  0.00     0.001 A 
ATOM     77  C   UNL A   1      49.414  24.741  33.087  1.00  0.00     0.000 A 
ENDBRANCH  59  72
ENDBRANCH  33  34
ENDBRANCH  25  28
ENDBRANCH  23  24
ENDBRANCH   1  23
TORSDOF 11
ENDMDL
MODEL 3
REMARK VINA RESULT:     -11.9      4.998      9.329
REMARK SMILES O=C(NCCCNC(=O)c1ccc(-c2c3nc(c(-c4ccccc4)c4ccc([nH]4)c(-c4ccccc4)c4nc(c(-c5ccccc5)c5ccc2[nH]5)C=C4)C=C3)cc1)C1=Cc2c(Cl)cc(Cl)cc2O[C@@H]1C(F)(F)F
REMARK SMILES IDX 5 1 4 2 3 3 1 4 2 5 58 7 59 8 69 9 60 10 68 11 61 12 67 13
REMARK SMILES IDX 62 14 63 15 66 16 64 17 65 18 70 19 71 20 72 21 73 22 6 23
REMARK SMILES IDX 7 24 8 25 9 27 10 28 11 29 57 30 12 31 56 32 13 33 14 34
REMARK SMILES IDX 15 35 50 36 16 37 55 38 49 39 51 40 17 41 54 42 48 43 47 44
REMARK SMILES IDX 18 46 40 47 25 48 39 49 26 50 29 51 38 52 52 53 27 54 28 55
REMARK SMILES IDX 37 57 53 58 30 59 19 60 20 61 24 62 21 63 23 64 22 65 41 66
REMARK SMILES IDX 42 67 46 68 43 69 45 70 44 71 31 72 32 73 36 74 33 75 35 76
REMARK SMILES IDX 34 77
REMARK H PARENT 3 6 7 26 51 45 29 56
REMARK Flexibility Score: inf
ROOT
ATOM      1  C   UNL A   1      37.447  19.885  24.738  1.00  0.00     0.042 C 
ENDROOT
BRANCH   1   2
ATOM      2  C   UNL A   1      36.115  20.558  25.055  1.00  0.00     0.118 C 
BRANCH   2   3
ATOM      3  N   UNL A   1      35.894  21.790  24.297  1.00  0.00    -0.352 N 
ATOM      4  O   UNL A   1      34.744  23.595  23.547  1.00  0.00    -0.270 OA
ATOM      5  C   UNL A   1      34.731  22.468  24.021  1.00  0.00     0.251 C 
ATOM      6  H   UNL A   1      36.709  22.198  23.925  1.00  0.00     0.163 HD
BRANCH   5   7
ATOM      7  C   UNL A   1      33.467  21.800  24.381  1.00  0.00     0.067 C 
ATOM      8  C   UNL A   1      32.918  21.004  23.457  1.00  0.00     0.027 C 
ATOM      9  C   UNL A   1      33.120  21.730  25.832  1.00  0.00     0.314 C 
ATOM     10  C   UNL A   1      32.571  19.663  23.966  1.00  0.00     0.036 A 
ATOM     11  O   UNL A   1      32.984  20.364  26.294  1.00  0.00    -0.475 OA
ATOM     12  C   UNL A   1      32.479  18.573  23.079  1.00  0.00     0.053 A 
ATOM     13  C   UNL A   1      32.755  19.399  25.342  1.00  0.00     0.130 A 
ATOM     14  Cl  UNL A   1      32.281  18.779  21.371  1.00  0.00    -0.083 Cl
ATOM     15  C   UNL A   1      32.688  17.270  23.538  1.00  0.00     0.042 A 
ATOM     16  C   UNL A   1      32.936  18.092  25.799  1.00  0.00     0.067 A 
ATOM     17  C   UNL A   1      32.945  17.043  24.887  1.00  0.00     0.046 A 
ATOM     18  Cl  UNL A   1      33.367  15.461  25.414  1.00  0.00    -0.084 Cl
BRANCH   9  19
ATOM     19  C   UNL A   1      31.849  22.537  26.135  1.00  0.00     0.429 C 
ATOM     20  F   UNL A   1      31.791  23.657  25.374  1.00  0.00    -0.167 F 
ATOM     21  F   UNL A   1      30.726  21.828  25.875  1.00  0.00    -0.167 F 
ATOM     22  F   UNL A   1      31.789  22.927  27.430  1.00  0.00    -0.167 F 
ENDBRANCH   9  19
ENDBRANCH   5   7
ENDBRANCH   2   3
ENDBRANCH   1   2
BRANCH   1  23
ATOM     23  C   UNL A   1      38.539  20.269  25.727  1.00  0.00     0.118 C 
BRANCH  23  24
ATOM     24  N   UNL A   1      39.694  19.376  25.715  1.00  0.00    -0.352 N 
ATOM     25  C   UNL A   1      40.999  19.611  26.082  1.00  0.00     0.251 C 
ATOM     26  H   UNL A   1      39.509  18.463  25.396  1.00  0.00     0.163 HD
ATOM     27  O   UNL A   1      41.838  18.723  25.939  1.00  0.00    -0.269 OA
BRANCH  25  28
ATOM     28  C   UNL A   1      41.412  20.931  26.613  1.00  0.00     0.039 A 
ATOM     29  C   UNL A   1      41.878  21.908  25.727  1.00  0.00     0.014 A 
ATOM     30  C   UNL A   1      41.333  21.216  27.975  1.00  0.00     0.014 A 
ATOM     31  C   UNL A   1      42.203  23.181  26.204  1.00  0.00     0.010 A 
ATOM     32  C   UNL A   1      41.520  22.515  28.424  1.00  0.00     0.010 A 
ATOM     33  C   UNL A   1      41.994  23.505  27.554  1.00  0.00    -0.014 A 
BRANCH  33  34
ATOM     34  C   UNL A   1      42.329  24.843  28.102  1.00  0.00     0.031 A 
ATOM     35  C   UNL A   1      43.756  25.155  28.484  1.00  0.00     0.074 A 
ATOM     36  C   UNL A   1      41.356  25.747  28.325  1.00  0.00     0.049 A 
ATOM     37  N   UNL A   1      44.247  26.226  29.052  1.00  0.00    -0.248 NA
ATOM     38  C   UNL A   1      44.755  24.099  28.243  1.00  0.00     0.031 C 
ATOM     39  C   UNL A   1      39.929  25.545  28.065  1.00  0.00     0.029 A 
ATOM     40  N   UNL A   1      41.424  27.023  28.825  1.00  0.00    -0.354 N 
ATOM     41  C   UNL A   1      45.592  25.952  29.272  1.00  0.00     0.074 A 
ATOM     42  C   UNL A   1      45.823  24.592  28.848  1.00  0.00     0.031 C 
ATOM     43  C   UNL A   1      39.264  26.674  28.365  1.00  0.00     0.029 A 
ATOM     44  C   UNL A   1      40.210  27.663  28.868  1.00  0.00     0.049 A 
ATOM     45  H   UNL A   1      42.265  27.440  29.125  1.00  0.00     0.167 HD
ATOM     46  C   UNL A   1      46.560  26.767  29.751  1.00  0.00     0.031 A 
ATOM     47  C   UNL A   1      39.899  28.913  29.258  1.00  0.00     0.031 A 
ATOM     48  C   UNL A   1      46.339  28.137  30.121  1.00  0.00     0.049 A 
ATOM     49  C   UNL A   1      41.000  29.825  29.723  1.00  0.00     0.074 A 
ATOM     50  C   UNL A   1      47.260  29.080  30.541  1.00  0.00     0.029 A 
ATOM     51  N   UNL A   1      45.103  28.764  30.096  1.00  0.00    -0.354 N 
ATOM     52  N   UNL A   1      42.281  29.573  29.858  1.00  0.00    -0.248 NA
ATOM     53  C   UNL A   1      40.616  31.200  30.066  1.00  0.00     0.031 C 
ATOM     54  C   UNL A   1      46.573  30.270  30.806  1.00  0.00     0.029 A 
ATOM     55  C   UNL A   1      45.233  30.080  30.501  1.00  0.00     0.049 A 
ATOM     56  H   UNL A   1      44.257  28.336  29.830  1.00  0.00     0.167 HD
ATOM     57  C   UNL A   1      42.859  30.766  30.273  1.00  0.00     0.074 A 
ATOM     58  C   UNL A   1      41.791  31.743  30.346  1.00  0.00     0.031 C 
ATOM     59  C   UNL A   1      44.155  31.031  30.567  1.00  0.00     0.031 A 
BRANCH  46  60
ATOM     60  C   UNL A   1      47.944  26.188  29.887  1.00  0.00    -0.014 A 
ATOM     61  C   UNL A   1      48.415  25.704  31.120  1.00  0.00     0.009 A 
ATOM     62  C   UNL A   1      48.791  26.130  28.771  1.00  0.00     0.009 A 
ATOM     63  C   UNL A   1      49.720  25.225  31.242  1.00  0.00     0.001 A 
ATOM     64  C   UNL A   1      50.085  25.618  28.889  1.00  0.00     0.001 A 
ATOM     65  C   UNL A   1      50.553  25.179  30.126  1.00  0.00     0.000 A 
ENDBRANCH  46  60
BRANCH  47  66
ATOM     66  C   UNL A   1      38.496  29.394  29.170  1.00  0.00    -0.014 A 
ATOM     67  C   UNL A   1      37.991  29.891  27.958  1.00  0.00     0.009 A 
ATOM     68  C   UNL A   1      37.652  29.356  30.290  1.00  0.00     0.009 A 
ATOM     69  C   UNL A   1      36.679  30.367  27.878  1.00  0.00     0.001 A 
ATOM     70  C   UNL A   1      36.332  29.805  30.199  1.00  0.00     0.001 A 
ATOM     71  C   UNL A   1      35.850  30.319  28.997  1.00  0.00     0.000 A 
ENDBRANCH  47  66
BRANCH  59  72
ATOM     72  C   UNL A   1      44.490  32.444  30.954  1.00  0.00    -0.014 A 
ATOM     73  C   UNL A   1      44.827  33.406  29.989  1.00  0.00     0.009 A 
ATOM     74  C   UNL A   1      44.443  32.819  32.305  1.00  0.00     0.009 A 
ATOM     75  C   UNL A   1      45.157  34.706  30.377  1.00  0.00     0.001 A 
ATOM     76  C   UNL A   1      44.743  34.128  32.686  1.00  0.00     0.001 A 
ATOM     77  C   UNL A   1      45.111  35.066  31.724  1.00  0.00     0.000 A 
ENDBRANCH  59  72
ENDBRANCH  33  34
ENDBRANCH  25  28
ENDBRANCH  23  24
ENDBRANCH   1  23
TORSDOF 11
ENDMDL
