MODEL 1
REMARK VINA RESULT:     -10.3      0.000      0.000
REMARK SMILES CCCN(CCC)c1cc(C(=O)NCCCNC(=O)c2ccc(-c3c4nc(c(-c5ccccc5)c5ccc([nH]5)c(-c5ccccc5)c5nc(c(-c6ccccc6)c6ccc3[nH]6)C=C5)C=C4)cc2)cc(C(F)(F)F)c1
REMARK SMILES IDX 14 1 13 2 11 3 12 4 10 6 8 7 9 8 74 9 69 10 68 11 4 12 3 13
REMARK SMILES IDX 2 14 1 15 5 16 6 17 7 18 70 19 71 20 72 21 73 22 15 23 16 24
REMARK SMILES IDX 17 25 18 26 19 28 20 29 21 30 67 31 22 32 66 33 23 34 24 35
REMARK SMILES IDX 25 36 60 37 26 38 65 39 59 40 61 41 27 42 64 43 58 44 57 45
REMARK SMILES IDX 28 47 50 48 35 49 49 50 36 51 39 52 48 53 62 54 37 55 38 56
REMARK SMILES IDX 47 58 63 59 40 60 29 61 30 62 34 63 31 64 33 65 32 66 51 67
REMARK SMILES IDX 52 68 56 69 53 70 55 71 54 72 41 73 42 74 46 75 43 76 45 77
REMARK SMILES IDX 44 78
REMARK H PARENT 13 5 17 27 61 46 39 57
REMARK Flexibility Score: inf
ROOT
ATOM      1  C   UNL A   1      33.371  29.270  24.834  1.00  0.00     0.118 C 
ENDROOT
BRANCH   1   2
ATOM      2  N   UNL A   1      33.785  28.855  23.500  1.00  0.00    -0.352 N 
ATOM      3  C   UNL A   1      33.613  27.661  22.827  1.00  0.00     0.251 C 
ATOM      4  O   UNL A   1      34.014  27.573  21.669  1.00  0.00    -0.269 OA
ATOM      5  H   UNL A   1      34.270  29.544  22.990  1.00  0.00     0.163 HD
BRANCH   3   6
ATOM      6  C   UNL A   1      33.075  26.459  23.520  1.00  0.00     0.042 A 
ATOM      7  C   UNL A   1      33.679  24.520  24.888  1.00  0.00     0.038 A 
ATOM      8  C   UNL A   1      33.991  25.470  23.914  1.00  0.00     0.039 A 
ATOM      9  C   UNL A   1      32.394  24.602  25.425  1.00  0.00     0.039 A 
ATOM     10  C   UNL A   1      31.433  25.523  24.989  1.00  0.00     0.058 A 
ATOM     11  C   UNL A   1      31.754  26.376  23.940  1.00  0.00     0.027 A 
BRANCH   7  12
ATOM     12  N   UNL A   1      34.600  23.607  25.377  1.00  0.00    -0.372 N 
BRANCH  12  13
ATOM     13  C   UNL A   1      34.149  22.345  25.991  1.00  0.00     0.116 C 
BRANCH  13  14
ATOM     14  C   UNL A   1      33.634  21.287  24.996  1.00  0.00     0.018 C 
ATOM     15  C   UNL A   1      34.508  20.046  24.827  1.00  0.00     0.006 C 
ENDBRANCH  13  14
ENDBRANCH  12  13
BRANCH  12  16
ATOM     16  C   UNL A   1      36.034  23.952  25.453  1.00  0.00     0.116 C 
BRANCH  16  17
ATOM     17  C   UNL A   1      36.956  22.992  24.691  1.00  0.00     0.018 C 
ATOM     18  C   UNL A   1      36.620  22.902  23.202  1.00  0.00     0.006 C 
ENDBRANCH  16  17
ENDBRANCH  12  16
ENDBRANCH   7  12
BRANCH  10  19
ATOM     19  C   UNL A   1      30.173  25.747  25.784  1.00  0.00     0.416 C 
ATOM     20  F   UNL A   1      30.330  26.770  26.673  1.00  0.00    -0.166 F 
ATOM     21  F   UNL A   1      29.107  26.088  25.012  1.00  0.00    -0.166 F 
ATOM     22  F   UNL A   1      29.787  24.672  26.522  1.00  0.00    -0.166 F 
ENDBRANCH  10  19
ENDBRANCH   3   6
ENDBRANCH   1   2
BRANCH   1  23
ATOM     23  C   UNL A   1      34.080  28.586  25.984  1.00  0.00     0.042 C 
BRANCH  23  24
ATOM     24  C   UNL A   1      33.463  28.815  27.348  1.00  0.00     0.118 C 
BRANCH  24  25
ATOM     25  N   UNL A   1      33.562  30.197  27.798  1.00  0.00    -0.352 N 
ATOM     26  C   UNL A   1      34.581  30.881  28.420  1.00  0.00     0.251 C 
ATOM     27  H   UNL A   1      32.757  30.738  27.626  1.00  0.00     0.163 HD
ATOM     28  O   UNL A   1      34.369  32.002  28.868  1.00  0.00    -0.269 OA
BRANCH  26  29
ATOM     29  C   UNL A   1      35.918  30.268  28.582  1.00  0.00     0.039 A 
ATOM     30  C   UNL A   1      36.837  30.353  27.530  1.00  0.00     0.014 A 
ATOM     31  C   UNL A   1      36.270  29.592  29.749  1.00  0.00     0.014 A 
ATOM     32  C   UNL A   1      38.126  29.837  27.690  1.00  0.00     0.010 A 
ATOM     33  C   UNL A   1      37.586  29.196  29.955  1.00  0.00     0.010 A 
ATOM     34  C   UNL A   1      38.527  29.298  28.922  1.00  0.00    -0.014 A 
BRANCH  34  35
ATOM     35  C   UNL A   1      39.914  28.819  29.154  1.00  0.00     0.031 A 
ATOM     36  C   UNL A   1      40.939  29.741  29.761  1.00  0.00     0.074 A 
ATOM     37  C   UNL A   1      40.272  27.585  28.751  1.00  0.00     0.049 A 
ATOM     38  N   UNL A   1      42.216  29.537  29.967  1.00  0.00    -0.248 NA
ATOM     39  C   UNL A   1      40.477  31.082  30.158  1.00  0.00     0.031 C 
ATOM     40  C   UNL A   1      39.389  26.612  28.104  1.00  0.00     0.029 A 
ATOM     41  N   UNL A   1      41.482  26.939  28.819  1.00  0.00    -0.354 N 
ATOM     42  C   UNL A   1      42.707  30.724  30.495  1.00  0.00     0.074 A 
ATOM     43  C   UNL A   1      41.610  31.666  30.516  1.00  0.00     0.031 C 
ATOM     44  C   UNL A   1      40.075  25.483  27.867  1.00  0.00     0.029 A 
ATOM     45  C   UNL A   1      41.457  25.667  28.298  1.00  0.00     0.049 A 
ATOM     46  H   UNL A   1      42.290  27.347  29.204  1.00  0.00     0.167 HD
ATOM     47  C   UNL A   1      43.952  31.001  30.949  1.00  0.00     0.031 A 
ATOM     48  C   UNL A   1      42.439  24.754  28.172  1.00  0.00     0.031 A 
ATOM     49  C   UNL A   1      45.041  30.062  30.939  1.00  0.00     0.049 A 
ATOM     50  C   UNL A   1      43.817  25.091  28.667  1.00  0.00     0.074 A 
ATOM     51  C   UNL A   1      46.326  30.226  31.424  1.00  0.00     0.029 A 
ATOM     52  N   UNL A   1      44.969  28.781  30.412  1.00  0.00    -0.354 N 
ATOM     53  N   UNL A   1      44.247  26.196  29.229  1.00  0.00    -0.248 NA
ATOM     54  C   UNL A   1      44.843  24.049  28.522  1.00  0.00     0.031 C 
ATOM     55  C   UNL A   1      47.050  29.065  31.138  1.00  0.00     0.029 A 
ATOM     56  C   UNL A   1      46.197  28.153  30.537  1.00  0.00     0.049 A 
ATOM     57  H   UNL A   1      44.166  28.379  30.010  1.00  0.00     0.167 HD
ATOM     58  C   UNL A   1      45.585  25.971  29.530  1.00  0.00     0.074 A 
ATOM     59  C   UNL A   1      45.887  24.619  29.107  1.00  0.00     0.031 C 
ATOM     60  C   UNL A   1      46.482  26.808  30.107  1.00  0.00     0.031 A 
BRANCH  47  61
ATOM     61  C   UNL A   1      44.200  32.385  31.492  1.00  0.00    -0.014 A 
ATOM     62  C   UNL A   1      44.689  33.414  30.669  1.00  0.00     0.009 A 
ATOM     63  C   UNL A   1      43.917  32.670  32.837  1.00  0.00     0.009 A 
ATOM     64  C   UNL A   1      44.930  34.685  31.193  1.00  0.00     0.001 A 
ATOM     65  C   UNL A   1      44.127  33.952  33.349  1.00  0.00     0.001 A 
ATOM     66  C   UNL A   1      44.645  34.954  32.531  1.00  0.00     0.000 A 
ENDBRANCH  47  61
BRANCH  48  67
ATOM     67  C   UNL A   1      42.150  23.429  27.561  1.00  0.00    -0.014 A 
ATOM     68  C   UNL A   1      41.654  22.375  28.342  1.00  0.00     0.009 A 
ATOM     69  C   UNL A   1      42.372  23.210  26.191  1.00  0.00     0.009 A 
ATOM     70  C   UNL A   1      41.414  21.121  27.773  1.00  0.00     0.001 A 
ATOM     71  C   UNL A   1      42.101  21.966  25.619  1.00  0.00     0.001 A 
ATOM     72  C   UNL A   1      41.632  20.920  26.411  1.00  0.00     0.000 A 
ENDBRANCH  48  67
BRANCH  60  73
ATOM     73  C   UNL A   1      47.866  26.272  30.348  1.00  0.00    -0.014 A 
ATOM     74  C   UNL A   1      48.849  26.306  29.347  1.00  0.00     0.009 A 
ATOM     75  C   UNL A   1      48.201  25.766  31.614  1.00  0.00     0.009 A 
ATOM     76  C   UNL A   1      50.129  25.808  29.599  1.00  0.00     0.001 A 
ATOM     77  C   UNL A   1      49.490  25.301  31.873  1.00  0.00     0.001 A 
ATOM     78  C   UNL A   1      50.450  25.313  30.863  1.00  0.00     0.000 A 
ENDBRANCH  60  73
ENDBRANCH  34  35
ENDBRANCH  26  29
ENDBRANCH  24  25
ENDBRANCH  23  24
ENDBRANCH   1  23
TORSDOF 16
ENDMDL
MODEL 2
REMARK VINA RESULT:      -9.7      3.365      7.623
REMARK SMILES CCCN(CCC)c1cc(C(=O)NCCCNC(=O)c2ccc(-c3c4nc(c(-c5ccccc5)c5ccc([nH]5)c(-c5ccccc5)c5nc(c(-c6ccccc6)c6ccc3[nH]6)C=C5)C=C4)cc2)cc(C(F)(F)F)c1
REMARK SMILES IDX 14 1 13 2 11 3 12 4 10 6 8 7 9 8 74 9 69 10 68 11 4 12 3 13
REMARK SMILES IDX 2 14 1 15 5 16 6 17 7 18 70 19 71 20 72 21 73 22 15 23 16 24
REMARK SMILES IDX 17 25 18 26 19 28 20 29 21 30 67 31 22 32 66 33 23 34 24 35
REMARK SMILES IDX 25 36 60 37 26 38 65 39 59 40 61 41 27 42 64 43 58 44 57 45
REMARK SMILES IDX 28 47 50 48 35 49 49 50 36 51 39 52 48 53 62 54 37 55 38 56
REMARK SMILES IDX 47 58 63 59 40 60 29 61 30 62 34 63 31 64 33 65 32 66 51 67
REMARK SMILES IDX 52 68 56 69 53 70 55 71 54 72 41 73 42 74 46 75 43 76 45 77
REMARK SMILES IDX 44 78
REMARK H PARENT 13 5 17 27 61 46 39 57
REMARK Flexibility Score: inf
ROOT
ATOM      1  C   UNL A   1      38.026  22.381  26.073  1.00  0.00     0.118 C 
ENDROOT
BRANCH   1   2
ATOM      2  N   UNL A   1      37.779  22.683  24.669  1.00  0.00    -0.352 N 
ATOM      3  C   UNL A   1      36.626  22.605  23.913  1.00  0.00     0.251 C 
ATOM      4  O   UNL A   1      36.661  22.974  22.741  1.00  0.00    -0.269 OA
ATOM      5  H   UNL A   1      38.570  22.997  24.174  1.00  0.00     0.163 HD
BRANCH   3   6
ATOM      6  C   UNL A   1      35.393  21.971  24.455  1.00  0.00     0.042 A 
ATOM      7  C   UNL A   1      32.953  22.150  24.564  1.00  0.00     0.038 A 
ATOM      8  C   UNL A   1      34.216  22.737  24.460  1.00  0.00     0.039 A 
ATOM      9  C   UNL A   1      32.939  20.760  24.686  1.00  0.00     0.039 A 
ATOM     10  C   UNL A   1      34.100  19.981  24.770  1.00  0.00     0.058 A 
ATOM     11  C   UNL A   1      35.333  20.621  24.773  1.00  0.00     0.027 A 
BRANCH   7  12
ATOM     12  N   UNL A   1      31.774  22.870  24.456  1.00  0.00    -0.372 N 
BRANCH  12  13
ATOM     13  C   UNL A   1      31.420  23.543  23.193  1.00  0.00     0.116 C 
BRANCH  13  14
ATOM     14  C   UNL A   1      32.200  24.841  22.909  1.00  0.00     0.018 C 
ATOM     15  C   UNL A   1      31.404  25.973  22.262  1.00  0.00     0.006 C 
ENDBRANCH  13  14
ENDBRANCH  12  13
BRANCH  12  16
ATOM     16  C   UNL A   1      30.937  23.125  25.646  1.00  0.00     0.116 C 
BRANCH  16  17
ATOM     17  C   UNL A   1      31.657  23.873  26.775  1.00  0.00     0.018 C 
ATOM     18  C   UNL A   1      31.797  25.371  26.501  1.00  0.00     0.006 C 
ENDBRANCH  16  17
ENDBRANCH  12  16
ENDBRANCH   7  12
BRANCH  10  19
ATOM     19  C   UNL A   1      34.027  18.484  24.624  1.00  0.00     0.416 C 
ATOM     20  F   UNL A   1      35.275  17.931  24.622  1.00  0.00    -0.166 F 
ATOM     21  F   UNL A   1      33.357  17.879  25.639  1.00  0.00    -0.166 F 
ATOM     22  F   UNL A   1      33.438  18.069  23.471  1.00  0.00    -0.166 F 
ENDBRANCH  10  19
ENDBRANCH   3   6
ENDBRANCH   1   2
BRANCH   1  23
ATOM     23  C   UNL A   1      39.081  21.327  26.343  1.00  0.00     0.042 C 
BRANCH  23  24
ATOM     24  C   UNL A   1      39.087  20.161  25.377  1.00  0.00     0.118 C 
BRANCH  24  25
ATOM     25  N   UNL A   1      40.045  19.124  25.735  1.00  0.00    -0.352 N 
ATOM     26  C   UNL A   1      41.361  19.199  26.131  1.00  0.00     0.251 C 
ATOM     27  H   UNL A   1      39.688  18.208  25.685  1.00  0.00     0.163 HD
ATOM     28  O   UNL A   1      42.025  18.171  26.209  1.00  0.00    -0.269 OA
BRANCH  26  29
ATOM     29  C   UNL A   1      41.990  20.504  26.433  1.00  0.00     0.039 A 
ATOM     30  C   UNL A   1      42.353  21.344  25.374  1.00  0.00     0.014 A 
ATOM     31  C   UNL A   1      42.246  20.900  27.744  1.00  0.00     0.014 A 
ATOM     32  C   UNL A   1      42.887  22.607  25.642  1.00  0.00     0.010 A 
ATOM     33  C   UNL A   1      42.655  22.201  28.011  1.00  0.00     0.010 A 
ATOM     34  C   UNL A   1      42.997  23.066  26.964  1.00  0.00    -0.014 A 
BRANCH  34  35
ATOM     35  C   UNL A   1      43.480  24.434  27.281  1.00  0.00     0.031 A 
ATOM     36  C   UNL A   1      42.506  25.496  27.722  1.00  0.00     0.074 A 
ATOM     37  C   UNL A   1      44.778  24.744  27.100  1.00  0.00     0.049 A 
ATOM     38  N   UNL A   1      42.719  26.764  27.965  1.00  0.00    -0.248 NA
ATOM     39  C   UNL A   1      41.100  25.086  27.877  1.00  0.00     0.031 C 
ATOM     40  C   UNL A   1      45.815  23.823  26.630  1.00  0.00     0.029 A 
ATOM     41  N   UNL A   1      45.448  25.929  27.285  1.00  0.00    -0.354 N 
ATOM     42  C   UNL A   1      41.478  27.301  28.280  1.00  0.00     0.074 A 
ATOM     43  C   UNL A   1      40.506  26.242  28.132  1.00  0.00     0.031 C 
ATOM     44  C   UNL A   1      46.993  24.465  26.596  1.00  0.00     0.029 A 
ATOM     45  C   UNL A   1      46.789  25.854  26.994  1.00  0.00     0.049 A 
ATOM     46  H   UNL A   1      45.010  26.752  27.596  1.00  0.00     0.167 HD
ATOM     47  C   UNL A   1      41.173  28.558  28.684  1.00  0.00     0.031 A 
ATOM     48  C   UNL A   1      47.747  26.800  27.032  1.00  0.00     0.031 A 
ATOM     49  C   UNL A   1      42.140  29.610  28.842  1.00  0.00     0.049 A 
ATOM     50  C   UNL A   1      47.381  28.191  27.467  1.00  0.00     0.074 A 
ATOM     51  C   UNL A   1      41.944  30.901  29.296  1.00  0.00     0.029 A 
ATOM     52  N   UNL A   1      43.490  29.488  28.546  1.00  0.00    -0.354 N 
ATOM     53  N   UNL A   1      46.213  28.665  27.829  1.00  0.00    -0.248 NA
ATOM     54  C   UNL A   1      48.471  29.177  27.510  1.00  0.00     0.031 C 
ATOM     55  C   UNL A   1      43.163  31.580  29.219  1.00  0.00     0.029 A 
ATOM     56  C   UNL A   1      44.133  30.691  28.783  1.00  0.00     0.049 A 
ATOM     57  H   UNL A   1      43.925  28.669  28.217  1.00  0.00     0.167 HD
ATOM     58  C   UNL A   1      46.432  29.994  28.170  1.00  0.00     0.074 A 
ATOM     59  C   UNL A   1      47.848  30.244  27.990  1.00  0.00     0.031 C 
ATOM     60  C   UNL A   1      45.542  30.924  28.595  1.00  0.00     0.031 A 
BRANCH  47  61
ATOM     61  C   UNL A   1      39.727  28.859  28.978  1.00  0.00    -0.014 A 
ATOM     62  C   UNL A   1      39.194  28.689  30.267  1.00  0.00     0.009 A 
ATOM     63  C   UNL A   1      38.891  29.342  27.959  1.00  0.00     0.009 A 
ATOM     64  C   UNL A   1      37.847  28.955  30.518  1.00  0.00     0.001 A 
ATOM     65  C   UNL A   1      37.553  29.640  28.221  1.00  0.00     0.001 A 
ATOM     66  C   UNL A   1      37.028  29.434  29.496  1.00  0.00     0.000 A 
ENDBRANCH  47  61
BRANCH  48  67
ATOM     67  C   UNL A   1      49.146  26.460  26.661  1.00  0.00    -0.014 A 
ATOM     68  C   UNL A   1      49.612  26.676  25.356  1.00  0.00     0.009 A 
ATOM     69  C   UNL A   1      50.026  25.915  27.611  1.00  0.00     0.009 A 
ATOM     70  C   UNL A   1      50.918  26.326  25.001  1.00  0.00     0.001 A 
ATOM     71  C   UNL A   1      51.339  25.596  27.263  1.00  0.00     0.001 A 
ATOM     72  C   UNL A   1      51.782  25.792  25.956  1.00  0.00     0.000 A 
ENDBRANCH  48  67
BRANCH  60  73
ATOM     73  C   UNL A   1      46.079  32.287  28.931  1.00  0.00    -0.014 A 
ATOM     74  C   UNL A   1      46.180  33.295  27.960  1.00  0.00     0.009 A 
ATOM     75  C   UNL A   1      46.450  32.578  30.254  1.00  0.00     0.009 A 
ATOM     76  C   UNL A   1      46.676  34.555  28.300  1.00  0.00     0.001 A 
ATOM     77  C   UNL A   1      46.913  33.848  30.598  1.00  0.00     0.001 A 
ATOM     78  C   UNL A   1      47.036  34.832  29.619  1.00  0.00     0.000 A 
ENDBRANCH  60  73
ENDBRANCH  34  35
ENDBRANCH  26  29
ENDBRANCH  24  25
ENDBRANCH  23  24
ENDBRANCH   1  23
TORSDOF 16
ENDMDL
MODEL 3
REMARK VINA RESULT:      -9.7      2.089      2.969
REMARK SMILES CCCN(CCC)c1cc(C(=O)NCCCNC(=O)c2ccc(-c3c4nc(c(-c5ccccc5)c5ccc([nH]5)c(-c5ccccc5)c5nc(c(-c6ccccc6)c6ccc3[nH]6)C=C5)C=C4)cc2)cc(C(F)(F)F)c1
REMARK SMILES IDX 14 1 13 2 11 3 12 4 10 6 8 7 9 8 74 9 69 10 68 11 4 12 3 13
REMARK SMILES IDX 2 14 1 15 5 16 6 17 7 18 70 19 71 20 72 21 73 22 15 23 16 24
REMARK SMILES IDX 17 25 18 26 19 28 20 29 21 30 67 31 22 32 66 33 23 34 24 35
REMARK SMILES IDX 25 36 60 37 26 38 65 39 59 40 61 41 27 42 64 43 58 44 57 45
REMARK SMILES IDX 28 47 50 48 35 49 49 50 36 51 39 52 48 53 62 54 37 55 38 56
REMARK SMILES IDX 47 58 63 59 40 60 29 61 30 62 34 63 31 64 33 65 32 66 51 67
REMARK SMILES IDX 52 68 56 69 53 70 55 71 54 72 41 73 42 74 46 75 43 76 45 77
REMARK SMILES IDX 44 78
REMARK H PARENT 13 5 17 27 61 46 39 57
REMARK Flexibility Score: inf
ROOT
ATOM      1  C   UNL A   1      33.589  26.588  25.738  1.00  0.00     0.118 C 
ENDROOT
BRANCH   1   2
ATOM      2  N   UNL A   1      32.407  25.976  26.330  1.00  0.00    -0.352 N 
ATOM      3  C   UNL A   1      32.156  24.674  26.717  1.00  0.00     0.251 C 
ATOM      4  O   UNL A   1      31.080  24.413  27.251  1.00  0.00    -0.269 OA
ATOM      5  H   UNL A   1      31.658  26.598  26.481  1.00  0.00     0.163 HD
BRANCH   3   6
ATOM      6  C   UNL A   1      33.105  23.577  26.385  1.00  0.00     0.042 A 
ATOM      7  C   UNL A   1      33.412  21.564  25.024  1.00  0.00     0.038 A 
ATOM      8  C   UNL A   1      32.590  22.451  25.723  1.00  0.00     0.039 A 
ATOM      9  C   UNL A   1      34.776  21.857  25.047  1.00  0.00     0.039 A 
ATOM     10  C   UNL A   1      35.324  22.924  25.770  1.00  0.00     0.058 A 
ATOM     11  C   UNL A   1      34.477  23.713  26.540  1.00  0.00     0.027 A 
BRANCH   7  12
ATOM     12  N   UNL A   1      32.920  20.512  24.269  1.00  0.00    -0.372 N 
BRANCH  12  13
ATOM     13  C   UNL A   1      32.182  20.769  23.018  1.00  0.00     0.116 C 
BRANCH  13  14
ATOM     14  C   UNL A   1      31.981  22.258  22.678  1.00  0.00     0.018 C 
ATOM     15  C   UNL A   1      33.117  22.928  21.908  1.00  0.00     0.006 C 
ENDBRANCH  13  14
ENDBRANCH  12  13
BRANCH  12  16
ATOM     16  C   UNL A   1      32.967  19.129  24.784  1.00  0.00     0.116 C 
BRANCH  16  17
ATOM     17  C   UNL A   1      33.216  18.063  23.709  1.00  0.00     0.018 C 
ATOM     18  C   UNL A   1      33.296  16.648  24.284  1.00  0.00     0.006 C 
ENDBRANCH  16  17
ENDBRANCH  12  16
ENDBRANCH   7  12
BRANCH  10  19
ATOM     19  C   UNL A   1      36.749  23.351  25.538  1.00  0.00     0.416 C 
ATOM     20  F   UNL A   1      37.064  24.439  26.300  1.00  0.00    -0.166 F 
ATOM     21  F   UNL A   1      37.656  22.394  25.868  1.00  0.00    -0.166 F 
ATOM     22  F   UNL A   1      37.017  23.710  24.254  1.00  0.00    -0.166 F 
ENDBRANCH  10  19
ENDBRANCH   3   6
ENDBRANCH   1   2
BRANCH   1  23
ATOM     23  C   UNL A   1      33.793  28.057  26.048  1.00  0.00     0.042 C 
BRANCH  23  24
ATOM     24  C   UNL A   1      33.284  28.506  27.401  1.00  0.00     0.118 C 
BRANCH  24  25
ATOM     25  N   UNL A   1      33.418  29.940  27.618  1.00  0.00    -0.352 N 
ATOM     26  C   UNL A   1      34.468  30.695  28.090  1.00  0.00     0.251 C 
ATOM     27  H   UNL A   1      32.616  30.462  27.387  1.00  0.00     0.163 HD
ATOM     28  O   UNL A   1      34.287  31.877  28.357  1.00  0.00    -0.269 OA
BRANCH  26  29
ATOM     29  C   UNL A   1      35.800  30.090  28.307  1.00  0.00     0.039 A 
ATOM     30  C   UNL A   1      36.719  30.072  27.252  1.00  0.00     0.014 A 
ATOM     31  C   UNL A   1      36.148  29.521  29.531  1.00  0.00     0.014 A 
ATOM     32  C   UNL A   1      38.005  29.564  27.459  1.00  0.00     0.010 A 
ATOM     33  C   UNL A   1      37.461  29.136  29.772  1.00  0.00     0.010 A 
ATOM     34  C   UNL A   1      38.402  29.137  28.735  1.00  0.00    -0.014 A 
BRANCH  34  35
ATOM     35  C   UNL A   1      39.786  28.672  29.010  1.00  0.00     0.031 A 
ATOM     36  C   UNL A   1      40.794  29.614  29.614  1.00  0.00     0.074 A 
ATOM     37  C   UNL A   1      40.158  27.429  28.648  1.00  0.00     0.049 A 
ATOM     38  N   UNL A   1      42.067  29.422  29.853  1.00  0.00    -0.248 NA
ATOM     39  C   UNL A   1      40.318  30.964  29.964  1.00  0.00     0.031 C 
ATOM     40  C   UNL A   1      39.294  26.434  28.009  1.00  0.00     0.029 A 
ATOM     41  N   UNL A   1      41.369  26.790  28.760  1.00  0.00    -0.354 N 
ATOM     42  C   UNL A   1      42.541  30.626  30.359  1.00  0.00     0.074 A 
ATOM     43  C   UNL A   1      41.440  31.562  30.331  1.00  0.00     0.031 C 
ATOM     44  C   UNL A   1      39.990  25.302  27.818  1.00  0.00     0.029 A 
ATOM     45  C   UNL A   1      41.361  25.505  28.274  1.00  0.00     0.049 A 
ATOM     46  H   UNL A   1      42.167  27.213  29.152  1.00  0.00     0.167 HD
ATOM     47  C   UNL A   1      43.775  30.922  30.832  1.00  0.00     0.031 A 
ATOM     48  C   UNL A   1      42.349  24.594  28.194  1.00  0.00     0.031 A 
ATOM     49  C   UNL A   1      44.867  29.988  30.871  1.00  0.00     0.049 A 
ATOM     50  C   UNL A   1      43.715  24.951  28.710  1.00  0.00     0.074 A 
ATOM     51  C   UNL A   1      46.141  30.171  31.379  1.00  0.00     0.029 A 
ATOM     52  N   UNL A   1      44.813  28.693  30.378  1.00  0.00    -0.354 N 
ATOM     53  N   UNL A   1      44.128  26.072  29.250  1.00  0.00    -0.248 NA
ATOM     54  C   UNL A   1      44.749  23.910  28.616  1.00  0.00     0.031 C 
ATOM     55  C   UNL A   1      46.876  29.006  31.140  1.00  0.00     0.029 A 
ATOM     56  C   UNL A   1      46.040  28.074  30.546  1.00  0.00     0.049 A 
ATOM     57  H   UNL A   1      44.020  28.276  29.969  1.00  0.00     0.167 HD
ATOM     58  C   UNL A   1      45.460  25.863  29.587  1.00  0.00     0.074 A 
ATOM     59  C   UNL A   1      45.778  24.501  29.207  1.00  0.00     0.031 C 
ATOM     60  C   UNL A   1      46.340  26.719  30.159  1.00  0.00     0.031 A 
BRANCH  47  61
ATOM     61  C   UNL A   1      44.004  32.320  31.342  1.00  0.00    -0.014 A 
ATOM     62  C   UNL A   1      43.642  32.688  32.649  1.00  0.00     0.009 A 
ATOM     63  C   UNL A   1      44.611  33.277  30.514  1.00  0.00     0.009 A 
ATOM     64  C   UNL A   1      43.844  33.994  33.100  1.00  0.00     0.001 A 
ATOM     65  C   UNL A   1      44.844  34.572  30.979  1.00  0.00     0.001 A 
ATOM     66  C   UNL A   1      44.449  34.934  32.266  1.00  0.00     0.000 A 
ENDBRANCH  47  61
BRANCH  48  67
ATOM     67  C   UNL A   1      42.080  23.251  27.614  1.00  0.00    -0.014 A 
ATOM     68  C   UNL A   1      41.524  22.231  28.400  1.00  0.00     0.009 A 
ATOM     69  C   UNL A   1      42.381  22.981  26.268  1.00  0.00     0.009 A 
ATOM     70  C   UNL A   1      41.302  20.961  27.861  1.00  0.00     0.001 A 
ATOM     71  C   UNL A   1      42.127  21.720  25.724  1.00  0.00     0.001 A 
ATOM     72  C   UNL A   1      41.599  20.708  26.522  1.00  0.00     0.000 A 
ENDBRANCH  48  67
BRANCH  60  73
ATOM     73  C   UNL A   1      47.721  26.198  30.445  1.00  0.00    -0.014 A 
ATOM     74  C   UNL A   1      48.734  26.236  29.474  1.00  0.00     0.009 A 
ATOM     75  C   UNL A   1      48.022  25.700  31.723  1.00  0.00     0.009 A 
ATOM     76  C   UNL A   1      50.010  25.751  29.768  1.00  0.00     0.001 A 
ATOM     77  C   UNL A   1      49.307  25.248  32.024  1.00  0.00     0.001 A 
ATOM     78  C   UNL A   1      50.297  25.264  31.043  1.00  0.00     0.000 A 
ENDBRANCH  60  73
ENDBRANCH  34  35
ENDBRANCH  26  29
ENDBRANCH  24  25
ENDBRANCH  23  24
ENDBRANCH   1  23
TORSDOF 16
ENDMDL
