MODEL 1
REMARK VINA RESULT:     -12.8      0.000      0.000
REMARK SMILES O=C(NCCCNC(=O)[C@H]1CC=CC[C@@H]1C(=O)Nc1nn(Cc2ccccc2F)cc1Br)c1ccc(-c2c3nc(c(-c4ccccc4)c4ccc([nH]4)c(-c4ccccc4)c4nc(c(-c5ccccc5)c5ccc2[nH]5)C=C4)C=C3)cc1
REMARK SMILES IDX 6 1 5 2 4 3 3 4 1 5 2 6 33 8 34 9 80 10 35 11 79 12 36 13
REMARK SMILES IDX 37 14 38 15 73 16 39 17 78 18 72 19 74 20 40 21 77 22 71 23
REMARK SMILES IDX 70 24 41 26 63 27 48 28 62 29 49 30 52 31 61 32 75 33 50 34
REMARK SMILES IDX 51 35 60 37 76 38 53 39 42 40 43 41 47 42 44 43 46 44 45 45
REMARK SMILES IDX 64 46 65 47 69 48 66 49 68 50 67 51 54 52 55 53 59 54 56 55
REMARK SMILES IDX 58 56 57 57 7 58 8 59 9 61 10 62 11 63 15 64 12 65 14 66
REMARK SMILES IDX 13 67 16 68 17 69 18 70 19 72 20 73 31 74 21 75 30 76 32 77
REMARK SMILES IDX 22 78 23 79 24 80 28 81 25 82 27 83 29 84 26 85
REMARK H PARENT 3 7 74 25 52 36 7 60 18 71
REMARK Flexibility Score: inf
ROOT
ATOM      1  C   UNL A   1      31.652  28.194  27.526  1.00  0.00     0.117 C 
ENDROOT
BRANCH   1   2
ATOM      2  C   UNL A   1      31.960  28.912  26.220  1.00  0.00     0.042 C 
BRANCH   2   3
ATOM      3  C   UNL A   1      33.299  29.653  26.237  1.00  0.00     0.118 C 
BRANCH   3   4
ATOM      4  N   UNL A   1      33.335  30.830  27.087  1.00  0.00    -0.352 N 
ATOM      5  O   UNL A   1      33.961  32.491  28.411  1.00  0.00    -0.269 OA
ATOM      6  C   UNL A   1      34.288  31.439  27.854  1.00  0.00     0.251 C 
ATOM      7  H   UNL A   1      32.470  31.301  27.118  1.00  0.00     0.163 HD
BRANCH   6   8
ATOM      8  C   UNL A   1      35.647  30.892  28.111  1.00  0.00     0.039 A 
ATOM      9  C   UNL A   1      36.029  29.561  27.940  1.00  0.00     0.014 A 
ATOM     10  C   UNL A   1      36.604  31.813  28.570  1.00  0.00     0.014 A 
ATOM     11  C   UNL A   1      37.295  29.130  28.327  1.00  0.00     0.010 A 
ATOM     12  C   UNL A   1      37.884  31.399  28.915  1.00  0.00     0.010 A 
ATOM     13  C   UNL A   1      38.213  30.047  28.834  1.00  0.00    -0.014 A 
BRANCH  13  14
ATOM     14  C   UNL A   1      39.559  29.578  29.163  1.00  0.00     0.031 A 
ATOM     15  C   UNL A   1      39.847  29.353  30.614  1.00  0.00     0.074 A 
ATOM     16  C   UNL A   1      40.414  29.162  28.207  1.00  0.00     0.049 A 
ATOM     17  N   UNL A   1      40.885  29.709  31.305  1.00  0.00    -0.248 NA
ATOM     18  C   UNL A   1      38.813  28.664  31.407  1.00  0.00     0.031 C 
ATOM     19  C   UNL A   1      40.143  29.029  26.771  1.00  0.00     0.029 A 
ATOM     20  N   UNL A   1      41.656  28.614  28.342  1.00  0.00    -0.354 N 
ATOM     21  C   UNL A   1      40.708  29.163  32.579  1.00  0.00     0.074 A 
ATOM     22  C   UNL A   1      39.378  28.612  32.612  1.00  0.00     0.031 C 
ATOM     23  C   UNL A   1      41.069  28.213  26.222  1.00  0.00     0.029 A 
ATOM     24  C   UNL A   1      42.054  27.876  27.236  1.00  0.00     0.049 A 
ATOM     25  H   UNL A   1      42.214  28.731  29.144  1.00  0.00     0.167 HD
ATOM     26  C   UNL A   1      41.723  29.027  33.477  1.00  0.00     0.031 A 
ATOM     27  C   UNL A   1      43.061  26.972  27.179  1.00  0.00     0.031 A 
ATOM     28  C   UNL A   1      42.828  29.899  33.202  1.00  0.00     0.049 A 
ATOM     29  C   UNL A   1      43.947  27.191  28.341  1.00  0.00     0.074 A 
ATOM     30  C   UNL A   1      43.004  31.266  33.139  1.00  0.00     0.029 A 
ATOM     31  N   UNL A   1      43.952  29.355  32.632  1.00  0.00    -0.354 N 
ATOM     32  N   UNL A   1      44.696  28.243  28.496  1.00  0.00    -0.248 NA
ATOM     33  C   UNL A   1      43.708  26.412  29.546  1.00  0.00     0.031 C 
ATOM     34  C   UNL A   1      43.964  31.465  32.105  1.00  0.00     0.029 A 
ATOM     35  C   UNL A   1      44.330  30.206  31.628  1.00  0.00     0.049 A 
ATOM     36  H   UNL A   1      44.397  28.517  32.894  1.00  0.00     0.167 HD
ATOM     37  C   UNL A   1      44.675  28.497  29.858  1.00  0.00     0.074 A 
ATOM     38  C   UNL A   1      44.153  27.275  30.463  1.00  0.00     0.031 C 
ATOM     39  C   UNL A   1      44.820  29.767  30.342  1.00  0.00     0.031 A 
BRANCH  26  40
ATOM     40  C   UNL A   1      41.855  27.838  34.398  1.00  0.00    -0.014 A 
ATOM     41  C   UNL A   1      41.772  28.035  35.790  1.00  0.00     0.009 A 
ATOM     42  C   UNL A   1      42.349  26.591  33.966  1.00  0.00     0.009 A 
ATOM     43  C   UNL A   1      42.228  27.066  36.693  1.00  0.00     0.001 A 
ATOM     44  C   UNL A   1      42.763  25.605  34.866  1.00  0.00     0.001 A 
ATOM     45  C   UNL A   1      42.731  25.855  36.230  1.00  0.00     0.000 A 
ENDBRANCH  26  40
BRANCH  27  46
ATOM     46  C   UNL A   1      43.125  25.750  26.349  1.00  0.00    -0.014 A 
ATOM     47  C   UNL A   1      44.214  25.507  25.500  1.00  0.00     0.009 A 
ATOM     48  C   UNL A   1      42.219  24.696  26.573  1.00  0.00     0.009 A 
ATOM     49  C   UNL A   1      44.397  24.248  24.911  1.00  0.00     0.001 A 
ATOM     50  C   UNL A   1      42.397  23.443  25.982  1.00  0.00     0.001 A 
ATOM     51  C   UNL A   1      43.494  23.215  25.159  1.00  0.00     0.000 A 
ENDBRANCH  27  46
BRANCH  39  52
ATOM     52  C   UNL A   1      45.211  30.851  29.371  1.00  0.00    -0.014 A 
ATOM     53  C   UNL A   1      46.552  31.215  29.151  1.00  0.00     0.009 A 
ATOM     54  C   UNL A   1      44.227  31.399  28.536  1.00  0.00     0.009 A 
ATOM     55  C   UNL A   1      46.894  32.123  28.145  1.00  0.00     0.001 A 
ATOM     56  C   UNL A   1      44.571  32.291  27.517  1.00  0.00     0.001 A 
ATOM     57  C   UNL A   1      45.903  32.656  27.325  1.00  0.00     0.000 A 
ENDBRANCH  39  52
ENDBRANCH  13  14
ENDBRANCH   6   8
ENDBRANCH   3   4
ENDBRANCH   2   3
ENDBRANCH   1   2
BRANCH   1  58
ATOM     58  N   UNL A   1      31.365  26.787  27.322  1.00  0.00    -0.356 N 
ATOM     59  C   UNL A   1      31.775  25.814  26.480  1.00  0.00     0.224 C 
ATOM     60  H   UNL A   1      30.697  26.454  27.965  1.00  0.00     0.163 HD
ATOM     61  O   UNL A   1      31.389  24.689  26.830  1.00  0.00    -0.275 OA
BRANCH  59  62
ATOM     62  C   UNL A   1      32.582  25.978  25.169  1.00  0.00     0.095 C 
ATOM     63  C   UNL A   1      34.106  26.032  25.286  1.00  0.00     0.041 C 
ATOM     64  C   UNL A   1      32.193  24.789  24.243  1.00  0.00     0.095 C 
ATOM     65  C   UNL A   1      34.675  24.718  25.746  1.00  0.00    -0.030 C 
ATOM     66  C   UNL A   1      32.690  23.458  24.868  1.00  0.00     0.041 C 
ATOM     67  C   UNL A   1      34.017  23.561  25.581  1.00  0.00    -0.030 C 
BRANCH  64  68
ATOM     68  C   UNL A   1      32.760  24.893  22.819  1.00  0.00     0.229 C 
ATOM     69  O   UNL A   1      33.503  24.022  22.349  1.00  0.00    -0.274 OA
ATOM     70  N   UNL A   1      32.371  25.864  21.954  1.00  0.00    -0.308 N 
ATOM     71  H   UNL A   1      32.591  25.686  21.011  1.00  0.00     0.171 HD
BRANCH  70  72
ATOM     72  C   UNL A   1      31.721  27.053  22.173  1.00  0.00     0.168 A 
ATOM     73  N   UNL A   1      30.397  27.204  22.216  1.00  0.00    -0.153 NA
ATOM     74  C   UNL A   1      32.368  28.274  22.468  1.00  0.00     0.080 A 
ATOM     75  N   UNL A   1      30.209  28.509  22.520  1.00  0.00    -0.265 N 
ATOM     76  C   UNL A   1      31.382  29.204  22.648  1.00  0.00     0.127 A 
ATOM     77  Br  UNL A   1      34.217  28.553  22.552  1.00  0.00    -0.045 Br
BRANCH  75  78
ATOM     78  C   UNL A   1      28.883  29.015  22.874  1.00  0.00     0.182 C 
BRANCH  78  79
ATOM     79  C   UNL A   1      28.585  30.373  22.310  1.00  0.00     0.009 A 
ATOM     80  C   UNL A   1      28.121  30.538  20.995  1.00  0.00     0.008 A 
ATOM     81  C   UNL A   1      28.785  31.513  23.093  1.00  0.00     0.128 A 
ATOM     82  C   UNL A   1      27.862  31.817  20.492  1.00  0.00     0.001 A 
ATOM     83  C   UNL A   1      28.513  32.785  22.601  1.00  0.00     0.039 A 
ATOM     84  F   UNL A   1      29.278  31.395  24.335  1.00  0.00    -0.207 F 
ATOM     85  C   UNL A   1      28.048  32.940  21.299  1.00  0.00     0.003 A 
ENDBRANCH  78  79
ENDBRANCH  75  78
ENDBRANCH  70  72
ENDBRANCH  64  68
ENDBRANCH  59  62
ENDBRANCH   1  58
TORSDOF 14
ENDMDL
MODEL 2
REMARK VINA RESULT:     -12.7      2.885      5.068
REMARK SMILES O=C(NCCCNC(=O)[C@H]1CC=CC[C@@H]1C(=O)Nc1nn(Cc2ccccc2F)cc1Br)c1ccc(-c2c3nc(c(-c4ccccc4)c4ccc([nH]4)c(-c4ccccc4)c4nc(c(-c5ccccc5)c5ccc2[nH]5)C=C4)C=C3)cc1
REMARK SMILES IDX 6 1 5 2 4 3 3 4 1 5 2 6 33 8 34 9 80 10 35 11 79 12 36 13
REMARK SMILES IDX 37 14 38 15 73 16 39 17 78 18 72 19 74 20 40 21 77 22 71 23
REMARK SMILES IDX 70 24 41 26 63 27 48 28 62 29 49 30 52 31 61 32 75 33 50 34
REMARK SMILES IDX 51 35 60 37 76 38 53 39 42 40 43 41 47 42 44 43 46 44 45 45
REMARK SMILES IDX 64 46 65 47 69 48 66 49 68 50 67 51 54 52 55 53 59 54 56 55
REMARK SMILES IDX 58 56 57 57 7 58 8 59 9 61 10 62 11 63 15 64 12 65 14 66
REMARK SMILES IDX 13 67 16 68 17 69 18 70 19 72 20 73 31 74 21 75 30 76 32 77
REMARK SMILES IDX 22 78 23 79 24 80 28 81 25 82 27 83 29 84 26 85
REMARK H PARENT 3 7 74 25 52 36 7 60 18 71
REMARK Flexibility Score: inf
ROOT
ATOM      1  C   UNL A   1      33.773  29.479  26.570  1.00  0.00     0.117 C 
ENDROOT
BRANCH   1   2
ATOM      2  C   UNL A   1      34.942  29.921  27.440  1.00  0.00     0.042 C 
BRANCH   2   3
ATOM      3  C   UNL A   1      34.927  31.416  27.761  1.00  0.00     0.118 C 
BRANCH   3   4
ATOM      4  N   UNL A   1      34.777  31.737  29.170  1.00  0.00    -0.352 N 
ATOM      5  O   UNL A   1      35.110  32.055  31.336  1.00  0.00    -0.269 OA
ATOM      6  C   UNL A   1      35.562  31.602  30.281  1.00  0.00     0.251 C 
ATOM      7  H   UNL A   1      33.905  32.148  29.374  1.00  0.00     0.163 HD
BRANCH   6   8
ATOM      8  C   UNL A   1      36.872  30.900  30.314  1.00  0.00     0.039 A 
ATOM      9  C   UNL A   1      38.118  31.505  30.138  1.00  0.00     0.014 A 
ATOM     10  C   UNL A   1      36.823  29.513  30.535  1.00  0.00     0.014 A 
ATOM     11  C   UNL A   1      39.277  30.736  30.066  1.00  0.00     0.010 A 
ATOM     12  C   UNL A   1      37.979  28.745  30.510  1.00  0.00     0.010 A 
ATOM     13  C   UNL A   1      39.202  29.354  30.230  1.00  0.00    -0.014 A 
BRANCH  13  14
ATOM     14  C   UNL A   1      40.444  28.582  30.222  1.00  0.00     0.031 A 
ATOM     15  C   UNL A   1      41.134  28.424  31.541  1.00  0.00     0.074 A 
ATOM     16  C   UNL A   1      40.825  27.871  29.142  1.00  0.00     0.049 A 
ATOM     17  N   UNL A   1      42.392  28.558  31.824  1.00  0.00    -0.248 NA
ATOM     18  C   UNL A   1      40.292  28.105  32.707  1.00  0.00     0.031 C 
ATOM     19  C   UNL A   1      40.078  27.683  27.894  1.00  0.00     0.029 A 
ATOM     20  N   UNL A   1      41.891  27.032  28.996  1.00  0.00    -0.354 N 
ATOM     21  C   UNL A   1      42.527  28.196  33.167  1.00  0.00     0.074 A 
ATOM     22  C   UNL A   1      41.194  28.017  33.683  1.00  0.00     0.031 C 
ATOM     23  C   UNL A   1      40.570  26.606  27.244  1.00  0.00     0.029 A 
ATOM     24  C   UNL A   1      41.734  26.117  27.964  1.00  0.00     0.049 A 
ATOM     25  H   UNL A   1      42.692  27.072  29.567  1.00  0.00     0.167 HD
ATOM     26  C   UNL A   1      43.724  27.882  33.736  1.00  0.00     0.031 A 
ATOM     27  C   UNL A   1      42.443  24.981  27.767  1.00  0.00     0.031 A 
ATOM     28  C   UNL A   1      44.841  28.405  33.004  1.00  0.00     0.049 A 
ATOM     29  C   UNL A   1      43.685  25.066  28.563  1.00  0.00     0.074 A 
ATOM     30  C   UNL A   1      45.281  29.668  32.661  1.00  0.00     0.029 A 
ATOM     31  N   UNL A   1      45.568  27.537  32.230  1.00  0.00    -0.354 N 
ATOM     32  N   UNL A   1      44.655  25.895  28.309  1.00  0.00    -0.248 NA
ATOM     33  C   UNL A   1      43.690  24.490  29.899  1.00  0.00     0.031 C 
ATOM     34  C   UNL A   1      45.869  29.513  31.372  1.00  0.00     0.029 A 
ATOM     35  C   UNL A   1      45.773  28.163  31.030  1.00  0.00     0.049 A 
ATOM     36  H   UNL A   1      45.880  26.639  32.487  1.00  0.00     0.167 HD
ATOM     37  C   UNL A   1      45.138  26.269  29.554  1.00  0.00     0.074 A 
ATOM     38  C   UNL A   1      44.588  25.287  30.484  1.00  0.00     0.031 C 
ATOM     39  C   UNL A   1      45.707  27.496  29.751  1.00  0.00     0.031 A 
BRANCH  26  40
ATOM     40  C   UNL A   1      43.887  26.789  34.766  1.00  0.00    -0.014 A 
ATOM     41  C   UNL A   1      43.692  25.449  34.381  1.00  0.00     0.009 A 
ATOM     42  C   UNL A   1      43.933  27.049  36.150  1.00  0.00     0.009 A 
ATOM     43  C   UNL A   1      43.480  24.441  35.331  1.00  0.00     0.001 A 
ATOM     44  C   UNL A   1      43.766  26.037  37.100  1.00  0.00     0.001 A 
ATOM     45  C   UNL A   1      43.510  24.737  36.689  1.00  0.00     0.000 A 
ENDBRANCH  26  40
BRANCH  27  46
ATOM     46  C   UNL A   1      41.963  23.714  27.176  1.00  0.00    -0.014 A 
ATOM     47  C   UNL A   1      42.714  23.037  26.204  1.00  0.00     0.009 A 
ATOM     48  C   UNL A   1      40.867  23.039  27.746  1.00  0.00     0.009 A 
ATOM     49  C   UNL A   1      42.388  21.726  25.830  1.00  0.00     0.001 A 
ATOM     50  C   UNL A   1      40.538  21.734  27.370  1.00  0.00     0.001 A 
ATOM     51  C   UNL A   1      41.307  21.072  26.419  1.00  0.00     0.000 A 
ENDBRANCH  27  46
BRANCH  39  52
ATOM     52  C   UNL A   1      45.986  28.347  28.538  1.00  0.00    -0.014 A 
ATOM     53  C   UNL A   1      47.148  28.189  27.761  1.00  0.00     0.009 A 
ATOM     54  C   UNL A   1      44.982  29.206  28.069  1.00  0.00     0.009 A 
ATOM     55  C   UNL A   1      47.313  28.892  26.565  1.00  0.00     0.001 A 
ATOM     56  C   UNL A   1      45.139  29.894  26.863  1.00  0.00     0.001 A 
ATOM     57  C   UNL A   1      46.305  29.741  26.114  1.00  0.00     0.000 A 
ENDBRANCH  39  52
ENDBRANCH  13  14
ENDBRANCH   6   8
ENDBRANCH   3   4
ENDBRANCH   2   3
ENDBRANCH   1   2
BRANCH   1  58
ATOM     58  N   UNL A   1      34.143  28.420  25.652  1.00  0.00    -0.356 N 
ATOM     59  C   UNL A   1      33.502  27.456  24.955  1.00  0.00     0.224 C 
ATOM     60  H   UNL A   1      35.115  28.395  25.496  1.00  0.00     0.163 HD
ATOM     61  O   UNL A   1      34.237  26.902  24.124  1.00  0.00    -0.275 OA
BRANCH  59  62
ATOM     62  C   UNL A   1      32.042  26.975  25.133  1.00  0.00     0.095 C 
ATOM     63  C   UNL A   1      31.012  28.012  25.587  1.00  0.00     0.041 C 
ATOM     64  C   UNL A   1      31.587  26.382  23.768  1.00  0.00     0.095 C 
ATOM     65  C   UNL A   1      30.784  29.063  24.536  1.00  0.00    -0.030 C 
ATOM     66  C   UNL A   1      31.521  27.511  22.706  1.00  0.00     0.041 C 
ATOM     67  C   UNL A   1      31.044  28.841  23.238  1.00  0.00    -0.030 C 
BRANCH  64  68
ATOM     68  C   UNL A   1      30.220  25.683  23.813  1.00  0.00     0.229 C 
ATOM     69  O   UNL A   1      29.164  26.308  23.653  1.00  0.00    -0.274 OA
ATOM     70  N   UNL A   1      30.099  24.333  23.890  1.00  0.00    -0.308 N 
ATOM     71  H   UNL A   1      29.209  23.987  23.651  1.00  0.00     0.171 HD
BRANCH  70  72
ATOM     72  C   UNL A   1      31.010  23.369  24.242  1.00  0.00     0.168 A 
ATOM     73  N   UNL A   1      31.977  22.906  23.450  1.00  0.00    -0.153 NA
ATOM     74  C   UNL A   1      31.102  22.790  25.527  1.00  0.00     0.080 A 
ATOM     75  N   UNL A   1      32.665  22.032  24.221  1.00  0.00    -0.265 N 
ATOM     76  C   UNL A   1      32.145  21.906  25.482  1.00  0.00     0.127 A 
ATOM     77  Br  UNL A   1      29.983  23.146  26.983  1.00  0.00    -0.045 Br
BRANCH  75  78
ATOM     78  C   UNL A   1      33.942  21.477  23.774  1.00  0.00     0.182 C 
BRANCH  78  79
ATOM     79  C   UNL A   1      35.134  22.074  24.463  1.00  0.00     0.009 A 
ATOM     80  C   UNL A   1      35.290  23.463  24.592  1.00  0.00     0.008 A 
ATOM     81  C   UNL A   1      36.130  21.241  24.979  1.00  0.00     0.128 A 
ATOM     82  C   UNL A   1      36.416  23.991  25.230  1.00  0.00     0.001 A 
ATOM     83  C   UNL A   1      37.244  21.763  25.628  1.00  0.00     0.039 A 
ATOM     84  F   UNL A   1      36.039  19.912  24.826  1.00  0.00    -0.207 F 
ATOM     85  C   UNL A   1      37.389  23.141  25.757  1.00  0.00     0.003 A 
ENDBRANCH  78  79
ENDBRANCH  75  78
ENDBRANCH  70  72
ENDBRANCH  64  68
ENDBRANCH  59  62
ENDBRANCH   1  58
TORSDOF 14
ENDMDL
MODEL 3
REMARK VINA RESULT:     -12.5      2.805      5.267
REMARK SMILES O=C(NCCCNC(=O)[C@H]1CC=CC[C@@H]1C(=O)Nc1nn(Cc2ccccc2F)cc1Br)c1ccc(-c2c3nc(c(-c4ccccc4)c4ccc([nH]4)c(-c4ccccc4)c4nc(c(-c5ccccc5)c5ccc2[nH]5)C=C4)C=C3)cc1
REMARK SMILES IDX 6 1 5 2 4 3 3 4 1 5 2 6 33 8 34 9 80 10 35 11 79 12 36 13
REMARK SMILES IDX 37 14 38 15 73 16 39 17 78 18 72 19 74 20 40 21 77 22 71 23
REMARK SMILES IDX 70 24 41 26 63 27 48 28 62 29 49 30 52 31 61 32 75 33 50 34
REMARK SMILES IDX 51 35 60 37 76 38 53 39 42 40 43 41 47 42 44 43 46 44 45 45
REMARK SMILES IDX 64 46 65 47 69 48 66 49 68 50 67 51 54 52 55 53 59 54 56 55
REMARK SMILES IDX 58 56 57 57 7 58 8 59 9 61 10 62 11 63 15 64 12 65 14 66
REMARK SMILES IDX 13 67 16 68 17 69 18 70 19 72 20 73 31 74 21 75 30 76 32 77
REMARK SMILES IDX 22 78 23 79 24 80 28 81 25 82 27 83 29 84 26 85
REMARK H PARENT 3 7 74 25 52 36 7 60 18 71
REMARK Flexibility Score: inf
ROOT
ATOM      1  C   UNL A   1      31.823  28.886  26.557  1.00  0.00     0.117 C 
ENDROOT
BRANCH   1   2
ATOM      2  C   UNL A   1      32.356  30.294  26.783  1.00  0.00     0.042 C 
BRANCH   2   3
ATOM      3  C   UNL A   1      33.806  30.322  27.268  1.00  0.00     0.118 C 
BRANCH   3   4
ATOM      4  N   UNL A   1      34.085  31.305  28.301  1.00  0.00    -0.352 N 
ATOM      5  O   UNL A   1      35.043  32.556  29.856  1.00  0.00    -0.269 OA
ATOM      6  C   UNL A   1      35.147  31.572  29.118  1.00  0.00     0.251 C 
ATOM      7  H   UNL A   1      33.333  31.925  28.447  1.00  0.00     0.163 HD
BRANCH   6   8
ATOM      8  C   UNL A   1      36.370  30.733  29.223  1.00  0.00     0.039 A 
ATOM      9  C   UNL A   1      36.388  29.355  29.446  1.00  0.00     0.014 A 
ATOM     10  C   UNL A   1      37.595  31.410  29.090  1.00  0.00     0.014 A 
ATOM     11  C   UNL A   1      37.591  28.685  29.649  1.00  0.00     0.010 A 
ATOM     12  C   UNL A   1      38.800  30.739  29.247  1.00  0.00     0.010 A 
ATOM     13  C   UNL A   1      38.795  29.383  29.571  1.00  0.00    -0.014 A 
BRANCH  13  14
ATOM     14  C   UNL A   1      40.045  28.638  29.716  1.00  0.00     0.031 A 
ATOM     15  C   UNL A   1      40.608  28.552  31.100  1.00  0.00     0.074 A 
ATOM     16  C   UNL A   1      40.540  27.889  28.710  1.00  0.00     0.049 A 
ATOM     17  N   UNL A   1      41.831  28.724  31.496  1.00  0.00    -0.248 NA
ATOM     18  C   UNL A   1      39.664  28.265  32.195  1.00  0.00     0.031 C 
ATOM     19  C   UNL A   1      39.919  27.631  27.407  1.00  0.00     0.029 A 
ATOM     20  N   UNL A   1      41.630  27.068  28.705  1.00  0.00    -0.354 N 
ATOM     21  C   UNL A   1      41.842  28.424  32.861  1.00  0.00     0.074 A 
ATOM     22  C   UNL A   1      40.469  28.239  33.255  1.00  0.00     0.031 C 
ATOM     23  C   UNL A   1      40.491  26.539  26.856  1.00  0.00     0.029 A 
ATOM     24  C   UNL A   1      41.588  26.106  27.705  1.00  0.00     0.049 A 
ATOM     25  H   UNL A   1      42.372  27.150  29.346  1.00  0.00     0.167 HD
ATOM     26  C   UNL A   1      42.984  28.161  33.554  1.00  0.00     0.031 A 
ATOM     27  C   UNL A   1      42.332  24.977  27.628  1.00  0.00     0.031 A 
ATOM     28  C   UNL A   1      44.157  28.676  32.909  1.00  0.00     0.049 A 
ATOM     29  C   UNL A   1      43.491  25.123  28.533  1.00  0.00     0.074 A 
ATOM     30  C   UNL A   1      44.606  29.931  32.553  1.00  0.00     0.029 A 
ATOM     31  N   UNL A   1      44.970  27.791  32.247  1.00  0.00    -0.354 N 
ATOM     32  N   UNL A   1      44.466  25.962  28.336  1.00  0.00    -0.248 NA
ATOM     33  C   UNL A   1      43.377  24.606  29.888  1.00  0.00     0.031 C 
ATOM     34  C   UNL A   1      45.318  29.734  31.334  1.00  0.00     0.029 A 
ATOM     35  C   UNL A   1      45.278  28.368  31.045  1.00  0.00     0.049 A 
ATOM     36  H   UNL A   1      45.271  26.912  32.573  1.00  0.00     0.167 HD
ATOM     37  C   UNL A   1      44.820  26.399  29.602  1.00  0.00     0.074 A 
ATOM     38  C   UNL A   1      44.200  25.447  30.519  1.00  0.00     0.031 C 
ATOM     39  C   UNL A   1      45.347  27.645  29.797  1.00  0.00     0.031 A 
BRANCH  26  40
ATOM     40  C   UNL A   1      43.066  27.117  34.643  1.00  0.00    -0.014 A 
ATOM     41  C   UNL A   1      42.698  25.790  34.351  1.00  0.00     0.009 A 
ATOM     42  C   UNL A   1      43.208  27.448  36.005  1.00  0.00     0.009 A 
ATOM     43  C   UNL A   1      42.414  24.870  35.370  1.00  0.00     0.001 A 
ATOM     44  C   UNL A   1      42.968  26.520  37.023  1.00  0.00     0.001 A 
ATOM     45  C   UNL A   1      42.542  25.239  36.705  1.00  0.00     0.000 A 
ENDBRANCH  26  40
BRANCH  27  46
ATOM     46  C   UNL A   1      41.933  23.676  27.051  1.00  0.00    -0.014 A 
ATOM     47  C   UNL A   1      42.739  23.024  26.107  1.00  0.00     0.009 A 
ATOM     48  C   UNL A   1      40.863  22.953  27.612  1.00  0.00     0.009 A 
ATOM     49  C   UNL A   1      42.491  21.690  25.752  1.00  0.00     0.001 A 
ATOM     50  C   UNL A   1      40.612  21.626  27.254  1.00  0.00     0.001 A 
ATOM     51  C   UNL A   1      41.434  20.990  26.331  1.00  0.00     0.000 A 
ENDBRANCH  27  46
BRANCH  39  52
ATOM     52  C   UNL A   1      45.726  28.449  28.580  1.00  0.00    -0.014 A 
ATOM     53  C   UNL A   1      44.836  29.347  27.964  1.00  0.00     0.009 A 
ATOM     54  C   UNL A   1      47.060  28.431  28.147  1.00  0.00     0.009 A 
ATOM     55  C   UNL A   1      45.260  30.181  26.926  1.00  0.00     0.001 A 
ATOM     56  C   UNL A   1      47.488  29.280  27.122  1.00  0.00     0.001 A 
ATOM     57  C   UNL A   1      46.588  30.151  26.510  1.00  0.00     0.000 A 
ENDBRANCH  39  52
ENDBRANCH  13  14
ENDBRANCH   6   8
ENDBRANCH   3   4
ENDBRANCH   2   3
ENDBRANCH   1   2
BRANCH   1  58
ATOM     58  N   UNL A   1      32.880  27.894  26.553  1.00  0.00    -0.356 N 
ATOM     59  C   UNL A   1      33.309  26.919  25.721  1.00  0.00     0.224 C 
ATOM     60  H   UNL A   1      33.428  27.942  27.370  1.00  0.00     0.163 HD
ATOM     61  O   UNL A   1      34.405  26.452  26.063  1.00  0.00    -0.275 OA
BRANCH  59  62
ATOM     62  C   UNL A   1      32.570  26.333  24.494  1.00  0.00     0.095 C 
ATOM     63  C   UNL A   1      31.384  27.128  23.944  1.00  0.00     0.041 C 
ATOM     64  C   UNL A   1      33.627  26.165  23.364  1.00  0.00     0.095 C 
ATOM     65  C   UNL A   1      31.822  28.438  23.349  1.00  0.00    -0.030 C 
ATOM     66  C   UNL A   1      34.132  27.561  22.912  1.00  0.00     0.041 C 
ATOM     67  C   UNL A   1      33.074  28.638  22.910  1.00  0.00    -0.030 C 
BRANCH  64  68
ATOM     68  C   UNL A   1      33.106  25.419  22.127  1.00  0.00     0.229 C 
ATOM     69  O   UNL A   1      32.782  26.017  21.093  1.00  0.00    -0.274 OA
ATOM     70  N   UNL A   1      33.106  24.064  22.046  1.00  0.00    -0.308 N 
ATOM     71  H   UNL A   1      33.003  23.707  21.134  1.00  0.00     0.171 HD
BRANCH  70  72
ATOM     72  C   UNL A   1      33.228  23.107  23.022  1.00  0.00     0.168 A 
ATOM     73  N   UNL A   1      32.216  22.408  23.538  1.00  0.00    -0.153 NA
ATOM     74  C   UNL A   1      34.458  22.669  23.561  1.00  0.00     0.080 A 
ATOM     75  N   UNL A   1      32.799  21.547  24.405  1.00  0.00    -0.265 N 
ATOM     76  C   UNL A   1      34.159  21.696  24.475  1.00  0.00     0.127 A 
ATOM     77  Br  UNL A   1      36.154  23.329  23.126  1.00  0.00    -0.045 Br
BRANCH  75  78
ATOM     78  C   UNL A   1      32.036  20.456  25.009  1.00  0.00     0.182 C 
BRANCH  78  79
ATOM     79  C   UNL A   1      32.532  19.091  24.632  1.00  0.00     0.009 A 
ATOM     80  C   UNL A   1      33.004  18.188  25.596  1.00  0.00     0.008 A 
ATOM     81  C   UNL A   1      32.547  18.701  23.289  1.00  0.00     0.128 A 
ATOM     82  C   UNL A   1      33.471  16.926  25.214  1.00  0.00     0.001 A 
ATOM     83  C   UNL A   1      32.996  17.441  22.908  1.00  0.00     0.039 A 
ATOM     84  F   UNL A   1      32.153  19.559  22.338  1.00  0.00    -0.207 F 
ATOM     85  C   UNL A   1      33.457  16.549  23.871  1.00  0.00     0.003 A 
ENDBRANCH  78  79
ENDBRANCH  75  78
ENDBRANCH  70  72
ENDBRANCH  64  68
ENDBRANCH  59  62
ENDBRANCH   1  58
TORSDOF 14
ENDMDL
