MODEL 1
REMARK VINA RESULT:     -13.4      0.000      0.000
REMARK SMILES Cc1c(C(=O)NCCCNC(=O)c2ccc(-c3c4nc(c(-c5ccccc5)c5ccc([nH]5)c(-c5ccccc5)c5nc(c(-c6ccccc6)c6ccc3[nH]6)C=C5)C=C4)cc2)sc2c1=C(CSc1nncn1-c1ccccc1)CC(=O)N=2
REMARK SMILES IDX 7 1 6 2 4 3 5 4 3 6 1 7 2 8 63 9 61 10 62 11 64 12 81 13
REMARK SMILES IDX 78 14 79 15 80 16 65 17 66 18 67 19 68 20 71 21 69 22 70 23
REMARK SMILES IDX 72 24 73 25 77 26 74 27 76 28 75 29 8 30 9 31 10 32 11 33
REMARK SMILES IDX 12 35 13 36 14 37 60 38 15 39 59 40 16 41 17 42 18 43 53 44
REMARK SMILES IDX 19 45 58 46 52 47 54 48 20 49 57 50 51 51 50 52 21 54 43 55
REMARK SMILES IDX 28 56 42 57 29 58 32 59 41 60 55 61 30 62 31 63 40 65 56 66
REMARK SMILES IDX 33 67 22 68 23 69 27 70 24 71 26 72 25 73 44 74 45 75 49 76
REMARK SMILES IDX 46 77 48 78 47 79 34 80 35 81 39 82 36 83 38 84 37 85
REMARK H PARENT 6 5 10 34 54 53 32 64
REMARK Flexibility Score: inf
ROOT
ATOM      1  C   UNL A   1      36.736  21.294  25.072  1.00  0.00     0.118 C 
ENDROOT
BRANCH   1   2
ATOM      2  N   UNL A   1      35.905  21.301  26.242  1.00  0.00    -0.351 N 
ATOM      3  C   UNL A   1      34.683  21.819  26.496  1.00  0.00     0.261 C 
ATOM      4  O   UNL A   1      34.207  21.447  27.576  1.00  0.00    -0.268 OA
ATOM      5  H   UNL A   1      36.304  20.835  27.011  1.00  0.00     0.163 HD
BRANCH   3   6
ATOM      6  C   UNL A   1      33.901  22.738  25.578  1.00  0.00     0.098 A 
ATOM      7  C   UNL A   1      32.344  21.484  23.875  1.00  0.00     0.047 C 
ATOM      8  C   UNL A   1      32.953  22.647  24.603  1.00  0.00    -0.018 A 
ATOM      9  C   UNL A   1      32.655  23.957  24.016  1.00  0.00     0.016 A 
ATOM     10  S   UNL A   1      34.578  24.417  25.645  1.00  0.00    -0.110 S 
ATOM     11  C   UNL A   1      33.787  24.888  24.175  1.00  0.00     0.128 A 
ATOM     12  C   UNL A   1      31.835  24.262  22.994  1.00  0.00    -0.040 C 
ATOM     13  N   UNL A   1      34.166  25.847  23.411  1.00  0.00    -0.202 NA
ATOM     14  C   UNL A   1      32.531  24.881  21.801  1.00  0.00     0.135 C 
ATOM     15  C   UNL A   1      33.425  26.033  22.260  1.00  0.00     0.251 C 
ATOM     16  O   UNL A   1      33.503  27.052  21.581  1.00  0.00    -0.272 OA
BRANCH  12  17
ATOM     17  C   UNL A   1      30.472  24.896  23.255  1.00  0.00     0.110 C 
BRANCH  17  18
ATOM     18  S   UNL A   1      30.468  26.229  24.476  1.00  0.00    -0.081 SA
BRANCH  18  19
ATOM     19  C   UNL A   1      30.555  27.629  23.456  1.00  0.00     0.195 A 
ATOM     20  N   UNL A   1      29.919  27.735  22.310  1.00  0.00    -0.123 NA
ATOM     21  N   UNL A   1      31.101  28.852  23.816  1.00  0.00    -0.277 N 
ATOM     22  N   UNL A   1      30.003  29.036  21.897  1.00  0.00    -0.138 NA
ATOM     23  C   UNL A   1      30.693  29.690  22.801  1.00  0.00     0.231 A 
BRANCH  21  24
ATOM     24  C   UNL A   1      31.820  29.243  24.981  1.00  0.00     0.049 A 
ATOM     25  C   UNL A   1      31.413  30.339  25.750  1.00  0.00     0.027 A 
ATOM     26  C   UNL A   1      32.970  28.533  25.358  1.00  0.00     0.027 A 
ATOM     27  C   UNL A   1      32.188  30.771  26.828  1.00  0.00     0.002 A 
ATOM     28  C   UNL A   1      33.734  28.965  26.446  1.00  0.00     0.002 A 
ATOM     29  C   UNL A   1      33.358  30.098  27.163  1.00  0.00     0.000 A 
ENDBRANCH  21  24
ENDBRANCH  18  19
ENDBRANCH  17  18
ENDBRANCH  12  17
ENDBRANCH   3   6
ENDBRANCH   1   2
BRANCH   1  30
ATOM     30  C   UNL A   1      37.694  20.094  25.061  1.00  0.00     0.042 C 
BRANCH  30  31
ATOM     31  C   UNL A   1      39.034  20.496  25.650  1.00  0.00     0.118 C 
BRANCH  31  32
ATOM     32  N   UNL A   1      39.956  19.347  25.771  1.00  0.00    -0.352 N 
ATOM     33  C   UNL A   1      41.338  19.320  25.971  1.00  0.00     0.251 C 
ATOM     34  H   UNL A   1      39.529  18.463  25.698  1.00  0.00     0.163 HD
ATOM     35  O   UNL A   1      41.986  18.313  25.808  1.00  0.00    -0.269 OA
BRANCH  33  36
ATOM     36  C   UNL A   1      41.961  20.568  26.442  1.00  0.00     0.039 A 
ATOM     37  C   UNL A   1      42.620  21.499  25.633  1.00  0.00     0.014 A 
ATOM     38  C   UNL A   1      41.663  20.855  27.754  1.00  0.00     0.014 A 
ATOM     39  C   UNL A   1      42.903  22.749  26.186  1.00  0.00     0.010 A 
ATOM     40  C   UNL A   1      41.481  22.162  28.043  1.00  0.00     0.010 A 
ATOM     41  C   UNL A   1      42.315  23.060  27.415  1.00  0.00    -0.014 A 
BRANCH  41  42
ATOM     42  C   UNL A   1      42.462  24.295  28.157  1.00  0.00     0.031 A 
ATOM     43  C   UNL A   1      41.346  25.249  28.016  1.00  0.00     0.074 A 
ATOM     44  C   UNL A   1      43.367  24.387  29.161  1.00  0.00     0.049 A 
ATOM     45  N   UNL A   1      41.375  26.389  27.418  1.00  0.00    -0.248 NA
ATOM     46  C   UNL A   1      40.008  24.841  28.472  1.00  0.00     0.031 C 
ATOM     47  C   UNL A   1      44.308  23.375  29.680  1.00  0.00     0.029 A 
ATOM     48  N   UNL A   1      43.524  25.395  30.049  1.00  0.00    -0.354 N 
ATOM     49  C   UNL A   1      40.115  26.943  27.592  1.00  0.00     0.074 A 
ATOM     50  C   UNL A   1      39.269  25.876  28.065  1.00  0.00     0.031 C 
ATOM     51  C   UNL A   1      44.735  23.732  30.912  1.00  0.00     0.029 A 
ATOM     52  C   UNL A   1      44.255  25.073  31.184  1.00  0.00     0.049 A 
ATOM     53  H   UNL A   1      43.148  26.292  29.901  1.00  0.00     0.167 HD
ATOM     54  C   UNL A   1      39.928  28.292  27.571  1.00  0.00     0.031 A 
ATOM     55  C   UNL A   1      44.419  25.854  32.280  1.00  0.00     0.031 A 
ATOM     56  C   UNL A   1      41.115  28.982  27.122  1.00  0.00     0.049 A 
ATOM     57  C   UNL A   1      44.137  27.247  31.846  1.00  0.00     0.074 A 
ATOM     58  C   UNL A   1      41.867  28.957  25.965  1.00  0.00     0.029 A 
ATOM     59  N   UNL A   1      41.945  29.495  28.095  1.00  0.00    -0.354 N 
ATOM     60  N   UNL A   1      44.864  27.870  30.958  1.00  0.00    -0.248 NA
ATOM     61  C   UNL A   1      42.773  27.739  31.983  1.00  0.00     0.031 C 
ATOM     62  C   UNL A   1      43.222  28.952  26.415  1.00  0.00     0.029 A 
ATOM     63  C   UNL A   1      43.219  29.069  27.808  1.00  0.00     0.049 A 
ATOM     64  H   UNL A   1      41.676  30.062  28.854  1.00  0.00     0.167 HD
ATOM     65  C   UNL A   1      43.951  28.515  30.131  1.00  0.00     0.074 A 
ATOM     66  C   UNL A   1      42.684  28.471  30.866  1.00  0.00     0.031 C 
ATOM     67  C   UNL A   1      44.217  28.748  28.809  1.00  0.00     0.031 A 
BRANCH  54  68
ATOM     68  C   UNL A   1      38.835  29.007  28.313  1.00  0.00    -0.014 A 
ATOM     69  C   UNL A   1      38.702  28.782  29.694  1.00  0.00     0.009 A 
ATOM     70  C   UNL A   1      37.777  29.680  27.674  1.00  0.00     0.009 A 
ATOM     71  C   UNL A   1      37.543  29.153  30.383  1.00  0.00     0.001 A 
ATOM     72  C   UNL A   1      36.634  30.087  28.366  1.00  0.00     0.001 A 
ATOM     73  C   UNL A   1      36.506  29.798  29.716  1.00  0.00     0.000 A 
ENDBRANCH  54  68
BRANCH  55  74
ATOM     74  C   UNL A   1      44.451  25.407  33.692  1.00  0.00    -0.014 A 
ATOM     75  C   UNL A   1      43.308  24.900  34.330  1.00  0.00     0.009 A 
ATOM     76  C   UNL A   1      45.685  25.249  34.353  1.00  0.00     0.009 A 
ATOM     77  C   UNL A   1      43.407  24.241  35.567  1.00  0.00     0.001 A 
ATOM     78  C   UNL A   1      45.785  24.593  35.585  1.00  0.00     0.001 A 
ATOM     79  C   UNL A   1      44.645  24.076  36.187  1.00  0.00     0.000 A 
ENDBRANCH  55  74
BRANCH  67  80
ATOM     80  C   UNL A   1      45.594  28.392  28.282  1.00  0.00    -0.014 A 
ATOM     81  C   UNL A   1      45.944  27.091  27.873  1.00  0.00     0.009 A 
ATOM     82  C   UNL A   1      46.496  29.427  28.003  1.00  0.00     0.009 A 
ATOM     83  C   UNL A   1      47.157  26.831  27.225  1.00  0.00     0.001 A 
ATOM     84  C   UNL A   1      47.703  29.172  27.341  1.00  0.00     0.001 A 
ATOM     85  C   UNL A   1      48.035  27.875  26.954  1.00  0.00     0.000 A 
ENDBRANCH  67  80
ENDBRANCH  41  42
ENDBRANCH  33  36
ENDBRANCH  31  32
ENDBRANCH  30  31
ENDBRANCH   1  30
TORSDOF 14
ENDMDL
MODEL 2
REMARK VINA RESULT:     -12.6      2.899      7.873
REMARK SMILES Cc1c(C(=O)NCCCNC(=O)c2ccc(-c3c4nc(c(-c5ccccc5)c5ccc([nH]5)c(-c5ccccc5)c5nc(c(-c6ccccc6)c6ccc3[nH]6)C=C5)C=C4)cc2)sc2c1=C(CSc1nncn1-c1ccccc1)CC(=O)N=2
REMARK SMILES IDX 7 1 6 2 4 3 5 4 3 6 1 7 2 8 63 9 61 10 62 11 64 12 81 13
REMARK SMILES IDX 78 14 79 15 80 16 65 17 66 18 67 19 68 20 71 21 69 22 70 23
REMARK SMILES IDX 72 24 73 25 77 26 74 27 76 28 75 29 8 30 9 31 10 32 11 33
REMARK SMILES IDX 12 35 13 36 14 37 60 38 15 39 59 40 16 41 17 42 18 43 53 44
REMARK SMILES IDX 19 45 58 46 52 47 54 48 20 49 57 50 51 51 50 52 21 54 43 55
REMARK SMILES IDX 28 56 42 57 29 58 32 59 41 60 55 61 30 62 31 63 40 65 56 66
REMARK SMILES IDX 33 67 22 68 23 69 27 70 24 71 26 72 25 73 44 74 45 75 49 76
REMARK SMILES IDX 46 77 48 78 47 79 34 80 35 81 39 82 36 83 38 84 37 85
REMARK H PARENT 6 5 10 34 54 53 32 64
REMARK Flexibility Score: inf
ROOT
ATOM      1  C   UNL A   1      33.940  29.614  27.211  1.00  0.00     0.118 C 
ENDROOT
BRANCH   1   2
ATOM      2  N   UNL A   1      32.865  30.232  26.487  1.00  0.00    -0.351 N 
ATOM      3  C   UNL A   1      31.991  29.765  25.568  1.00  0.00     0.261 C 
ATOM      4  O   UNL A   1      31.074  30.557  25.315  1.00  0.00    -0.268 OA
ATOM      5  H   UNL A   1      32.739  31.183  26.704  1.00  0.00     0.163 HD
BRANCH   3   6
ATOM      6  C   UNL A   1      32.047  28.403  24.902  1.00  0.00     0.098 A 
ATOM      7  C   UNL A   1      33.476  26.628  26.207  1.00  0.00     0.047 C 
ATOM      8  C   UNL A   1      32.557  27.163  25.148  1.00  0.00    -0.018 A 
ATOM      9  C   UNL A   1      32.330  26.253  24.021  1.00  0.00     0.016 A 
ATOM     10  S   UNL A   1      31.455  28.515  23.194  1.00  0.00    -0.110 S 
ATOM     11  C   UNL A   1      32.164  26.994  22.757  1.00  0.00     0.128 A 
ATOM     12  C   UNL A   1      32.740  24.982  23.861  1.00  0.00    -0.040 C 
ATOM     13  N   UNL A   1      32.478  26.645  21.563  1.00  0.00    -0.202 NA
ATOM     14  C   UNL A   1      33.671  24.772  22.687  1.00  0.00     0.135 C 
ATOM     15  C   UNL A   1      33.076  25.408  21.430  1.00  0.00     0.251 C 
ATOM     16  O   UNL A   1      33.188  24.840  20.348  1.00  0.00    -0.272 OA
BRANCH  12  17
ATOM     17  C   UNL A   1      31.762  23.824  24.031  1.00  0.00     0.110 C 
BRANCH  17  18
ATOM     18  S   UNL A   1      32.167  22.334  23.093  1.00  0.00    -0.081 SA
BRANCH  18  19
ATOM     19  C   UNL A   1      32.577  21.228  24.364  1.00  0.00     0.195 A 
ATOM     20  N   UNL A   1      31.869  20.159  24.655  1.00  0.00    -0.123 NA
ATOM     21  N   UNL A   1      33.779  21.209  25.055  1.00  0.00    -0.277 N 
ATOM     22  N   UNL A   1      32.596  19.392  25.523  1.00  0.00    -0.138 NA
ATOM     23  C   UNL A   1      33.729  20.016  25.743  1.00  0.00     0.231 A 
BRANCH  21  24
ATOM     24  C   UNL A   1      34.883  22.107  25.026  1.00  0.00     0.049 A 
ATOM     25  C   UNL A   1      35.889  21.988  24.061  1.00  0.00     0.027 A 
ATOM     26  C   UNL A   1      34.981  23.120  25.993  1.00  0.00     0.027 A 
ATOM     27  C   UNL A   1      37.016  22.812  24.110  1.00  0.00     0.002 A 
ATOM     28  C   UNL A   1      36.107  23.948  26.028  1.00  0.00     0.002 A 
ATOM     29  C   UNL A   1      37.134  23.777  25.104  1.00  0.00     0.000 A 
ENDBRANCH  21  24
ENDBRANCH  18  19
ENDBRANCH  17  18
ENDBRANCH  12  17
ENDBRANCH   3   6
ENDBRANCH   1   2
BRANCH   1  30
ATOM     30  C   UNL A   1      35.259  30.380  27.033  1.00  0.00     0.042 C 
BRANCH  30  31
ATOM     31  C   UNL A   1      36.346  29.742  27.879  1.00  0.00     0.118 C 
BRANCH  31  32
ATOM     32  N   UNL A   1      37.164  30.749  28.586  1.00  0.00    -0.352 N 
ATOM     33  C   UNL A   1      38.502  30.701  28.986  1.00  0.00     0.251 C 
ATOM     34  H   UNL A   1      36.693  31.584  28.810  1.00  0.00     0.163 HD
ATOM     35  O   UNL A   1      38.963  31.502  29.765  1.00  0.00    -0.269 OA
BRANCH  33  36
ATOM     36  C   UNL A   1      39.337  29.656  28.372  1.00  0.00     0.039 A 
ATOM     37  C   UNL A   1      39.613  29.541  27.006  1.00  0.00     0.014 A 
ATOM     38  C   UNL A   1      40.008  28.892  29.297  1.00  0.00     0.014 A 
ATOM     39  C   UNL A   1      40.638  28.671  26.626  1.00  0.00     0.010 A 
ATOM     40  C   UNL A   1      41.257  28.511  28.951  1.00  0.00     0.010 A 
ATOM     41  C   UNL A   1      41.457  28.158  27.636  1.00  0.00    -0.014 A 
BRANCH  41  42
ATOM     42  C   UNL A   1      42.578  27.257  27.465  1.00  0.00     0.031 A 
ATOM     43  C   UNL A   1      42.223  25.831  27.337  1.00  0.00     0.074 A 
ATOM     44  C   UNL A   1      43.790  27.735  27.094  1.00  0.00     0.049 A 
ATOM     45  N   UNL A   1      42.465  24.895  28.187  1.00  0.00    -0.248 NA
ATOM     46  C   UNL A   1      41.389  25.411  26.200  1.00  0.00     0.031 C 
ATOM     47  C   UNL A   1      44.212  29.121  26.808  1.00  0.00     0.029 A 
ATOM     48  N   UNL A   1      44.889  27.031  26.738  1.00  0.00    -0.354 N 
ATOM     49  C   UNL A   1      41.996  23.724  27.609  1.00  0.00     0.074 A 
ATOM     50  C   UNL A   1      41.175  24.127  26.495  1.00  0.00     0.031 C 
ATOM     51  C   UNL A   1      45.364  29.115  26.102  1.00  0.00     0.029 A 
ATOM     52  C   UNL A   1      45.855  27.752  26.052  1.00  0.00     0.049 A 
ATOM     53  H   UNL A   1      44.995  26.076  26.951  1.00  0.00     0.167 HD
ATOM     54  C   UNL A   1      42.522  22.513  27.944  1.00  0.00     0.031 A 
ATOM     55  C   UNL A   1      46.964  27.244  25.459  1.00  0.00     0.031 A 
ATOM     56  C   UNL A   1      43.398  22.616  29.087  1.00  0.00     0.049 A 
ATOM     57  C   UNL A   1      47.215  25.928  26.102  1.00  0.00     0.074 A 
ATOM     58  C   UNL A   1      43.235  23.029  30.394  1.00  0.00     0.029 A 
ATOM     59  N   UNL A   1      44.750  22.705  28.833  1.00  0.00    -0.354 N 
ATOM     60  N   UNL A   1      47.506  25.806  27.370  1.00  0.00    -0.248 NA
ATOM     61  C   UNL A   1      46.625  24.747  25.487  1.00  0.00     0.031 C 
ATOM     62  C   UNL A   1      44.388  23.826  30.666  1.00  0.00     0.029 A 
ATOM     63  C   UNL A   1      45.227  23.776  29.549  1.00  0.00     0.049 A 
ATOM     64  H   UNL A   1      45.275  22.112  28.248  1.00  0.00     0.167 HD
ATOM     65  C   UNL A   1      46.750  24.726  27.812  1.00  0.00     0.074 A 
ATOM     66  C   UNL A   1      46.297  24.059  26.588  1.00  0.00     0.031 C 
ATOM     67  C   UNL A   1      46.297  24.645  29.101  1.00  0.00     0.031 A 
BRANCH  54  68
ATOM     68  C   UNL A   1      42.562  21.325  27.025  1.00  0.00    -0.014 A 
ATOM     69  C   UNL A   1      41.791  20.196  27.351  1.00  0.00     0.009 A 
ATOM     70  C   UNL A   1      43.517  21.170  26.003  1.00  0.00     0.009 A 
ATOM     71  C   UNL A   1      42.013  18.961  26.733  1.00  0.00     0.001 A 
ATOM     72  C   UNL A   1      43.714  19.948  25.356  1.00  0.00     0.001 A 
ATOM     73  C   UNL A   1      42.981  18.836  25.741  1.00  0.00     0.000 A 
ENDBRANCH  54  68
BRANCH  55  74
ATOM     74  C   UNL A   1      47.559  27.675  24.173  1.00  0.00    -0.014 A 
ATOM     75  C   UNL A   1      48.846  27.272  23.785  1.00  0.00     0.009 A 
ATOM     76  C   UNL A   1      46.754  28.298  23.198  1.00  0.00     0.009 A 
ATOM     77  C   UNL A   1      49.294  27.463  22.467  1.00  0.00     0.001 A 
ATOM     78  C   UNL A   1      47.199  28.490  21.886  1.00  0.00     0.001 A 
ATOM     79  C   UNL A   1      48.467  28.059  21.516  1.00  0.00     0.000 A 
ENDBRANCH  55  74
BRANCH  67  80
ATOM     80  C   UNL A   1      46.743  25.709  30.086  1.00  0.00    -0.014 A 
ATOM     81  C   UNL A   1      47.957  25.634  30.795  1.00  0.00     0.009 A 
ATOM     82  C   UNL A   1      46.022  26.908  30.154  1.00  0.00     0.009 A 
ATOM     83  C   UNL A   1      48.425  26.711  31.557  1.00  0.00     0.001 A 
ATOM     84  C   UNL A   1      46.495  27.991  30.902  1.00  0.00     0.001 A 
ATOM     85  C   UNL A   1      47.694  27.893  31.605  1.00  0.00     0.000 A 
ENDBRANCH  67  80
ENDBRANCH  41  42
ENDBRANCH  33  36
ENDBRANCH  31  32
ENDBRANCH  30  31
ENDBRANCH   1  30
TORSDOF 14
ENDMDL
MODEL 3
REMARK VINA RESULT:     -12.5      2.561      7.659
REMARK SMILES Cc1c(C(=O)NCCCNC(=O)c2ccc(-c3c4nc(c(-c5ccccc5)c5ccc([nH]5)c(-c5ccccc5)c5nc(c(-c6ccccc6)c6ccc3[nH]6)C=C5)C=C4)cc2)sc2c1=C(CSc1nncn1-c1ccccc1)CC(=O)N=2
REMARK SMILES IDX 7 1 6 2 4 3 5 4 3 6 1 7 2 8 63 9 61 10 62 11 64 12 81 13
REMARK SMILES IDX 78 14 79 15 80 16 65 17 66 18 67 19 68 20 71 21 69 22 70 23
REMARK SMILES IDX 72 24 73 25 77 26 74 27 76 28 75 29 8 30 9 31 10 32 11 33
REMARK SMILES IDX 12 35 13 36 14 37 60 38 15 39 59 40 16 41 17 42 18 43 53 44
REMARK SMILES IDX 19 45 58 46 52 47 54 48 20 49 57 50 51 51 50 52 21 54 43 55
REMARK SMILES IDX 28 56 42 57 29 58 32 59 41 60 55 61 30 62 31 63 40 65 56 66
REMARK SMILES IDX 33 67 22 68 23 69 27 70 24 71 26 72 25 73 44 74 45 75 49 76
REMARK SMILES IDX 46 77 48 78 47 79 34 80 35 81 39 82 36 83 38 84 37 85
REMARK H PARENT 6 5 10 34 54 53 32 64
REMARK Flexibility Score: inf
ROOT
ATOM      1  C   UNL A   1      33.349  30.287  26.980  1.00  0.00     0.118 C 
ENDROOT
BRANCH   1   2
ATOM      2  N   UNL A   1      33.077  30.091  25.585  1.00  0.00    -0.351 N 
ATOM      3  C   UNL A   1      32.740  29.001  24.860  1.00  0.00     0.261 C 
ATOM      4  O   UNL A   1      32.392  29.268  23.703  1.00  0.00    -0.268 OA
ATOM      5  H   UNL A   1      33.150  30.913  25.049  1.00  0.00     0.163 HD
BRANCH   3   6
ATOM      6  C   UNL A   1      32.728  27.570  25.363  1.00  0.00     0.098 A 
ATOM      7  C   UNL A   1      34.117  25.901  23.886  1.00  0.00     0.047 C 
ATOM      8  C   UNL A   1      33.292  26.369  25.049  1.00  0.00    -0.018 A 
ATOM      9  C   UNL A   1      32.790  25.296  25.913  1.00  0.00     0.016 A 
ATOM     10  S   UNL A   1      31.424  27.351  26.601  1.00  0.00    -0.110 S 
ATOM     11  C   UNL A   1      31.461  25.623  26.461  1.00  0.00     0.128 A 
ATOM     12  C   UNL A   1      33.055  23.977  25.868  1.00  0.00    -0.040 C 
ATOM     13  N   UNL A   1      30.492  24.839  26.768  1.00  0.00    -0.202 NA
ATOM     14  C   UNL A   1      31.845  23.109  25.596  1.00  0.00     0.135 C 
ATOM     15  C   UNL A   1      30.705  23.494  26.539  1.00  0.00     0.251 C 
ATOM     16  O   UNL A   1      29.989  22.621  27.018  1.00  0.00    -0.272 OA
BRANCH  12  17
ATOM     17  C   UNL A   1      34.001  23.341  26.881  1.00  0.00     0.110 C 
BRANCH  17  18
ATOM     18  S   UNL A   1      34.718  21.761  26.374  1.00  0.00    -0.081 SA
BRANCH  18  19
ATOM     19  C   UNL A   1      35.453  22.187  24.863  1.00  0.00     0.195 A 
ATOM     20  N   UNL A   1      34.789  22.286  23.733  1.00  0.00    -0.123 NA
ATOM     21  N   UNL A   1      36.741  22.678  24.706  1.00  0.00    -0.277 N 
ATOM     22  N   UNL A   1      35.608  22.872  22.809  1.00  0.00    -0.138 NA
ATOM     23  C   UNL A   1      36.757  23.111  23.398  1.00  0.00     0.231 A 
BRANCH  21  24
ATOM     24  C   UNL A   1      37.799  22.829  25.646  1.00  0.00     0.049 A 
ATOM     25  C   UNL A   1      37.977  24.026  26.350  1.00  0.00     0.027 A 
ATOM     26  C   UNL A   1      38.696  21.771  25.859  1.00  0.00     0.027 A 
ATOM     27  C   UNL A   1      39.080  24.193  27.190  1.00  0.00     0.002 A 
ATOM     28  C   UNL A   1      39.792  21.943  26.711  1.00  0.00     0.002 A 
ATOM     29  C   UNL A   1      39.997  23.160  27.354  1.00  0.00     0.000 A 
ENDBRANCH  21  24
ENDBRANCH  18  19
ENDBRANCH  17  18
ENDBRANCH  12  17
ENDBRANCH   3   6
ENDBRANCH   1   2
BRANCH   1  30
ATOM     30  C   UNL A   1      34.825  30.634  27.228  1.00  0.00     0.042 C 
BRANCH  30  31
ATOM     31  C   UNL A   1      35.506  29.498  27.970  1.00  0.00     0.118 C 
BRANCH  31  32
ATOM     32  N   UNL A   1      35.598  29.758  29.422  1.00  0.00    -0.352 N 
ATOM     33  C   UNL A   1      36.581  29.385  30.342  1.00  0.00     0.251 C 
ATOM     34  H   UNL A   1      34.851  30.275  29.799  1.00  0.00     0.163 HD
ATOM     35  O   UNL A   1      36.399  29.461  31.534  1.00  0.00    -0.269 OA
BRANCH  33  36
ATOM     36  C   UNL A   1      37.869  28.940  29.787  1.00  0.00     0.039 A 
ATOM     37  C   UNL A   1      38.534  29.532  28.708  1.00  0.00     0.014 A 
ATOM     38  C   UNL A   1      38.487  27.985  30.561  1.00  0.00     0.014 A 
ATOM     39  C   UNL A   1      39.864  29.168  28.490  1.00  0.00     0.010 A 
ATOM     40  C   UNL A   1      39.832  28.070  30.638  1.00  0.00     0.010 A 
ATOM     41  C   UNL A   1      40.500  28.420  29.485  1.00  0.00    -0.014 A 
BRANCH  41  42
ATOM     42  C   UNL A   1      41.869  27.949  29.470  1.00  0.00     0.031 A 
ATOM     43  C   UNL A   1      42.180  26.953  28.427  1.00  0.00     0.074 A 
ATOM     44  C   UNL A   1      42.838  28.641  30.119  1.00  0.00     0.049 A 
ATOM     45  N   UNL A   1      42.463  25.711  28.607  1.00  0.00    -0.248 NA
ATOM     46  C   UNL A   1      42.033  27.341  27.016  1.00  0.00     0.031 C 
ATOM     47  C   UNL A   1      42.744  29.889  30.903  1.00  0.00     0.029 A 
ATOM     48  N   UNL A   1      44.174  28.438  30.077  1.00  0.00    -0.354 N 
ATOM     49  C   UNL A   1      42.731  25.195  27.347  1.00  0.00     0.074 A 
ATOM     50  C   UNL A   1      42.260  26.178  26.403  1.00  0.00     0.031 C 
ATOM     51  C   UNL A   1      43.970  30.441  31.037  1.00  0.00     0.029 A 
ATOM     52  C   UNL A   1      44.946  29.502  30.522  1.00  0.00     0.049 A 
ATOM     53  H   UNL A   1      44.570  27.597  29.756  1.00  0.00     0.167 HD
ATOM     54  C   UNL A   1      43.543  24.114  27.185  1.00  0.00     0.031 A 
ATOM     55  C   UNL A   1      46.296  29.604  30.437  1.00  0.00     0.031 A 
ATOM     56  C   UNL A   1      43.850  23.490  28.451  1.00  0.00     0.049 A 
ATOM     57  C   UNL A   1      46.810  28.218  30.277  1.00  0.00     0.074 A 
ATOM     58  C   UNL A   1      43.093  22.911  29.450  1.00  0.00     0.029 A 
ATOM     59  N   UNL A   1      45.050  23.826  29.039  1.00  0.00    -0.354 N 
ATOM     60  N   UNL A   1      46.665  27.302  31.197  1.00  0.00    -0.248 NA
ATOM     61  C   UNL A   1      46.992  27.711  28.924  1.00  0.00     0.031 C 
ATOM     62  C   UNL A   1      43.661  23.405  30.663  1.00  0.00     0.029 A 
ATOM     63  C   UNL A   1      44.781  24.175  30.339  1.00  0.00     0.049 A 
ATOM     64  H   UNL A   1      45.935  23.816  28.607  1.00  0.00     0.167 HD
ATOM     65  C   UNL A   1      46.299  26.152  30.508  1.00  0.00     0.074 A 
ATOM     66  C   UNL A   1      46.605  26.443  29.104  1.00  0.00     0.031 C 
ATOM     67  C   UNL A   1      45.500  25.197  31.075  1.00  0.00     0.031 A 
BRANCH  54  68
ATOM     68  C   UNL A   1      44.368  23.852  25.958  1.00  0.00    -0.014 A 
ATOM     69  C   UNL A   1      44.130  22.676  25.225  1.00  0.00     0.009 A 
ATOM     70  C   UNL A   1      45.536  24.572  25.642  1.00  0.00     0.009 A 
ATOM     71  C   UNL A   1      45.046  22.213  24.275  1.00  0.00     0.001 A 
ATOM     72  C   UNL A   1      46.434  24.133  24.666  1.00  0.00     0.001 A 
ATOM     73  C   UNL A   1      46.202  22.938  24.002  1.00  0.00     0.000 A 
ENDBRANCH  54  68
BRANCH  55  74
ATOM     74  C   UNL A   1      47.076  30.826  30.135  1.00  0.00    -0.014 A 
ATOM     75  C   UNL A   1      48.350  31.041  30.683  1.00  0.00     0.009 A 
ATOM     76  C   UNL A   1      46.664  31.686  29.097  1.00  0.00     0.009 A 
ATOM     77  C   UNL A   1      49.183  32.060  30.192  1.00  0.00     0.001 A 
ATOM     78  C   UNL A   1      47.493  32.702  28.607  1.00  0.00     0.001 A 
ATOM     79  C   UNL A   1      48.760  32.881  29.147  1.00  0.00     0.000 A 
ENDBRANCH  55  74
BRANCH  67  80
ATOM     80  C   UNL A   1      45.113  25.359  32.533  1.00  0.00    -0.014 A 
ATOM     81  C   UNL A   1      44.038  26.165  32.954  1.00  0.00     0.009 A 
ATOM     82  C   UNL A   1      45.716  24.529  33.486  1.00  0.00     0.009 A 
ATOM     83  C   UNL A   1      43.594  26.154  34.281  1.00  0.00     0.001 A 
ATOM     84  C   UNL A   1      45.264  24.504  34.810  1.00  0.00     0.001 A 
ATOM     85  C   UNL A   1      44.205  25.317  35.209  1.00  0.00     0.000 A 
ENDBRANCH  67  80
ENDBRANCH  41  42
ENDBRANCH  33  36
ENDBRANCH  31  32
ENDBRANCH  30  31
ENDBRANCH   1  30
TORSDOF 14
ENDMDL
