MODEL 1
REMARK VINA RESULT:     -11.7      0.000      0.000
REMARK SMILES Cc1c(C(=O)NCCCNC(=O)c2ccc(-c3c4nc(c(-c5ccccc5)c5ccc([nH]5)c(-c5ccccc5)c5nc(c(-c6ccccc6)c6ccc3[nH]6)C=C5)C=C4)cc2)sc2c1c(=O)n(Cc1ccccc1)c(=O)n2CC[NH+]1CCCCC1
REMARK SMILES IDX 7 1 6 2 4 3 5 4 3 6 1 7 2 8 63 9 61 10 62 11 64 12 76 13
REMARK SMILES IDX 65 14 66 15 74 16 75 17 77 18 78 19 79 20 80 21 84 22 81 24
REMARK SMILES IDX 83 25 82 26 67 27 68 28 69 29 73 30 70 31 72 32 71 33 8 34
REMARK SMILES IDX 9 35 10 36 11 37 12 39 13 40 14 41 60 42 15 43 59 44 16 45
REMARK SMILES IDX 17 46 18 47 53 48 19 49 58 50 52 51 54 52 20 53 57 54 51 55
REMARK SMILES IDX 50 56 21 58 43 59 28 60 42 61 29 62 32 63 41 64 55 65 30 66
REMARK SMILES IDX 31 67 40 69 56 70 33 71 22 72 23 73 27 74 24 75 26 76 25 77
REMARK SMILES IDX 44 78 45 79 49 80 46 81 48 82 47 83 34 84 35 85 39 86 36 87
REMARK SMILES IDX 38 88 37 89
REMARK H PARENT 6 5 79 23 10 38 54 57 32 68
REMARK Flexibility Score: inf
ROOT
ATOM      1  C   UNL A   1      32.852  31.300  27.648  1.00  0.00     0.118 C 
ENDROOT
BRANCH   1   2
ATOM      2  N   UNL A   1      32.082  31.083  26.415  1.00  0.00    -0.351 N 
ATOM      3  C   UNL A   1      31.905  30.040  25.518  1.00  0.00     0.261 C 
ATOM      4  O   UNL A   1      31.057  30.269  24.649  1.00  0.00    -0.268 OA
ATOM      5  H   UNL A   1      31.560  31.878  26.163  1.00  0.00     0.163 HD
BRANCH   3   6
ATOM      6  C   UNL A   1      32.713  28.820  25.492  1.00  0.00     0.098 A 
ATOM      7  C   UNL A   1      31.675  27.543  27.483  1.00  0.00     0.047 C 
ATOM      8  C   UNL A   1      32.573  27.659  26.286  1.00  0.00    -0.012 A 
ATOM      9  C   UNL A   1      33.241  26.531  25.649  1.00  0.00     0.079 A 
ATOM     10  S   UNL A   1      34.012  28.586  24.402  1.00  0.00    -0.111 S 
ATOM     11  C   UNL A   1      33.775  26.934  24.462  1.00  0.00     0.113 A 
ATOM     12  C   UNL A   1      33.194  25.102  25.903  1.00  0.00     0.265 A 
ATOM     13  N   UNL A   1      33.959  26.110  23.370  1.00  0.00    -0.279 N 
ATOM     14  O   UNL A   1      32.531  24.619  26.806  1.00  0.00    -0.268 OA
ATOM     15  N   UNL A   1      33.926  24.350  24.973  1.00  0.00    -0.255 N 
ATOM     16  C   UNL A   1      34.122  24.747  23.644  1.00  0.00     0.332 A 
ATOM     17  O   UNL A   1      34.373  23.943  22.744  1.00  0.00    -0.247 OA
BRANCH  13  18
ATOM     18  C   UNL A   1      33.727  26.542  21.972  1.00  0.00     0.189 C 
BRANCH  18  19
ATOM     19  C   UNL A   1      32.336  26.119  21.342  1.00  0.00     0.284 C 
BRANCH  19  20
ATOM     20  N   UNL A   1      31.022  26.208  22.052  1.00  0.00    -0.333 N 
ATOM     21  C   UNL A   1      30.852  25.196  23.079  1.00  0.00     0.262 C 
ATOM     22  C   UNL A   1      30.707  27.559  22.527  1.00  0.00     0.262 C 
ATOM     23  H   UNL A   1      30.322  25.999  21.340  1.00  0.00     0.348 HD
ATOM     24  C   UNL A   1      29.559  25.225  23.879  1.00  0.00     0.062 C 
ATOM     25  C   UNL A   1      29.460  27.654  23.436  1.00  0.00     0.062 C 
ATOM     26  C   UNL A   1      29.402  26.586  24.523  1.00  0.00     0.012 C 
ENDBRANCH  19  20
ENDBRANCH  18  19
ENDBRANCH  13  18
BRANCH  15  27
ATOM     27  C   UNL A   1      34.260  22.982  25.348  1.00  0.00     0.166 C 
BRANCH  27  28
ATOM     28  C   UNL A   1      35.767  22.805  25.429  1.00  0.00    -0.028 A 
ATOM     29  C   UNL A   1      36.580  23.801  25.989  1.00  0.00     0.005 A 
ATOM     30  C   UNL A   1      36.365  21.605  25.012  1.00  0.00     0.005 A 
ATOM     31  C   UNL A   1      37.954  23.592  26.135  1.00  0.00     0.000 A 
ATOM     32  C   UNL A   1      37.731  21.389  25.180  1.00  0.00     0.000 A 
ATOM     33  C   UNL A   1      38.526  22.382  25.742  1.00  0.00     0.000 A 
ENDBRANCH  27  28
ENDBRANCH  15  27
ENDBRANCH   3   6
ENDBRANCH   1   2
BRANCH   1  34
ATOM     34  C   UNL A   1      34.366  31.255  27.474  1.00  0.00     0.042 C 
BRANCH  34  35
ATOM     35  C   UNL A   1      35.065  32.543  27.833  1.00  0.00     0.118 C 
BRANCH  35  36
ATOM     36  N   UNL A   1      34.983  32.888  29.248  1.00  0.00    -0.352 N 
ATOM     37  C   UNL A   1      35.511  32.226  30.343  1.00  0.00     0.251 C 
ATOM     38  H   UNL A   1      34.479  33.708  29.454  1.00  0.00     0.163 HD
ATOM     39  O   UNL A   1      35.108  32.503  31.468  1.00  0.00    -0.269 OA
BRANCH  37  40
ATOM     40  C   UNL A   1      36.579  31.209  30.170  1.00  0.00     0.039 A 
ATOM     41  C   UNL A   1      36.302  29.839  30.234  1.00  0.00     0.014 A 
ATOM     42  C   UNL A   1      37.899  31.623  30.010  1.00  0.00     0.014 A 
ATOM     43  C   UNL A   1      37.368  28.937  30.228  1.00  0.00     0.010 A 
ATOM     44  C   UNL A   1      38.899  30.744  29.735  1.00  0.00     0.010 A 
ATOM     45  C   UNL A   1      38.668  29.425  30.031  1.00  0.00    -0.014 A 
BRANCH  45  46
ATOM     46  C   UNL A   1      39.852  28.594  30.066  1.00  0.00     0.031 A 
ATOM     47  C   UNL A   1      40.381  28.424  31.428  1.00  0.00     0.074 A 
ATOM     48  C   UNL A   1      40.280  27.854  29.018  1.00  0.00     0.049 A 
ATOM     49  N   UNL A   1      41.419  29.004  31.919  1.00  0.00    -0.248 NA
ATOM     50  C   UNL A   1      39.563  27.696  32.410  1.00  0.00     0.031 C 
ATOM     51  C   UNL A   1      39.658  27.647  27.700  1.00  0.00     0.029 A 
ATOM     52  N   UNL A   1      41.359  27.034  28.958  1.00  0.00    -0.354 N 
ATOM     53  C   UNL A   1      41.520  28.539  33.219  1.00  0.00     0.074 A 
ATOM     54  C   UNL A   1      40.252  27.927  33.530  1.00  0.00     0.031 C 
ATOM     55  C   UNL A   1      40.255  26.605  27.072  1.00  0.00     0.029 A 
ATOM     56  C   UNL A   1      41.400  26.183  27.858  1.00  0.00     0.049 A 
ATOM     57  H   UNL A   1      42.063  27.040  29.646  1.00  0.00     0.167 HD
ATOM     58  C   UNL A   1      42.733  28.445  33.827  1.00  0.00     0.031 A 
ATOM     59  C   UNL A   1      42.314  25.202  27.643  1.00  0.00     0.031 A 
ATOM     60  C   UNL A   1      43.749  29.153  33.083  1.00  0.00     0.049 A 
ATOM     61  C   UNL A   1      43.490  25.525  28.485  1.00  0.00     0.074 A 
ATOM     62  C   UNL A   1      43.930  30.467  32.697  1.00  0.00     0.029 A 
ATOM     63  N   UNL A   1      44.541  28.399  32.248  1.00  0.00    -0.354 N 
ATOM     64  N   UNL A   1      44.252  26.561  28.284  1.00  0.00    -0.248 NA
ATOM     65  C   UNL A   1      43.544  24.955  29.822  1.00  0.00     0.031 C 
ATOM     66  C   UNL A   1      44.441  30.392  31.366  1.00  0.00     0.029 A 
ATOM     67  C   UNL A   1      44.623  29.046  31.040  1.00  0.00     0.049 A 
ATOM     68  H   UNL A   1      44.973  27.544  32.476  1.00  0.00     0.167 HD
ATOM     69  C   UNL A   1      44.525  27.044  29.555  1.00  0.00     0.074 A 
ATOM     70  C   UNL A   1      44.148  25.961  30.463  1.00  0.00     0.031 C 
ATOM     71  C   UNL A   1      44.753  28.374  29.765  1.00  0.00     0.031 A 
BRANCH  58  72
ATOM     72  C   UNL A   1      43.072  27.371  34.824  1.00  0.00    -0.014 A 
ATOM     73  C   UNL A   1      43.293  26.068  34.349  1.00  0.00     0.009 A 
ATOM     74  C   UNL A   1      42.926  27.523  36.215  1.00  0.00     0.009 A 
ATOM     75  C   UNL A   1      43.301  24.971  35.218  1.00  0.00     0.001 A 
ATOM     76  C   UNL A   1      42.975  26.437  37.091  1.00  0.00     0.001 A 
ATOM     77  C   UNL A   1      43.137  25.156  36.587  1.00  0.00     0.000 A 
ENDBRANCH  58  72
BRANCH  59  78
ATOM     78  C   UNL A   1      42.175  23.865  27.022  1.00  0.00    -0.014 A 
ATOM     79  C   UNL A   1      42.949  23.528  25.895  1.00  0.00     0.009 A 
ATOM     80  C   UNL A   1      41.556  22.816  27.722  1.00  0.00     0.009 A 
ATOM     81  C   UNL A   1      43.158  22.190  25.532  1.00  0.00     0.001 A 
ATOM     82  C   UNL A   1      41.762  21.479  27.356  1.00  0.00     0.001 A 
ATOM     83  C   UNL A   1      42.582  21.165  26.275  1.00  0.00     0.000 A 
ENDBRANCH  59  78
BRANCH  71  84
ATOM     84  C   UNL A   1      44.922  29.263  28.552  1.00  0.00    -0.014 A 
ATOM     85  C   UNL A   1      43.851  29.905  27.903  1.00  0.00     0.009 A 
ATOM     86  C   UNL A   1      46.226  29.588  28.153  1.00  0.00     0.009 A 
ATOM     87  C   UNL A   1      44.082  30.831  26.878  1.00  0.00     0.001 A 
ATOM     88  C   UNL A   1      46.458  30.527  27.146  1.00  0.00     0.001 A 
ATOM     89  C   UNL A   1      45.387  31.146  26.506  1.00  0.00     0.000 A 
ENDBRANCH  71  84
ENDBRANCH  45  46
ENDBRANCH  37  40
ENDBRANCH  35  36
ENDBRANCH  34  35
ENDBRANCH   1  34
TORSDOF 15
ENDMDL
MODEL 2
REMARK VINA RESULT:     -11.5      1.798      5.572
REMARK SMILES Cc1c(C(=O)NCCCNC(=O)c2ccc(-c3c4nc(c(-c5ccccc5)c5ccc([nH]5)c(-c5ccccc5)c5nc(c(-c6ccccc6)c6ccc3[nH]6)C=C5)C=C4)cc2)sc2c1c(=O)n(Cc1ccccc1)c(=O)n2CC[NH+]1CCCCC1
REMARK SMILES IDX 7 1 6 2 4 3 5 4 3 6 1 7 2 8 63 9 61 10 62 11 64 12 76 13
REMARK SMILES IDX 65 14 66 15 74 16 75 17 77 18 78 19 79 20 80 21 84 22 81 24
REMARK SMILES IDX 83 25 82 26 67 27 68 28 69 29 73 30 70 31 72 32 71 33 8 34
REMARK SMILES IDX 9 35 10 36 11 37 12 39 13 40 14 41 60 42 15 43 59 44 16 45
REMARK SMILES IDX 17 46 18 47 53 48 19 49 58 50 52 51 54 52 20 53 57 54 51 55
REMARK SMILES IDX 50 56 21 58 43 59 28 60 42 61 29 62 32 63 41 64 55 65 30 66
REMARK SMILES IDX 31 67 40 69 56 70 33 71 22 72 23 73 27 74 24 75 26 76 25 77
REMARK SMILES IDX 44 78 45 79 49 80 46 81 48 82 47 83 34 84 35 85 39 86 36 87
REMARK SMILES IDX 38 88 37 89
REMARK H PARENT 6 5 79 23 10 38 54 57 32 68
REMARK Flexibility Score: inf
ROOT
ATOM      1  C   UNL A   1      33.356  31.124  27.638  1.00  0.00     0.118 C 
ENDROOT
BRANCH   1   2
ATOM      2  N   UNL A   1      32.407  30.925  26.534  1.00  0.00    -0.351 N 
ATOM      3  C   UNL A   1      32.051  29.877  25.699  1.00  0.00     0.261 C 
ATOM      4  O   UNL A   1      31.099  30.134  24.955  1.00  0.00    -0.268 OA
ATOM      5  H   UNL A   1      31.895  31.742  26.337  1.00  0.00     0.163 HD
BRANCH   3   6
ATOM      6  C   UNL A   1      32.784  28.614  25.590  1.00  0.00     0.098 A 
ATOM      7  C   UNL A   1      31.823  27.350  27.627  1.00  0.00     0.047 C 
ATOM      8  C   UNL A   1      32.638  27.445  26.370  1.00  0.00    -0.012 A 
ATOM      9  C   UNL A   1      33.192  26.297  25.663  1.00  0.00     0.079 A 
ATOM     10  S   UNL A   1      33.986  28.336  24.404  1.00  0.00    -0.111 S 
ATOM     11  C   UNL A   1      33.661  26.697  24.449  1.00  0.00     0.113 A 
ATOM     12  C   UNL A   1      33.083  24.867  25.893  1.00  0.00     0.265 A 
ATOM     13  N   UNL A   1      33.719  25.891  23.330  1.00  0.00    -0.279 N 
ATOM     14  O   UNL A   1      32.461  24.401  26.833  1.00  0.00    -0.268 OA
ATOM     15  N   UNL A   1      33.703  24.098  24.897  1.00  0.00    -0.255 N 
ATOM     16  C   UNL A   1      33.825  24.514  23.566  1.00  0.00     0.332 A 
ATOM     17  O   UNL A   1      33.963  23.720  22.634  1.00  0.00    -0.247 OA
BRANCH  13  18
ATOM     18  C   UNL A   1      33.411  26.367  21.962  1.00  0.00     0.189 C 
BRANCH  18  19
ATOM     19  C   UNL A   1      31.880  26.639  21.655  1.00  0.00     0.284 C 
BRANCH  19  20
ATOM     20  N   UNL A   1      30.881  27.100  22.670  1.00  0.00    -0.333 N 
ATOM     21  C   UNL A   1      30.024  28.168  22.190  1.00  0.00     0.262 C 
ATOM     22  C   UNL A   1      30.132  26.003  23.289  1.00  0.00     0.262 C 
ATOM     23  H   UNL A   1      31.438  27.509  23.421  1.00  0.00     0.348 HD
ATOM     24  C   UNL A   1      28.954  28.683  23.140  1.00  0.00     0.062 C 
ATOM     25  C   UNL A   1      28.957  26.446  24.192  1.00  0.00     0.062 C 
ATOM     26  C   UNL A   1      28.077  27.528  23.575  1.00  0.00     0.012 C 
ENDBRANCH  19  20
ENDBRANCH  18  19
ENDBRANCH  13  18
BRANCH  15  27
ATOM     27  C   UNL A   1      33.985  22.706  25.221  1.00  0.00     0.166 C 
BRANCH  27  28
ATOM     28  C   UNL A   1      35.484  22.474  25.311  1.00  0.00    -0.028 A 
ATOM     29  C   UNL A   1      36.318  23.394  25.963  1.00  0.00     0.005 A 
ATOM     30  C   UNL A   1      36.052  21.293  24.807  1.00  0.00     0.005 A 
ATOM     31  C   UNL A   1      37.681  23.129  26.114  1.00  0.00     0.000 A 
ATOM     32  C   UNL A   1      37.408  21.019  24.979  1.00  0.00     0.000 A 
ATOM     33  C   UNL A   1      38.222  21.937  25.633  1.00  0.00     0.000 A 
ENDBRANCH  27  28
ENDBRANCH  15  27
ENDBRANCH   3   6
ENDBRANCH   1   2
BRANCH   1  34
ATOM     34  C   UNL A   1      34.821  30.905  27.271  1.00  0.00     0.042 C 
BRANCH  34  35
ATOM     35  C   UNL A   1      35.494  29.805  28.055  1.00  0.00     0.118 C 
BRANCH  35  36
ATOM     36  N   UNL A   1      35.605  30.079  29.484  1.00  0.00    -0.352 N 
ATOM     37  C   UNL A   1      36.539  29.614  30.394  1.00  0.00     0.251 C 
ATOM     38  H   UNL A   1      34.918  30.679  29.854  1.00  0.00     0.163 HD
ATOM     39  O   UNL A   1      36.316  29.721  31.596  1.00  0.00    -0.269 OA
BRANCH  37  40
ATOM     40  C   UNL A   1      37.817  29.018  29.929  1.00  0.00     0.039 A 
ATOM     41  C   UNL A   1      38.236  27.756  30.367  1.00  0.00     0.014 A 
ATOM     42  C   UNL A   1      38.654  29.755  29.096  1.00  0.00     0.014 A 
ATOM     43  C   UNL A   1      39.518  27.319  30.026  1.00  0.00     0.010 A 
ATOM     44  C   UNL A   1      39.777  29.218  28.550  1.00  0.00     0.010 A 
ATOM     45  C   UNL A   1      40.292  28.101  29.157  1.00  0.00    -0.014 A 
BRANCH  45  46
ATOM     46  C   UNL A   1      41.653  27.779  28.784  1.00  0.00     0.031 A 
ATOM     47  C   UNL A   1      41.748  26.518  28.034  1.00  0.00     0.074 A 
ATOM     48  C   UNL A   1      42.684  28.649  28.887  1.00  0.00     0.049 A 
ATOM     49  N   UNL A   1      42.169  25.391  28.490  1.00  0.00    -0.248 NA
ATOM     50  C   UNL A   1      41.125  26.446  26.703  1.00  0.00     0.031 C 
ATOM     51  C   UNL A   1      42.680  30.064  29.290  1.00  0.00     0.029 A 
ATOM     52  N   UNL A   1      43.983  28.450  28.547  1.00  0.00    -0.354 N 
ATOM     53  C   UNL A   1      42.074  24.506  27.430  1.00  0.00     0.074 A 
ATOM     54  C   UNL A   1      41.233  25.141  26.446  1.00  0.00     0.031 C 
ATOM     55  C   UNL A   1      43.866  30.635  28.964  1.00  0.00     0.029 A 
ATOM     56  C   UNL A   1      44.765  29.599  28.491  1.00  0.00     0.049 A 
ATOM     57  H   UNL A   1      44.345  27.556  28.354  1.00  0.00     0.167 HD
ATOM     58  C   UNL A   1      42.927  23.451  27.332  1.00  0.00     0.031 A 
ATOM     59  C   UNL A   1      46.054  29.664  28.068  1.00  0.00     0.031 A 
ATOM     60  C   UNL A   1      43.649  23.244  28.566  1.00  0.00     0.049 A 
ATOM     61  C   UNL A   1      46.603  28.291  28.162  1.00  0.00     0.074 A 
ATOM     62  C   UNL A   1      43.284  22.960  29.868  1.00  0.00     0.029 A 
ATOM     63  N   UNL A   1      44.919  23.767  28.634  1.00  0.00    -0.354 N 
ATOM     64  N   UNL A   1      46.791  27.671  29.291  1.00  0.00    -0.248 NA
ATOM     65  C   UNL A   1      46.509  27.441  26.986  1.00  0.00     0.031 C 
ATOM     66  C   UNL A   1      44.150  23.757  30.675  1.00  0.00     0.029 A 
ATOM     67  C   UNL A   1      45.048  24.419  29.835  1.00  0.00     0.049 A 
ATOM     68  H   UNL A   1      45.616  23.689  27.942  1.00  0.00     0.167 HD
ATOM     69  C   UNL A   1      46.390  26.367  29.043  1.00  0.00     0.074 A 
ATOM     70  C   UNL A   1      46.322  26.261  27.585  1.00  0.00     0.031 C 
ATOM     71  C   UNL A   1      45.872  25.591  30.040  1.00  0.00     0.031 A 
BRANCH  58  72
ATOM     72  C   UNL A   1      43.415  22.907  26.018  1.00  0.00    -0.014 A 
ATOM     73  C   UNL A   1      43.429  21.514  25.837  1.00  0.00     0.009 A 
ATOM     74  C   UNL A   1      44.103  23.677  25.061  1.00  0.00     0.009 A 
ATOM     75  C   UNL A   1      44.146  20.925  24.791  1.00  0.00     0.001 A 
ATOM     76  C   UNL A   1      44.786  23.096  23.991  1.00  0.00     0.001 A 
ATOM     77  C   UNL A   1      44.829  21.716  23.871  1.00  0.00     0.000 A 
ENDBRANCH  58  72
BRANCH  59  78
ATOM     78  C   UNL A   1      46.776  30.716  27.315  1.00  0.00    -0.014 A 
ATOM     79  C   UNL A   1      46.084  31.852  26.852  1.00  0.00     0.009 A 
ATOM     80  C   UNL A   1      48.180  30.779  27.348  1.00  0.00     0.009 A 
ATOM     81  C   UNL A   1      46.766  33.028  26.512  1.00  0.00     0.001 A 
ATOM     82  C   UNL A   1      48.860  31.955  27.004  1.00  0.00     0.001 A 
ATOM     83  C   UNL A   1      48.152  33.087  26.609  1.00  0.00     0.000 A 
ENDBRANCH  59  78
BRANCH  71  84
ATOM     84  C   UNL A   1      45.957  26.113  31.458  1.00  0.00    -0.014 A 
ATOM     85  C   UNL A   1      44.860  26.655  32.154  1.00  0.00     0.009 A 
ATOM     86  C   UNL A   1      47.147  25.899  32.165  1.00  0.00     0.009 A 
ATOM     87  C   UNL A   1      44.962  26.984  33.512  1.00  0.00     0.001 A 
ATOM     88  C   UNL A   1      47.243  26.207  33.524  1.00  0.00     0.001 A 
ATOM     89  C   UNL A   1      46.152  26.753  34.197  1.00  0.00     0.000 A 
ENDBRANCH  71  84
ENDBRANCH  45  46
ENDBRANCH  37  40
ENDBRANCH  35  36
ENDBRANCH  34  35
ENDBRANCH   1  34
TORSDOF 15
ENDMDL
MODEL 3
REMARK VINA RESULT:     -11.4      2.232      4.285
REMARK SMILES Cc1c(C(=O)NCCCNC(=O)c2ccc(-c3c4nc(c(-c5ccccc5)c5ccc([nH]5)c(-c5ccccc5)c5nc(c(-c6ccccc6)c6ccc3[nH]6)C=C5)C=C4)cc2)sc2c1c(=O)n(Cc1ccccc1)c(=O)n2CC[NH+]1CCCCC1
REMARK SMILES IDX 7 1 6 2 4 3 5 4 3 6 1 7 2 8 63 9 61 10 62 11 64 12 76 13
REMARK SMILES IDX 65 14 66 15 74 16 75 17 77 18 78 19 79 20 80 21 84 22 81 24
REMARK SMILES IDX 83 25 82 26 67 27 68 28 69 29 73 30 70 31 72 32 71 33 8 34
REMARK SMILES IDX 9 35 10 36 11 37 12 39 13 40 14 41 60 42 15 43 59 44 16 45
REMARK SMILES IDX 17 46 18 47 53 48 19 49 58 50 52 51 54 52 20 53 57 54 51 55
REMARK SMILES IDX 50 56 21 58 43 59 28 60 42 61 29 62 32 63 41 64 55 65 30 66
REMARK SMILES IDX 31 67 40 69 56 70 33 71 22 72 23 73 27 74 24 75 26 76 25 77
REMARK SMILES IDX 44 78 45 79 49 80 46 81 48 82 47 83 34 84 35 85 39 86 36 87
REMARK SMILES IDX 38 88 37 89
REMARK H PARENT 6 5 79 23 10 38 54 57 32 68
REMARK Flexibility Score: inf
ROOT
ATOM      1  C   UNL A   1      31.746  28.557  26.013  1.00  0.00     0.118 C 
ENDROOT
BRANCH   1   2
ATOM      2  N   UNL A   1      32.352  28.186  24.726  1.00  0.00    -0.351 N 
ATOM      3  C   UNL A   1      32.786  27.013  24.127  1.00  0.00     0.261 C 
ATOM      4  O   UNL A   1      33.145  27.156  22.954  1.00  0.00    -0.268 OA
ATOM      5  H   UNL A   1      32.481  28.967  24.142  1.00  0.00     0.163 HD
BRANCH   3   6
ATOM      6  C   UNL A   1      32.937  25.733  24.820  1.00  0.00     0.098 A 
ATOM      7  C   UNL A   1      30.645  24.660  24.304  1.00  0.00     0.047 C 
ATOM      8  C   UNL A   1      32.048  24.635  24.838  1.00  0.00    -0.012 A 
ATOM      9  C   UNL A   1      32.754  23.422  25.231  1.00  0.00     0.079 A 
ATOM     10  S   UNL A   1      34.320  25.334  25.747  1.00  0.00    -0.111 S 
ATOM     11  C   UNL A   1      34.069  23.712  25.437  1.00  0.00     0.113 A 
ATOM     12  C   UNL A   1      32.387  22.018  25.171  1.00  0.00     0.265 A 
ATOM     13  N   UNL A   1      35.103  22.814  25.259  1.00  0.00    -0.279 N 
ATOM     14  O   UNL A   1      31.302  21.643  24.758  1.00  0.00    -0.268 OA
ATOM     15  N   UNL A   1      33.421  21.158  25.568  1.00  0.00    -0.255 N 
ATOM     16  C   UNL A   1      34.779  21.460  25.409  1.00  0.00     0.332 A 
ATOM     17  O   UNL A   1      35.648  20.589  25.349  1.00  0.00    -0.247 OA
BRANCH  13  18
ATOM     18  C   UNL A   1      36.412  23.182  24.672  1.00  0.00     0.189 C 
BRANCH  18  19
ATOM     19  C   UNL A   1      37.427  23.905  25.650  1.00  0.00     0.284 C 
BRANCH  19  20
ATOM     20  N   UNL A   1      38.801  23.403  25.968  1.00  0.00    -0.333 N 
ATOM     21  C   UNL A   1      39.364  23.990  27.170  1.00  0.00     0.262 C 
ATOM     22  C   UNL A   1      38.906  21.941  25.945  1.00  0.00     0.262 C 
ATOM     23  H   UNL A   1      39.387  23.731  25.200  1.00  0.00     0.348 HD
ATOM     24  C   UNL A   1      40.747  23.518  27.594  1.00  0.00     0.062 C 
ATOM     25  C   UNL A   1      40.250  21.378  26.461  1.00  0.00     0.062 C 
ATOM     26  C   UNL A   1      40.729  22.013  27.762  1.00  0.00     0.012 C 
ENDBRANCH  19  20
ENDBRANCH  18  19
ENDBRANCH  13  18
BRANCH  15  27
ATOM     27  C   UNL A   1      33.046  19.792  25.910  1.00  0.00     0.166 C 
BRANCH  27  28
ATOM     28  C   UNL A   1      33.278  18.864  24.730  1.00  0.00    -0.028 A 
ATOM     29  C   UNL A   1      34.224  17.832  24.799  1.00  0.00     0.005 A 
ATOM     30  C   UNL A   1      32.492  18.978  23.571  1.00  0.00     0.005 A 
ATOM     31  C   UNL A   1      34.368  16.933  23.740  1.00  0.00     0.000 A 
ATOM     32  C   UNL A   1      32.620  18.066  22.525  1.00  0.00     0.000 A 
ATOM     33  C   UNL A   1      33.558  17.043  22.610  1.00  0.00     0.000 A 
ENDBRANCH  27  28
ENDBRANCH  15  27
ENDBRANCH   3   6
ENDBRANCH   1   2
BRANCH   1  34
ATOM     34  C   UNL A   1      32.703  28.537  27.200  1.00  0.00     0.042 C 
BRANCH  34  35
ATOM     35  C   UNL A   1      34.091  29.038  26.881  1.00  0.00     0.118 C 
BRANCH  35  36
ATOM     36  N   UNL A   1      34.201  30.492  26.839  1.00  0.00    -0.352 N 
ATOM     37  C   UNL A   1      35.102  31.320  27.486  1.00  0.00     0.251 C 
ATOM     38  H   UNL A   1      33.541  30.949  26.271  1.00  0.00     0.163 HD
ATOM     39  O   UNL A   1      34.872  32.523  27.558  1.00  0.00    -0.269 OA
BRANCH  37  40
ATOM     40  C   UNL A   1      36.354  30.771  28.066  1.00  0.00     0.039 A 
ATOM     41  C   UNL A   1      37.135  31.515  28.958  1.00  0.00     0.014 A 
ATOM     42  C   UNL A   1      36.803  29.516  27.662  1.00  0.00     0.014 A 
ATOM     43  C   UNL A   1      38.380  31.012  29.341  1.00  0.00     0.010 A 
ATOM     44  C   UNL A   1      37.877  28.917  28.241  1.00  0.00     0.010 A 
ATOM     45  C   UNL A   1      38.751  29.727  28.920  1.00  0.00    -0.014 A 
BRANCH  45  46
ATOM     46  C   UNL A   1      40.038  29.129  29.204  1.00  0.00     0.031 A 
ATOM     47  C   UNL A   1      40.259  28.924  30.644  1.00  0.00     0.074 A 
ATOM     48  C   UNL A   1      40.840  28.591  28.257  1.00  0.00     0.049 A 
ATOM     49  N   UNL A   1      41.014  29.633  31.407  1.00  0.00    -0.248 NA
ATOM     50  C   UNL A   1      39.400  27.963  31.353  1.00  0.00     0.031 C 
ATOM     51  C   UNL A   1      40.597  28.406  26.817  1.00  0.00     0.029 A 
ATOM     52  N   UNL A   1      42.047  27.993  28.424  1.00  0.00    -0.354 N 
ATOM     53  C   UNL A   1      40.902  29.067  32.665  1.00  0.00     0.074 A 
ATOM     54  C   UNL A   1      39.748  28.203  32.619  1.00  0.00     0.031 C 
ATOM     55  C   UNL A   1      41.524  27.560  26.303  1.00  0.00     0.029 A 
ATOM     56  C   UNL A   1      42.515  27.280  27.325  1.00  0.00     0.049 A 
ATOM     57  H   UNL A   1      42.555  28.060  29.264  1.00  0.00     0.167 HD
ATOM     58  C   UNL A   1      41.933  29.137  33.549  1.00  0.00     0.031 A 
ATOM     59  C   UNL A   1      43.634  26.511  27.293  1.00  0.00     0.031 A 
ATOM     60  C   UNL A   1      42.928  30.091  33.119  1.00  0.00     0.049 A 
ATOM     61  C   UNL A   1      44.490  26.959  28.416  1.00  0.00     0.074 A 
ATOM     62  C   UNL A   1      42.924  31.448  32.859  1.00  0.00     0.029 A 
ATOM     63  N   UNL A   1      44.029  29.585  32.468  1.00  0.00    -0.354 N 
ATOM     64  N   UNL A   1      45.051  28.132  28.465  1.00  0.00    -0.248 NA
ATOM     65  C   UNL A   1      44.346  26.277  29.692  1.00  0.00     0.031 C 
ATOM     66  C   UNL A   1      43.735  31.603  31.695  1.00  0.00     0.029 A 
ATOM     67  C   UNL A   1      44.257  30.353  31.354  1.00  0.00     0.049 A 
ATOM     68  H   UNL A   1      44.561  28.805  32.750  1.00  0.00     0.167 HD
ATOM     69  C   UNL A   1      44.917  28.528  29.787  1.00  0.00     0.074 A 
ATOM     70  C   UNL A   1      44.566  27.308  30.515  1.00  0.00     0.031 C 
ATOM     71  C   UNL A   1      44.814  29.849  30.117  1.00  0.00     0.031 A 
BRANCH  58  72
ATOM     72  C   UNL A   1      42.242  28.049  34.541  1.00  0.00    -0.014 A 
ATOM     73  C   UNL A   1      42.789  26.848  34.062  1.00  0.00     0.009 A 
ATOM     74  C   UNL A   1      41.779  28.051  35.870  1.00  0.00     0.009 A 
ATOM     75  C   UNL A   1      42.812  25.695  34.854  1.00  0.00     0.001 A 
ATOM     76  C   UNL A   1      41.838  26.914  36.678  1.00  0.00     0.001 A 
ATOM     77  C   UNL A   1      42.331  25.727  36.160  1.00  0.00     0.000 A 
ENDBRANCH  58  72
BRANCH  59  78
ATOM     78  C   UNL A   1      43.918  25.240  26.587  1.00  0.00    -0.014 A 
ATOM     79  C   UNL A   1      44.370  24.119  27.309  1.00  0.00     0.009 A 
ATOM     80  C   UNL A   1      43.426  25.021  25.289  1.00  0.00     0.009 A 
ATOM     81  C   UNL A   1      44.261  22.824  26.783  1.00  0.00     0.001 A 
ATOM     82  C   UNL A   1      43.321  23.727  24.763  1.00  0.00     0.001 A 
ATOM     83  C   UNL A   1      43.716  22.627  25.518  1.00  0.00     0.000 A 
ENDBRANCH  59  78
BRANCH  71  84
ATOM     84  C   UNL A   1      45.077  30.870  29.033  1.00  0.00    -0.014 A 
ATOM     85  C   UNL A   1      46.336  31.460  28.808  1.00  0.00     0.009 A 
ATOM     86  C   UNL A   1      44.055  31.122  28.107  1.00  0.00     0.009 A 
ATOM     87  C   UNL A   1      46.555  32.286  27.698  1.00  0.00     0.001 A 
ATOM     88  C   UNL A   1      44.280  31.929  26.989  1.00  0.00     0.001 A 
ATOM     89  C   UNL A   1      45.527  32.513  26.786  1.00  0.00     0.000 A 
ENDBRANCH  71  84
ENDBRANCH  45  46
ENDBRANCH  37  40
ENDBRANCH  35  36
ENDBRANCH  34  35
ENDBRANCH   1  34
TORSDOF 15
ENDMDL
