MODEL 1
REMARK VINA RESULT:     -11.9      0.000      0.000
REMARK SMILES CC(C)CN(C)c1cc2c(cc1Cl)C=C(C(=O)NCCCNC(=O)c1ccc(-c3c4nc(c(-c5ccccc5)c5ccc([nH]5)c(-c5ccccc5)c5nc(c(-c6ccccc6)c6ccc3[nH]6)C=C5)C=C4)cc1)[C@@H](C(F)(F)F)O2
REMARK SMILES IDX 19 1 18 2 16 3 17 4 15 6 7 7 8 8 12 9 9 10 11 11 13 12 10 13
REMARK SMILES IDX 78 14 14 15 73 16 5 17 6 18 4 19 2 20 1 21 3 22 74 23 75 24
REMARK SMILES IDX 76 25 77 26 20 27 21 28 22 29 23 30 24 32 25 33 26 34 72 35
REMARK SMILES IDX 27 36 71 37 28 38 29 39 30 40 65 41 31 42 70 43 64 44 66 45
REMARK SMILES IDX 32 46 69 47 63 48 62 49 33 51 55 52 40 53 54 54 41 55 44 56
REMARK SMILES IDX 53 57 67 58 42 59 43 60 52 62 68 63 45 64 34 65 35 66 39 67
REMARK SMILES IDX 36 68 38 69 37 70 56 71 57 72 61 73 58 74 60 75 59 76 46 77
REMARK SMILES IDX 47 78 51 79 48 80 50 81 49 82
REMARK H PARENT 18 5 22 31 66 50 44 61
REMARK Flexibility Score: inf
ROOT
ATOM      1  C   UNL A   1      36.053  20.992  25.373  1.00  0.00     0.118 C 
ENDROOT
BRANCH   1   2
ATOM      2  N   UNL A   1      34.864  20.295  24.913  1.00  0.00    -0.352 N 
ATOM      3  C   UNL A   1      33.594  20.620  24.589  1.00  0.00     0.251 C 
ATOM      4  O   UNL A   1      32.882  19.673  24.241  1.00  0.00    -0.270 OA
ATOM      5  H   UNL A   1      35.027  19.330  24.811  1.00  0.00     0.163 HD
BRANCH   3   6
ATOM      6  C   UNL A   1      33.029  21.993  24.628  1.00  0.00     0.067 C 
ATOM      7  C   UNL A   1      31.731  26.742  23.569  1.00  0.00     0.059 A 
ATOM      8  C   UNL A   1      31.084  25.667  24.201  1.00  0.00     0.074 A 
ATOM      9  C   UNL A   1      33.036  26.520  23.067  1.00  0.00     0.065 A 
ATOM     10  C   UNL A   1      31.707  24.425  24.294  1.00  0.00     0.130 A 
ATOM     11  C   UNL A   1      33.608  25.244  23.070  1.00  0.00     0.034 A 
ATOM     12  Cl  UNL A   1      34.018  27.809  22.457  1.00  0.00    -0.082 Cl
ATOM     13  C   UNL A   1      32.935  24.190  23.673  1.00  0.00     0.019 A 
ATOM     14  O   UNL A   1      31.079  23.448  25.025  1.00  0.00    -0.475 OA
ATOM     15  C   UNL A   1      33.479  22.838  23.682  1.00  0.00     0.025 C 
ATOM     16  C   UNL A   1      32.011  22.489  25.616  1.00  0.00     0.314 C 
BRANCH   7  17
ATOM     17  N   UNL A   1      31.078  27.977  23.426  1.00  0.00    -0.373 N 
ATOM     18  C   UNL A   1      31.188  28.876  24.573  1.00  0.00     0.143 C 
BRANCH  17  19
ATOM     19  C   UNL A   1      29.771  27.950  22.733  1.00  0.00     0.119 C 
BRANCH  19  20
ATOM     20  C   UNL A   1      28.988  29.270  22.886  1.00  0.00     0.002 C 
ATOM     21  C   UNL A   1      29.262  30.246  21.736  1.00  0.00     0.009 C 
ATOM     22  C   UNL A   1      27.481  29.011  22.965  1.00  0.00     0.009 C 
ENDBRANCH  19  20
ENDBRANCH  17  19
ENDBRANCH   7  17
BRANCH  16  23
ATOM     23  C   UNL A   1      32.668  23.072  26.891  1.00  0.00     0.429 C 
ATOM     24  F   UNL A   1      31.879  24.035  27.431  1.00  0.00    -0.167 F 
ATOM     25  F   UNL A   1      32.842  22.132  27.855  1.00  0.00    -0.167 F 
ATOM     26  F   UNL A   1      33.882  23.621  26.672  1.00  0.00    -0.167 F 
ENDBRANCH  16  23
ENDBRANCH   3   6
ENDBRANCH   1   2
BRANCH   1  27
ATOM     27  C   UNL A   1      37.318  20.346  24.831  1.00  0.00     0.042 C 
BRANCH  27  28
ATOM     28  C   UNL A   1      38.553  20.743  25.624  1.00  0.00     0.118 C 
BRANCH  28  29
ATOM     29  N   UNL A   1      39.548  19.674  25.665  1.00  0.00    -0.352 N 
ATOM     30  C   UNL A   1      40.891  19.722  25.964  1.00  0.00     0.251 C 
ATOM     31  H   UNL A   1      39.205  18.778  25.444  1.00  0.00     0.163 HD
ATOM     32  O   UNL A   1      41.610  18.763  25.725  1.00  0.00    -0.269 OA
BRANCH  30  33
ATOM     33  C   UNL A   1      41.463  20.951  26.551  1.00  0.00     0.039 A 
ATOM     34  C   UNL A   1      41.489  21.120  27.934  1.00  0.00     0.014 A 
ATOM     35  C   UNL A   1      41.959  21.953  25.712  1.00  0.00     0.014 A 
ATOM     36  C   UNL A   1      41.803  22.361  28.467  1.00  0.00     0.010 A 
ATOM     37  C   UNL A   1      42.388  23.165  26.260  1.00  0.00     0.010 A 
ATOM     38  C   UNL A   1      42.258  23.400  27.638  1.00  0.00    -0.014 A 
BRANCH  38  39
ATOM     39  C   UNL A   1      42.584  24.714  28.248  1.00  0.00     0.031 A 
ATOM     40  C   UNL A   1      44.011  25.094  28.542  1.00  0.00     0.074 A 
ATOM     41  C   UNL A   1      41.592  25.602  28.451  1.00  0.00     0.049 A 
ATOM     42  N   UNL A   1      44.475  26.217  29.028  1.00  0.00    -0.248 NA
ATOM     43  C   UNL A   1      45.051  24.093  28.256  1.00  0.00     0.031 C 
ATOM     44  C   UNL A   1      40.175  25.359  28.170  1.00  0.00     0.029 A 
ATOM     45  N   UNL A   1      41.624  26.901  28.888  1.00  0.00    -0.354 N 
ATOM     46  C   UNL A   1      45.852  26.050  29.127  1.00  0.00     0.074 A 
ATOM     47  C   UNL A   1      46.148  24.710  28.674  1.00  0.00     0.031 C 
ATOM     48  C   UNL A   1      39.489  26.493  28.356  1.00  0.00     0.029 A 
ATOM     49  C   UNL A   1      40.398  27.521  28.852  1.00  0.00     0.049 A 
ATOM     50  H   UNL A   1      42.446  27.347  29.199  1.00  0.00     0.167 HD
ATOM     51  C   UNL A   1      46.784  26.939  29.546  1.00  0.00     0.031 A 
ATOM     52  C   UNL A   1      40.036  28.773  29.186  1.00  0.00     0.031 A 
ATOM     53  C   UNL A   1      46.485  28.277  29.983  1.00  0.00     0.049 A 
ATOM     54  C   UNL A   1      41.079  29.718  29.702  1.00  0.00     0.074 A 
ATOM     55  C   UNL A   1      47.362  29.249  30.432  1.00  0.00     0.029 A 
ATOM     56  N   UNL A   1      45.216  28.833  30.019  1.00  0.00    -0.354 N 
ATOM     57  N   UNL A   1      42.372  29.533  29.815  1.00  0.00    -0.248 NA
ATOM     58  C   UNL A   1      40.617  31.040  30.148  1.00  0.00     0.031 C 
ATOM     59  C   UNL A   1      46.617  30.375  30.789  1.00  0.00     0.029 A 
ATOM     60  C   UNL A   1      45.285  30.128  30.502  1.00  0.00     0.049 A 
ATOM     61  H   UNL A   1      44.389  28.375  29.742  1.00  0.00     0.167 HD
ATOM     62  C   UNL A   1      42.879  30.711  30.341  1.00  0.00     0.074 A 
ATOM     63  C   UNL A   1      41.759  31.615  30.502  1.00  0.00     0.031 C 
ATOM     64  C   UNL A   1      44.159  31.013  30.666  1.00  0.00     0.031 A 
BRANCH  51  65
ATOM     65  C   UNL A   1      48.221  26.495  29.574  1.00  0.00    -0.014 A 
ATOM     66  C   UNL A   1      48.735  25.869  30.720  1.00  0.00     0.009 A 
ATOM     67  C   UNL A   1      49.087  26.768  28.504  1.00  0.00     0.009 A 
ATOM     68  C   UNL A   1      50.088  25.537  30.802  1.00  0.00     0.001 A 
ATOM     69  C   UNL A   1      50.435  26.410  28.577  1.00  0.00     0.001 A 
ATOM     70  C   UNL A   1      50.936  25.803  29.729  1.00  0.00     0.000 A 
ENDBRANCH  51  65
BRANCH  52  71
ATOM     71  C   UNL A   1      38.615  29.184  29.037  1.00  0.00    -0.014 A 
ATOM     72  C   UNL A   1      38.147  29.703  27.819  1.00  0.00     0.009 A 
ATOM     73  C   UNL A   1      37.740  29.125  30.131  1.00  0.00     0.009 A 
ATOM     74  C   UNL A   1      36.844  30.191  27.709  1.00  0.00     0.001 A 
ATOM     75  C   UNL A   1      36.426  29.586  30.009  1.00  0.00     0.001 A 
ATOM     76  C   UNL A   1      35.983  30.128  28.804  1.00  0.00     0.000 A 
ENDBRANCH  52  71
BRANCH  64  77
ATOM     77  C   UNL A   1      44.433  32.378  31.227  1.00  0.00    -0.014 A 
ATOM     78  C   UNL A   1      44.316  32.600  32.608  1.00  0.00     0.009 A 
ATOM     79  C   UNL A   1      44.706  33.462  30.382  1.00  0.00     0.009 A 
ATOM     80  C   UNL A   1      44.452  33.887  33.131  1.00  0.00     0.001 A 
ATOM     81  C   UNL A   1      44.869  34.744  30.911  1.00  0.00     0.001 A 
ATOM     82  C   UNL A   1      44.733  34.957  32.282  1.00  0.00     0.000 A 
ENDBRANCH  64  77
ENDBRANCH  38  39
ENDBRANCH  30  33
ENDBRANCH  28  29
ENDBRANCH  27  28
ENDBRANCH   1  27
TORSDOF 14
ENDMDL
MODEL 2
REMARK VINA RESULT:     -11.9      0.313      5.821
REMARK SMILES CC(C)CN(C)c1cc2c(cc1Cl)C=C(C(=O)NCCCNC(=O)c1ccc(-c3c4nc(c(-c5ccccc5)c5ccc([nH]5)c(-c5ccccc5)c5nc(c(-c6ccccc6)c6ccc3[nH]6)C=C5)C=C4)cc1)[C@@H](C(F)(F)F)O2
REMARK SMILES IDX 19 1 18 2 16 3 17 4 15 6 7 7 8 8 12 9 9 10 11 11 13 12 10 13
REMARK SMILES IDX 78 14 14 15 73 16 5 17 6 18 4 19 2 20 1 21 3 22 74 23 75 24
REMARK SMILES IDX 76 25 77 26 20 27 21 28 22 29 23 30 24 32 25 33 26 34 72 35
REMARK SMILES IDX 27 36 71 37 28 38 29 39 30 40 65 41 31 42 70 43 64 44 66 45
REMARK SMILES IDX 32 46 69 47 63 48 62 49 33 51 55 52 40 53 54 54 41 55 44 56
REMARK SMILES IDX 53 57 67 58 42 59 43 60 52 62 68 63 45 64 34 65 35 66 39 67
REMARK SMILES IDX 36 68 38 69 37 70 56 71 57 72 61 73 58 74 60 75 59 76 46 77
REMARK SMILES IDX 47 78 51 79 48 80 50 81 49 82
REMARK H PARENT 18 5 22 31 66 50 44 61
REMARK Flexibility Score: inf
ROOT
ATOM      1  C   UNL A   1      36.275  20.912  25.358  1.00  0.00     0.118 C 
ENDROOT
BRANCH   1   2
ATOM      2  N   UNL A   1      35.095  20.198  24.901  1.00  0.00    -0.352 N 
ATOM      3  C   UNL A   1      33.813  20.499  24.604  1.00  0.00     0.251 C 
ATOM      4  O   UNL A   1      33.118  19.543  24.246  1.00  0.00    -0.270 OA
ATOM      5  H   UNL A   1      35.279  19.239  24.776  1.00  0.00     0.163 HD
BRANCH   3   6
ATOM      6  C   UNL A   1      33.217  21.857  24.680  1.00  0.00     0.067 C 
ATOM      7  C   UNL A   1      31.769  26.585  23.730  1.00  0.00     0.059 A 
ATOM      8  C   UNL A   1      31.171  25.487  24.370  1.00  0.00     0.074 A 
ATOM      9  C   UNL A   1      33.061  26.402  23.180  1.00  0.00     0.065 A 
ATOM     10  C   UNL A   1      31.826  24.260  24.424  1.00  0.00     0.130 A 
ATOM     11  C   UNL A   1      33.663  25.140  23.145  1.00  0.00     0.034 A 
ATOM     12  Cl  UNL A   1      33.989  27.722  22.553  1.00  0.00    -0.082 Cl
ATOM     13  C   UNL A   1      33.037  24.062  23.758  1.00  0.00     0.019 A 
ATOM     14  O   UNL A   1      31.248  23.258  25.164  1.00  0.00    -0.475 OA
ATOM     15  C   UNL A   1      33.613  22.724  23.730  1.00  0.00     0.025 C 
ATOM     16  C   UNL A   1      32.223  22.316  25.710  1.00  0.00     0.314 C 
BRANCH   7  17
ATOM     17  N   UNL A   1      31.081  27.805  23.626  1.00  0.00    -0.373 N 
ATOM     18  C   UNL A   1      31.169  28.672  24.800  1.00  0.00     0.143 C 
BRANCH  17  19
ATOM     19  C   UNL A   1      29.775  27.764  22.934  1.00  0.00     0.119 C 
BRANCH  19  20
ATOM     20  C   UNL A   1      29.025  29.111  22.993  1.00  0.00     0.002 C 
ATOM     21  C   UNL A   1      29.452  30.064  21.871  1.00  0.00     0.009 C 
ATOM     22  C   UNL A   1      27.510  28.904  22.916  1.00  0.00     0.009 C 
ENDBRANCH  19  20
ENDBRANCH  17  19
ENDBRANCH   7  17
BRANCH  16  23
ATOM     23  C   UNL A   1      32.910  22.899  26.969  1.00  0.00     0.429 C 
ATOM     24  F   UNL A   1      32.194  23.943  27.457  1.00  0.00    -0.167 F 
ATOM     25  F   UNL A   1      32.998  21.990  27.973  1.00  0.00    -0.167 F 
ATOM     26  F   UNL A   1      34.166  23.341  26.744  1.00  0.00    -0.167 F 
ENDBRANCH  16  23
ENDBRANCH   3   6
ENDBRANCH   1   2
BRANCH   1  27
ATOM     27  C   UNL A   1      37.550  20.248  24.864  1.00  0.00     0.042 C 
BRANCH  27  28
ATOM     28  C   UNL A   1      38.774  20.694  25.651  1.00  0.00     0.118 C 
BRANCH  28  29
ATOM     29  N   UNL A   1      39.773  19.634  25.761  1.00  0.00    -0.352 N 
ATOM     30  C   UNL A   1      41.117  19.708  26.051  1.00  0.00     0.251 C 
ATOM     31  H   UNL A   1      39.433  18.724  25.603  1.00  0.00     0.163 HD
ATOM     32  O   UNL A   1      41.839  18.738  25.876  1.00  0.00    -0.269 OA
BRANCH  30  33
ATOM     33  C   UNL A   1      41.685  20.977  26.551  1.00  0.00     0.039 A 
ATOM     34  C   UNL A   1      41.702  21.247  27.918  1.00  0.00     0.014 A 
ATOM     35  C   UNL A   1      42.188  21.914  25.644  1.00  0.00     0.014 A 
ATOM     36  C   UNL A   1      42.013  22.523  28.361  1.00  0.00     0.010 A 
ATOM     37  C   UNL A   1      42.614  23.163  26.105  1.00  0.00     0.010 A 
ATOM     38  C   UNL A   1      42.475  23.498  27.461  1.00  0.00    -0.014 A 
BRANCH  38  39
ATOM     39  C   UNL A   1      42.798  24.853  27.975  1.00  0.00     0.031 A 
ATOM     40  C   UNL A   1      41.711  25.869  28.207  1.00  0.00     0.074 A 
ATOM     41  C   UNL A   1      44.069  25.132  28.322  1.00  0.00     0.049 A 
ATOM     42  N   UNL A   1      41.812  27.079  28.696  1.00  0.00    -0.248 NA
ATOM     43  C   UNL A   1      40.337  25.483  27.848  1.00  0.00     0.031 C 
ATOM     44  C   UNL A   1      45.201  24.213  28.177  1.00  0.00     0.029 A 
ATOM     45  N   UNL A   1      44.617  26.241  28.913  1.00  0.00    -0.354 N 
ATOM     46  C   UNL A   1      40.525  27.605  28.681  1.00  0.00     0.074 A 
ATOM     47  C   UNL A   1      39.663  26.594  28.113  1.00  0.00     0.031 C 
ATOM     48  C   UNL A   1      46.285  24.759  28.744  1.00  0.00     0.029 A 
ATOM     49  C   UNL A   1      45.950  26.098  29.215  1.00  0.00     0.049 A 
ATOM     50  H   UNL A   1      44.106  27.062  29.102  1.00  0.00     0.167 HD
ATOM     51  C   UNL A   1      40.103  28.817  29.113  1.00  0.00     0.031 A 
ATOM     52  C   UNL A   1      46.816  26.948  29.797  1.00  0.00     0.031 A 
ATOM     53  C   UNL A   1      40.964  29.815  29.690  1.00  0.00     0.049 A 
ATOM     54  C   UNL A   1      46.333  28.305  30.214  1.00  0.00     0.074 A 
ATOM     55  C   UNL A   1      40.627  31.075  30.152  1.00  0.00     0.029 A 
ATOM     56  N   UNL A   1      42.326  29.663  29.892  1.00  0.00    -0.354 N 
ATOM     57  N   UNL A   1      45.118  28.795  30.166  1.00  0.00    -0.248 NA
ATOM     58  C   UNL A   1      47.338  29.232  30.752  1.00  0.00     0.031 C 
ATOM     59  C   UNL A   1      41.796  31.706  30.585  1.00  0.00     0.029 A 
ATOM     60  C   UNL A   1      42.849  30.816  30.452  1.00  0.00     0.049 A 
ATOM     61  H   UNL A   1      42.846  28.856  29.669  1.00  0.00     0.167 HD
ATOM     62  C   UNL A   1      45.209  30.084  30.670  1.00  0.00     0.074 A 
ATOM     63  C   UNL A   1      46.594  30.292  31.041  1.00  0.00     0.031 C 
ATOM     64  C   UNL A   1      44.232  31.012  30.806  1.00  0.00     0.031 A 
BRANCH  51  65
ATOM     65  C   UNL A   1      38.643  29.149  28.966  1.00  0.00    -0.014 A 
ATOM     66  C   UNL A   1      38.166  29.669  27.753  1.00  0.00     0.009 A 
ATOM     67  C   UNL A   1      37.757  29.028  30.047  1.00  0.00     0.009 A 
ATOM     68  C   UNL A   1      36.835  30.073  27.627  1.00  0.00     0.001 A 
ATOM     69  C   UNL A   1      36.419  29.407  29.911  1.00  0.00     0.001 A 
ATOM     70  C   UNL A   1      35.962  29.938  28.704  1.00  0.00     0.000 A 
ENDBRANCH  51  65
BRANCH  52  71
ATOM     71  C   UNL A   1      48.223  26.520  30.010  1.00  0.00    -0.014 A 
ATOM     72  C   UNL A   1      49.188  26.718  29.009  1.00  0.00     0.009 A 
ATOM     73  C   UNL A   1      48.591  25.849  31.185  1.00  0.00     0.009 A 
ATOM     74  C   UNL A   1      50.483  26.218  29.164  1.00  0.00     0.001 A 
ATOM     75  C   UNL A   1      49.897  25.378  31.350  1.00  0.00     0.001 A 
ATOM     76  C   UNL A   1      50.837  25.552  30.335  1.00  0.00     0.000 A 
ENDBRANCH  52  71
BRANCH  64  77
ATOM     77  C   UNL A   1      44.612  32.344  31.386  1.00  0.00    -0.014 A 
ATOM     78  C   UNL A   1      45.042  33.376  30.537  1.00  0.00     0.009 A 
ATOM     79  C   UNL A   1      44.640  32.544  32.773  1.00  0.00     0.009 A 
ATOM     80  C   UNL A   1      45.509  34.579  31.067  1.00  0.00     0.001 A 
ATOM     81  C   UNL A   1      45.083  33.760  33.299  1.00  0.00     0.001 A 
ATOM     82  C   UNL A   1      45.525  34.771  32.448  1.00  0.00     0.000 A 
ENDBRANCH  64  77
ENDBRANCH  38  39
ENDBRANCH  30  33
ENDBRANCH  28  29
ENDBRANCH  27  28
ENDBRANCH   1  27
TORSDOF 14
ENDMDL
MODEL 3
REMARK VINA RESULT:     -11.8      1.462      2.151
REMARK SMILES CC(C)CN(C)c1cc2c(cc1Cl)C=C(C(=O)NCCCNC(=O)c1ccc(-c3c4nc(c(-c5ccccc5)c5ccc([nH]5)c(-c5ccccc5)c5nc(c(-c6ccccc6)c6ccc3[nH]6)C=C5)C=C4)cc1)[C@@H](C(F)(F)F)O2
REMARK SMILES IDX 19 1 18 2 16 3 17 4 15 6 7 7 8 8 12 9 9 10 11 11 13 12 10 13
REMARK SMILES IDX 78 14 14 15 73 16 5 17 6 18 4 19 2 20 1 21 3 22 74 23 75 24
REMARK SMILES IDX 76 25 77 26 20 27 21 28 22 29 23 30 24 32 25 33 26 34 72 35
REMARK SMILES IDX 27 36 71 37 28 38 29 39 30 40 65 41 31 42 70 43 64 44 66 45
REMARK SMILES IDX 32 46 69 47 63 48 62 49 33 51 55 52 40 53 54 54 41 55 44 56
REMARK SMILES IDX 53 57 67 58 42 59 43 60 52 62 68 63 45 64 34 65 35 66 39 67
REMARK SMILES IDX 36 68 38 69 37 70 56 71 57 72 61 73 58 74 60 75 59 76 46 77
REMARK SMILES IDX 47 78 51 79 48 80 50 81 49 82
REMARK H PARENT 18 5 22 31 66 50 44 61
REMARK Flexibility Score: inf
ROOT
ATOM      1  C   UNL A   1      36.709  20.738  25.132  1.00  0.00     0.118 C 
ENDROOT
BRANCH   1   2
ATOM      2  N   UNL A   1      35.522  19.963  24.815  1.00  0.00    -0.352 N 
ATOM      3  C   UNL A   1      34.198  20.194  24.684  1.00  0.00     0.251 C 
ATOM      4  O   UNL A   1      33.516  19.204  24.402  1.00  0.00    -0.270 OA
ATOM      5  H   UNL A   1      35.740  19.016  24.654  1.00  0.00     0.163 HD
BRANCH   3   6
ATOM      6  C   UNL A   1      33.543  21.517  24.854  1.00  0.00     0.067 C 
ATOM      7  C   UNL A   1      31.731  26.163  24.159  1.00  0.00     0.059 A 
ATOM      8  C   UNL A   1      31.280  25.029  24.854  1.00  0.00     0.074 A 
ATOM      9  C   UNL A   1      32.951  26.056  23.448  1.00  0.00     0.065 A 
ATOM     10  C   UNL A   1      32.002  23.840  24.809  1.00  0.00     0.130 A 
ATOM     11  C   UNL A   1      33.612  24.830  23.320  1.00  0.00     0.034 A 
ATOM     12  Cl  UNL A   1      33.719  27.430  22.727  1.00  0.00    -0.082 Cl
ATOM     13  C   UNL A   1      33.128  23.715  23.992  1.00  0.00     0.019 A 
ATOM     14  O   UNL A   1      31.578  22.803  25.602  1.00  0.00    -0.475 OA
ATOM     15  C   UNL A   1      33.768  22.411  23.874  1.00  0.00     0.025 C 
ATOM     16  C   UNL A   1      32.664  21.912  26.007  1.00  0.00     0.314 C 
BRANCH   7  17
ATOM     17  N   UNL A   1      30.971  27.344  24.159  1.00  0.00    -0.373 N 
ATOM     18  C   UNL A   1      30.461  27.757  22.853  1.00  0.00     0.143 C 
BRANCH  17  19
ATOM     19  C   UNL A   1      31.438  28.423  25.056  1.00  0.00     0.119 C 
BRANCH  19  20
ATOM     20  C   UNL A   1      32.266  27.895  26.246  1.00  0.00     0.002 C 
ATOM     21  C   UNL A   1      33.666  28.515  26.301  1.00  0.00     0.009 C 
ATOM     22  C   UNL A   1      31.554  28.161  27.575  1.00  0.00     0.009 C 
ENDBRANCH  19  20
ENDBRANCH  17  19
ENDBRANCH   7  17
BRANCH  16  23
ATOM     23  C   UNL A   1      33.473  22.525  27.177  1.00  0.00     0.429 C 
ATOM     24  F   UNL A   1      32.652  23.213  28.009  1.00  0.00    -0.167 F 
ATOM     25  F   UNL A   1      34.079  21.575  27.934  1.00  0.00    -0.167 F 
ATOM     26  F   UNL A   1      34.445  23.372  26.778  1.00  0.00    -0.167 F 
ENDBRANCH  16  23
ENDBRANCH   3   6
ENDBRANCH   1   2
BRANCH   1  27
ATOM     27  C   UNL A   1      37.977  19.967  24.805  1.00  0.00     0.042 C 
BRANCH  27  28
ATOM     28  C   UNL A   1      39.111  20.289  25.766  1.00  0.00     0.118 C 
BRANCH  28  29
ATOM     29  N   UNL A   1      40.087  19.204  25.850  1.00  0.00    -0.352 N 
ATOM     30  C   UNL A   1      41.453  19.249  26.011  1.00  0.00     0.251 C 
ATOM     31  H   UNL A   1      39.707  18.298  25.780  1.00  0.00     0.163 HD
ATOM     32  O   UNL A   1      42.128  18.247  25.830  1.00  0.00    -0.269 OA
BRANCH  30  33
ATOM     33  C   UNL A   1      42.101  20.526  26.378  1.00  0.00     0.039 A 
ATOM     34  C   UNL A   1      42.268  20.866  27.719  1.00  0.00     0.014 A 
ATOM     35  C   UNL A   1      42.527  21.399  25.373  1.00  0.00     0.014 A 
ATOM     36  C   UNL A   1      42.655  22.154  28.055  1.00  0.00     0.010 A 
ATOM     37  C   UNL A   1      43.028  22.657  25.717  1.00  0.00     0.010 A 
ATOM     38  C   UNL A   1      43.042  23.066  27.059  1.00  0.00    -0.014 A 
BRANCH  38  39
ATOM     39  C   UNL A   1      43.449  24.437  27.462  1.00  0.00     0.031 A 
ATOM     40  C   UNL A   1      44.882  24.882  27.339  1.00  0.00     0.074 A 
ATOM     41  C   UNL A   1      42.501  25.310  27.852  1.00  0.00     0.049 A 
ATOM     42  N   UNL A   1      45.401  26.055  27.601  1.00  0.00    -0.248 NA
ATOM     43  C   UNL A   1      45.861  23.890  26.865  1.00  0.00     0.031 C 
ATOM     44  C   UNL A   1      41.074  25.003  27.973  1.00  0.00     0.029 A 
ATOM     45  N   UNL A   1      42.580  26.643  28.167  1.00  0.00    -0.354 N 
ATOM     46  C   UNL A   1      46.762  25.936  27.345  1.00  0.00     0.074 A 
ATOM     47  C   UNL A   1      46.996  24.571  26.932  1.00  0.00     0.031 C 
ATOM     48  C   UNL A   1      40.404  26.130  28.248  1.00  0.00     0.029 A 
ATOM     49  C   UNL A   1      41.358  27.221  28.408  1.00  0.00     0.049 A 
ATOM     50  H   UNL A   1      43.432  27.137  28.216  1.00  0.00     0.167 HD
ATOM     51  C   UNL A   1      47.725  26.884  27.436  1.00  0.00     0.031 A 
ATOM     52  C   UNL A   1      41.033  28.487  28.732  1.00  0.00     0.031 A 
ATOM     53  C   UNL A   1      47.484  28.246  27.835  1.00  0.00     0.049 A 
ATOM     54  C   UNL A   1      42.126  29.502  28.881  1.00  0.00     0.074 A 
ATOM     55  C   UNL A   1      48.398  29.277  27.963  1.00  0.00     0.029 A 
ATOM     56  N   UNL A   1      46.242  28.766  28.162  1.00  0.00    -0.354 N 
ATOM     57  N   UNL A   1      43.412  29.364  28.664  1.00  0.00    -0.248 NA
ATOM     58  C   UNL A   1      41.730  30.843  29.334  1.00  0.00     0.031 C 
ATOM     59  C   UNL A   1      47.716  30.408  28.417  1.00  0.00     0.029 A 
ATOM     60  C   UNL A   1      46.369  30.100  28.512  1.00  0.00     0.049 A 
ATOM     61  H   UNL A   1      45.395  28.263  28.148  1.00  0.00     0.167 HD
ATOM     62  C   UNL A   1      43.978  30.597  28.947  1.00  0.00     0.074 A 
ATOM     63  C   UNL A   1      42.894  31.479  29.330  1.00  0.00     0.031 C 
ATOM     64  C   UNL A   1      45.282  30.962  28.900  1.00  0.00     0.031 A 
BRANCH  51  65
ATOM     65  C   UNL A   1      49.140  26.486  27.117  1.00  0.00    -0.014 A 
ATOM     66  C   UNL A   1      49.586  26.508  25.786  1.00  0.00     0.009 A 
ATOM     67  C   UNL A   1      50.005  26.011  28.114  1.00  0.00     0.009 A 
ATOM     68  C   UNL A   1      50.863  26.052  25.457  1.00  0.00     0.001 A 
ATOM     69  C   UNL A   1      51.293  25.580  27.786  1.00  0.00     0.001 A 
ATOM     70  C   UNL A   1      51.717  25.592  26.458  1.00  0.00     0.000 A 
ENDBRANCH  51  65
BRANCH  52  71
ATOM     71  C   UNL A   1      39.604  28.842  28.932  1.00  0.00    -0.014 A 
ATOM     72  C   UNL A   1      38.994  28.666  30.185  1.00  0.00     0.009 A 
ATOM     73  C   UNL A   1      38.826  29.290  27.854  1.00  0.00     0.009 A 
ATOM     74  C   UNL A   1      37.626  28.895  30.346  1.00  0.00     0.001 A 
ATOM     75  C   UNL A   1      37.463  29.548  28.027  1.00  0.00     0.001 A 
ATOM     76  C   UNL A   1      36.863  29.339  29.268  1.00  0.00     0.000 A 
ENDBRANCH  52  71
BRANCH  64  77
ATOM     77  C   UNL A   1      45.623  32.378  29.265  1.00  0.00    -0.014 A 
ATOM     78  C   UNL A   1      45.877  32.710  30.605  1.00  0.00     0.009 A 
ATOM     79  C   UNL A   1      45.595  33.396  28.302  1.00  0.00     0.009 A 
ATOM     80  C   UNL A   1      46.080  34.039  30.977  1.00  0.00     0.001 A 
ATOM     81  C   UNL A   1      45.826  34.722  28.674  1.00  0.00     0.001 A 
ATOM     82  C   UNL A   1      46.059  35.043  30.010  1.00  0.00     0.000 A 
ENDBRANCH  64  77
ENDBRANCH  38  39
ENDBRANCH  30  33
ENDBRANCH  28  29
ENDBRANCH  27  28
ENDBRANCH   1  27
TORSDOF 14
ENDMDL
