MODEL 1
REMARK VINA RESULT:     -10.8      0.000      0.000
REMARK SMILES CC[C@H](Oc1c(C)cc(Br)cc1C)C(=O)NCCCNC(=O)c1ccc(-c2c3nc(c(-c4ccccc4)c4ccc([nH]4)c(-c4ccccc4)c4nc(c(-c5ccccc5)c5ccc2[nH]5)C=C4)C=C3)cc1
REMARK SMILES IDX 18 1 17 2 16 3 14 4 15 5 3 7 2 8 1 9 4 10 5 11 6 12 12 13
REMARK SMILES IDX 7 14 8 15 11 16 13 17 9 18 10 19 19 20 20 21 21 22 22 24
REMARK SMILES IDX 23 25 24 26 70 27 25 28 69 29 26 30 27 31 28 32 63 33 29 34
REMARK SMILES IDX 68 35 62 36 64 37 30 38 67 39 61 40 60 41 31 43 53 44 38 45
REMARK SMILES IDX 52 46 39 47 42 48 51 49 65 50 40 51 41 52 50 54 66 55 43 56
REMARK SMILES IDX 32 57 33 58 37 59 34 60 36 61 35 62 54 63 55 64 59 65 56 66
REMARK SMILES IDX 58 67 57 68 44 69 45 70 49 71 46 72 48 73 47 74
REMARK H PARENT 16 6 20 23 64 42 42 53
REMARK Flexibility Score: inf
ROOT
ATOM      1  C   UNL A   1      37.803  20.391  24.816  1.00  0.00     0.042 C 
ENDROOT
BRANCH   1   2
ATOM      2  C   UNL A   1      36.443  20.899  25.267  1.00  0.00     0.118 C 
BRANCH   2   3
ATOM      3  N   UNL A   1      35.406  19.900  25.112  1.00  0.00    -0.353 N 
ATOM      4  C   UNL A   1      34.060  20.022  25.008  1.00  0.00     0.261 C 
ATOM      5  O   UNL A   1      33.431  18.973  24.822  1.00  0.00    -0.271 OA
ATOM      6  H   UNL A   1      35.735  18.974  25.077  1.00  0.00     0.163 HD
BRANCH   4   7
ATOM      7  C   UNL A   1      33.319  21.375  25.035  1.00  0.00     0.261 C 
BRANCH   7   8
ATOM      8  C   UNL A   1      33.350  22.075  23.661  1.00  0.00     0.052 C 
ATOM      9  C   UNL A   1      32.100  21.952  22.801  1.00  0.00     0.008 C 
ENDBRANCH   7   8
BRANCH   7  10
ATOM     10  O   UNL A   1      33.661  22.306  26.052  1.00  0.00    -0.480 OA
BRANCH  10  11
ATOM     11  C   UNL A   1      33.098  23.563  26.091  1.00  0.00     0.126 A 
ATOM     12  C   UNL A   1      31.737  23.894  26.290  1.00  0.00    -0.008 A 
ATOM     13  C   UNL A   1      34.014  24.611  25.809  1.00  0.00    -0.008 A 
ATOM     14  C   UNL A   1      30.593  22.925  26.445  1.00  0.00     0.048 C 
ATOM     15  C   UNL A   1      31.355  25.255  26.329  1.00  0.00     0.023 A 
ATOM     16  C   UNL A   1      33.591  25.953  25.818  1.00  0.00     0.023 A 
ATOM     17  C   UNL A   1      35.458  24.375  25.450  1.00  0.00     0.048 C 
ATOM     18  C   UNL A   1      32.272  26.271  26.095  1.00  0.00     0.018 A 
ATOM     19  Br  UNL A   1      31.710  28.074  26.105  1.00  0.00    -0.051 Br
ENDBRANCH  10  11
ENDBRANCH   7  10
ENDBRANCH   4   7
ENDBRANCH   2   3
ENDBRANCH   1   2
BRANCH   1  20
ATOM     20  C   UNL A   1      38.926  20.643  25.814  1.00  0.00     0.118 C 
BRANCH  20  21
ATOM     21  N   UNL A   1      39.918  19.573  25.860  1.00  0.00    -0.352 N 
ATOM     22  C   UNL A   1      41.258  19.639  26.161  1.00  0.00     0.251 C 
ATOM     23  H   UNL A   1      39.579  18.675  25.642  1.00  0.00     0.163 HD
ATOM     24  O   UNL A   1      41.981  18.655  26.030  1.00  0.00    -0.269 OA
BRANCH  22  25
ATOM     25  C   UNL A   1      41.830  20.923  26.610  1.00  0.00     0.039 A 
ATOM     26  C   UNL A   1      42.344  21.813  25.664  1.00  0.00     0.014 A 
ATOM     27  C   UNL A   1      41.781  21.271  27.960  1.00  0.00     0.014 A 
ATOM     28  C   UNL A   1      42.711  23.101  26.061  1.00  0.00     0.010 A 
ATOM     29  C   UNL A   1      42.053  22.579  28.334  1.00  0.00     0.010 A 
ATOM     30  C   UNL A   1      42.513  23.510  27.388  1.00  0.00    -0.014 A 
BRANCH  30  31
ATOM     31  C   UNL A   1      42.776  24.898  27.847  1.00  0.00     0.031 A 
ATOM     32  C   UNL A   1      44.158  25.266  28.312  1.00  0.00     0.074 A 
ATOM     33  C   UNL A   1      41.762  25.773  27.988  1.00  0.00     0.049 A 
ATOM     34  N   UNL A   1      44.553  26.312  28.988  1.00  0.00    -0.248 NA
ATOM     35  C   UNL A   1      45.224  24.293  28.023  1.00  0.00     0.031 C 
ATOM     36  C   UNL A   1      40.367  25.530  27.616  1.00  0.00     0.029 A 
ATOM     37  N   UNL A   1      41.750  27.039  28.518  1.00  0.00    -0.354 N 
ATOM     38  C   UNL A   1      45.895  26.088  29.266  1.00  0.00     0.074 A 
ATOM     39  C   UNL A   1      46.237  24.798  28.710  1.00  0.00     0.031 C 
ATOM     40  C   UNL A   1      39.636  26.617  27.919  1.00  0.00     0.029 A 
ATOM     41  C   UNL A   1      40.500  27.608  28.552  1.00  0.00     0.049 A 
ATOM     42  H   UNL A   1      42.560  27.495  28.842  1.00  0.00     0.167 HD
ATOM     43  C   UNL A   1      46.769  26.889  29.921  1.00  0.00     0.031 A 
ATOM     44  C   UNL A   1      40.091  28.788  29.056  1.00  0.00     0.031 A 
ATOM     45  C   UNL A   1      46.442  28.196  30.422  1.00  0.00     0.049 A 
ATOM     46  C   UNL A   1      41.089  29.693  29.717  1.00  0.00     0.074 A 
ATOM     47  C   UNL A   1      47.274  29.122  31.027  1.00  0.00     0.029 A 
ATOM     48  N   UNL A   1      45.181  28.768  30.358  1.00  0.00    -0.354 N 
ATOM     49  N   UNL A   1      42.363  29.486  29.945  1.00  0.00    -0.248 NA
ATOM     50  C   UNL A   1      40.595  30.996  30.187  1.00  0.00     0.031 C 
ATOM     51  C   UNL A   1      46.508  30.247  31.351  1.00  0.00     0.029 A 
ATOM     52  C   UNL A   1      45.210  30.034  30.914  1.00  0.00     0.049 A 
ATOM     53  H   UNL A   1      44.383  28.337  29.975  1.00  0.00     0.167 HD
ATOM     54  C   UNL A   1      42.831  30.640  30.561  1.00  0.00     0.074 A 
ATOM     55  C   UNL A   1      41.704  31.544  30.667  1.00  0.00     0.031 C 
ATOM     56  C   UNL A   1      44.081  30.924  30.997  1.00  0.00     0.031 A 
BRANCH  43  57
ATOM     57  C   UNL A   1      48.156  26.355  30.137  1.00  0.00    -0.014 A 
ATOM     58  C   UNL A   1      49.135  26.436  29.134  1.00  0.00     0.009 A 
ATOM     59  C   UNL A   1      48.484  25.749  31.360  1.00  0.00     0.009 A 
ATOM     60  C   UNL A   1      50.397  25.872  29.331  1.00  0.00     0.001 A 
ATOM     61  C   UNL A   1      49.756  25.213  31.565  1.00  0.00     0.001 A 
ATOM     62  C   UNL A   1      50.706  25.261  30.546  1.00  0.00     0.000 A 
ENDBRANCH  43  57
BRANCH  44  63
ATOM     63  C   UNL A   1      38.664  29.181  28.939  1.00  0.00    -0.014 A 
ATOM     64  C   UNL A   1      38.166  29.674  27.723  1.00  0.00     0.009 A 
ATOM     65  C   UNL A   1      37.787  29.036  30.025  1.00  0.00     0.009 A 
ATOM     66  C   UNL A   1      36.821  30.029  27.601  1.00  0.00     0.001 A 
ATOM     67  C   UNL A   1      36.437  29.371  29.892  1.00  0.00     0.001 A 
ATOM     68  C   UNL A   1      35.957  29.872  28.683  1.00  0.00     0.000 A 
ENDBRANCH  44  63
BRANCH  56  69
ATOM     69  C   UNL A   1      44.314  32.282  31.587  1.00  0.00    -0.014 A 
ATOM     70  C   UNL A   1      44.196  32.504  32.966  1.00  0.00     0.009 A 
ATOM     71  C   UNL A   1      44.730  33.334  30.756  1.00  0.00     0.009 A 
ATOM     72  C   UNL A   1      44.476  33.764  33.500  1.00  0.00     0.001 A 
ATOM     73  C   UNL A   1      45.028  34.586  31.296  1.00  0.00     0.001 A 
ATOM     74  C   UNL A   1      44.897  34.800  32.667  1.00  0.00     0.000 A 
ENDBRANCH  56  69
ENDBRANCH  30  31
ENDBRANCH  22  25
ENDBRANCH  20  21
ENDBRANCH   1  20
TORSDOF 13
ENDMDL
MODEL 2
REMARK VINA RESULT:     -10.8      2.539      7.566
REMARK SMILES CC[C@H](Oc1c(C)cc(Br)cc1C)C(=O)NCCCNC(=O)c1ccc(-c2c3nc(c(-c4ccccc4)c4ccc([nH]4)c(-c4ccccc4)c4nc(c(-c5ccccc5)c5ccc2[nH]5)C=C4)C=C3)cc1
REMARK SMILES IDX 18 1 17 2 16 3 14 4 15 5 3 7 2 8 1 9 4 10 5 11 6 12 12 13
REMARK SMILES IDX 7 14 8 15 11 16 13 17 9 18 10 19 19 20 20 21 21 22 22 24
REMARK SMILES IDX 23 25 24 26 70 27 25 28 69 29 26 30 27 31 28 32 63 33 29 34
REMARK SMILES IDX 68 35 62 36 64 37 30 38 67 39 61 40 60 41 31 43 53 44 38 45
REMARK SMILES IDX 52 46 39 47 42 48 51 49 65 50 40 51 41 52 50 54 66 55 43 56
REMARK SMILES IDX 32 57 33 58 37 59 34 60 36 61 35 62 54 63 55 64 59 65 56 66
REMARK SMILES IDX 58 67 57 68 44 69 45 70 49 71 46 72 48 73 47 74
REMARK H PARENT 16 6 20 23 64 42 42 53
REMARK Flexibility Score: inf
ROOT
ATOM      1  C   UNL A   1      32.603  28.525  27.388  1.00  0.00     0.042 C 
ENDROOT
BRANCH   1   2
ATOM      2  C   UNL A   1      32.563  27.244  26.570  1.00  0.00     0.118 C 
BRANCH   2   3
ATOM      3  N   UNL A   1      31.347  26.491  26.792  1.00  0.00    -0.353 N 
ATOM      4  C   UNL A   1      30.816  25.438  26.123  1.00  0.00     0.261 C 
ATOM      5  O   UNL A   1      29.776  24.961  26.594  1.00  0.00    -0.271 OA
ATOM      6  H   UNL A   1      30.814  26.795  27.560  1.00  0.00     0.163 HD
BRANCH   4   7
ATOM      7  C   UNL A   1      31.476  24.788  24.889  1.00  0.00     0.261 C 
BRANCH   7   8
ATOM      8  C   UNL A   1      30.627  24.979  23.615  1.00  0.00     0.052 C 
ATOM      9  C   UNL A   1      31.127  26.001  22.605  1.00  0.00     0.008 C 
ENDBRANCH   7   8
BRANCH   7  10
ATOM     10  O   UNL A   1      31.892  23.433  24.987  1.00  0.00    -0.480 OA
BRANCH  10  11
ATOM     11  C   UNL A   1      33.224  23.088  24.945  1.00  0.00     0.126 A 
ATOM     12  C   UNL A   1      34.060  23.006  23.805  1.00  0.00    -0.008 A 
ATOM     13  C   UNL A   1      33.755  22.693  26.201  1.00  0.00    -0.008 A 
ATOM     14  C   UNL A   1      33.646  23.228  22.374  1.00  0.00     0.048 C 
ATOM     15  C   UNL A   1      35.422  22.661  23.970  1.00  0.00     0.023 A 
ATOM     16  C   UNL A   1      35.106  22.317  26.322  1.00  0.00     0.023 A 
ATOM     17  C   UNL A   1      32.930  22.610  27.459  1.00  0.00     0.048 C 
ATOM     18  C   UNL A   1      35.936  22.321  25.213  1.00  0.00     0.018 A 
ATOM     19  Br  UNL A   1      37.748  21.816  25.381  1.00  0.00    -0.051 Br
ENDBRANCH  10  11
ENDBRANCH   7  10
ENDBRANCH   4   7
ENDBRANCH   2   3
ENDBRANCH   1   2
BRANCH   1  20
ATOM     20  C   UNL A   1      33.676  29.513  26.949  1.00  0.00     0.118 C 
BRANCH  20  21
ATOM     21  N   UNL A   1      33.772  30.691  27.806  1.00  0.00    -0.352 N 
ATOM     22  C   UNL A   1      34.786  31.074  28.651  1.00  0.00     0.251 C 
ATOM     23  H   UNL A   1      32.997  31.298  27.775  1.00  0.00     0.163 HD
ATOM     24  O   UNL A   1      34.651  32.038  29.400  1.00  0.00    -0.269 OA
BRANCH  22  25
ATOM     25  C   UNL A   1      36.034  30.287  28.677  1.00  0.00     0.039 A 
ATOM     26  C   UNL A   1      36.866  30.285  27.555  1.00  0.00     0.014 A 
ATOM     27  C   UNL A   1      36.410  29.618  29.842  1.00  0.00     0.014 A 
ATOM     28  C   UNL A   1      38.132  29.698  27.639  1.00  0.00     0.010 A 
ATOM     29  C   UNL A   1      37.701  29.125  29.954  1.00  0.00     0.010 A 
ATOM     30  C   UNL A   1      38.579  29.166  28.858  1.00  0.00    -0.014 A 
BRANCH  30  31
ATOM     31  C   UNL A   1      39.952  28.633  29.043  1.00  0.00     0.031 A 
ATOM     32  C   UNL A   1      41.056  29.573  29.441  1.00  0.00     0.074 A 
ATOM     33  C   UNL A   1      40.238  27.359  28.712  1.00  0.00     0.049 A 
ATOM     34  N   UNL A   1      42.350  29.395  29.404  1.00  0.00    -0.248 NA
ATOM     35  C   UNL A   1      40.641  30.914  29.887  1.00  0.00     0.031 C 
ATOM     36  C   UNL A   1      39.271  26.353  28.269  1.00  0.00     0.029 A 
ATOM     37  N   UNL A   1      41.444  26.703  28.668  1.00  0.00    -0.354 N 
ATOM     38  C   UNL A   1      42.903  30.620  29.753  1.00  0.00     0.074 A 
ATOM     39  C   UNL A   1      41.806  31.537  29.970  1.00  0.00     0.031 C 
ATOM     40  C   UNL A   1      39.919  25.205  28.009  1.00  0.00     0.029 A 
ATOM     41  C   UNL A   1      41.349  25.409  28.216  1.00  0.00     0.049 A 
ATOM     42  H   UNL A   1      42.295  27.121  28.935  1.00  0.00     0.167 HD
ATOM     43  C   UNL A   1      44.209  30.952  29.887  1.00  0.00     0.031 A 
ATOM     44  C   UNL A   1      42.309  24.496  27.975  1.00  0.00     0.031 A 
ATOM     45  C   UNL A   1      45.294  30.025  29.728  1.00  0.00     0.049 A 
ATOM     46  C   UNL A   1      43.748  24.862  28.197  1.00  0.00     0.074 A 
ATOM     47  C   UNL A   1      46.648  30.238  29.922  1.00  0.00     0.029 A 
ATOM     48  N   UNL A   1      45.145  28.698  29.351  1.00  0.00    -0.354 N 
ATOM     49  N   UNL A   1      44.257  26.014  28.559  1.00  0.00    -0.248 NA
ATOM     50  C   UNL A   1      44.743  23.802  27.981  1.00  0.00     0.031 C 
ATOM     51  C   UNL A   1      47.321  29.044  29.639  1.00  0.00     0.029 A 
ATOM     52  C   UNL A   1      46.381  28.081  29.307  1.00  0.00     0.049 A 
ATOM     53  H   UNL A   1      44.287  28.262  29.147  1.00  0.00     0.167 HD
ATOM     54  C   UNL A   1      45.629  25.813  28.640  1.00  0.00     0.074 A 
ATOM     55  C   UNL A   1      45.871  24.427  28.293  1.00  0.00     0.031 C 
ATOM     56  C   UNL A   1      46.599  26.696  28.973  1.00  0.00     0.031 A 
BRANCH  43  57
ATOM     57  C   UNL A   1      44.520  32.385  30.211  1.00  0.00    -0.014 A 
ATOM     58  C   UNL A   1      44.629  32.828  31.539  1.00  0.00     0.009 A 
ATOM     59  C   UNL A   1      44.693  33.310  29.170  1.00  0.00     0.009 A 
ATOM     60  C   UNL A   1      44.851  34.178  31.817  1.00  0.00     0.001 A 
ATOM     61  C   UNL A   1      44.945  34.654  29.452  1.00  0.00     0.001 A 
ATOM     62  C   UNL A   1      45.009  35.089  30.774  1.00  0.00     0.000 A 
ENDBRANCH  43  57
BRANCH  44  63
ATOM     63  C   UNL A   1      41.929  23.138  27.507  1.00  0.00    -0.014 A 
ATOM     64  C   UNL A   1      41.530  22.161  28.431  1.00  0.00     0.009 A 
ATOM     65  C   UNL A   1      41.932  22.823  26.140  1.00  0.00     0.009 A 
ATOM     66  C   UNL A   1      41.154  20.888  27.996  1.00  0.00     0.001 A 
ATOM     67  C   UNL A   1      41.535  21.555  25.707  1.00  0.00     0.001 A 
ATOM     68  C   UNL A   1      41.151  20.588  26.635  1.00  0.00     0.000 A 
ENDBRANCH  44  63
BRANCH  56  69
ATOM     69  C   UNL A   1      48.009  26.187  29.027  1.00  0.00    -0.014 A 
ATOM     70  C   UNL A   1      48.828  26.199  27.889  1.00  0.00     0.009 A 
ATOM     71  C   UNL A   1      48.542  25.758  30.252  1.00  0.00     0.009 A 
ATOM     72  C   UNL A   1      50.155  25.775  27.976  1.00  0.00     0.001 A 
ATOM     73  C   UNL A   1      49.874  25.354  30.340  1.00  0.00     0.001 A 
ATOM     74  C   UNL A   1      50.678  25.359  29.201  1.00  0.00     0.000 A 
ENDBRANCH  56  69
ENDBRANCH  30  31
ENDBRANCH  22  25
ENDBRANCH  20  21
ENDBRANCH   1  20
TORSDOF 13
ENDMDL
MODEL 3
REMARK VINA RESULT:     -10.7      1.216      6.241
REMARK SMILES CC[C@H](Oc1c(C)cc(Br)cc1C)C(=O)NCCCNC(=O)c1ccc(-c2c3nc(c(-c4ccccc4)c4ccc([nH]4)c(-c4ccccc4)c4nc(c(-c5ccccc5)c5ccc2[nH]5)C=C4)C=C3)cc1
REMARK SMILES IDX 18 1 17 2 16 3 14 4 15 5 3 7 2 8 1 9 4 10 5 11 6 12 12 13
REMARK SMILES IDX 7 14 8 15 11 16 13 17 9 18 10 19 19 20 20 21 21 22 22 24
REMARK SMILES IDX 23 25 24 26 70 27 25 28 69 29 26 30 27 31 28 32 63 33 29 34
REMARK SMILES IDX 68 35 62 36 64 37 30 38 67 39 61 40 60 41 31 43 53 44 38 45
REMARK SMILES IDX 52 46 39 47 42 48 51 49 65 50 40 51 41 52 50 54 66 55 43 56
REMARK SMILES IDX 32 57 33 58 37 59 34 60 36 61 35 62 54 63 55 64 59 65 56 66
REMARK SMILES IDX 58 67 57 68 44 69 45 70 49 71 46 72 48 73 47 74
REMARK H PARENT 16 6 20 23 64 42 42 53
REMARK Flexibility Score: inf
ROOT
ATOM      1  C   UNL A   1      37.113  19.417  24.975  1.00  0.00     0.042 C 
ENDROOT
BRANCH   1   2
ATOM      2  C   UNL A   1      35.881  20.307  24.982  1.00  0.00     0.118 C 
BRANCH   2   3
ATOM      3  N   UNL A   1      34.661  19.552  25.177  1.00  0.00    -0.353 N 
ATOM      4  C   UNL A   1      33.368  19.952  25.253  1.00  0.00     0.261 C 
ATOM      5  O   UNL A   1      32.525  19.053  25.365  1.00  0.00    -0.271 OA
ATOM      6  H   UNL A   1      34.793  18.582  25.270  1.00  0.00     0.163 HD
BRANCH   4   7
ATOM      7  C   UNL A   1      32.919  21.424  25.131  1.00  0.00     0.261 C 
BRANCH   7   8
ATOM      8  C   UNL A   1      33.047  21.946  23.686  1.00  0.00     0.052 C 
ATOM      9  C   UNL A   1      31.768  22.426  23.015  1.00  0.00     0.008 C 
ENDBRANCH   7   8
BRANCH   7  10
ATOM     10  O   UNL A   1      33.477  22.370  26.032  1.00  0.00    -0.480 OA
BRANCH  10  11
ATOM     11  C   UNL A   1      32.990  23.656  26.112  1.00  0.00     0.126 A 
ATOM     12  C   UNL A   1      31.666  24.062  26.405  1.00  0.00    -0.008 A 
ATOM     13  C   UNL A   1      33.941  24.652  25.768  1.00  0.00    -0.008 A 
ATOM     14  C   UNL A   1      30.483  23.157  26.638  1.00  0.00     0.048 C 
ATOM     15  C   UNL A   1      31.365  25.442  26.472  1.00  0.00     0.023 A 
ATOM     16  C   UNL A   1      33.595  26.017  25.807  1.00  0.00     0.023 A 
ATOM     17  C   UNL A   1      35.341  24.338  25.310  1.00  0.00     0.048 C 
ATOM     18  C   UNL A   1      32.318  26.406  26.176  1.00  0.00     0.018 A 
ATOM     19  Br  UNL A   1      31.860  28.237  26.227  1.00  0.00    -0.051 Br
ENDBRANCH  10  11
ENDBRANCH   7  10
ENDBRANCH   4   7
ENDBRANCH   2   3
ENDBRANCH   1   2
BRANCH   1  20
ATOM     20  C   UNL A   1      38.408  20.139  25.325  1.00  0.00     0.118 C 
BRANCH  20  21
ATOM     21  N   UNL A   1      39.549  19.245  25.496  1.00  0.00    -0.352 N 
ATOM     22  C   UNL A   1      40.799  19.512  26.002  1.00  0.00     0.251 C 
ATOM     23  H   UNL A   1      39.402  18.315  25.206  1.00  0.00     0.163 HD
ATOM     24  O   UNL A   1      41.689  18.668  25.959  1.00  0.00    -0.269 OA
BRANCH  22  25
ATOM     25  C   UNL A   1      41.072  20.848  26.567  1.00  0.00     0.039 A 
ATOM     26  C   UNL A   1      41.239  20.988  27.946  1.00  0.00     0.014 A 
ATOM     27  C   UNL A   1      41.241  21.941  25.716  1.00  0.00     0.014 A 
ATOM     28  C   UNL A   1      41.681  22.208  28.465  1.00  0.00     0.010 A 
ATOM     29  C   UNL A   1      41.773  23.117  26.221  1.00  0.00     0.010 A 
ATOM     30  C   UNL A   1      42.007  23.262  27.599  1.00  0.00    -0.014 A 
BRANCH  30  31
ATOM     31  C   UNL A   1      42.589  24.541  28.078  1.00  0.00     0.031 A 
ATOM     32  C   UNL A   1      41.669  25.663  28.471  1.00  0.00     0.074 A 
ATOM     33  C   UNL A   1      43.919  24.749  28.019  1.00  0.00     0.049 A 
ATOM     34  N   UNL A   1      41.938  26.928  28.661  1.00  0.00    -0.248 NA
ATOM     35  C   UNL A   1      40.244  25.319  28.611  1.00  0.00     0.031 C 
ATOM     36  C   UNL A   1      44.921  23.761  27.615  1.00  0.00     0.029 A 
ATOM     37  N   UNL A   1      44.652  25.882  28.271  1.00  0.00    -0.354 N 
ATOM     38  C   UNL A   1      40.710  27.541  28.872  1.00  0.00     0.074 A 
ATOM     39  C   UNL A   1      39.696  26.515  28.760  1.00  0.00     0.031 C 
ATOM     40  C   UNL A   1      46.138  24.328  27.657  1.00  0.00     0.029 A 
ATOM     41  C   UNL A   1      45.997  25.729  28.039  1.00  0.00     0.049 A 
ATOM     42  H   UNL A   1      44.250  26.725  28.587  1.00  0.00     0.167 HD
ATOM     43  C   UNL A   1      40.448  28.842  29.143  1.00  0.00     0.031 A 
ATOM     44  C   UNL A   1      47.002  26.622  28.106  1.00  0.00     0.031 A 
ATOM     45  C   UNL A   1      41.461  29.847  29.312  1.00  0.00     0.049 A 
ATOM     46  C   UNL A   1      46.700  28.046  28.477  1.00  0.00     0.074 A 
ATOM     47  C   UNL A   1      41.308  31.175  29.668  1.00  0.00     0.029 A 
ATOM     48  N   UNL A   1      42.820  29.626  29.151  1.00  0.00    -0.354 N 
ATOM     49  N   UNL A   1      45.539  28.607  28.708  1.00  0.00    -0.248 NA
ATOM     50  C   UNL A   1      47.847  28.957  28.600  1.00  0.00     0.031 C 
ATOM     51  C   UNL A   1      42.576  31.765  29.700  1.00  0.00     0.029 A 
ATOM     52  C   UNL A   1      43.518  30.794  29.400  1.00  0.00     0.049 A 
ATOM     53  H   UNL A   1      43.228  28.767  28.898  1.00  0.00     0.167 HD
ATOM     54  C   UNL A   1      45.814  29.930  29.028  1.00  0.00     0.074 A 
ATOM     55  C   UNL A   1      47.253  30.085  28.966  1.00  0.00     0.031 C 
ATOM     56  C   UNL A   1      44.952  30.924  29.347  1.00  0.00     0.031 A 
BRANCH  43  57
ATOM     57  C   UNL A   1      39.005  29.239  29.258  1.00  0.00    -0.014 A 
ATOM     58  C   UNL A   1      38.319  29.158  30.481  1.00  0.00     0.009 A 
ATOM     59  C   UNL A   1      38.315  29.688  28.121  1.00  0.00     0.009 A 
ATOM     60  C   UNL A   1      36.960  29.467  30.551  1.00  0.00     0.001 A 
ATOM     61  C   UNL A   1      36.963  30.026  28.201  1.00  0.00     0.001 A 
ATOM     62  C   UNL A   1      36.283  29.901  29.411  1.00  0.00     0.000 A 
ENDBRANCH  43  57
BRANCH  44  63
ATOM     63  C   UNL A   1      48.393  26.184  27.828  1.00  0.00    -0.014 A 
ATOM     64  C   UNL A   1      49.177  25.632  28.852  1.00  0.00     0.009 A 
ATOM     65  C   UNL A   1      48.933  26.285  26.536  1.00  0.00     0.009 A 
ATOM     66  C   UNL A   1      50.480  25.201  28.592  1.00  0.00     0.001 A 
ATOM     67  C   UNL A   1      50.229  25.833  26.275  1.00  0.00     0.001 A 
ATOM     68  C   UNL A   1      51.003  25.297  27.304  1.00  0.00     0.000 A 
ENDBRANCH  44  63
BRANCH  56  69
ATOM     69  C   UNL A   1      45.537  32.259  29.699  1.00  0.00    -0.014 A 
ATOM     70  C   UNL A   1      45.614  33.291  28.752  1.00  0.00     0.009 A 
ATOM     71  C   UNL A   1      45.949  32.506  31.018  1.00  0.00     0.009 A 
ATOM     72  C   UNL A   1      46.108  34.544  29.120  1.00  0.00     0.001 A 
ATOM     73  C   UNL A   1      46.424  33.765  31.386  1.00  0.00     0.001 A 
ATOM     74  C   UNL A   1      46.507  34.781  30.435  1.00  0.00     0.000 A 
ENDBRANCH  56  69
ENDBRANCH  30  31
ENDBRANCH  22  25
ENDBRANCH  20  21
ENDBRANCH   1  20
TORSDOF 13
ENDMDL
