MODEL 1
REMARK VINA RESULT:     -11.5      0.000      0.000
REMARK SMILES Cc1cc(C)cc(-c2ccc([C@@H](C)C(=O)NCCCNC(=O)c3ccc(-c4c5nc(c(-c6ccccc6)c6ccc([nH]6)c(-c6ccccc6)c6nc(c(-c7ccccc7)c7ccc4[nH]7)C=C6)C=C5)cc3)cc2F)c1
REMARK SMILES IDX 18 1 17 2 16 3 14 4 15 5 12 7 13 8 11 9 8 10 9 11 72 12
REMARK SMILES IDX 10 13 71 14 73 15 7 16 1 17 2 18 3 19 74 20 4 21 5 22 6 23
REMARK SMILES IDX 19 24 20 25 21 26 22 28 23 29 24 30 70 31 25 32 69 33 26 34
REMARK SMILES IDX 27 35 28 36 63 37 29 38 68 39 62 40 64 41 30 42 67 43 61 44
REMARK SMILES IDX 60 45 31 47 53 48 38 49 52 50 39 51 42 52 51 53 65 54 40 55
REMARK SMILES IDX 41 56 50 58 66 59 43 60 32 61 33 62 37 63 34 64 36 65 35 66
REMARK SMILES IDX 54 67 55 68 59 69 56 70 58 71 57 72 44 73 45 74 49 75 46 76
REMARK SMILES IDX 48 77 47 78
REMARK H PARENT 16 6 20 27 64 46 42 57
REMARK Flexibility Score: inf
ROOT
ATOM      1  C   UNL A   1      35.249  22.585  26.078  1.00  0.00     0.042 C 
ENDROOT
BRANCH   1   2
ATOM      2  C   UNL A   1      35.214  21.434  25.077  1.00  0.00     0.117 C 
BRANCH   2   3
ATOM      3  N   UNL A   1      34.396  20.333  25.545  1.00  0.00    -0.356 N 
ATOM      4  C   UNL A   1      33.103  19.986  25.302  1.00  0.00     0.227 C 
ATOM      5  O   UNL A   1      32.671  19.023  25.947  1.00  0.00    -0.274 OA
ATOM      6  H   UNL A   1      34.865  19.720  26.156  1.00  0.00     0.163 HD
BRANCH   4   7
ATOM      7  C   UNL A   1      32.188  20.705  24.298  1.00  0.00     0.105 C 
ATOM      8  C   UNL A   1      32.370  20.261  22.847  1.00  0.00     0.023 C 
BRANCH   7   9
ATOM      9  C   UNL A   1      32.108  22.207  24.517  1.00  0.00    -0.033 A 
ATOM     10  C   UNL A   1      32.112  25.017  25.062  1.00  0.00     0.017 A 
ATOM     11  C   UNL A   1      32.548  24.500  23.830  1.00  0.00     0.012 A 
ATOM     12  C   UNL A   1      31.639  24.088  25.999  1.00  0.00     0.131 A 
ATOM     13  C   UNL A   1      32.507  23.131  23.550  1.00  0.00     0.005 A 
ATOM     14  C   UNL A   1      31.651  22.712  25.745  1.00  0.00     0.044 A 
ATOM     15  F   UNL A   1      31.155  24.501  27.181  1.00  0.00    -0.206 F 
BRANCH  10  16
ATOM     16  C   UNL A   1      32.180  26.472  25.318  1.00  0.00    -0.015 A 
ATOM     17  C   UNL A   1      34.273  29.010  27.270  1.00  0.00     0.044 C 
ATOM     18  C   UNL A   1      33.244  28.423  26.351  1.00  0.00    -0.050 A 
ATOM     19  C   UNL A   1      32.364  29.267  25.665  1.00  0.00     0.006 A 
ATOM     20  C   UNL A   1      33.145  27.034  26.171  1.00  0.00     0.012 A 
ATOM     21  C   UNL A   1      31.391  28.741  24.812  1.00  0.00    -0.050 A 
ATOM     22  C   UNL A   1      30.458  29.650  24.070  1.00  0.00     0.044 C 
ATOM     23  C   UNL A   1      31.299  27.353  24.661  1.00  0.00     0.012 A 
ENDBRANCH  10  16
ENDBRANCH   7   9
ENDBRANCH   4   7
ENDBRANCH   2   3
ENDBRANCH   1   2
BRANCH   1  24
ATOM     24  C   UNL A   1      36.567  23.344  26.083  1.00  0.00     0.118 C 
BRANCH  24  25
ATOM     25  N   UNL A   1      37.716  22.447  26.066  1.00  0.00    -0.352 N 
ATOM     26  C   UNL A   1      39.045  22.710  26.299  1.00  0.00     0.251 C 
ATOM     27  H   UNL A   1      37.508  21.508  25.858  1.00  0.00     0.163 HD
ATOM     28  O   UNL A   1      39.889  21.864  26.021  1.00  0.00    -0.269 OA
BRANCH  26  29
ATOM     29  C   UNL A   1      39.463  24.008  26.870  1.00  0.00     0.039 A 
ATOM     30  C   UNL A   1      40.074  24.953  26.040  1.00  0.00     0.014 A 
ATOM     31  C   UNL A   1      39.286  24.284  28.228  1.00  0.00     0.014 A 
ATOM     32  C   UNL A   1      40.453  26.195  26.560  1.00  0.00     0.010 A 
ATOM     33  C   UNL A   1      39.575  25.551  28.722  1.00  0.00     0.010 A 
ATOM     34  C   UNL A   1      40.177  26.514  27.899  1.00  0.00    -0.014 A 
BRANCH  34  35
ATOM     35  C   UNL A   1      40.545  27.825  28.487  1.00  0.00     0.031 A 
ATOM     36  C   UNL A   1      41.937  28.030  29.025  1.00  0.00     0.074 A 
ATOM     37  C   UNL A   1      39.621  28.799  28.608  1.00  0.00     0.049 A 
ATOM     38  N   UNL A   1      42.424  29.041  29.702  1.00  0.00    -0.248 NA
ATOM     39  C   UNL A   1      42.903  26.941  28.797  1.00  0.00     0.031 C 
ATOM     40  C   UNL A   1      38.236  28.721  28.143  1.00  0.00     0.029 A 
ATOM     41  N   UNL A   1      39.711  30.046  29.177  1.00  0.00    -0.354 N 
ATOM     42  C   UNL A   1      43.738  28.698  29.995  1.00  0.00     0.074 A 
ATOM     43  C   UNL A   1      43.958  27.367  29.475  1.00  0.00     0.031 C 
ATOM     44  C   UNL A   1      37.612  29.877  28.425  1.00  0.00     0.029 A 
ATOM     45  C   UNL A   1      38.533  30.755  29.136  1.00  0.00     0.049 A 
ATOM     46  H   UNL A   1      40.538  30.399  29.575  1.00  0.00     0.167 HD
ATOM     47  C   UNL A   1      44.687  29.434  30.620  1.00  0.00     0.031 A 
ATOM     48  C   UNL A   1      38.230  31.971  29.632  1.00  0.00     0.031 A 
ATOM     49  C   UNL A   1      44.473  30.763  31.123  1.00  0.00     0.049 A 
ATOM     50  C   UNL A   1      39.294  32.749  30.361  1.00  0.00     0.074 A 
ATOM     51  C   UNL A   1      45.377  31.604  31.748  1.00  0.00     0.029 A 
ATOM     52  N   UNL A   1      43.269  31.447  31.052  1.00  0.00    -0.354 N 
ATOM     53  N   UNL A   1      40.542  32.427  30.595  1.00  0.00    -0.248 NA
ATOM     54  C   UNL A   1      38.904  34.066  30.886  1.00  0.00     0.031 C 
ATOM     55  C   UNL A   1      44.707  32.782  32.094  1.00  0.00     0.029 A 
ATOM     56  C   UNL A   1      43.405  32.696  31.629  1.00  0.00     0.049 A 
ATOM     57  H   UNL A   1      42.442  31.095  30.650  1.00  0.00     0.167 HD
ATOM     58  C   UNL A   1      41.098  33.519  31.251  1.00  0.00     0.074 A 
ATOM     59  C   UNL A   1      40.054  34.514  31.369  1.00  0.00     0.031 C 
ATOM     60  C   UNL A   1      42.362  33.684  31.711  1.00  0.00     0.031 A 
BRANCH  47  61
ATOM     61  C   UNL A   1      46.049  28.820  30.785  1.00  0.00    -0.014 A 
ATOM     62  C   UNL A   1      46.363  28.046  31.915  1.00  0.00     0.009 A 
ATOM     63  C   UNL A   1      47.015  28.974  29.780  1.00  0.00     0.009 A 
ATOM     64  C   UNL A   1      47.625  27.466  32.048  1.00  0.00     0.001 A 
ATOM     65  C   UNL A   1      48.267  28.367  29.901  1.00  0.00     0.001 A 
ATOM     66  C   UNL A   1      48.574  27.621  31.038  1.00  0.00     0.000 A 
ENDBRANCH  47  61
BRANCH  48  67
ATOM     67  C   UNL A   1      36.867  32.540  29.460  1.00  0.00    -0.014 A 
ATOM     68  C   UNL A   1      35.884  32.341  30.442  1.00  0.00     0.009 A 
ATOM     69  C   UNL A   1      36.524  33.245  28.295  1.00  0.00     0.009 A 
ATOM     70  C   UNL A   1      34.577  32.793  30.242  1.00  0.00     0.001 A 
ATOM     71  C   UNL A   1      35.226  33.728  28.113  1.00  0.00     0.001 A 
ATOM     72  C   UNL A   1      34.250  33.487  29.079  1.00  0.00     0.000 A 
ENDBRANCH  48  67
BRANCH  60  73
ATOM     73  C   UNL A   1      42.712  35.015  32.316  1.00  0.00    -0.014 A 
ATOM     74  C   UNL A   1      42.400  35.323  33.648  1.00  0.00     0.009 A 
ATOM     75  C   UNL A   1      43.421  35.953  31.547  1.00  0.00     0.009 A 
ATOM     76  C   UNL A   1      42.766  36.558  34.189  1.00  0.00     0.001 A 
ATOM     77  C   UNL A   1      43.813  37.171  32.099  1.00  0.00     0.001 A 
ATOM     78  C   UNL A   1      43.478  37.476  33.417  1.00  0.00     0.000 A 
ENDBRANCH  60  73
ENDBRANCH  34  35
ENDBRANCH  26  29
ENDBRANCH  24  25
ENDBRANCH   1  24
TORSDOF 12
ENDMDL
MODEL 2
REMARK VINA RESULT:     -11.5      4.058      7.284
REMARK SMILES Cc1cc(C)cc(-c2ccc([C@@H](C)C(=O)NCCCNC(=O)c3ccc(-c4c5nc(c(-c6ccccc6)c6ccc([nH]6)c(-c6ccccc6)c6nc(c(-c7ccccc7)c7ccc4[nH]7)C=C6)C=C5)cc3)cc2F)c1
REMARK SMILES IDX 18 1 17 2 16 3 14 4 15 5 12 7 13 8 11 9 8 10 9 11 72 12
REMARK SMILES IDX 10 13 71 14 73 15 7 16 1 17 2 18 3 19 74 20 4 21 5 22 6 23
REMARK SMILES IDX 19 24 20 25 21 26 22 28 23 29 24 30 70 31 25 32 69 33 26 34
REMARK SMILES IDX 27 35 28 36 63 37 29 38 68 39 62 40 64 41 30 42 67 43 61 44
REMARK SMILES IDX 60 45 31 47 53 48 38 49 52 50 39 51 42 52 51 53 65 54 40 55
REMARK SMILES IDX 41 56 50 58 66 59 43 60 32 61 33 62 37 63 34 64 36 65 35 66
REMARK SMILES IDX 54 67 55 68 59 69 56 70 58 71 57 72 44 73 45 74 49 75 46 76
REMARK SMILES IDX 48 77 47 78
REMARK H PARENT 16 6 20 27 64 46 42 57
REMARK Flexibility Score: inf
ROOT
ATOM      1  C   UNL A   1      41.841  20.326  27.207  1.00  0.00     0.042 C 
ENDROOT
BRANCH   1   2
ATOM      2  C   UNL A   1      42.158  20.431  25.718  1.00  0.00     0.117 C 
BRANCH   2   3
ATOM      3  N   UNL A   1      43.564  20.687  25.480  1.00  0.00    -0.356 N 
ATOM      4  C   UNL A   1      44.305  21.828  25.509  1.00  0.00     0.227 C 
ATOM      5  O   UNL A   1      45.485  21.715  25.156  1.00  0.00    -0.274 OA
ATOM      6  H   UNL A   1      44.083  19.881  25.254  1.00  0.00     0.163 HD
BRANCH   4   7
ATOM      7  C   UNL A   1      43.765  23.199  25.947  1.00  0.00     0.105 C 
ATOM      8  C   UNL A   1      44.117  24.347  25.001  1.00  0.00     0.023 C 
BRANCH   7   9
ATOM      9  C   UNL A   1      43.962  23.486  27.426  1.00  0.00    -0.033 A 
ATOM     10  C   UNL A   1      44.331  24.226  30.166  1.00  0.00     0.017 A 
ATOM     11  C   UNL A   1      43.122  23.681  29.702  1.00  0.00     0.012 A 
ATOM     12  C   UNL A   1      45.363  24.354  29.226  1.00  0.00     0.131 A 
ATOM     13  C   UNL A   1      42.957  23.282  28.372  1.00  0.00     0.005 A 
ATOM     14  C   UNL A   1      45.182  24.010  27.881  1.00  0.00     0.044 A 
ATOM     15  F   UNL A   1      46.568  24.815  29.596  1.00  0.00    -0.206 F 
BRANCH  10  16
ATOM     16  C   UNL A   1      44.460  24.641  31.579  1.00  0.00    -0.015 A 
ATOM     17  C   UNL A   1      44.834  27.818  33.679  1.00  0.00     0.044 C 
ATOM     18  C   UNL A   1      44.662  26.378  33.297  1.00  0.00    -0.050 A 
ATOM     19  C   UNL A   1      44.557  25.403  34.296  1.00  0.00     0.006 A 
ATOM     20  C   UNL A   1      44.612  25.989  31.949  1.00  0.00     0.012 A 
ATOM     21  C   UNL A   1      44.407  24.055  33.963  1.00  0.00    -0.050 A 
ATOM     22  C   UNL A   1      44.281  23.016  35.037  1.00  0.00     0.044 C 
ATOM     23  C   UNL A   1      44.377  23.688  32.613  1.00  0.00     0.012 A 
ENDBRANCH  10  16
ENDBRANCH   7   9
ENDBRANCH   4   7
ENDBRANCH   2   3
ENDBRANCH   1   2
BRANCH   1  24
ATOM     24  C   UNL A   1      40.783  21.315  27.673  1.00  0.00     0.118 C 
BRANCH  24  25
ATOM     25  N   UNL A   1      39.748  21.524  26.667  1.00  0.00    -0.352 N 
ATOM     26  C   UNL A   1      39.068  22.668  26.325  1.00  0.00     0.251 C 
ATOM     27  H   UNL A   1      39.498  20.722  26.154  1.00  0.00     0.163 HD
ATOM     28  O   UNL A   1      38.077  22.593  25.605  1.00  0.00    -0.269 OA
BRANCH  26  29
ATOM     29  C   UNL A   1      39.516  23.985  26.827  1.00  0.00     0.039 A 
ATOM     30  C   UNL A   1      40.267  24.814  25.989  1.00  0.00     0.014 A 
ATOM     31  C   UNL A   1      39.228  24.389  28.132  1.00  0.00     0.014 A 
ATOM     32  C   UNL A   1      40.677  26.073  26.441  1.00  0.00     0.010 A 
ATOM     33  C   UNL A   1      39.553  25.675  28.548  1.00  0.00     0.010 A 
ATOM     34  C   UNL A   1      40.295  26.525  27.714  1.00  0.00    -0.014 A 
BRANCH  34  35
ATOM     35  C   UNL A   1      40.693  27.859  28.227  1.00  0.00     0.031 A 
ATOM     36  C   UNL A   1      42.142  28.131  28.537  1.00  0.00     0.074 A 
ATOM     37  C   UNL A   1      39.758  28.794  28.487  1.00  0.00     0.049 A 
ATOM     38  N   UNL A   1      42.684  29.170  29.121  1.00  0.00    -0.248 NA
ATOM     39  C   UNL A   1      43.108  27.081  28.166  1.00  0.00     0.031 C 
ATOM     40  C   UNL A   1      38.321  28.650  28.248  1.00  0.00     0.029 A 
ATOM     41  N   UNL A   1      39.880  30.051  29.025  1.00  0.00    -0.354 N 
ATOM     42  C   UNL A   1      44.042  28.888  29.204  1.00  0.00     0.074 A 
ATOM     43  C   UNL A   1      44.236  27.561  28.665  1.00  0.00     0.031 C 
ATOM     44  C   UNL A   1      37.698  29.781  28.617  1.00  0.00     0.029 A 
ATOM     45  C   UNL A   1      38.680  30.709  29.166  1.00  0.00     0.049 A 
ATOM     46  H   UNL A   1      40.744  30.445  29.285  1.00  0.00     0.167 HD
ATOM     47  C   UNL A   1      45.044  29.674  29.666  1.00  0.00     0.031 A 
ATOM     48  C   UNL A   1      38.406  31.917  29.695  1.00  0.00     0.031 A 
ATOM     49  C   UNL A   1      44.853  30.999  30.187  1.00  0.00     0.049 A 
ATOM     50  C   UNL A   1      39.535  32.750  30.241  1.00  0.00     0.074 A 
ATOM     51  C   UNL A   1      45.806  31.886  30.655  1.00  0.00     0.029 A 
ATOM     52  N   UNL A   1      43.624  31.630  30.303  1.00  0.00    -0.354 N 
ATOM     53  N   UNL A   1      40.818  32.486  30.277  1.00  0.00    -0.248 NA
ATOM     54  C   UNL A   1      39.176  34.056  30.812  1.00  0.00     0.031 C 
ATOM     55  C   UNL A   1      45.148  33.039  31.094  1.00  0.00     0.029 A 
ATOM     56  C   UNL A   1      43.794  32.891  30.842  1.00  0.00     0.049 A 
ATOM     57  H   UNL A   1      42.761  31.237  30.040  1.00  0.00     0.167 HD
ATOM     58  C   UNL A   1      41.422  33.609  30.829  1.00  0.00     0.074 A 
ATOM     59  C   UNL A   1      40.366  34.560  31.104  1.00  0.00     0.031 C 
ATOM     60  C   UNL A   1      42.733  33.835  31.081  1.00  0.00     0.031 A 
BRANCH  47  61
ATOM     61  C   UNL A   1      46.441  29.120  29.617  1.00  0.00    -0.014 A 
ATOM     62  C   UNL A   1      46.957  28.360  30.680  1.00  0.00     0.009 A 
ATOM     63  C   UNL A   1      47.236  29.320  28.478  1.00  0.00     0.009 A 
ATOM     64  C   UNL A   1      48.249  27.837  30.615  1.00  0.00     0.001 A 
ATOM     65  C   UNL A   1      48.517  28.769  28.403  1.00  0.00     0.001 A 
ATOM     66  C   UNL A   1      49.025  28.036  29.474  1.00  0.00     0.000 A 
ENDBRANCH  47  61
BRANCH  48  67
ATOM     67  C   UNL A   1      37.008  32.425  29.738  1.00  0.00    -0.014 A 
ATOM     68  C   UNL A   1      36.514  33.232  28.701  1.00  0.00     0.009 A 
ATOM     69  C   UNL A   1      36.176  32.149  30.834  1.00  0.00     0.009 A 
ATOM     70  C   UNL A   1      35.235  33.788  28.782  1.00  0.00     0.001 A 
ATOM     71  C   UNL A   1      34.884  32.677  30.895  1.00  0.00     0.001 A 
ATOM     72  C   UNL A   1      34.421  33.509  29.878  1.00  0.00     0.000 A 
ENDBRANCH  48  67
BRANCH  60  73
ATOM     73  C   UNL A   1      43.115  35.187  31.613  1.00  0.00    -0.014 A 
ATOM     74  C   UNL A   1      43.109  35.467  32.988  1.00  0.00     0.009 A 
ATOM     75  C   UNL A   1      43.545  36.181  30.718  1.00  0.00     0.009 A 
ATOM     76  C   UNL A   1      43.499  36.725  33.452  1.00  0.00     0.001 A 
ATOM     77  C   UNL A   1      43.963  37.426  31.187  1.00  0.00     0.001 A 
ATOM     78  C   UNL A   1      43.931  37.699  32.553  1.00  0.00     0.000 A 
ENDBRANCH  60  73
ENDBRANCH  34  35
ENDBRANCH  26  29
ENDBRANCH  24  25
ENDBRANCH   1  24
TORSDOF 12
ENDMDL
MODEL 3
REMARK VINA RESULT:     -11.5      2.238      6.808
REMARK SMILES Cc1cc(C)cc(-c2ccc([C@@H](C)C(=O)NCCCNC(=O)c3ccc(-c4c5nc(c(-c6ccccc6)c6ccc([nH]6)c(-c6ccccc6)c6nc(c(-c7ccccc7)c7ccc4[nH]7)C=C6)C=C5)cc3)cc2F)c1
REMARK SMILES IDX 18 1 17 2 16 3 14 4 15 5 12 7 13 8 11 9 8 10 9 11 72 12
REMARK SMILES IDX 10 13 71 14 73 15 7 16 1 17 2 18 3 19 74 20 4 21 5 22 6 23
REMARK SMILES IDX 19 24 20 25 21 26 22 28 23 29 24 30 70 31 25 32 69 33 26 34
REMARK SMILES IDX 27 35 28 36 63 37 29 38 68 39 62 40 64 41 30 42 67 43 61 44
REMARK SMILES IDX 60 45 31 47 53 48 38 49 52 50 39 51 42 52 51 53 65 54 40 55
REMARK SMILES IDX 41 56 50 58 66 59 43 60 32 61 33 62 37 63 34 64 36 65 35 66
REMARK SMILES IDX 54 67 55 68 59 69 56 70 58 71 57 72 44 73 45 74 49 75 46 76
REMARK SMILES IDX 48 77 47 78
REMARK H PARENT 16 6 20 27 64 46 42 57
REMARK Flexibility Score: inf
ROOT
ATOM      1  C   UNL A   1      37.871  20.112  24.931  1.00  0.00     0.042 C 
ENDROOT
BRANCH   1   2
ATOM      2  C   UNL A   1      37.013  21.337  24.632  1.00  0.00     0.117 C 
BRANCH   2   3
ATOM      3  N   UNL A   1      35.613  20.994  24.480  1.00  0.00    -0.356 N 
ATOM      4  C   UNL A   1      34.507  21.314  25.207  1.00  0.00     0.227 C 
ATOM      5  O   UNL A   1      33.454  20.769  24.857  1.00  0.00    -0.274 OA
ATOM      6  H   UNL A   1      35.426  20.419  23.703  1.00  0.00     0.163 HD
BRANCH   4   7
ATOM      7  C   UNL A   1      34.506  22.288  26.396  1.00  0.00     0.105 C 
ATOM      8  C   UNL A   1      34.078  21.664  27.723  1.00  0.00     0.023 C 
BRANCH   7   9
ATOM      9  C   UNL A   1      33.884  23.637  26.076  1.00  0.00    -0.033 A 
ATOM     10  C   UNL A   1      32.711  26.217  25.676  1.00  0.00     0.017 A 
ATOM     11  C   UNL A   1      34.040  25.943  25.313  1.00  0.00     0.012 A 
ATOM     12  C   UNL A   1      31.974  25.150  26.210  1.00  0.00     0.131 A 
ATOM     13  C   UNL A   1      34.600  24.671  25.471  1.00  0.00     0.005 A 
ATOM     14  C   UNL A   1      32.548  23.891  26.424  1.00  0.00     0.044 A 
ATOM     15  F   UNL A   1      30.681  25.310  26.534  1.00  0.00    -0.206 F 
BRANCH  10  16
ATOM     16  C   UNL A   1      32.161  27.578  25.497  1.00  0.00    -0.015 A 
ATOM     17  C   UNL A   1      32.414  31.068  27.046  1.00  0.00     0.044 C 
ATOM     18  C   UNL A   1      32.039  29.944  26.126  1.00  0.00    -0.050 A 
ATOM     19  C   UNL A   1      31.202  30.192  25.033  1.00  0.00     0.006 A 
ATOM     20  C   UNL A   1      32.512  28.641  26.348  1.00  0.00     0.012 A 
ATOM     21  C   UNL A   1      30.832  29.159  24.170  1.00  0.00    -0.050 A 
ATOM     22  C   UNL A   1      29.945  29.432  22.992  1.00  0.00     0.044 C 
ATOM     23  C   UNL A   1      31.301  27.864  24.420  1.00  0.00     0.012 A 
ENDBRANCH  10  16
ENDBRANCH   7   9
ENDBRANCH   4   7
ENDBRANCH   2   3
ENDBRANCH   1   2
BRANCH   1  24
ATOM     24  C   UNL A   1      38.907  20.349  26.019  1.00  0.00     0.118 C 
BRANCH  24  25
ATOM     25  N   UNL A   1      40.080  19.499  25.853  1.00  0.00    -0.352 N 
ATOM     26  C   UNL A   1      41.415  19.807  25.956  1.00  0.00     0.251 C 
ATOM     27  H   UNL A   1      39.885  18.559  25.636  1.00  0.00     0.163 HD
ATOM     28  O   UNL A   1      42.256  19.004  25.563  1.00  0.00    -0.269 OA
BRANCH  26  29
ATOM     29  C   UNL A   1      41.844  21.104  26.523  1.00  0.00     0.039 A 
ATOM     30  C   UNL A   1      42.207  22.140  25.658  1.00  0.00     0.014 A 
ATOM     31  C   UNL A   1      41.921  21.290  27.905  1.00  0.00     0.014 A 
ATOM     32  C   UNL A   1      42.591  23.380  26.180  1.00  0.00     0.010 A 
ATOM     33  C   UNL A   1      42.211  22.548  28.421  1.00  0.00     0.010 A 
ATOM     34  C   UNL A   1      42.565  23.602  27.566  1.00  0.00    -0.014 A 
BRANCH  34  35
ATOM     35  C   UNL A   1      42.947  24.906  28.161  1.00  0.00     0.031 A 
ATOM     36  C   UNL A   1      41.891  25.956  28.383  1.00  0.00     0.074 A 
ATOM     37  C   UNL A   1      44.240  25.178  28.428  1.00  0.00     0.049 A 
ATOM     38  N   UNL A   1      42.028  27.204  28.756  1.00  0.00    -0.248 NA
ATOM     39  C   UNL A   1      40.496  25.559  28.125  1.00  0.00     0.031 C 
ATOM     40  C   UNL A   1      45.361  24.254  28.242  1.00  0.00     0.029 A 
ATOM     41  N   UNL A   1      44.830  26.323  28.903  1.00  0.00    -0.354 N 
ATOM     42  C   UNL A   1      40.746  27.739  28.755  1.00  0.00     0.074 A 
ATOM     43  C   UNL A   1      39.851  26.703  28.292  1.00  0.00     0.031 C 
ATOM     44  C   UNL A   1      46.498  24.862  28.619  1.00  0.00     0.029 A 
ATOM     45  C   UNL A   1      46.197  26.230  29.022  1.00  0.00     0.049 A 
ATOM     46  H   UNL A   1      44.323  27.134  29.137  1.00  0.00     0.167 HD
ATOM     47  C   UNL A   1      40.344  28.977  29.130  1.00  0.00     0.031 A 
ATOM     48  C   UNL A   1      47.104  27.153  29.398  1.00  0.00     0.031 A 
ATOM     49  C   UNL A   1      41.231  30.002  29.605  1.00  0.00     0.049 A 
ATOM     50  C   UNL A   1      46.632  28.534  29.768  1.00  0.00     0.074 A 
ATOM     51  C   UNL A   1      40.919  31.280  30.036  1.00  0.00     0.029 A 
ATOM     52  N   UNL A   1      42.605  29.863  29.720  1.00  0.00    -0.354 N 
ATOM     53  N   UNL A   1      45.412  29.012  29.799  1.00  0.00    -0.248 NA
ATOM     54  C   UNL A   1      47.666  29.501  30.164  1.00  0.00     0.031 C 
ATOM     55  C   UNL A   1      42.112  31.929  30.369  1.00  0.00     0.029 A 
ATOM     56  C   UNL A   1      43.157  31.034  30.205  1.00  0.00     0.049 A 
ATOM     57  H   UNL A   1      43.112  29.051  29.490  1.00  0.00     0.167 HD
ATOM     58  C   UNL A   1      45.528  30.318  30.263  1.00  0.00     0.074 A 
ATOM     59  C   UNL A   1      46.936  30.552  30.508  1.00  0.00     0.031 C 
ATOM     60  C   UNL A   1      44.557  31.238  30.471  1.00  0.00     0.031 A 
BRANCH  47  61
ATOM     61  C   UNL A   1      38.874  29.286  29.050  1.00  0.00    -0.014 A 
ATOM     62  C   UNL A   1      38.295  29.746  27.856  1.00  0.00     0.009 A 
ATOM     63  C   UNL A   1      38.050  29.070  30.164  1.00  0.00     0.009 A 
ATOM     64  C   UNL A   1      36.926  30.012  27.790  1.00  0.00     0.001 A 
ATOM     65  C   UNL A   1      36.676  29.307  30.086  1.00  0.00     0.001 A 
ATOM     66  C   UNL A   1      36.117  29.786  28.902  1.00  0.00     0.000 A 
ENDBRANCH  47  61
BRANCH  48  67
ATOM     67  C   UNL A   1      48.551  26.814  29.453  1.00  0.00    -0.014 A 
ATOM     68  C   UNL A   1      49.368  27.000  28.326  1.00  0.00     0.009 A 
ATOM     69  C   UNL A   1      49.116  26.258  30.612  1.00  0.00     0.009 A 
ATOM     70  C   UNL A   1      50.705  26.596  28.344  1.00  0.00     0.001 A 
ATOM     71  C   UNL A   1      50.463  25.888  30.638  1.00  0.00     0.001 A 
ATOM     72  C   UNL A   1      51.251  26.041  29.499  1.00  0.00     0.000 A 
ENDBRANCH  48  67
BRANCH  60  73
ATOM     73  C   UNL A   1      44.965  32.558  31.061  1.00  0.00    -0.014 A 
ATOM     74  C   UNL A   1      45.020  32.759  32.448  1.00  0.00     0.009 A 
ATOM     75  C   UNL A   1      45.357  33.601  30.206  1.00  0.00     0.009 A 
ATOM     76  C   UNL A   1      45.433  33.990  32.966  1.00  0.00     0.001 A 
ATOM     77  C   UNL A   1      45.799  34.817  30.725  1.00  0.00     0.001 A 
ATOM     78  C   UNL A   1      45.828  35.013  32.105  1.00  0.00     0.000 A 
ENDBRANCH  60  73
ENDBRANCH  34  35
ENDBRANCH  26  29
ENDBRANCH  24  25
ENDBRANCH   1  24
TORSDOF 12
ENDMDL
