MODEL 1
REMARK VINA RESULT:     -11.6      0.000      0.000
REMARK SMILES C=CCc1cccc(-c2ccc([C@@H](C)C(=O)NCCCNC(=O)c3ccc(-c4c5nc(c(-c6ccccc6)c6ccc([nH]6)c(-c6ccccc6)c6nc(c(-c7ccccc7)c7ccc4[nH]7)C=C6)C=C5)cc3)cc2)c1
REMARK SMILES IDX 18 1 17 2 15 3 16 4 13 6 14 7 12 8 9 9 10 10 73 11 11 12
REMARK SMILES IDX 72 13 8 14 4 15 5 16 74 17 6 18 7 19 3 20 2 21 1 22 19 23
REMARK SMILES IDX 20 24 21 25 22 26 23 28 24 29 25 30 71 31 26 32 70 33 27 34
REMARK SMILES IDX 28 35 29 36 64 37 30 38 69 39 63 40 65 41 31 42 68 43 62 44
REMARK SMILES IDX 61 45 32 47 54 48 39 49 53 50 40 51 43 52 52 53 66 54 41 55
REMARK SMILES IDX 42 56 51 58 67 59 44 60 33 61 34 62 38 63 35 64 37 65 36 66
REMARK SMILES IDX 55 67 56 68 60 69 57 70 59 71 58 72 45 73 46 74 50 75 47 76
REMARK SMILES IDX 49 77 48 78
REMARK H PARENT 17 5 21 27 65 46 43 57
REMARK Flexibility Score: inf
ROOT
ATOM      1  C   UNL A   1      31.581  29.291  25.898  1.00  0.00     0.117 C 
ENDROOT
BRANCH   1   2
ATOM      2  N   UNL A   1      31.104  28.590  24.723  1.00  0.00    -0.356 N 
ATOM      3  C   UNL A   1      31.758  27.953  23.715  1.00  0.00     0.227 C 
ATOM      4  O   UNL A   1      31.050  27.499  22.807  1.00  0.00    -0.274 OA
ATOM      5  H   UNL A   1      30.123  28.572  24.638  1.00  0.00     0.163 HD
BRANCH   3   6
ATOM      6  C   UNL A   1      33.284  27.774  23.655  1.00  0.00     0.105 C 
ATOM      7  C   UNL A   1      33.961  28.473  22.479  1.00  0.00     0.023 C 
BRANCH   6   8
ATOM      8  C   UNL A   1      33.730  26.349  23.932  1.00  0.00    -0.036 A 
ATOM      9  C   UNL A   1      34.714  23.685  24.317  1.00  0.00    -0.018 A 
ATOM     10  C   UNL A   1      34.673  24.618  25.366  1.00  0.00     0.009 A 
ATOM     11  C   UNL A   1      34.208  24.114  23.078  1.00  0.00     0.009 A 
ATOM     12  C   UNL A   1      34.163  25.912  25.187  1.00  0.00     0.005 A 
ATOM     13  C   UNL A   1      33.748  25.422  22.882  1.00  0.00     0.005 A 
BRANCH   9  14
ATOM     14  C   UNL A   1      35.263  22.318  24.507  1.00  0.00    -0.018 A 
ATOM     15  C   UNL A   1      34.922  19.884  24.687  1.00  0.00    -0.044 A 
ATOM     16  C   UNL A   1      36.288  19.702  24.912  1.00  0.00     0.004 A 
ATOM     17  C   UNL A   1      34.431  21.184  24.465  1.00  0.00     0.012 A 
ATOM     18  C   UNL A   1      37.140  20.803  24.933  1.00  0.00     0.001 A 
ATOM     19  C   UNL A   1      36.630  22.092  24.746  1.00  0.00     0.009 A 
BRANCH  15  20
ATOM     20  C   UNL A   1      33.962  18.719  24.742  1.00  0.00     0.062 C 
BRANCH  20  21
ATOM     21  C   UNL A   1      34.597  17.460  24.215  1.00  0.00    -0.030 C 
ATOM     22  C   UNL A   1      34.091  16.711  23.227  1.00  0.00     0.004 C 
ENDBRANCH  20  21
ENDBRANCH  15  20
ENDBRANCH   9  14
ENDBRANCH   6   8
ENDBRANCH   3   6
ENDBRANCH   1   2
BRANCH   1  23
ATOM     23  C   UNL A   1      32.184  28.348  26.938  1.00  0.00     0.042 C 
BRANCH  23  24
ATOM     24  C   UNL A   1      33.574  28.754  27.418  1.00  0.00     0.118 C 
BRANCH  24  25
ATOM     25  N   UNL A   1      33.652  30.169  27.756  1.00  0.00    -0.352 N 
ATOM     26  C   UNL A   1      34.642  30.898  28.367  1.00  0.00     0.251 C 
ATOM     27  H   UNL A   1      32.857  30.692  27.504  1.00  0.00     0.163 HD
ATOM     28  O   UNL A   1      34.392  32.043  28.739  1.00  0.00    -0.269 OA
BRANCH  26  29
ATOM     29  C   UNL A   1      35.994  30.339  28.600  1.00  0.00     0.039 A 
ATOM     30  C   UNL A   1      36.917  30.362  27.546  1.00  0.00     0.014 A 
ATOM     31  C   UNL A   1      36.347  29.731  29.807  1.00  0.00     0.014 A 
ATOM     32  C   UNL A   1      38.201  29.838  27.723  1.00  0.00     0.010 A 
ATOM     33  C   UNL A   1      37.650  29.272  30.007  1.00  0.00     0.010 A 
ATOM     34  C   UNL A   1      38.590  29.320  28.968  1.00  0.00    -0.014 A 
BRANCH  34  35
ATOM     35  C   UNL A   1      39.978  28.844  29.203  1.00  0.00     0.031 A 
ATOM     36  C   UNL A   1      41.015  29.759  29.797  1.00  0.00     0.074 A 
ATOM     37  C   UNL A   1      40.326  27.600  28.815  1.00  0.00     0.049 A 
ATOM     38  N   UNL A   1      42.288  29.536  30.007  1.00  0.00    -0.248 NA
ATOM     39  C   UNL A   1      40.568  31.106  30.188  1.00  0.00     0.031 C 
ATOM     40  C   UNL A   1      39.431  26.627  28.186  1.00  0.00     0.029 A 
ATOM     41  N   UNL A   1      41.532  26.948  28.879  1.00  0.00    -0.354 N 
ATOM     42  C   UNL A   1      42.798  30.717  30.531  1.00  0.00     0.074 A 
ATOM     43  C   UNL A   1      41.706  31.665  30.578  1.00  0.00     0.031 C 
ATOM     44  C   UNL A   1      40.114  25.498  27.938  1.00  0.00     0.029 A 
ATOM     45  C   UNL A   1      41.501  25.679  28.353  1.00  0.00     0.049 A 
ATOM     46  H   UNL A   1      42.343  27.350  29.267  1.00  0.00     0.167 HD
ATOM     47  C   UNL A   1      44.060  30.986  30.946  1.00  0.00     0.031 A 
ATOM     48  C   UNL A   1      42.480  24.767  28.205  1.00  0.00     0.031 A 
ATOM     49  C   UNL A   1      45.144  30.042  30.922  1.00  0.00     0.049 A 
ATOM     50  C   UNL A   1      43.868  25.091  28.676  1.00  0.00     0.074 A 
ATOM     51  C   UNL A   1      46.437  30.202  31.391  1.00  0.00     0.029 A 
ATOM     52  N   UNL A   1      45.065  28.763  30.397  1.00  0.00    -0.354 N 
ATOM     53  N   UNL A   1      44.315  26.189  29.237  1.00  0.00    -0.248 NA
ATOM     54  C   UNL A   1      44.889  24.048  28.499  1.00  0.00     0.031 C 
ATOM     55  C   UNL A   1      47.152  29.035  31.109  1.00  0.00     0.029 A 
ATOM     56  C   UNL A   1      46.293  28.131  30.506  1.00  0.00     0.049 A 
ATOM     57  H   UNL A   1      44.256  28.361  30.004  1.00  0.00     0.167 HD
ATOM     58  C   UNL A   1      45.658  25.961  29.497  1.00  0.00     0.074 A 
ATOM     59  C   UNL A   1      45.951  24.615  29.052  1.00  0.00     0.031 C 
ATOM     60  C   UNL A   1      46.571  26.794  30.053  1.00  0.00     0.031 A 
BRANCH  47  61
ATOM     61  C   UNL A   1      44.344  32.369  31.463  1.00  0.00    -0.014 A 
ATOM     62  C   UNL A   1      44.200  32.679  32.823  1.00  0.00     0.009 A 
ATOM     63  C   UNL A   1      44.819  33.357  30.585  1.00  0.00     0.009 A 
ATOM     64  C   UNL A   1      44.501  33.961  33.291  1.00  0.00     0.001 A 
ATOM     65  C   UNL A   1      45.141  34.630  31.060  1.00  0.00     0.001 A 
ATOM     66  C   UNL A   1      44.977  34.932  32.411  1.00  0.00     0.000 A 
ENDBRANCH  47  61
BRANCH  48  67
ATOM     67  C   UNL A   1      42.184  23.453  27.579  1.00  0.00    -0.014 A 
ATOM     68  C   UNL A   1      41.652  22.403  28.344  1.00  0.00     0.009 A 
ATOM     69  C   UNL A   1      42.443  23.238  26.216  1.00  0.00     0.009 A 
ATOM     70  C   UNL A   1      41.412  21.157  27.763  1.00  0.00     0.001 A 
ATOM     71  C   UNL A   1      42.177  21.998  25.633  1.00  0.00     0.001 A 
ATOM     72  C   UNL A   1      41.672  20.955  26.408  1.00  0.00     0.000 A 
ENDBRANCH  48  67
BRANCH  60  73
ATOM     73  C   UNL A   1      47.964  26.265  30.229  1.00  0.00    -0.014 A 
ATOM     74  C   UNL A   1      48.385  25.723  31.453  1.00  0.00     0.009 A 
ATOM     75  C   UNL A   1      48.856  26.276  29.145  1.00  0.00     0.009 A 
ATOM     76  C   UNL A   1      49.683  25.232  31.597  1.00  0.00     0.001 A 
ATOM     77  C   UNL A   1      50.145  25.761  29.286  1.00  0.00     0.001 A 
ATOM     78  C   UNL A   1      50.560  25.247  30.514  1.00  0.00     0.000 A 
ENDBRANCH  60  73
ENDBRANCH  34  35
ENDBRANCH  26  29
ENDBRANCH  24  25
ENDBRANCH  23  24
ENDBRANCH   1  23
TORSDOF 14
ENDMDL
MODEL 2
REMARK VINA RESULT:     -11.2      3.535      8.061
REMARK SMILES C=CCc1cccc(-c2ccc([C@@H](C)C(=O)NCCCNC(=O)c3ccc(-c4c5nc(c(-c6ccccc6)c6ccc([nH]6)c(-c6ccccc6)c6nc(c(-c7ccccc7)c7ccc4[nH]7)C=C6)C=C5)cc3)cc2)c1
REMARK SMILES IDX 18 1 17 2 15 3 16 4 13 6 14 7 12 8 9 9 10 10 73 11 11 12
REMARK SMILES IDX 72 13 8 14 4 15 5 16 74 17 6 18 7 19 3 20 2 21 1 22 19 23
REMARK SMILES IDX 20 24 21 25 22 26 23 28 24 29 25 30 71 31 26 32 70 33 27 34
REMARK SMILES IDX 28 35 29 36 64 37 30 38 69 39 63 40 65 41 31 42 68 43 62 44
REMARK SMILES IDX 61 45 32 47 54 48 39 49 53 50 40 51 43 52 52 53 66 54 41 55
REMARK SMILES IDX 42 56 51 58 67 59 44 60 33 61 34 62 38 63 35 64 37 65 36 66
REMARK SMILES IDX 55 67 56 68 60 69 57 70 59 71 58 72 45 73 46 74 50 75 47 76
REMARK SMILES IDX 49 77 48 78
REMARK H PARENT 17 5 21 27 65 46 43 57
REMARK Flexibility Score: inf
ROOT
ATOM      1  C   UNL A   1      35.039  32.890  31.774  1.00  0.00     0.117 C 
ENDROOT
BRANCH   1   2
ATOM      2  N   UNL A   1      35.682  33.879  32.616  1.00  0.00    -0.356 N 
ATOM      3  C   UNL A   1      36.975  34.034  33.013  1.00  0.00     0.227 C 
ATOM      4  O   UNL A   1      37.195  34.964  33.799  1.00  0.00    -0.274 OA
ATOM      5  H   UNL A   1      35.071  34.565  32.967  1.00  0.00     0.163 HD
BRANCH   3   6
ATOM      6  C   UNL A   1      38.133  33.140  32.542  1.00  0.00     0.105 C 
ATOM      7  C   UNL A   1      38.808  32.335  33.651  1.00  0.00     0.023 C 
BRANCH   6   8
ATOM      8  C   UNL A   1      39.063  33.834  31.560  1.00  0.00    -0.036 A 
ATOM      9  C   UNL A   1      40.937  34.986  29.726  1.00  0.00    -0.018 A 
ATOM     10  C   UNL A   1      39.611  34.714  29.355  1.00  0.00     0.009 A 
ATOM     11  C   UNL A   1      41.286  34.702  31.057  1.00  0.00     0.009 A 
ATOM     12  C   UNL A   1      38.683  34.179  30.261  1.00  0.00     0.005 A 
ATOM     13  C   UNL A   1      40.378  34.118  31.949  1.00  0.00     0.005 A 
BRANCH   9  14
ATOM     14  C   UNL A   1      41.920  35.545  28.762  1.00  0.00    -0.018 A 
ATOM     15  C   UNL A   1      43.161  35.383  26.639  1.00  0.00    -0.044 A 
ATOM     16  C   UNL A   1      43.827  36.575  26.929  1.00  0.00     0.004 A 
ATOM     17  C   UNL A   1      42.201  34.896  27.545  1.00  0.00     0.012 A 
ATOM     18  C   UNL A   1      43.551  37.253  28.114  1.00  0.00     0.001 A 
ATOM     19  C   UNL A   1      42.620  36.737  29.020  1.00  0.00     0.009 A 
BRANCH  15  20
ATOM     20  C   UNL A   1      43.501  34.582  25.403  1.00  0.00     0.062 C 
BRANCH  20  21
ATOM     21  C   UNL A   1      44.221  33.308  25.757  1.00  0.00    -0.030 C 
ATOM     22  C   UNL A   1      45.455  33.252  26.273  1.00  0.00     0.004 C 
ENDBRANCH  20  21
ENDBRANCH  15  20
ENDBRANCH   9  14
ENDBRANCH   6   8
ENDBRANCH   3   6
ENDBRANCH   1   2
BRANCH   1  23
ATOM     23  C   UNL A   1      34.446  33.498  30.505  1.00  0.00     0.042 C 
BRANCH  23  24
ATOM     24  C   UNL A   1      35.030  32.938  29.212  1.00  0.00     0.118 C 
BRANCH  24  25
ATOM     25  N   UNL A   1      34.236  31.840  28.676  1.00  0.00    -0.352 N 
ATOM     26  C   UNL A   1      34.604  30.599  28.218  1.00  0.00     0.251 C 
ATOM     27  H   UNL A   1      33.269  32.019  28.635  1.00  0.00     0.163 HD
ATOM     28  O   UNL A   1      33.777  29.920  27.614  1.00  0.00    -0.269 OA
BRANCH  26  29
ATOM     29  C   UNL A   1      35.971  30.065  28.422  1.00  0.00     0.039 A 
ATOM     30  C   UNL A   1      36.856  30.063  27.336  1.00  0.00     0.014 A 
ATOM     31  C   UNL A   1      36.375  29.504  29.635  1.00  0.00     0.014 A 
ATOM     32  C   UNL A   1      38.152  29.562  27.484  1.00  0.00     0.010 A 
ATOM     33  C   UNL A   1      37.690  29.068  29.804  1.00  0.00     0.010 A 
ATOM     34  C   UNL A   1      38.593  29.093  28.731  1.00  0.00    -0.014 A 
BRANCH  34  35
ATOM     35  C   UNL A   1      39.994  28.643  28.932  1.00  0.00     0.031 A 
ATOM     36  C   UNL A   1      41.043  29.596  29.437  1.00  0.00     0.074 A 
ATOM     37  C   UNL A   1      40.341  27.385  28.592  1.00  0.00     0.049 A 
ATOM     38  N   UNL A   1      42.327  29.397  29.605  1.00  0.00    -0.248 NA
ATOM     39  C   UNL A   1      40.597  30.957  29.779  1.00  0.00     0.031 C 
ATOM     40  C   UNL A   1      39.433  26.372  28.050  1.00  0.00     0.029 A 
ATOM     41  N   UNL A   1      41.557  26.748  28.639  1.00  0.00    -0.354 N 
ATOM     42  C   UNL A   1      42.844  30.608  30.048  1.00  0.00     0.074 A 
ATOM     43  C   UNL A   1      41.743  31.546  30.093  1.00  0.00     0.031 C 
ATOM     44  C   UNL A   1      40.119  25.239  27.830  1.00  0.00     0.029 A 
ATOM     45  C   UNL A   1      41.520  25.455  28.178  1.00  0.00     0.049 A 
ATOM     46  H   UNL A   1      42.378  27.177  28.973  1.00  0.00     0.167 HD
ATOM     47  C   UNL A   1      44.117  30.910  30.398  1.00  0.00     0.031 A 
ATOM     48  C   UNL A   1      42.502  24.546  28.036  1.00  0.00     0.031 A 
ATOM     49  C   UNL A   1      45.211  29.977  30.376  1.00  0.00     0.049 A 
ATOM     50  C   UNL A   1      43.905  24.907  28.433  1.00  0.00     0.074 A 
ATOM     51  C   UNL A   1      46.520  30.173  30.783  1.00  0.00     0.029 A 
ATOM     52  N   UNL A   1      45.126  28.672  29.919  1.00  0.00    -0.354 N 
ATOM     53  N   UNL A   1      44.360  26.036  28.920  1.00  0.00    -0.248 NA
ATOM     54  C   UNL A   1      44.929  23.866  28.266  1.00  0.00     0.031 C 
ATOM     55  C   UNL A   1      47.237  29.000  30.530  1.00  0.00     0.029 A 
ATOM     56  C   UNL A   1      46.365  28.059  30.008  1.00  0.00     0.049 A 
ATOM     57  H   UNL A   1      44.307  28.243  29.580  1.00  0.00     0.167 HD
ATOM     58  C   UNL A   1      45.716  25.834  29.136  1.00  0.00     0.074 A 
ATOM     59  C   UNL A   1      46.007  24.470  28.746  1.00  0.00     0.031 C 
ATOM     60  C   UNL A   1      46.640  26.704  29.612  1.00  0.00     0.031 A 
BRANCH  47  61
ATOM     61  C   UNL A   1      44.405  32.320  30.833  1.00  0.00    -0.014 A 
ATOM     62  C   UNL A   1      44.311  32.697  32.181  1.00  0.00     0.009 A 
ATOM     63  C   UNL A   1      44.835  33.267  29.889  1.00  0.00     0.009 A 
ATOM     64  C   UNL A   1      44.616  34.003  32.572  1.00  0.00     0.001 A 
ATOM     65  C   UNL A   1      45.162  34.565  30.287  1.00  0.00     0.001 A 
ATOM     66  C   UNL A   1      45.046  34.933  31.626  1.00  0.00     0.000 A 
ENDBRANCH  47  61
BRANCH  48  67
ATOM     67  C   UNL A   1      42.197  23.199  27.489  1.00  0.00    -0.014 A 
ATOM     68  C   UNL A   1      41.518  22.251  28.269  1.00  0.00     0.009 A 
ATOM     69  C   UNL A   1      42.594  22.851  26.188  1.00  0.00     0.009 A 
ATOM     70  C   UNL A   1      41.268  20.972  27.767  1.00  0.00     0.001 A 
ATOM     71  C   UNL A   1      42.318  21.581  25.680  1.00  0.00     0.001 A 
ATOM     72  C   UNL A   1      41.665  20.639  26.473  1.00  0.00     0.000 A 
ENDBRANCH  48  67
BRANCH  60  73
ATOM     73  C   UNL A   1      48.046  26.197  29.756  1.00  0.00    -0.014 A 
ATOM     74  C   UNL A   1      48.936  26.211  28.671  1.00  0.00     0.009 A 
ATOM     75  C   UNL A   1      48.496  25.732  31.001  1.00  0.00     0.009 A 
ATOM     76  C   UNL A   1      50.240  25.739  28.823  1.00  0.00     0.001 A 
ATOM     77  C   UNL A   1      49.809  25.286  31.157  1.00  0.00     0.001 A 
ATOM     78  C   UNL A   1      50.677  25.281  30.065  1.00  0.00     0.000 A 
ENDBRANCH  60  73
ENDBRANCH  34  35
ENDBRANCH  26  29
ENDBRANCH  24  25
ENDBRANCH  23  24
ENDBRANCH   1  23
TORSDOF 14
ENDMDL
MODEL 3
REMARK VINA RESULT:     -11.2      3.597      7.136
REMARK SMILES C=CCc1cccc(-c2ccc([C@@H](C)C(=O)NCCCNC(=O)c3ccc(-c4c5nc(c(-c6ccccc6)c6ccc([nH]6)c(-c6ccccc6)c6nc(c(-c7ccccc7)c7ccc4[nH]7)C=C6)C=C5)cc3)cc2)c1
REMARK SMILES IDX 18 1 17 2 15 3 16 4 13 6 14 7 12 8 9 9 10 10 73 11 11 12
REMARK SMILES IDX 72 13 8 14 4 15 5 16 74 17 6 18 7 19 3 20 2 21 1 22 19 23
REMARK SMILES IDX 20 24 21 25 22 26 23 28 24 29 25 30 71 31 26 32 70 33 27 34
REMARK SMILES IDX 28 35 29 36 64 37 30 38 69 39 63 40 65 41 31 42 68 43 62 44
REMARK SMILES IDX 61 45 32 47 54 48 39 49 53 50 40 51 43 52 52 53 66 54 41 55
REMARK SMILES IDX 42 56 51 58 67 59 44 60 33 61 34 62 38 63 35 64 37 65 36 66
REMARK SMILES IDX 55 67 56 68 60 69 57 70 59 71 58 72 45 73 46 74 50 75 47 76
REMARK SMILES IDX 49 77 48 78
REMARK H PARENT 17 5 21 27 65 46 43 57
REMARK Flexibility Score: inf
ROOT
ATOM      1  C   UNL A   1      35.534  32.111  32.106  1.00  0.00     0.117 C 
ENDROOT
BRANCH   1   2
ATOM      2  N   UNL A   1      36.879  32.624  31.940  1.00  0.00    -0.356 N 
ATOM      3  C   UNL A   1      38.017  32.445  32.665  1.00  0.00     0.227 C 
ATOM      4  O   UNL A   1      39.008  33.084  32.289  1.00  0.00    -0.274 OA
ATOM      5  H   UNL A   1      36.990  33.212  31.159  1.00  0.00     0.163 HD
BRANCH   3   6
ATOM      6  C   UNL A   1      38.125  31.514  33.883  1.00  0.00     0.105 C 
ATOM      7  C   UNL A   1      37.829  32.182  35.224  1.00  0.00     0.023 C 
BRANCH   6   8
ATOM      8  C   UNL A   1      39.348  30.614  33.842  1.00  0.00    -0.036 A 
ATOM      9  C   UNL A   1      41.645  28.905  33.961  1.00  0.00    -0.018 A 
ATOM     10  C   UNL A   1      40.492  28.547  33.243  1.00  0.00     0.009 A 
ATOM     11  C   UNL A   1      41.628  30.164  34.584  1.00  0.00     0.009 A 
ATOM     12  C   UNL A   1      39.379  29.396  33.158  1.00  0.00     0.005 A 
ATOM     13  C   UNL A   1      40.499  30.991  34.546  1.00  0.00     0.005 A 
BRANCH   9  14
ATOM     14  C   UNL A   1      42.819  28.000  34.057  1.00  0.00    -0.018 A 
ATOM     15  C   UNL A   1      43.757  25.736  34.316  1.00  0.00    -0.044 A 
ATOM     16  C   UNL A   1      45.051  26.261  34.287  1.00  0.00     0.004 A 
ATOM     17  C   UNL A   1      42.661  26.607  34.178  1.00  0.00     0.012 A 
ATOM     18  C   UNL A   1      45.239  27.633  34.143  1.00  0.00     0.001 A 
ATOM     19  C   UNL A   1      44.137  28.489  34.042  1.00  0.00     0.009 A 
BRANCH  15  20
ATOM     20  C   UNL A   1      43.520  24.263  34.557  1.00  0.00     0.062 C 
BRANCH  20  21
ATOM     21  C   UNL A   1      44.212  23.420  33.519  1.00  0.00    -0.030 C 
ATOM     22  C   UNL A   1      44.245  23.703  32.210  1.00  0.00     0.004 C 
ENDBRANCH  20  21
ENDBRANCH  15  20
ENDBRANCH   9  14
ENDBRANCH   6   8
ENDBRANCH   3   6
ENDBRANCH   1   2
BRANCH   1  23
ATOM     23  C   UNL A   1      34.534  32.773  31.160  1.00  0.00     0.042 C 
BRANCH  23  24
ATOM     24  C   UNL A   1      34.986  32.816  29.704  1.00  0.00     0.118 C 
BRANCH  24  25
ATOM     25  N   UNL A   1      34.289  31.838  28.879  1.00  0.00    -0.352 N 
ATOM     26  C   UNL A   1      34.741  30.709  28.240  1.00  0.00     0.251 C 
ATOM     27  H   UNL A   1      33.329  32.017  28.758  1.00  0.00     0.163 HD
ATOM     28  O   UNL A   1      34.007  30.156  27.424  1.00  0.00    -0.269 OA
BRANCH  26  29
ATOM     29  C   UNL A   1      36.090  30.153  28.498  1.00  0.00     0.039 A 
ATOM     30  C   UNL A   1      37.043  30.211  27.473  1.00  0.00     0.014 A 
ATOM     31  C   UNL A   1      36.411  29.515  29.698  1.00  0.00     0.014 A 
ATOM     32  C   UNL A   1      38.325  29.691  27.674  1.00  0.00     0.010 A 
ATOM     33  C   UNL A   1      37.711  29.059  29.925  1.00  0.00     0.010 A 
ATOM     34  C   UNL A   1      38.681  29.142  28.916  1.00  0.00    -0.014 A 
BRANCH  34  35
ATOM     35  C   UNL A   1      40.065  28.669  29.179  1.00  0.00     0.031 A 
ATOM     36  C   UNL A   1      41.082  29.579  29.813  1.00  0.00     0.074 A 
ATOM     37  C   UNL A   1      40.429  27.433  28.782  1.00  0.00     0.049 A 
ATOM     38  N   UNL A   1      42.350  29.360  30.052  1.00  0.00    -0.248 NA
ATOM     39  C   UNL A   1      40.618  30.918  30.212  1.00  0.00     0.031 C 
ATOM     40  C   UNL A   1      39.555  26.465  28.116  1.00  0.00     0.029 A 
ATOM     41  N   UNL A   1      41.637  26.785  28.867  1.00  0.00    -0.354 N 
ATOM     42  C   UNL A   1      42.841  30.536  30.606  1.00  0.00     0.074 A 
ATOM     43  C   UNL A   1      41.743  31.477  30.639  1.00  0.00     0.031 C 
ATOM     44  C   UNL A   1      40.250  25.343  27.869  1.00  0.00     0.029 A 
ATOM     45  C   UNL A   1      41.625  25.525  28.321  1.00  0.00     0.049 A 
ATOM     46  H   UNL A   1      42.435  27.185  29.281  1.00  0.00     0.167 HD
ATOM     47  C   UNL A   1      44.090  30.804  31.057  1.00  0.00     0.031 A 
ATOM     48  C   UNL A   1      42.612  24.620  28.185  1.00  0.00     0.031 A 
ATOM     49  C   UNL A   1      45.179  29.866  31.046  1.00  0.00     0.049 A 
ATOM     50  C   UNL A   1      43.987  24.943  28.696  1.00  0.00     0.074 A 
ATOM     51  C   UNL A   1      46.459  30.025  31.551  1.00  0.00     0.029 A 
ATOM     52  N   UNL A   1      45.120  28.594  30.501  1.00  0.00    -0.354 N 
ATOM     53  N   UNL A   1      44.413  26.034  29.285  1.00  0.00    -0.248 NA
ATOM     54  C   UNL A   1      45.016  23.907  28.530  1.00  0.00     0.031 C 
ATOM     55  C   UNL A   1      47.188  28.865  31.270  1.00  0.00     0.029 A 
ATOM     56  C   UNL A   1      46.348  27.967  30.632  1.00  0.00     0.049 A 
ATOM     57  H   UNL A   1      44.324  28.195  30.082  1.00  0.00     0.167 HD
ATOM     58  C   UNL A   1      45.751  25.808  29.576  1.00  0.00     0.074 A 
ATOM     59  C   UNL A   1      46.062  24.470  29.118  1.00  0.00     0.031 C 
ATOM     60  C   UNL A   1      46.644  26.638  30.167  1.00  0.00     0.031 A 
BRANCH  47  61
ATOM     61  C   UNL A   1      44.353  32.181  31.601  1.00  0.00    -0.014 A 
ATOM     62  C   UNL A   1      44.765  33.226  30.761  1.00  0.00     0.009 A 
ATOM     63  C   UNL A   1      44.128  32.448  32.961  1.00  0.00     0.009 A 
ATOM     64  C   UNL A   1      44.973  34.508  31.277  1.00  0.00     0.001 A 
ATOM     65  C   UNL A   1      44.313  33.735  33.469  1.00  0.00     0.001 A 
ATOM     66  C   UNL A   1      44.741  34.762  32.629  1.00  0.00     0.000 A 
ENDBRANCH  47  61
BRANCH  48  67
ATOM     67  C   UNL A   1      42.339  23.313  27.532  1.00  0.00    -0.014 A 
ATOM     68  C   UNL A   1      42.643  23.117  26.176  1.00  0.00     0.009 A 
ATOM     69  C   UNL A   1      41.761  22.260  28.259  1.00  0.00     0.009 A 
ATOM     70  C   UNL A   1      42.348  21.902  25.555  1.00  0.00     0.001 A 
ATOM     71  C   UNL A   1      41.492  21.038  27.642  1.00  0.00     0.001 A 
ATOM     72  C   UNL A   1      41.776  20.863  26.287  1.00  0.00     0.000 A 
ENDBRANCH  48  67
BRANCH  60  73
ATOM     73  C   UNL A   1      48.035  26.112  30.370  1.00  0.00    -0.014 A 
ATOM     74  C   UNL A   1      48.961  26.085  29.315  1.00  0.00     0.009 A 
ATOM     75  C   UNL A   1      48.436  25.671  31.641  1.00  0.00     0.009 A 
ATOM     76  C   UNL A   1      50.251  25.596  29.522  1.00  0.00     0.001 A 
ATOM     77  C   UNL A   1      49.735  25.206  31.850  1.00  0.00     0.001 A 
ATOM     78  C   UNL A   1      50.639  25.161  30.789  1.00  0.00     0.000 A 
ENDBRANCH  60  73
ENDBRANCH  34  35
ENDBRANCH  26  29
ENDBRANCH  24  25
ENDBRANCH  23  24
ENDBRANCH   1  23
TORSDOF 14
ENDMDL
