MODEL 1
REMARK VINA RESULT:      -9.0      0.000      0.000
REMARK SMILES CCCCCCOC(=O)Nc1cccc(-c2ccc([C@@H](C)C(=O)NCCCNC(=O)c3ccc(-c4c5nc(c(-c6ccccc6)c6ccc([nH]6)c(-c6ccccc6)c6nc(c(-c7ccccc7)c7ccc4[nH]7)C=C6)C=C5)cc3)cc2F)c1
REMARK SMILES IDX 16 1 17 2 18 3 19 4 79 5 80 6 81 7 15 8 11 9 12 10 82 11
REMARK SMILES IDX 13 12 14 13 10 14 8 15 9 16 7 18 6 19 5 20 4 21 3 22 2 23
REMARK SMILES IDX 1 24 20 25 21 26 22 27 23 28 24 29 25 31 26 32 27 33 28 34
REMARK SMILES IDX 29 35 30 37 31 38 32 39 78 40 33 41 77 42 34 43 35 44 36 45
REMARK SMILES IDX 71 46 37 47 76 48 70 49 72 50 38 51 75 52 69 53 68 54 39 56
REMARK SMILES IDX 61 57 46 58 60 59 47 60 50 61 59 62 73 63 48 64 49 65 58 67
REMARK SMILES IDX 74 68 51 69 40 70 41 71 45 72 42 73 44 74 43 75 62 76 63 77
REMARK SMILES IDX 67 78 64 79 66 80 65 81 52 82 53 83 57 84 54 85 56 86 55 87
REMARK H PARENT 10 17 24 30 28 36 72 55 50 66
REMARK Flexibility Score: inf
ROOT
ATOM      1  C   UNL A   1      38.467  31.115  34.300  1.00  0.00     0.018 A 
ATOM      2  C   UNL A   1      38.159  32.346  34.894  1.00  0.00     0.012 A 
ATOM      3  C   UNL A   1      37.018  33.070  34.525  1.00  0.00     0.005 A 
ATOM      4  C   UNL A   1      36.177  32.628  33.498  1.00  0.00    -0.033 A 
ATOM      5  C   UNL A   1      36.455  31.382  32.925  1.00  0.00     0.044 A 
ATOM      6  C   UNL A   1      37.561  30.637  33.338  1.00  0.00     0.131 A 
ATOM      7  F   UNL A   1      37.736  29.433  32.773  1.00  0.00    -0.206 F 
ENDROOT
BRANCH   1   8
ATOM      8  C   UNL A   1      39.690  30.371  34.665  1.00  0.00    -0.013 A 
ATOM      9  C   UNL A   1      41.704  30.173  36.046  1.00  0.00     0.045 A 
ATOM     10  C   UNL A   1      42.127  29.081  35.295  1.00  0.00     0.026 A 
ATOM     11  C   UNL A   1      40.487  30.792  35.741  1.00  0.00     0.035 A 
ATOM     12  C   UNL A   1      41.319  28.593  34.270  1.00  0.00     0.003 A 
ATOM     13  C   UNL A   1      40.119  29.238  33.953  1.00  0.00     0.009 A 
BRANCH   9  14
ATOM     14  N   UNL A   1      42.567  30.707  37.010  1.00  0.00    -0.291 N 
ATOM     15  C   UNL A   1      42.429  31.899  37.672  1.00  0.00     0.411 C 
ATOM     16  O   UNL A   1      43.397  32.513  38.079  1.00  0.00    -0.224 OA
ATOM     17  H   UNL A   1      43.360  30.168  37.236  1.00  0.00     0.173 HD
BRANCH  15  18
ATOM     18  O   UNL A   1      41.127  32.212  37.916  1.00  0.00    -0.449 OA
BRANCH  18  19
ATOM     19  C   UNL A   1      40.845  33.364  38.726  1.00  0.00     0.235 C 
BRANCH  19  20
ATOM     20  C   UNL A   1      39.436  33.913  38.480  1.00  0.00     0.042 C 
BRANCH  20  21
ATOM     21  C   UNL A   1      38.981  35.025  39.434  1.00  0.00     0.003 C 
BRANCH  21  22
ATOM     22  C   UNL A   1      39.707  36.365  39.260  1.00  0.00    -0.000 C 
BRANCH  22  23
ATOM     23  C   UNL A   1      38.832  37.602  39.450  1.00  0.00    -0.003 C 
ATOM     24  C   UNL A   1      39.400  38.568  40.477  1.00  0.00     0.004 C 
ENDBRANCH  22  23
ENDBRANCH  21  22
ENDBRANCH  20  21
ENDBRANCH  19  20
ENDBRANCH  18  19
ENDBRANCH  15  18
ENDBRANCH   9  14
ENDBRANCH   1   8
BRANCH   4  25
ATOM     25  C   UNL A   1      35.014  33.446  32.962  1.00  0.00     0.105 C 
ATOM     26  C   UNL A   1      33.650  33.130  33.571  1.00  0.00     0.023 C 
BRANCH  25  27
ATOM     27  C   UNL A   1      35.326  34.945  32.835  1.00  0.00     0.227 C 
ATOM     28  O   UNL A   1      36.306  35.423  33.420  1.00  0.00    -0.274 OA
ATOM     29  N   UNL A   1      34.583  35.819  32.103  1.00  0.00    -0.356 N 
ATOM     30  H   UNL A   1      34.956  36.730  32.067  1.00  0.00     0.163 HD
BRANCH  29  31
ATOM     31  C   UNL A   1      33.346  35.658  31.368  1.00  0.00     0.117 C 
BRANCH  31  32
ATOM     32  C   UNL A   1      33.100  36.807  30.394  1.00  0.00     0.042 C 
BRANCH  32  33
ATOM     33  C   UNL A   1      33.519  36.500  28.963  1.00  0.00     0.118 C 
BRANCH  33  34
ATOM     34  N   UNL A   1      32.749  35.402  28.393  1.00  0.00    -0.352 N 
ATOM     35  C   UNL A   1      33.120  34.121  28.070  1.00  0.00     0.251 C 
ATOM     36  H   UNL A   1      31.805  35.614  28.210  1.00  0.00     0.163 HD
ATOM     37  O   UNL A   1      32.365  33.435  27.385  1.00  0.00    -0.269 OA
BRANCH  35  38
ATOM     38  C   UNL A   1      34.411  33.555  28.523  1.00  0.00     0.039 A 
ATOM     39  C   UNL A   1      35.593  34.030  27.944  1.00  0.00     0.014 A 
ATOM     40  C   UNL A   1      34.469  32.523  29.463  1.00  0.00     0.014 A 
ATOM     41  C   UNL A   1      36.826  33.509  28.343  1.00  0.00     0.010 A 
ATOM     42  C   UNL A   1      35.701  32.065  29.923  1.00  0.00     0.010 A 
ATOM     43  C   UNL A   1      36.893  32.543  29.359  1.00  0.00    -0.014 A 
BRANCH  43  44
ATOM     44  C   UNL A   1      38.196  32.010  29.832  1.00  0.00     0.031 A 
ATOM     45  C   UNL A   1      38.684  30.668  29.355  1.00  0.00     0.074 A 
ATOM     46  C   UNL A   1      38.916  32.709  30.730  1.00  0.00     0.049 A 
ATOM     47  N   UNL A   1      39.763  30.011  29.700  1.00  0.00    -0.248 NA
ATOM     48  C   UNL A   1      37.839  29.961  28.378  1.00  0.00     0.031 C 
ATOM     49  C   UNL A   1      38.540  34.007  31.296  1.00  0.00     0.029 A 
ATOM     50  N   UNL A   1      40.117  32.423  31.330  1.00  0.00    -0.354 N 
ATOM     51  C   UNL A   1      39.717  28.813  28.997  1.00  0.00     0.074 A 
ATOM     52  C   UNL A   1      38.480  28.809  28.247  1.00  0.00     0.031 C 
ATOM     53  C   UNL A   1      39.504  34.417  32.135  1.00  0.00     0.029 A 
ATOM     54  C   UNL A   1      40.542  33.395  32.204  1.00  0.00     0.049 A 
ATOM     55  H   UNL A   1      40.626  31.599  31.152  1.00  0.00     0.167 HD
ATOM     56  C   UNL A   1      40.631  27.814  28.961  1.00  0.00     0.031 A 
ATOM     57  C   UNL A   1      41.641  33.452  32.979  1.00  0.00     0.031 A 
ATOM     58  C   UNL A   1      41.866  27.821  29.698  1.00  0.00     0.049 A 
ATOM     59  C   UNL A   1      42.625  32.315  32.943  1.00  0.00     0.074 A 
ATOM     60  C   UNL A   1      42.878  26.877  29.695  1.00  0.00     0.029 A 
ATOM     61  N   UNL A   1      42.256  28.823  30.573  1.00  0.00    -0.354 N 
ATOM     62  N   UNL A   1      42.594  31.218  32.226  1.00  0.00    -0.248 NA
ATOM     63  C   UNL A   1      43.801  32.431  33.817  1.00  0.00     0.031 C 
ATOM     64  C   UNL A   1      43.857  27.283  30.606  1.00  0.00     0.029 A 
ATOM     65  C   UNL A   1      43.483  28.509  31.131  1.00  0.00     0.049 A 
ATOM     66  H   UNL A   1      41.737  29.636  30.769  1.00  0.00     0.167 HD
ATOM     67  C   UNL A   1      43.759  30.529  32.539  1.00  0.00     0.074 A 
ATOM     68  C   UNL A   1      44.483  31.342  33.495  1.00  0.00     0.031 C 
ATOM     69  C   UNL A   1      44.192  29.331  32.078  1.00  0.00     0.031 A 
BRANCH  56  70
ATOM     70  C   UNL A   1      40.327  26.626  28.090  1.00  0.00    -0.014 A 
ATOM     71  C   UNL A   1      39.505  25.582  28.544  1.00  0.00     0.009 A 
ATOM     72  C   UNL A   1      40.830  26.570  26.780  1.00  0.00     0.009 A 
ATOM     73  C   UNL A   1      39.222  24.492  27.720  1.00  0.00     0.001 A 
ATOM     74  C   UNL A   1      40.521  25.492  25.947  1.00  0.00     0.001 A 
ATOM     75  C   UNL A   1      39.725  24.451  26.420  1.00  0.00     0.000 A 
ENDBRANCH  56  70
BRANCH  57  76
ATOM     76  C   UNL A   1      41.881  34.629  33.856  1.00  0.00    -0.014 A 
ATOM     77  C   UNL A   1      41.379  34.653  35.167  1.00  0.00     0.009 A 
ATOM     78  C   UNL A   1      42.589  35.744  33.381  1.00  0.00     0.009 A 
ATOM     79  C   UNL A   1      41.552  35.783  35.971  1.00  0.00     0.001 A 
ATOM     80  C   UNL A   1      42.787  36.859  34.199  1.00  0.00     0.001 A 
ATOM     81  C   UNL A   1      42.258  36.883  35.488  1.00  0.00     0.000 A 
ENDBRANCH  57  76
BRANCH  69  82
ATOM     82  C   UNL A   1      45.526  28.846  32.569  1.00  0.00    -0.014 A 
ATOM     83  C   UNL A   1      46.716  29.186  31.906  1.00  0.00     0.009 A 
ATOM     84  C   UNL A   1      45.595  28.067  33.735  1.00  0.00     0.009 A 
ATOM     85  C   UNL A   1      47.944  28.724  32.383  1.00  0.00     0.001 A 
ATOM     86  C   UNL A   1      46.826  27.633  34.226  1.00  0.00     0.001 A 
ATOM     87  C   UNL A   1      47.999  27.954  33.545  1.00  0.00     0.000 A 
ENDBRANCH  69  82
ENDBRANCH  43  44
ENDBRANCH  35  38
ENDBRANCH  33  34
ENDBRANCH  32  33
ENDBRANCH  31  32
ENDBRANCH  29  31
ENDBRANCH  25  27
ENDBRANCH   4  25
TORSDOF 19
ENDMDL
MODEL 2
REMARK VINA RESULT:      -8.9      5.125     10.986
REMARK SMILES CCCCCCOC(=O)Nc1cccc(-c2ccc([C@@H](C)C(=O)NCCCNC(=O)c3ccc(-c4c5nc(c(-c6ccccc6)c6ccc([nH]6)c(-c6ccccc6)c6nc(c(-c7ccccc7)c7ccc4[nH]7)C=C6)C=C5)cc3)cc2F)c1
REMARK SMILES IDX 16 1 17 2 18 3 19 4 79 5 80 6 81 7 15 8 11 9 12 10 82 11
REMARK SMILES IDX 13 12 14 13 10 14 8 15 9 16 7 18 6 19 5 20 4 21 3 22 2 23
REMARK SMILES IDX 1 24 20 25 21 26 22 27 23 28 24 29 25 31 26 32 27 33 28 34
REMARK SMILES IDX 29 35 30 37 31 38 32 39 78 40 33 41 77 42 34 43 35 44 36 45
REMARK SMILES IDX 71 46 37 47 76 48 70 49 72 50 38 51 75 52 69 53 68 54 39 56
REMARK SMILES IDX 61 57 46 58 60 59 47 60 50 61 59 62 73 63 48 64 49 65 58 67
REMARK SMILES IDX 74 68 51 69 40 70 41 71 45 72 42 73 44 74 43 75 62 76 63 77
REMARK SMILES IDX 67 78 64 79 66 80 65 81 52 82 53 83 57 84 54 85 56 86 55 87
REMARK H PARENT 10 17 24 30 28 36 72 55 50 66
REMARK Flexibility Score: inf
ROOT
ATOM      1  C   UNL A   1      32.384  29.320  25.853  1.00  0.00     0.018 A 
ATOM      2  C   UNL A   1      32.102  30.533  26.496  1.00  0.00     0.012 A 
ATOM      3  C   UNL A   1      33.027  31.132  27.362  1.00  0.00     0.005 A 
ATOM      4  C   UNL A   1      34.239  30.509  27.676  1.00  0.00    -0.033 A 
ATOM      5  C   UNL A   1      34.545  29.317  27.010  1.00  0.00     0.044 A 
ATOM      6  C   UNL A   1      33.646  28.754  26.104  1.00  0.00     0.131 A 
ATOM      7  F   UNL A   1      34.030  27.634  25.473  1.00  0.00    -0.206 F 
ENDROOT
BRANCH   1   8
ATOM      8  C   UNL A   1      31.394  28.672  24.969  1.00  0.00    -0.013 A 
ATOM      9  C   UNL A   1      30.307  26.630  24.161  1.00  0.00     0.045 A 
ATOM     10  C   UNL A   1      29.634  27.359  23.186  1.00  0.00     0.026 A 
ATOM     11  C   UNL A   1      31.160  27.290  25.053  1.00  0.00     0.035 A 
ATOM     12  C   UNL A   1      29.787  28.742  23.130  1.00  0.00     0.003 A 
ATOM     13  C   UNL A   1      30.666  29.390  24.005  1.00  0.00     0.009 A 
BRANCH   9  14
ATOM     14  N   UNL A   1      30.215  25.233  24.147  1.00  0.00    -0.291 N 
ATOM     15  C   UNL A   1      30.839  24.373  23.282  1.00  0.00     0.411 C 
ATOM     16  O   UNL A   1      30.352  23.295  23.000  1.00  0.00    -0.224 OA
ATOM     17  H   UNL A   1      29.639  24.825  24.833  1.00  0.00     0.173 HD
BRANCH  15  18
ATOM     18  O   UNL A   1      32.072  24.812  22.909  1.00  0.00    -0.449 OA
BRANCH  18  19
ATOM     19  C   UNL A   1      33.062  23.835  22.551  1.00  0.00     0.235 C 
BRANCH  19  20
ATOM     20  C   UNL A   1      33.829  23.314  23.772  1.00  0.00     0.042 C 
BRANCH  20  21
ATOM     21  C   UNL A   1      34.294  24.382  24.769  1.00  0.00     0.003 C 
BRANCH  21  22
ATOM     22  C   UNL A   1      33.481  24.451  26.069  1.00  0.00    -0.000 C 
BRANCH  22  23
ATOM     23  C   UNL A   1      32.759  23.159  26.448  1.00  0.00    -0.003 C 
ATOM     24  C   UNL A   1      31.335  23.401  26.920  1.00  0.00     0.004 C 
ENDBRANCH  22  23
ENDBRANCH  21  22
ENDBRANCH  20  21
ENDBRANCH  19  20
ENDBRANCH  18  19
ENDBRANCH  15  18
ENDBRANCH   9  14
ENDBRANCH   1   8
BRANCH   4  25
ATOM     25  C   UNL A   1      35.206  31.044  28.719  1.00  0.00     0.105 C 
ATOM     26  C   UNL A   1      36.273  30.061  29.194  1.00  0.00     0.023 C 
BRANCH  25  27
ATOM     27  C   UNL A   1      35.729  32.454  28.404  1.00  0.00     0.227 C 
ATOM     28  O   UNL A   1      36.746  32.594  27.714  1.00  0.00    -0.274 OA
ATOM     29  N   UNL A   1      35.140  33.601  28.839  1.00  0.00    -0.356 N 
ATOM     30  H   UNL A   1      35.558  34.423  28.492  1.00  0.00     0.163 HD
BRANCH  29  31
ATOM     31  C   UNL A   1      34.014  33.837  29.718  1.00  0.00     0.117 C 
BRANCH  31  32
ATOM     32  C   UNL A   1      34.443  34.003  31.173  1.00  0.00     0.042 C 
BRANCH  32  33
ATOM     33  C   UNL A   1      34.758  32.688  31.874  1.00  0.00     0.118 C 
BRANCH  33  34
ATOM     34  N   UNL A   1      35.358  32.899  33.185  1.00  0.00    -0.352 N 
ATOM     35  C   UNL A   1      36.567  32.494  33.693  1.00  0.00     0.251 C 
ATOM     36  H   UNL A   1      34.804  33.420  33.811  1.00  0.00     0.163 HD
ATOM     37  O   UNL A   1      36.768  32.586  34.901  1.00  0.00    -0.269 OA
BRANCH  35  38
ATOM     38  C   UNL A   1      37.625  31.943  32.816  1.00  0.00     0.039 A 
ATOM     39  C   UNL A   1      37.779  32.478  31.532  1.00  0.00     0.014 A 
ATOM     40  C   UNL A   1      38.422  30.868  33.217  1.00  0.00     0.014 A 
ATOM     41  C   UNL A   1      38.761  31.972  30.677  1.00  0.00     0.010 A 
ATOM     42  C   UNL A   1      39.457  30.423  32.398  1.00  0.00     0.010 A 
ATOM     43  C   UNL A   1      39.631  30.960  31.115  1.00  0.00    -0.014 A 
BRANCH  43  44
ATOM     44  C   UNL A   1      40.713  30.441  30.240  1.00  0.00     0.031 A 
ATOM     45  C   UNL A   1      41.914  31.296  29.932  1.00  0.00     0.074 A 
ATOM     46  C   UNL A   1      40.592  29.221  29.682  1.00  0.00     0.049 A 
ATOM     47  N   UNL A   1      42.928  31.041  29.145  1.00  0.00    -0.248 NA
ATOM     48  C   UNL A   1      41.972  32.619  30.575  1.00  0.00     0.031 C 
ATOM     49  C   UNL A   1      39.464  28.307  29.875  1.00  0.00     0.029 A 
ATOM     50  N   UNL A   1      41.428  28.541  28.831  1.00  0.00    -0.354 N 
ATOM     51  C   UNL A   1      43.733  32.174  29.187  1.00  0.00     0.074 A 
ATOM     52  C   UNL A   1      43.065  33.136  30.033  1.00  0.00     0.031 C 
ATOM     53  C   UNL A   1      39.693  27.176  29.190  1.00  0.00     0.029 A 
ATOM     54  C   UNL A   1      40.957  27.301  28.472  1.00  0.00     0.049 A 
ATOM     55  H   UNL A   1      42.283  28.907  28.509  1.00  0.00     0.167 HD
ATOM     56  C   UNL A   1      44.931  32.386  28.592  1.00  0.00     0.031 A 
ATOM     57  C   UNL A   1      41.482  26.372  27.652  1.00  0.00     0.031 A 
ATOM     58  C   UNL A   1      45.602  31.426  27.757  1.00  0.00     0.049 A 
ATOM     59  C   UNL A   1      42.799  26.647  26.979  1.00  0.00     0.074 A 
ATOM     60  C   UNL A   1      46.838  31.530  27.144  1.00  0.00     0.029 A 
ATOM     61  N   UNL A   1      45.089  30.183  27.417  1.00  0.00    -0.354 N 
ATOM     62  N   UNL A   1      43.574  27.699  27.079  1.00  0.00    -0.248 NA
ATOM     63  C   UNL A   1      43.317  25.599  26.089  1.00  0.00     0.031 C 
ATOM     64  C   UNL A   1      47.052  30.371  26.392  1.00  0.00     0.029 A 
ATOM     65  C   UNL A   1      45.975  29.521  26.585  1.00  0.00     0.049 A 
ATOM     66  H   UNL A   1      44.224  29.826  27.721  1.00  0.00     0.167 HD
ATOM     67  C   UNL A   1      44.684  27.426  26.290  1.00  0.00     0.074 A 
ATOM     68  C   UNL A   1      44.490  26.103  25.735  1.00  0.00     0.031 C 
ATOM     69  C   UNL A   1      45.769  28.202  26.045  1.00  0.00     0.031 A 
BRANCH  56  70
ATOM     70  C   UNL A   1      45.596  33.715  28.825  1.00  0.00    -0.014 A 
ATOM     71  C   UNL A   1      45.339  34.814  27.990  1.00  0.00     0.009 A 
ATOM     72  C   UNL A   1      46.456  33.885  29.923  1.00  0.00     0.009 A 
ATOM     73  C   UNL A   1      45.954  36.045  28.227  1.00  0.00     0.001 A 
ATOM     74  C   UNL A   1      47.046  35.126  30.175  1.00  0.00     0.001 A 
ATOM     75  C   UNL A   1      46.802  36.201  29.323  1.00  0.00     0.000 A 
ENDBRANCH  56  70
BRANCH  57  76
ATOM     76  C   UNL A   1      40.769  25.088  27.418  1.00  0.00    -0.014 A 
ATOM     77  C   UNL A   1      41.220  23.904  28.021  1.00  0.00     0.009 A 
ATOM     78  C   UNL A   1      39.650  25.033  26.572  1.00  0.00     0.009 A 
ATOM     79  C   UNL A   1      40.588  22.687  27.754  1.00  0.00     0.001 A 
ATOM     80  C   UNL A   1      39.000  23.820  26.333  1.00  0.00     0.001 A 
ATOM     81  C   UNL A   1      39.477  22.646  26.914  1.00  0.00     0.000 A 
ENDBRANCH  57  76
BRANCH  69  82
ATOM     82  C   UNL A   1      46.845  27.623  25.172  1.00  0.00    -0.014 A 
ATOM     83  C   UNL A   1      46.965  27.986  23.822  1.00  0.00     0.009 A 
ATOM     84  C   UNL A   1      47.776  26.727  25.722  1.00  0.00     0.009 A 
ATOM     85  C   UNL A   1      47.975  27.434  23.031  1.00  0.00     0.001 A 
ATOM     86  C   UNL A   1      48.803  26.203  24.937  1.00  0.00     0.001 A 
ATOM     87  C   UNL A   1      48.896  26.549  23.590  1.00  0.00     0.000 A 
ENDBRANCH  69  82
ENDBRANCH  43  44
ENDBRANCH  35  38
ENDBRANCH  33  34
ENDBRANCH  32  33
ENDBRANCH  31  32
ENDBRANCH  29  31
ENDBRANCH  25  27
ENDBRANCH   4  25
TORSDOF 19
ENDMDL
MODEL 3
REMARK VINA RESULT:      -8.8      4.160      9.562
REMARK SMILES CCCCCCOC(=O)Nc1cccc(-c2ccc([C@@H](C)C(=O)NCCCNC(=O)c3ccc(-c4c5nc(c(-c6ccccc6)c6ccc([nH]6)c(-c6ccccc6)c6nc(c(-c7ccccc7)c7ccc4[nH]7)C=C6)C=C5)cc3)cc2F)c1
REMARK SMILES IDX 16 1 17 2 18 3 19 4 79 5 80 6 81 7 15 8 11 9 12 10 82 11
REMARK SMILES IDX 13 12 14 13 10 14 8 15 9 16 7 18 6 19 5 20 4 21 3 22 2 23
REMARK SMILES IDX 1 24 20 25 21 26 22 27 23 28 24 29 25 31 26 32 27 33 28 34
REMARK SMILES IDX 29 35 30 37 31 38 32 39 78 40 33 41 77 42 34 43 35 44 36 45
REMARK SMILES IDX 71 46 37 47 76 48 70 49 72 50 38 51 75 52 69 53 68 54 39 56
REMARK SMILES IDX 61 57 46 58 60 59 47 60 50 61 59 62 73 63 48 64 49 65 58 67
REMARK SMILES IDX 74 68 51 69 40 70 41 71 45 72 42 73 44 74 43 75 62 76 63 77
REMARK SMILES IDX 67 78 64 79 66 80 65 81 52 82 53 83 57 84 54 85 56 86 55 87
REMARK H PARENT 10 17 24 30 28 36 72 55 50 66
REMARK Flexibility Score: inf
ROOT
ATOM      1  C   UNL A   1      40.462  26.255  28.042  1.00  0.00     0.018 A 
ATOM      2  C   UNL A   1      41.810  26.099  28.389  1.00  0.00     0.012 A 
ATOM      3  C   UNL A   1      42.518  24.935  28.062  1.00  0.00     0.005 A 
ATOM      4  C   UNL A   1      41.890  23.852  27.440  1.00  0.00    -0.033 A 
ATOM      5  C   UNL A   1      40.554  24.013  27.055  1.00  0.00     0.044 A 
ATOM      6  C   UNL A   1      39.870  25.197  27.331  1.00  0.00     0.131 A 
ATOM      7  F   UNL A   1      38.605  25.292  26.891  1.00  0.00    -0.206 F 
ENDROOT
BRANCH   1   8
ATOM      8  C   UNL A   1      39.706  27.467  28.419  1.00  0.00    -0.013 A 
ATOM      9  C   UNL A   1      38.222  28.622  29.988  1.00  0.00     0.045 A 
ATOM     10  C   UNL A   1      38.111  29.697  29.112  1.00  0.00     0.026 A 
ATOM     11  C   UNL A   1      39.030  27.532  29.647  1.00  0.00     0.035 A 
ATOM     12  C   UNL A   1      38.833  29.694  27.921  1.00  0.00     0.003 A 
ATOM     13  C   UNL A   1      39.614  28.586  27.574  1.00  0.00     0.009 A 
BRANCH   9  14
ATOM     14  N   UNL A   1      37.420  28.599  31.136  1.00  0.00    -0.291 N 
ATOM     15  C   UNL A   1      37.753  29.056  32.384  1.00  0.00     0.411 C 
ATOM     16  O   UNL A   1      37.261  28.574  33.387  1.00  0.00    -0.224 OA
ATOM     17  H   UNL A   1      36.520  28.212  31.035  1.00  0.00     0.173 HD
BRANCH  15  18
ATOM     18  O   UNL A   1      38.559  30.152  32.341  1.00  0.00    -0.449 OA
BRANCH  18  19
ATOM     19  C   UNL A   1      38.446  31.121  33.394  1.00  0.00     0.235 C 
BRANCH  19  20
ATOM     20  C   UNL A   1      37.264  32.073  33.181  1.00  0.00     0.042 C 
BRANCH  20  21
ATOM     21  C   UNL A   1      37.238  32.810  31.837  1.00  0.00     0.003 C 
BRANCH  21  22
ATOM     22  C   UNL A   1      37.872  34.207  31.852  1.00  0.00    -0.000 C 
BRANCH  22  23
ATOM     23  C   UNL A   1      38.707  34.549  30.619  1.00  0.00    -0.003 C 
ATOM     24  C   UNL A   1      38.598  33.496  29.528  1.00  0.00     0.004 C 
ENDBRANCH  22  23
ENDBRANCH  21  22
ENDBRANCH  20  21
ENDBRANCH  19  20
ENDBRANCH  18  19
ENDBRANCH  15  18
ENDBRANCH   9  14
ENDBRANCH   1   8
BRANCH   4  25
ATOM     25  C   UNL A   1      42.574  22.517  27.198  1.00  0.00     0.105 C 
ATOM     26  C   UNL A   1      42.312  21.442  28.251  1.00  0.00     0.023 C 
BRANCH  25  27
ATOM     27  C   UNL A   1      42.470  22.028  25.745  1.00  0.00     0.227 C 
ATOM     28  O   UNL A   1      41.713  21.093  25.462  1.00  0.00    -0.274 OA
ATOM     29  N   UNL A   1      43.172  22.564  24.709  1.00  0.00    -0.356 N 
ATOM     30  H   UNL A   1      42.939  22.185  23.830  1.00  0.00     0.163 HD
BRANCH  29  31
ATOM     31  C   UNL A   1      44.195  23.586  24.659  1.00  0.00     0.117 C 
BRANCH  31  32
ATOM     32  C   UNL A   1      45.560  23.058  25.094  1.00  0.00     0.042 C 
BRANCH  32  33
ATOM     33  C   UNL A   1      46.423  24.095  25.799  1.00  0.00     0.118 C 
BRANCH  33  34
ATOM     34  N   UNL A   1      46.900  25.123  24.884  1.00  0.00    -0.352 N 
ATOM     35  C   UNL A   1      46.684  26.478  24.868  1.00  0.00     0.251 C 
ATOM     36  H   UNL A   1      47.474  24.790  24.156  1.00  0.00     0.163 HD
ATOM     37  O   UNL A   1      46.995  27.121  23.868  1.00  0.00    -0.269 OA
BRANCH  35  38
ATOM     38  C   UNL A   1      46.078  27.175  26.025  1.00  0.00     0.039 A 
ATOM     39  C   UNL A   1      46.907  27.571  27.080  1.00  0.00     0.014 A 
ATOM     40  C   UNL A   1      44.700  27.387  26.112  1.00  0.00     0.014 A 
ATOM     41  C   UNL A   1      46.364  28.221  28.190  1.00  0.00     0.010 A 
ATOM     42  C   UNL A   1      44.171  28.111  27.178  1.00  0.00     0.010 A 
ATOM     43  C   UNL A   1      44.993  28.525  28.234  1.00  0.00    -0.014 A 
BRANCH  43  44
ATOM     44  C   UNL A   1      44.403  29.258  29.383  1.00  0.00     0.031 A 
ATOM     45  C   UNL A   1      44.078  28.530  30.661  1.00  0.00     0.074 A 
ATOM     46  C   UNL A   1      44.111  30.567  29.261  1.00  0.00     0.049 A 
ATOM     47  N   UNL A   1      43.506  28.984  31.747  1.00  0.00    -0.248 NA
ATOM     48  C   UNL A   1      44.421  27.099  30.718  1.00  0.00     0.031 C 
ATOM     49  C   UNL A   1      44.346  31.382  28.066  1.00  0.00     0.029 A 
ATOM     50  N   UNL A   1      43.547  31.445  30.153  1.00  0.00    -0.354 N 
ATOM     51  C   UNL A   1      43.408  27.895  32.606  1.00  0.00     0.074 A 
ATOM     52  C   UNL A   1      43.930  26.748  31.896  1.00  0.00     0.031 C 
ATOM     53  C   UNL A   1      43.959  32.644  28.311  1.00  0.00     0.029 A 
ATOM     54  C   UNL A   1      43.406  32.719  29.658  1.00  0.00     0.049 A 
ATOM     55  H   UNL A   1      43.269  31.186  31.061  1.00  0.00     0.167 HD
ATOM     56  C   UNL A   1      42.945  27.856  33.878  1.00  0.00     0.031 A 
ATOM     57  C   UNL A   1      42.883  33.823  30.224  1.00  0.00     0.031 A 
ATOM     58  C   UNL A   1      42.435  28.998  34.589  1.00  0.00     0.049 A 
ATOM     59  C   UNL A   1      42.347  33.744  31.628  1.00  0.00     0.074 A 
ATOM     60  C   UNL A   1      41.983  29.070  35.895  1.00  0.00     0.029 A 
ATOM     61  N   UNL A   1      42.307  30.269  34.050  1.00  0.00    -0.354 N 
ATOM     62  N   UNL A   1      42.319  32.720  32.445  1.00  0.00    -0.248 NA
ATOM     63  C   UNL A   1      41.782  34.979  32.189  1.00  0.00     0.031 C 
ATOM     64  C   UNL A   1      41.535  30.373  36.131  1.00  0.00     0.029 A 
ATOM     65  C   UNL A   1      41.764  31.126  34.991  1.00  0.00     0.049 A 
ATOM     66  H   UNL A   1      42.565  30.523  33.135  1.00  0.00     0.167 HD
ATOM     67  C   UNL A   1      41.761  33.194  33.626  1.00  0.00     0.074 A 
ATOM     68  C   UNL A   1      41.486  34.602  33.424  1.00  0.00     0.031 C 
ATOM     69  C   UNL A   1      41.500  32.525  34.775  1.00  0.00     0.031 A 
BRANCH  56  70
ATOM     70  C   UNL A   1      42.971  26.529  34.586  1.00  0.00    -0.014 A 
ATOM     71  C   UNL A   1      41.785  25.833  34.871  1.00  0.00     0.009 A 
ATOM     72  C   UNL A   1      44.200  25.943  34.931  1.00  0.00     0.009 A 
ATOM     73  C   UNL A   1      41.826  24.597  35.518  1.00  0.00     0.001 A 
ATOM     74  C   UNL A   1      44.239  24.691  35.551  1.00  0.00     0.001 A 
ATOM     75  C   UNL A   1      43.053  24.024  35.851  1.00  0.00     0.000 A 
ENDBRANCH  56  70
BRANCH  57  76
ATOM     76  C   UNL A   1      42.841  35.105  29.471  1.00  0.00    -0.014 A 
ATOM     77  C   UNL A   1      43.858  36.058  29.634  1.00  0.00     0.009 A 
ATOM     78  C   UNL A   1      41.773  35.393  28.607  1.00  0.00     0.009 A 
ATOM     79  C   UNL A   1      43.788  37.288  28.974  1.00  0.00     0.001 A 
ATOM     80  C   UNL A   1      41.723  36.610  27.924  1.00  0.00     0.001 A 
ATOM     81  C   UNL A   1      42.724  37.561  28.117  1.00  0.00     0.000 A 
ENDBRANCH  57  76
BRANCH  69  82
ATOM     82  C   UNL A   1      40.924  33.316  35.915  1.00  0.00    -0.014 A 
ATOM     83  C   UNL A   1      39.537  33.430  36.097  1.00  0.00     0.009 A 
ATOM     84  C   UNL A   1      41.785  33.925  36.841  1.00  0.00     0.009 A 
ATOM     85  C   UNL A   1      39.025  34.171  37.165  1.00  0.00     0.001 A 
ATOM     86  C   UNL A   1      41.270  34.637  37.925  1.00  0.00     0.001 A 
ATOM     87  C   UNL A   1      39.892  34.768  38.081  1.00  0.00     0.000 A 
ENDBRANCH  69  82
ENDBRANCH  43  44
ENDBRANCH  35  38
ENDBRANCH  33  34
ENDBRANCH  32  33
ENDBRANCH  31  32
ENDBRANCH  29  31
ENDBRANCH  25  27
ENDBRANCH   4  25
TORSDOF 19
ENDMDL
