MODEL 1
REMARK VINA RESULT:     -10.3      0.000      0.000
REMARK SMILES CCC[N@H+](CC(=O)NCCCNC(=O)c1ccc(-c2c3nc(c(-c4ccccc4)c4ccc([nH]4)c(-c4ccccc4)c4nc(c(-c5ccccc5)c5ccc2[nH]5)C=C4)C=C3)cc1)[C@H]1CCOC2(CCCCC2)C1
REMARK SMILES IDX 9 1 8 2 6 3 7 4 5 6 4 7 3 9 2 10 1 11 63 12 64 13 73 14
REMARK SMILES IDX 65 15 67 16 66 17 68 18 72 19 69 20 71 21 70 22 10 23 11 24
REMARK SMILES IDX 12 25 13 26 14 28 15 29 16 30 62 31 17 32 61 33 18 34 19 35
REMARK SMILES IDX 20 36 55 37 21 38 60 39 54 40 56 41 22 42 59 43 53 44 52 45
REMARK SMILES IDX 23 47 45 48 30 49 44 50 31 51 34 52 43 53 57 54 32 55 33 56
REMARK SMILES IDX 42 58 58 59 35 60 24 61 25 62 29 63 26 64 28 65 27 66 46 67
REMARK SMILES IDX 47 68 51 69 48 70 50 71 49 72 36 73 37 74 41 75 38 76 40 77
REMARK SMILES IDX 39 78
REMARK H PARENT 8 5 4 8 12 27 56 46 34 57
REMARK Flexibility Score: inf
ROOT
ATOM      1  C   UNL A   1      34.271  23.636  25.474  1.00  0.00     0.118 C 
ENDROOT
BRANCH   1   2
ATOM      2  N   UNL A   1      33.185  23.920  26.402  1.00  0.00    -0.351 N 
ATOM      3  C   UNL A   1      31.860  24.198  26.192  1.00  0.00     0.275 C 
ATOM      4  O   UNL A   1      31.163  24.408  27.189  1.00  0.00    -0.269 OA
ATOM      5  H   UNL A   1      33.450  23.912  27.350  1.00  0.00     0.163 HD
BRANCH   3   6
ATOM      6  C   UNL A   1      31.272  24.233  24.773  1.00  0.00     0.363 C 
BRANCH   6   7
ATOM      7  N   UNL A   1      30.903  25.612  24.310  1.00  0.00    -0.325 N 
ATOM      8  H   UNL A   1      30.842  25.678  23.294  1.00  0.00     0.348 HD
BRANCH   7   9
ATOM      9  C   UNL A   1      29.550  25.942  24.794  1.00  0.00     0.262 C 
BRANCH   9  10
ATOM     10  C   UNL A   1      28.470  26.505  23.863  1.00  0.00     0.058 C 
ATOM     11  C   UNL A   1      28.826  27.864  23.283  1.00  0.00     0.010 C 
ENDBRANCH   9  10
ENDBRANCH   7   9
BRANCH   7  12
ATOM     12  C   UNL A   1      31.984  26.563  24.702  1.00  0.00     0.189 C 
ATOM     13  C   UNL A   1      32.716  27.119  23.474  1.00  0.00     0.093 C 
ATOM     14  C   UNL A   1      31.551  27.676  25.672  1.00  0.00     0.100 C 
ATOM     15  C   UNL A   1      33.755  28.155  23.866  1.00  0.00     0.167 C 
ATOM     16  C   UNL A   1      32.644  28.727  25.934  1.00  0.00     0.074 C 
ATOM     17  O   UNL A   1      33.192  29.176  24.685  1.00  0.00    -0.375 OA
ATOM     18  C   UNL A   1      33.748  28.213  26.883  1.00  0.00     0.036 C 
ATOM     19  C   UNL A   1      31.971  29.958  26.589  1.00  0.00     0.036 C 
ATOM     20  C   UNL A   1      34.770  29.307  27.208  1.00  0.00     0.003 C 
ATOM     21  C   UNL A   1      32.970  31.059  26.941  1.00  0.00     0.003 C 
ATOM     22  C   UNL A   1      34.100  30.535  27.818  1.00  0.00     0.000 C 
ENDBRANCH   7  12
ENDBRANCH   6   7
ENDBRANCH   3   6
ENDBRANCH   1   2
BRANCH   1  23
ATOM     23  C   UNL A   1      35.655  23.682  26.128  1.00  0.00     0.042 C 
BRANCH  23  24
ATOM     24  C   UNL A   1      36.818  23.728  25.144  1.00  0.00     0.118 C 
BRANCH  24  25
ATOM     25  N   UNL A   1      37.852  22.771  25.495  1.00  0.00    -0.352 N 
ATOM     26  C   UNL A   1      39.070  22.970  26.101  1.00  0.00     0.251 C 
ATOM     27  H   UNL A   1      37.650  21.835  25.265  1.00  0.00     0.163 HD
ATOM     28  O   UNL A   1      39.909  22.075  26.063  1.00  0.00    -0.269 OA
BRANCH  26  29
ATOM     29  C   UNL A   1      39.394  24.243  26.790  1.00  0.00     0.039 A 
ATOM     30  C   UNL A   1      40.134  25.211  26.099  1.00  0.00     0.014 A 
ATOM     31  C   UNL A   1      39.059  24.464  28.129  1.00  0.00     0.014 A 
ATOM     32  C   UNL A   1      40.500  26.404  26.732  1.00  0.00     0.010 A 
ATOM     33  C   UNL A   1      39.365  25.683  28.739  1.00  0.00     0.010 A 
ATOM     34  C   UNL A   1      40.103  26.659  28.054  1.00  0.00    -0.014 A 
BRANCH  34  35
ATOM     35  C   UNL A   1      40.478  27.922  28.746  1.00  0.00     0.031 A 
ATOM     36  C   UNL A   1      41.841  28.067  29.369  1.00  0.00     0.074 A 
ATOM     37  C   UNL A   1      39.581  28.919  28.867  1.00  0.00     0.049 A 
ATOM     38  N   UNL A   1      42.322  29.052  30.088  1.00  0.00    -0.248 NA
ATOM     39  C   UNL A   1      42.782  26.952  29.176  1.00  0.00     0.031 C 
ATOM     40  C   UNL A   1      38.219  28.906  28.333  1.00  0.00     0.029 A 
ATOM     41  N   UNL A   1      39.682  30.137  29.493  1.00  0.00    -0.354 N 
ATOM     42  C   UNL A   1      43.604  28.663  30.454  1.00  0.00     0.074 A 
ATOM     43  C   UNL A   1      43.816  27.341  29.908  1.00  0.00     0.031 C 
ATOM     44  C   UNL A   1      37.617  30.068  28.638  1.00  0.00     0.029 A 
ATOM     45  C   UNL A   1      38.535  30.890  29.421  1.00  0.00     0.049 A 
ATOM     46  H   UNL A   1      40.499  30.443  29.949  1.00  0.00     0.167 HD
ATOM     47  C   UNL A   1      44.529  29.348  31.168  1.00  0.00     0.031 A 
ATOM     48  C   UNL A   1      38.247  32.100  29.936  1.00  0.00     0.031 A 
ATOM     49  C   UNL A   1      44.338  30.672  31.694  1.00  0.00     0.049 A 
ATOM     50  C   UNL A   1      39.286  32.835  30.736  1.00  0.00     0.074 A 
ATOM     51  C   UNL A   1      45.243  31.468  32.377  1.00  0.00     0.029 A 
ATOM     52  N   UNL A   1      43.162  31.398  31.593  1.00  0.00    -0.354 N 
ATOM     53  N   UNL A   1      40.510  32.472  31.029  1.00  0.00    -0.248 NA
ATOM     54  C   UNL A   1      38.902  34.151  31.269  1.00  0.00     0.031 C 
ATOM     55  C   UNL A   1      44.600  32.661  32.725  1.00  0.00     0.029 A 
ATOM     56  C   UNL A   1      43.311  32.624  32.221  1.00  0.00     0.049 A 
ATOM     57  H   UNL A   1      42.344  31.088  31.144  1.00  0.00     0.167 HD
ATOM     58  C   UNL A   1      41.049  33.520  31.764  1.00  0.00     0.074 A 
ATOM     59  C   UNL A   1      40.024  34.539  31.859  1.00  0.00     0.031 C 
ATOM     60  C   UNL A   1      42.284  33.628  32.310  1.00  0.00     0.031 A 
BRANCH  47  61
ATOM     61  C   UNL A   1      45.842  28.664  31.432  1.00  0.00    -0.014 A 
ATOM     62  C   UNL A   1      46.925  28.806  30.551  1.00  0.00     0.009 A 
ATOM     63  C   UNL A   1      46.007  27.898  32.596  1.00  0.00     0.009 A 
ATOM     64  C   UNL A   1      48.137  28.164  30.813  1.00  0.00     0.001 A 
ATOM     65  C   UNL A   1      47.229  27.278  32.868  1.00  0.00     0.001 A 
ATOM     66  C   UNL A   1      48.288  27.404  31.972  1.00  0.00     0.000 A 
ENDBRANCH  47  61
BRANCH  48  67
ATOM     67  C   UNL A   1      36.909  32.702  29.709  1.00  0.00    -0.014 A 
ATOM     68  C   UNL A   1      35.900  32.573  30.675  1.00  0.00     0.009 A 
ATOM     69  C   UNL A   1      36.634  33.407  28.527  1.00  0.00     0.009 A 
ATOM     70  C   UNL A   1      34.635  33.120  30.453  1.00  0.00     0.001 A 
ATOM     71  C   UNL A   1      35.375  33.974  28.318  1.00  0.00     0.001 A 
ATOM     72  C   UNL A   1      34.374  33.824  29.278  1.00  0.00     0.000 A 
ENDBRANCH  48  67
BRANCH  60  73
ATOM     73  C   UNL A   1      42.607  34.901  33.035  1.00  0.00    -0.014 A 
ATOM     74  C   UNL A   1      43.293  35.945  32.396  1.00  0.00     0.009 A 
ATOM     75  C   UNL A   1      42.179  35.075  34.360  1.00  0.00     0.009 A 
ATOM     76  C   UNL A   1      43.566  37.131  33.080  1.00  0.00     0.001 A 
ATOM     77  C   UNL A   1      42.434  36.271  35.034  1.00  0.00     0.001 A 
ATOM     78  C   UNL A   1      43.133  37.294  34.396  1.00  0.00     0.000 A 
ENDBRANCH  60  73
ENDBRANCH  34  35
ENDBRANCH  26  29
ENDBRANCH  24  25
ENDBRANCH  23  24
ENDBRANCH   1  23
TORSDOF 14
ENDMDL
MODEL 2
REMARK VINA RESULT:     -10.3      2.496      7.491
REMARK SMILES CCC[N@H+](CC(=O)NCCCNC(=O)c1ccc(-c2c3nc(c(-c4ccccc4)c4ccc([nH]4)c(-c4ccccc4)c4nc(c(-c5ccccc5)c5ccc2[nH]5)C=C4)C=C3)cc1)[C@H]1CCOC2(CCCCC2)C1
REMARK SMILES IDX 9 1 8 2 6 3 7 4 5 6 4 7 3 9 2 10 1 11 63 12 64 13 73 14
REMARK SMILES IDX 65 15 67 16 66 17 68 18 72 19 69 20 71 21 70 22 10 23 11 24
REMARK SMILES IDX 12 25 13 26 14 28 15 29 16 30 62 31 17 32 61 33 18 34 19 35
REMARK SMILES IDX 20 36 55 37 21 38 60 39 54 40 56 41 22 42 59 43 53 44 52 45
REMARK SMILES IDX 23 47 45 48 30 49 44 50 31 51 34 52 43 53 57 54 32 55 33 56
REMARK SMILES IDX 42 58 58 59 35 60 24 61 25 62 29 63 26 64 28 65 27 66 46 67
REMARK SMILES IDX 47 68 51 69 48 70 50 71 49 72 36 73 37 74 41 75 38 76 40 77
REMARK SMILES IDX 39 78
REMARK H PARENT 8 5 4 8 12 27 56 46 34 57
REMARK Flexibility Score: inf
ROOT
ATOM      1  C   UNL A   1      31.817  27.621  26.684  1.00  0.00     0.118 C 
ENDROOT
BRANCH   1   2
ATOM      2  N   UNL A   1      31.435  26.234  26.911  1.00  0.00    -0.351 N 
ATOM      3  C   UNL A   1      30.601  25.396  26.220  1.00  0.00     0.275 C 
ATOM      4  O   UNL A   1      30.460  24.251  26.660  1.00  0.00    -0.269 OA
ATOM      5  H   UNL A   1      31.851  25.824  27.705  1.00  0.00     0.163 HD
BRANCH   3   6
ATOM      6  C   UNL A   1      29.882  25.866  24.946  1.00  0.00     0.363 C 
BRANCH   6   7
ATOM      7  N   UNL A   1      30.700  26.803  24.107  1.00  0.00    -0.325 N 
ATOM      8  H   UNL A   1      31.315  27.392  24.668  1.00  0.00     0.348 HD
BRANCH   7   9
ATOM      9  C   UNL A   1      31.606  26.021  23.246  1.00  0.00     0.262 C 
BRANCH   9  10
ATOM     10  C   UNL A   1      33.129  26.184  23.311  1.00  0.00     0.058 C 
ATOM     11  C   UNL A   1      33.804  25.159  24.207  1.00  0.00     0.010 C 
ENDBRANCH   9  10
ENDBRANCH   7   9
BRANCH   7  12
ATOM     12  C   UNL A   1      29.786  27.747  23.400  1.00  0.00     0.189 C 
ATOM     13  C   UNL A   1      28.314  27.387  23.637  1.00  0.00     0.093 C 
ATOM     14  C   UNL A   1      30.065  29.239  23.657  1.00  0.00     0.100 C 
ATOM     15  C   UNL A   1      27.382  28.399  22.994  1.00  0.00     0.167 C 
ATOM     16  C   UNL A   1      29.014  30.179  23.042  1.00  0.00     0.074 C 
ATOM     17  O   UNL A   1      27.697  29.729  23.396  1.00  0.00    -0.375 OA
ATOM     18  C   UNL A   1      29.169  30.326  21.513  1.00  0.00     0.036 C 
ATOM     19  C   UNL A   1      29.192  31.575  23.688  1.00  0.00     0.036 C 
ATOM     20  C   UNL A   1      28.178  31.342  20.939  1.00  0.00     0.003 C 
ATOM     21  C   UNL A   1      28.227  32.615  23.121  1.00  0.00     0.003 C 
ATOM     22  C   UNL A   1      28.328  32.708  21.603  1.00  0.00     0.000 C 
ENDBRANCH   7  12
ENDBRANCH   6   7
ENDBRANCH   3   6
ENDBRANCH   1   2
BRANCH   1  23
ATOM     23  C   UNL A   1      33.322  27.865  26.821  1.00  0.00     0.042 C 
BRANCH  23  24
ATOM     24  C   UNL A   1      33.862  28.989  25.943  1.00  0.00     0.118 C 
BRANCH  24  25
ATOM     25  N   UNL A   1      33.720  30.283  26.586  1.00  0.00    -0.352 N 
ATOM     26  C   UNL A   1      34.446  30.844  27.610  1.00  0.00     0.251 C 
ATOM     27  H   UNL A   1      32.992  30.845  26.235  1.00  0.00     0.163 HD
ATOM     28  O   UNL A   1      33.998  31.829  28.190  1.00  0.00    -0.269 OA
BRANCH  26  29
ATOM     29  C   UNL A   1      35.751  30.281  28.034  1.00  0.00     0.039 A 
ATOM     30  C   UNL A   1      35.861  29.732  29.318  1.00  0.00     0.014 A 
ATOM     31  C   UNL A   1      36.889  30.363  27.225  1.00  0.00     0.014 A 
ATOM     32  C   UNL A   1      37.088  29.236  29.771  1.00  0.00     0.010 A 
ATOM     33  C   UNL A   1      38.096  29.805  27.650  1.00  0.00     0.010 A 
ATOM     34  C   UNL A   1      38.215  29.251  28.934  1.00  0.00    -0.014 A 
BRANCH  34  35
ATOM     35  C   UNL A   1      39.529  28.726  29.393  1.00  0.00     0.031 A 
ATOM     36  C   UNL A   1      40.394  29.548  30.312  1.00  0.00     0.074 A 
ATOM     37  C   UNL A   1      39.977  27.537  28.944  1.00  0.00     0.049 A 
ATOM     38  N   UNL A   1      41.604  29.301  30.749  1.00  0.00    -0.248 NA
ATOM     39  C   UNL A   1      39.833  30.823  30.785  1.00  0.00     0.031 C 
ATOM     40  C   UNL A   1      39.256  26.646  28.035  1.00  0.00     0.029 A 
ATOM     41  N   UNL A   1      41.157  26.880  29.188  1.00  0.00    -0.354 N 
ATOM     42  C   UNL A   1      41.959  30.400  31.523  1.00  0.00     0.074 A 
ATOM     43  C   UNL A   1      40.850  31.328  31.469  1.00  0.00     0.031 C 
ATOM     44  C   UNL A   1      40.000  25.551  27.811  1.00  0.00     0.029 A 
ATOM     45  C   UNL A   1      41.266  25.680  28.528  1.00  0.00     0.049 A 
ATOM     46  H   UNL A   1      41.860  27.235  29.780  1.00  0.00     0.167 HD
ATOM     47  C   UNL A   1      43.095  30.613  32.227  1.00  0.00     0.031 A 
ATOM     48  C   UNL A   1      42.273  24.787  28.493  1.00  0.00     0.031 A 
ATOM     49  C   UNL A   1      44.192  29.686  32.308  1.00  0.00     0.049 A 
ATOM     50  C   UNL A   1      43.530  25.052  29.273  1.00  0.00     0.074 A 
ATOM     51  C   UNL A   1      45.357  29.792  33.047  1.00  0.00     0.029 A 
ATOM     52  N   UNL A   1      44.256  28.481  31.627  1.00  0.00    -0.354 N 
ATOM     53  N   UNL A   1      43.826  26.073  30.038  1.00  0.00    -0.248 NA
ATOM     54  C   UNL A   1      44.589  24.035  29.187  1.00  0.00     0.031 C 
ATOM     55  C   UNL A   1      46.146  28.667  32.782  1.00  0.00     0.029 A 
ATOM     56  C   UNL A   1      45.452  27.843  31.913  1.00  0.00     0.049 A 
ATOM     57  H   UNL A   1      43.557  28.131  31.029  1.00  0.00     0.167 HD
ATOM     58  C   UNL A   1      45.094  25.814  30.540  1.00  0.00     0.074 A 
ATOM     59  C   UNL A   1      45.506  24.532  30.004  1.00  0.00     0.031 C 
ATOM     60  C   UNL A   1      45.850  26.571  31.372  1.00  0.00     0.031 A 
BRANCH  47  61
ATOM     61  C   UNL A   1      43.215  31.916  32.966  1.00  0.00    -0.014 A 
ATOM     62  C   UNL A   1      42.770  32.044  34.291  1.00  0.00     0.009 A 
ATOM     63  C   UNL A   1      43.814  33.020  32.340  1.00  0.00     0.009 A 
ATOM     64  C   UNL A   1      42.890  33.262  34.962  1.00  0.00     0.001 A 
ATOM     65  C   UNL A   1      43.956  34.230  33.023  1.00  0.00     0.001 A 
ATOM     66  C   UNL A   1      43.485  34.353  34.329  1.00  0.00     0.000 A 
ENDBRANCH  47  61
BRANCH  48  67
ATOM     67  C   UNL A   1      42.135  23.547  27.688  1.00  0.00    -0.014 A 
ATOM     68  C   UNL A   1      41.562  22.396  28.251  1.00  0.00     0.009 A 
ATOM     69  C   UNL A   1      42.576  23.506  26.357  1.00  0.00     0.009 A 
ATOM     70  C   UNL A   1      41.453  21.223  27.503  1.00  0.00     0.001 A 
ATOM     71  C   UNL A   1      42.444  22.337  25.603  1.00  0.00     0.001 A 
ATOM     72  C   UNL A   1      41.889  21.195  26.179  1.00  0.00     0.000 A 
ENDBRANCH  48  67
BRANCH  60  73
ATOM     73  C   UNL A   1      47.187  26.022  31.777  1.00  0.00    -0.014 A 
ATOM     74  C   UNL A   1      48.313  26.176  30.954  1.00  0.00     0.009 A 
ATOM     75  C   UNL A   1      47.330  25.382  33.017  1.00  0.00     0.009 A 
ATOM     76  C   UNL A   1      49.553  25.677  31.355  1.00  0.00     0.001 A 
ATOM     77  C   UNL A   1      48.576  24.904  33.426  1.00  0.00     0.001 A 
ATOM     78  C   UNL A   1      49.685  25.046  32.593  1.00  0.00     0.000 A 
ENDBRANCH  60  73
ENDBRANCH  34  35
ENDBRANCH  26  29
ENDBRANCH  24  25
ENDBRANCH  23  24
ENDBRANCH   1  23
TORSDOF 14
ENDMDL
MODEL 3
REMARK VINA RESULT:     -10.3      2.084      7.516
REMARK SMILES CCC[N@H+](CC(=O)NCCCNC(=O)c1ccc(-c2c3nc(c(-c4ccccc4)c4ccc([nH]4)c(-c4ccccc4)c4nc(c(-c5ccccc5)c5ccc2[nH]5)C=C4)C=C3)cc1)[C@H]1CCOC2(CCCCC2)C1
REMARK SMILES IDX 9 1 8 2 6 3 7 4 5 6 4 7 3 9 2 10 1 11 63 12 64 13 73 14
REMARK SMILES IDX 65 15 67 16 66 17 68 18 72 19 69 20 71 21 70 22 10 23 11 24
REMARK SMILES IDX 12 25 13 26 14 28 15 29 16 30 62 31 17 32 61 33 18 34 19 35
REMARK SMILES IDX 20 36 55 37 21 38 60 39 54 40 56 41 22 42 59 43 53 44 52 45
REMARK SMILES IDX 23 47 45 48 30 49 44 50 31 51 34 52 43 53 57 54 32 55 33 56
REMARK SMILES IDX 42 58 58 59 35 60 24 61 25 62 29 63 26 64 28 65 27 66 46 67
REMARK SMILES IDX 47 68 51 69 48 70 50 71 49 72 36 73 37 74 41 75 38 76 40 77
REMARK SMILES IDX 39 78
REMARK H PARENT 8 5 4 8 12 27 56 46 34 57
REMARK Flexibility Score: inf
ROOT
ATOM      1  C   UNL A   1      31.304  30.577  26.270  1.00  0.00     0.118 C 
ENDROOT
BRANCH   1   2
ATOM      2  N   UNL A   1      31.115  30.197  24.877  1.00  0.00    -0.351 N 
ATOM      3  C   UNL A   1      31.246  28.992  24.238  1.00  0.00     0.275 C 
ATOM      4  O   UNL A   1      31.024  28.969  23.024  1.00  0.00    -0.269 OA
ATOM      5  H   UNL A   1      30.845  30.938  24.287  1.00  0.00     0.163 HD
BRANCH   3   6
ATOM      6  C   UNL A   1      31.644  27.725  25.011  1.00  0.00     0.363 C 
BRANCH   6   7
ATOM      7  N   UNL A   1      33.120  27.453  24.999  1.00  0.00    -0.325 N 
ATOM      8  H   UNL A   1      33.619  28.041  24.331  1.00  0.00     0.348 HD
BRANCH   7   9
ATOM      9  C   UNL A   1      33.690  27.806  26.313  1.00  0.00     0.262 C 
BRANCH   9  10
ATOM     10  C   UNL A   1      34.588  29.034  26.504  1.00  0.00     0.058 C 
ATOM     11  C   UNL A   1      34.890  29.335  27.962  1.00  0.00     0.010 C 
ENDBRANCH   9  10
ENDBRANCH   7   9
BRANCH   7  12
ATOM     12  C   UNL A   1      33.353  26.052  24.545  1.00  0.00     0.189 C 
ATOM     13  C   UNL A   1      33.271  25.936  23.017  1.00  0.00     0.093 C 
ATOM     14  C   UNL A   1      34.622  25.387  25.107  1.00  0.00     0.100 C 
ATOM     15  C   UNL A   1      33.597  24.529  22.546  1.00  0.00     0.167 C 
ATOM     16  C   UNL A   1      34.916  24.003  24.501  1.00  0.00     0.074 C 
ATOM     17  O   UNL A   1      34.844  24.079  23.069  1.00  0.00    -0.375 OA
ATOM     18  C   UNL A   1      33.989  22.901  25.057  1.00  0.00     0.036 C 
ATOM     19  C   UNL A   1      36.378  23.634  24.850  1.00  0.00     0.036 C 
ATOM     20  C   UNL A   1      34.366  21.519  24.514  1.00  0.00     0.003 C 
ATOM     21  C   UNL A   1      36.777  22.252  24.337  1.00  0.00     0.003 C 
ATOM     22  C   UNL A   1      35.819  21.172  24.826  1.00  0.00     0.000 C 
ENDBRANCH   7  12
ENDBRANCH   6   7
ENDBRANCH   3   6
ENDBRANCH   1   2
BRANCH   1  23
ATOM     23  C   UNL A   1      31.383  32.093  26.478  1.00  0.00     0.042 C 
BRANCH  23  24
ATOM     24  C   UNL A   1      32.676  32.575  27.125  1.00  0.00     0.118 C 
BRANCH  24  25
ATOM     25  N   UNL A   1      32.523  33.898  27.702  1.00  0.00    -0.352 N 
ATOM     26  C   UNL A   1      33.220  34.503  28.722  1.00  0.00     0.251 C 
ATOM     27  H   UNL A   1      31.810  34.447  27.303  1.00  0.00     0.163 HD
ATOM     28  O   UNL A   1      32.761  35.516  29.241  1.00  0.00    -0.269 OA
BRANCH  26  29
ATOM     29  C   UNL A   1      34.508  33.953  29.212  1.00  0.00     0.039 A 
ATOM     30  C   UNL A   1      35.686  34.302  28.540  1.00  0.00     0.014 A 
ATOM     31  C   UNL A   1      34.566  33.033  30.263  1.00  0.00     0.014 A 
ATOM     32  C   UNL A   1      36.914  33.766  28.942  1.00  0.00     0.010 A 
ATOM     33  C   UNL A   1      35.799  32.552  30.709  1.00  0.00     0.010 A 
ATOM     34  C   UNL A   1      36.984  32.898  30.043  1.00  0.00    -0.014 A 
BRANCH  34  35
ATOM     35  C   UNL A   1      38.279  32.318  30.492  1.00  0.00     0.031 A 
ATOM     36  C   UNL A   1      38.774  31.025  29.900  1.00  0.00     0.074 A 
ATOM     37  C   UNL A   1      38.987  32.917  31.469  1.00  0.00     0.049 A 
ATOM     38  N   UNL A   1      39.831  30.318  30.221  1.00  0.00    -0.248 NA
ATOM     39  C   UNL A   1      37.967  30.438  28.818  1.00  0.00     0.031 C 
ATOM     40  C   UNL A   1      38.616  34.159  32.147  1.00  0.00     0.029 A 
ATOM     41  N   UNL A   1      40.165  32.549  32.069  1.00  0.00    -0.354 N 
ATOM     42  C   UNL A   1      39.798  29.195  29.405  1.00  0.00     0.074 A 
ATOM     43  C   UNL A   1      38.602  29.296  28.596  1.00  0.00     0.031 C 
ATOM     44  C   UNL A   1      39.557  34.460  33.057  1.00  0.00     0.029 A 
ATOM     45  C   UNL A   1      40.575  33.413  33.055  1.00  0.00     0.049 A 
ATOM     46  H   UNL A   1      40.670  31.741  31.817  1.00  0.00     0.167 HD
ATOM     47  C   UNL A   1      40.687  28.177  29.322  1.00  0.00     0.031 A 
ATOM     48  C   UNL A   1      41.642  33.367  33.874  1.00  0.00     0.031 A 
ATOM     49  C   UNL A   1      41.891  28.080  30.102  1.00  0.00     0.049 A 
ATOM     50  C   UNL A   1      42.610  32.220  33.771  1.00  0.00     0.074 A 
ATOM     51  C   UNL A   1      42.883  27.116  30.041  1.00  0.00     0.029 A 
ATOM     52  N   UNL A   1      42.268  28.981  31.084  1.00  0.00    -0.354 N 
ATOM     53  N   UNL A   1      42.588  31.193  32.959  1.00  0.00    -0.248 NA
ATOM     54  C   UNL A   1      43.752  32.233  34.698  1.00  0.00     0.031 C 
ATOM     55  C   UNL A   1      43.842  27.412  31.016  1.00  0.00     0.029 A 
ATOM     56  C   UNL A   1      43.468  28.584  31.652  1.00  0.00     0.049 A 
ATOM     57  H   UNL A   1      41.759  29.784  31.341  1.00  0.00     0.167 HD
ATOM     58  C   UNL A   1      43.720  30.448  33.261  1.00  0.00     0.074 A 
ATOM     59  C   UNL A   1      44.415  31.149  34.322  1.00  0.00     0.031 C 
ATOM     60  C   UNL A   1      44.147  29.288  32.707  1.00  0.00     0.031 A 
BRANCH  47  61
ATOM     61  C   UNL A   1      40.384  27.072  28.349  1.00  0.00    -0.014 A 
ATOM     62  C   UNL A   1      40.860  27.114  27.030  1.00  0.00     0.009 A 
ATOM     63  C   UNL A   1      39.641  25.958  28.770  1.00  0.00     0.009 A 
ATOM     64  C   UNL A   1      40.568  26.077  26.140  1.00  0.00     0.001 A 
ATOM     65  C   UNL A   1      39.372  24.911  27.886  1.00  0.00     0.001 A 
ATOM     66  C   UNL A   1      39.828  24.977  26.570  1.00  0.00     0.000 A 
ENDBRANCH  47  61
BRANCH  48  67
ATOM     67  C   UNL A   1      41.861  34.447  34.869  1.00  0.00    -0.014 A 
ATOM     68  C   UNL A   1      42.621  35.577  34.533  1.00  0.00     0.009 A 
ATOM     69  C   UNL A   1      41.313  34.353  36.157  1.00  0.00     0.009 A 
ATOM     70  C   UNL A   1      42.845  36.583  35.475  1.00  0.00     0.001 A 
ATOM     71  C   UNL A   1      41.519  35.372  37.090  1.00  0.00     0.001 A 
ATOM     72  C   UNL A   1      42.291  36.482  36.751  1.00  0.00     0.000 A 
ENDBRANCH  48  67
BRANCH  60  73
ATOM     73  C   UNL A   1      45.436  28.715  33.218  1.00  0.00    -0.014 A 
ATOM     74  C   UNL A   1      45.450  27.779  34.263  1.00  0.00     0.009 A 
ATOM     75  C   UNL A   1      46.649  29.084  32.615  1.00  0.00     0.009 A 
ATOM     76  C   UNL A   1      46.657  27.242  34.712  1.00  0.00     0.001 A 
ATOM     77  C   UNL A   1      47.853  28.528  33.051  1.00  0.00     0.001 A 
ATOM     78  C   UNL A   1      47.857  27.613  34.103  1.00  0.00     0.000 A 
ENDBRANCH  60  73
ENDBRANCH  34  35
ENDBRANCH  26  29
ENDBRANCH  24  25
ENDBRANCH  23  24
ENDBRANCH   1  23
TORSDOF 14
ENDMDL
