MODEL 1
REMARK VINA RESULT:     -10.5      0.000      0.000
REMARK SMILES C[C@H]1CN([C@@H](C(=O)NCCCNC(=O)c2ccc(-c3c4nc(c(-c5ccccc5)c5ccc([nH]5)c(-c5ccccc5)c5nc(c(-c6ccccc6)c6ccc3[nH]6)C=C5)C=C4)cc2)C(C)(C)C)S(=O)(=O)C1
REMARK SMILES IDX 10 1 9 2 8 3 6 4 7 5 5 7 4 8 1 9 2 10 3 11 70 12 67 13 68 14
REMARK SMILES IDX 69 15 63 16 64 17 65 18 66 19 11 20 12 21 13 22 14 24 15 25
REMARK SMILES IDX 16 26 62 27 17 28 61 29 18 30 19 31 20 32 55 33 21 34 60 35
REMARK SMILES IDX 54 36 56 37 22 38 59 39 53 40 52 41 23 43 45 44 30 45 44 46
REMARK SMILES IDX 31 47 34 48 43 49 57 50 32 51 33 52 42 54 58 55 35 56 24 57
REMARK SMILES IDX 25 58 29 59 26 60 28 61 27 62 46 63 47 64 51 65 48 66 50 67
REMARK SMILES IDX 49 68 36 69 37 70 41 71 38 72 40 73 39 74
REMARK H PARENT 8 6 12 23 56 42 34 53
REMARK Flexibility Score: inf
ROOT
ATOM      1  C   UNL A   1      33.920  28.142  26.067  1.00  0.00     0.042 C 
ENDROOT
BRANCH   1   2
ATOM      2  C   UNL A   1      33.733  26.653  25.710  1.00  0.00     0.117 C 
BRANCH   2   3
ATOM      3  N   UNL A   1      33.932  26.328  24.299  1.00  0.00    -0.355 N 
ATOM      4  C   UNL A   1      33.759  25.216  23.515  1.00  0.00     0.238 C 
ATOM      5  O   UNL A   1      33.971  25.404  22.314  1.00  0.00    -0.273 OA
ATOM      6  H   UNL A   1      34.274  27.096  23.786  1.00  0.00     0.163 HD
BRANCH   4   7
ATOM      7  C   UNL A   1      33.324  23.842  24.082  1.00  0.00     0.167 C 
BRANCH   7   8
ATOM      8  N   UNL A   1      34.359  22.762  23.943  1.00  0.00    -0.189 NA
ATOM      9  C   UNL A   1      35.160  21.778  26.830  1.00  0.00     0.010 C 
ATOM     10  C   UNL A   1      35.181  21.059  25.473  1.00  0.00     0.017 C 
ATOM     11  C   UNL A   1      34.047  21.435  24.498  1.00  0.00     0.107 C 
ATOM     12  C   UNL A   1      36.437  21.436  24.698  1.00  0.00     0.159 C 
ATOM     13  S   UNL A   1      36.037  23.019  23.968  1.00  0.00     0.215 S 
ATOM     14  O   UNL A   1      36.522  23.017  22.610  1.00  0.00    -0.212 OA
ATOM     15  O   UNL A   1      36.363  24.049  24.926  1.00  0.00    -0.212 OA
ENDBRANCH   7   8
BRANCH   7  16
ATOM     16  C   UNL A   1      31.866  23.393  23.636  1.00  0.00    -0.013 C 
ATOM     17  C   UNL A   1      31.099  22.834  24.858  1.00  0.00     0.013 C 
ATOM     18  C   UNL A   1      31.066  24.625  23.137  1.00  0.00     0.013 C 
ATOM     19  C   UNL A   1      31.784  22.345  22.508  1.00  0.00     0.013 C 
ENDBRANCH   7  16
ENDBRANCH   4   7
ENDBRANCH   2   3
ENDBRANCH   1   2
BRANCH   1  20
ATOM     20  C   UNL A   1      33.465  28.574  27.462  1.00  0.00     0.118 C 
BRANCH  20  21
ATOM     21  N   UNL A   1      33.512  30.014  27.630  1.00  0.00    -0.352 N 
ATOM     22  C   UNL A   1      34.492  30.798  28.190  1.00  0.00     0.251 C 
ATOM     23  H   UNL A   1      32.725  30.501  27.293  1.00  0.00     0.163 HD
ATOM     24  O   UNL A   1      34.233  31.964  28.478  1.00  0.00    -0.269 OA
BRANCH  22  25
ATOM     25  C   UNL A   1      35.849  30.266  28.470  1.00  0.00     0.039 A 
ATOM     26  C   UNL A   1      36.796  30.279  27.438  1.00  0.00     0.014 A 
ATOM     27  C   UNL A   1      36.181  29.683  29.698  1.00  0.00     0.014 A 
ATOM     28  C   UNL A   1      38.078  29.759  27.650  1.00  0.00     0.010 A 
ATOM     29  C   UNL A   1      37.478  29.210  29.924  1.00  0.00     0.010 A 
ATOM     30  C   UNL A   1      38.443  29.245  28.905  1.00  0.00    -0.014 A 
BRANCH  30  31
ATOM     31  C   UNL A   1      39.834  28.783  29.167  1.00  0.00     0.031 A 
ATOM     32  C   UNL A   1      40.854  29.700  29.789  1.00  0.00     0.074 A 
ATOM     33  C   UNL A   1      40.197  27.537  28.801  1.00  0.00     0.049 A 
ATOM     34  N   UNL A   1      42.121  29.475  30.040  1.00  0.00    -0.248 NA
ATOM     35  C   UNL A   1      40.394  31.042  30.172  1.00  0.00     0.031 C 
ATOM     36  C   UNL A   1      39.312  26.547  28.183  1.00  0.00     0.029 A 
ATOM     37  N   UNL A   1      41.407  26.891  28.890  1.00  0.00    -0.354 N 
ATOM     38  C   UNL A   1      42.612  30.649  30.600  1.00  0.00     0.074 A 
ATOM     39  C   UNL A   1      41.515  31.594  30.618  1.00  0.00     0.031 C 
ATOM     40  C   UNL A   1      40.003  25.417  27.963  1.00  0.00     0.029 A 
ATOM     41  C   UNL A   1      41.388  25.617  28.377  1.00  0.00     0.049 A 
ATOM     42  H   UNL A   1      42.209  27.303  29.282  1.00  0.00     0.167 HD
ATOM     43  C   UNL A   1      43.857  30.912  31.066  1.00  0.00     0.031 A 
ATOM     44  C   UNL A   1      42.377  24.713  28.232  1.00  0.00     0.031 A 
ATOM     45  C   UNL A   1      44.953  29.977  31.040  1.00  0.00     0.049 A 
ATOM     46  C   UNL A   1      43.767  25.058  28.690  1.00  0.00     0.074 A 
ATOM     47  C   UNL A   1      46.237  30.140  31.533  1.00  0.00     0.029 A 
ATOM     48  N   UNL A   1      44.901  28.711  30.477  1.00  0.00    -0.354 N 
ATOM     49  N   UNL A   1      44.195  26.147  29.278  1.00  0.00    -0.248 NA
ATOM     50  C   UNL A   1      44.809  24.045  28.462  1.00  0.00     0.031 C 
ATOM     51  C   UNL A   1      46.981  29.003  31.203  1.00  0.00     0.029 A 
ATOM     52  C   UNL A   1      46.144  28.103  30.566  1.00  0.00     0.049 A 
ATOM     53  H   UNL A   1      44.101  28.304  30.074  1.00  0.00     0.167 HD
ATOM     54  C   UNL A   1      45.551  25.947  29.505  1.00  0.00     0.074 A 
ATOM     55  C   UNL A   1      45.868  24.620  29.016  1.00  0.00     0.031 C 
ATOM     56  C   UNL A   1      46.454  26.788  30.063  1.00  0.00     0.031 A 
BRANCH  43  57
ATOM     57  C   UNL A   1      44.117  32.285  31.628  1.00  0.00    -0.014 A 
ATOM     58  C   UNL A   1      43.954  32.559  32.996  1.00  0.00     0.009 A 
ATOM     59  C   UNL A   1      44.586  33.306  30.786  1.00  0.00     0.009 A 
ATOM     60  C   UNL A   1      44.221  33.834  33.499  1.00  0.00     0.001 A 
ATOM     61  C   UNL A   1      44.882  34.570  31.297  1.00  0.00     0.001 A 
ATOM     62  C   UNL A   1      44.689  34.837  32.651  1.00  0.00     0.000 A 
ENDBRANCH  43  57
BRANCH  44  63
ATOM     63  C   UNL A   1      42.094  23.396  27.599  1.00  0.00    -0.014 A 
ATOM     64  C   UNL A   1      41.605  22.326  28.362  1.00  0.00     0.009 A 
ATOM     65  C   UNL A   1      42.325  23.201  26.227  1.00  0.00     0.009 A 
ATOM     66  C   UNL A   1      41.377  21.080  27.770  1.00  0.00     0.001 A 
ATOM     67  C   UNL A   1      42.064  21.966  25.631  1.00  0.00     0.001 A 
ATOM     68  C   UNL A   1      41.600  20.903  26.405  1.00  0.00     0.000 A 
ENDBRANCH  44  63
BRANCH  56  69
ATOM     69  C   UNL A   1      47.872  26.300  30.185  1.00  0.00    -0.014 A 
ATOM     70  C   UNL A   1      48.777  26.432  29.120  1.00  0.00     0.009 A 
ATOM     71  C   UNL A   1      48.320  25.742  31.392  1.00  0.00     0.009 A 
ATOM     72  C   UNL A   1      50.095  25.986  29.253  1.00  0.00     0.001 A 
ATOM     73  C   UNL A   1      49.646  25.328  31.532  1.00  0.00     0.001 A 
ATOM     74  C   UNL A   1      50.530  25.442  30.460  1.00  0.00     0.000 A 
ENDBRANCH  56  69
ENDBRANCH  30  31
ENDBRANCH  22  25
ENDBRANCH  20  21
ENDBRANCH   1  20
TORSDOF 12
ENDMDL
MODEL 2
REMARK VINA RESULT:     -10.2      2.639      7.843
REMARK SMILES C[C@H]1CN([C@@H](C(=O)NCCCNC(=O)c2ccc(-c3c4nc(c(-c5ccccc5)c5ccc([nH]5)c(-c5ccccc5)c5nc(c(-c6ccccc6)c6ccc3[nH]6)C=C5)C=C4)cc2)C(C)(C)C)S(=O)(=O)C1
REMARK SMILES IDX 10 1 9 2 8 3 6 4 7 5 5 7 4 8 1 9 2 10 3 11 70 12 67 13 68 14
REMARK SMILES IDX 69 15 63 16 64 17 65 18 66 19 11 20 12 21 13 22 14 24 15 25
REMARK SMILES IDX 16 26 62 27 17 28 61 29 18 30 19 31 20 32 55 33 21 34 60 35
REMARK SMILES IDX 54 36 56 37 22 38 59 39 53 40 52 41 23 43 45 44 30 45 44 46
REMARK SMILES IDX 31 47 34 48 43 49 57 50 32 51 33 52 42 54 58 55 35 56 24 57
REMARK SMILES IDX 25 58 29 59 26 60 28 61 27 62 46 63 47 64 51 65 48 66 50 67
REMARK SMILES IDX 49 68 36 69 37 70 41 71 38 72 40 73 39 74
REMARK H PARENT 8 6 12 23 56 42 34 53
REMARK Flexibility Score: inf
ROOT
ATOM      1  C   UNL A   1      35.777  23.598  25.963  1.00  0.00     0.042 C 
ENDROOT
BRANCH   1   2
ATOM      2  C   UNL A   1      34.422  23.659  25.229  1.00  0.00     0.117 C 
BRANCH   2   3
ATOM      3  N   UNL A   1      33.264  23.882  26.092  1.00  0.00    -0.355 N 
ATOM      4  C   UNL A   1      32.149  24.680  26.051  1.00  0.00     0.238 C 
ATOM      5  O   UNL A   1      31.352  24.487  26.973  1.00  0.00    -0.273 OA
ATOM      6  H   UNL A   1      33.291  23.323  26.902  1.00  0.00     0.163 HD
BRANCH   4   7
ATOM      7  C   UNL A   1      31.901  25.728  24.938  1.00  0.00     0.167 C 
BRANCH   7   8
ATOM      8  N   UNL A   1      31.599  27.109  25.447  1.00  0.00    -0.189 NA
ATOM      9  C   UNL A   1      33.514  29.147  23.990  1.00  0.00     0.010 C 
ATOM     10  C   UNL A   1      32.117  29.329  24.601  1.00  0.00     0.017 C 
ATOM     11  C   UNL A   1      31.166  28.123  24.472  1.00  0.00     0.107 C 
ATOM     12  C   UNL A   1      32.223  29.522  26.109  1.00  0.00     0.159 C 
ATOM     13  S   UNL A   1      32.395  27.859  26.746  1.00  0.00     0.215 S 
ATOM     14  O   UNL A   1      31.565  27.745  27.920  1.00  0.00    -0.212 OA
ATOM     15  O   UNL A   1      33.797  27.515  26.728  1.00  0.00    -0.212 OA
ENDBRANCH   7   8
BRANCH   7  16
ATOM     16  C   UNL A   1      30.911  25.235  23.796  1.00  0.00    -0.013 C 
ATOM     17  C   UNL A   1      31.432  25.707  22.418  1.00  0.00     0.013 C 
ATOM     18  C   UNL A   1      30.889  23.685  23.754  1.00  0.00     0.013 C 
ATOM     19  C   UNL A   1      29.440  25.680  23.923  1.00  0.00     0.013 C 
ENDBRANCH   7  16
ENDBRANCH   4   7
ENDBRANCH   2   3
ENDBRANCH   1   2
BRANCH   1  20
ATOM     20  C   UNL A   1      37.032  23.698  25.093  1.00  0.00     0.118 C 
BRANCH  20  21
ATOM     21  N   UNL A   1      38.046  22.739  25.486  1.00  0.00    -0.352 N 
ATOM     22  C   UNL A   1      39.247  22.945  26.121  1.00  0.00     0.251 C 
ATOM     23  H   UNL A   1      37.843  21.801  25.264  1.00  0.00     0.163 HD
ATOM     24  O   UNL A   1      40.082  22.044  26.129  1.00  0.00    -0.269 OA
BRANCH  22  25
ATOM     25  C   UNL A   1      39.566  24.234  26.783  1.00  0.00     0.039 A 
ATOM     26  C   UNL A   1      39.089  24.454  28.080  1.00  0.00     0.014 A 
ATOM     27  C   UNL A   1      40.254  25.258  26.122  1.00  0.00     0.014 A 
ATOM     28  C   UNL A   1      39.341  25.668  28.729  1.00  0.00     0.010 A 
ATOM     29  C   UNL A   1      40.549  26.453  26.790  1.00  0.00     0.010 A 
ATOM     30  C   UNL A   1      40.099  26.670  28.102  1.00  0.00    -0.014 A 
BRANCH  30  31
ATOM     31  C   UNL A   1      40.456  27.923  28.823  1.00  0.00     0.031 A 
ATOM     32  C   UNL A   1      41.785  28.070  29.516  1.00  0.00     0.074 A 
ATOM     33  C   UNL A   1      39.556  28.925  28.893  1.00  0.00     0.049 A 
ATOM     34  N   UNL A   1      42.236  29.072  30.231  1.00  0.00    -0.248 NA
ATOM     35  C   UNL A   1      42.723  26.945  29.398  1.00  0.00     0.031 C 
ATOM     36  C   UNL A   1      38.230  28.914  28.273  1.00  0.00     0.029 A 
ATOM     37  N   UNL A   1      39.619  30.146  29.520  1.00  0.00    -0.354 N 
ATOM     38  C   UNL A   1      43.505  28.696  30.655  1.00  0.00     0.074 A 
ATOM     39  C   UNL A   1      43.736  27.359  30.148  1.00  0.00     0.031 C 
ATOM     40  C   UNL A   1      37.612  30.075  28.537  1.00  0.00     0.029 A 
ATOM     41  C   UNL A   1      38.474  30.893  29.385  1.00  0.00     0.049 A 
ATOM     42  H   UNL A   1      40.408  30.455  30.020  1.00  0.00     0.167 HD
ATOM     43  C   UNL A   1      44.400  29.401  31.389  1.00  0.00     0.031 A 
ATOM     44  C   UNL A   1      38.139  32.092  29.901  1.00  0.00     0.031 A 
ATOM     45  C   UNL A   1      44.169  30.727  31.905  1.00  0.00     0.049 A 
ATOM     46  C   UNL A   1      39.123  32.821  30.774  1.00  0.00     0.074 A 
ATOM     47  C   UNL A   1      45.035  31.537  32.619  1.00  0.00     0.029 A 
ATOM     48  N   UNL A   1      42.981  31.430  31.776  1.00  0.00    -0.354 N 
ATOM     49  N   UNL A   1      40.343  32.478  31.107  1.00  0.00    -0.248 NA
ATOM     50  C   UNL A   1      38.680  34.103  31.342  1.00  0.00     0.031 C 
ATOM     51  C   UNL A   1      44.348  32.699  32.985  1.00  0.00     0.029 A 
ATOM     52  C   UNL A   1      43.077  32.644  32.440  1.00  0.00     0.049 A 
ATOM     53  H   UNL A   1      42.188  31.116  31.286  1.00  0.00     0.167 HD
ATOM     54  C   UNL A   1      40.819  33.508  31.910  1.00  0.00     0.074 A 
ATOM     55  C   UNL A   1      39.767  34.500  31.990  1.00  0.00     0.031 C 
ATOM     56  C   UNL A   1      42.019  33.618  32.529  1.00  0.00     0.031 A 
BRANCH  43  57
ATOM     57  C   UNL A   1      45.717  28.743  31.707  1.00  0.00    -0.014 A 
ATOM     58  C   UNL A   1      46.832  28.893  30.867  1.00  0.00     0.009 A 
ATOM     59  C   UNL A   1      45.859  28.006  32.895  1.00  0.00     0.009 A 
ATOM     60  C   UNL A   1      48.049  28.290  31.192  1.00  0.00     0.001 A 
ATOM     61  C   UNL A   1      47.086  27.432  33.233  1.00  0.00     0.001 A 
ATOM     62  C   UNL A   1      48.177  27.565  32.377  1.00  0.00     0.000 A 
ENDBRANCH  43  57
BRANCH  44  63
ATOM     63  C   UNL A   1      36.797  32.672  29.626  1.00  0.00    -0.014 A 
ATOM     64  C   UNL A   1      36.552  33.379  28.439  1.00  0.00     0.009 A 
ATOM     65  C   UNL A   1      35.756  32.532  30.558  1.00  0.00     0.009 A 
ATOM     66  C   UNL A   1      35.300  33.954  28.203  1.00  0.00     0.001 A 
ATOM     67  C   UNL A   1      34.497  33.078  30.305  1.00  0.00     0.001 A 
ATOM     68  C   UNL A   1      34.272  33.798  29.133  1.00  0.00     0.000 A 
ENDBRANCH  44  63
BRANCH  56  69
ATOM     69  C   UNL A   1      42.265  34.858  33.344  1.00  0.00    -0.014 A 
ATOM     70  C   UNL A   1      42.990  35.939  32.817  1.00  0.00     0.009 A 
ATOM     71  C   UNL A   1      41.729  34.966  34.637  1.00  0.00     0.009 A 
ATOM     72  C   UNL A   1      43.198  37.090  33.582  1.00  0.00     0.001 A 
ATOM     73  C   UNL A   1      41.911  36.130  35.385  1.00  0.00     0.001 A 
ATOM     74  C   UNL A   1      42.652  37.187  34.861  1.00  0.00     0.000 A 
ENDBRANCH  56  69
ENDBRANCH  30  31
ENDBRANCH  22  25
ENDBRANCH  20  21
ENDBRANCH   1  20
TORSDOF 12
ENDMDL
MODEL 3
REMARK VINA RESULT:     -10.2      2.601      7.591
REMARK SMILES C[C@H]1CN([C@@H](C(=O)NCCCNC(=O)c2ccc(-c3c4nc(c(-c5ccccc5)c5ccc([nH]5)c(-c5ccccc5)c5nc(c(-c6ccccc6)c6ccc3[nH]6)C=C5)C=C4)cc2)C(C)(C)C)S(=O)(=O)C1
REMARK SMILES IDX 10 1 9 2 8 3 6 4 7 5 5 7 4 8 1 9 2 10 3 11 70 12 67 13 68 14
REMARK SMILES IDX 69 15 63 16 64 17 65 18 66 19 11 20 12 21 13 22 14 24 15 25
REMARK SMILES IDX 16 26 62 27 17 28 61 29 18 30 19 31 20 32 55 33 21 34 60 35
REMARK SMILES IDX 54 36 56 37 22 38 59 39 53 40 52 41 23 43 45 44 30 45 44 46
REMARK SMILES IDX 31 47 34 48 43 49 57 50 32 51 33 52 42 54 58 55 35 56 24 57
REMARK SMILES IDX 25 58 29 59 26 60 28 61 27 62 46 63 47 64 51 65 48 66 50 67
REMARK SMILES IDX 49 68 36 69 37 70 41 71 38 72 40 73 39 74
REMARK H PARENT 8 6 12 23 56 42 34 53
REMARK Flexibility Score: inf
ROOT
ATOM      1  C   UNL A   1      35.979  23.783  25.905  1.00  0.00     0.042 C 
ENDROOT
BRANCH   1   2
ATOM      2  C   UNL A   1      34.750  24.509  25.320  1.00  0.00     0.117 C 
BRANCH   2   3
ATOM      3  N   UNL A   1      33.542  24.433  26.139  1.00  0.00    -0.355 N 
ATOM      4  C   UNL A   1      32.275  24.953  26.069  1.00  0.00     0.238 C 
ATOM      5  O   UNL A   1      31.513  24.553  26.953  1.00  0.00    -0.273 OA
ATOM      6  H   UNL A   1      33.670  23.870  26.937  1.00  0.00     0.163 HD
BRANCH   4   7
ATOM      7  C   UNL A   1      31.830  25.950  24.970  1.00  0.00     0.167 C 
BRANCH   7   8
ATOM      8  N   UNL A   1      31.429  27.301  25.489  1.00  0.00    -0.189 NA
ATOM      9  C   UNL A   1      33.404  29.450  24.296  1.00  0.00     0.010 C 
ATOM     10  C   UNL A   1      31.947  29.565  24.768  1.00  0.00     0.017 C 
ATOM     11  C   UNL A   1      31.059  28.333  24.507  1.00  0.00     0.107 C 
ATOM     12  C   UNL A   1      31.896  29.709  26.284  1.00  0.00     0.159 C 
ATOM     13  S   UNL A   1      32.064  28.032  26.884  1.00  0.00     0.215 S 
ATOM     14  O   UNL A   1      31.127  27.851  27.965  1.00  0.00    -0.212 OA
ATOM     15  O   UNL A   1      33.473  27.736  26.996  1.00  0.00    -0.212 OA
ENDBRANCH   7   8
BRANCH   7  16
ATOM     16  C   UNL A   1      30.807  25.337  23.920  1.00  0.00    -0.013 C 
ATOM     17  C   UNL A   1      29.378  25.840  24.232  1.00  0.00     0.013 C 
ATOM     18  C   UNL A   1      31.153  25.841  22.495  1.00  0.00     0.013 C 
ATOM     19  C   UNL A   1      30.756  23.798  23.828  1.00  0.00     0.013 C 
ENDBRANCH   7  16
ENDBRANCH   4   7
ENDBRANCH   2   3
ENDBRANCH   1   2
BRANCH   1  20
ATOM     20  C   UNL A   1      37.160  23.565  24.957  1.00  0.00     0.118 C 
BRANCH  20  21
ATOM     21  N   UNL A   1      38.095  22.581  25.467  1.00  0.00    -0.352 N 
ATOM     22  C   UNL A   1      39.268  22.764  26.160  1.00  0.00     0.251 C 
ATOM     23  H   UNL A   1      37.853  21.643  25.291  1.00  0.00     0.163 HD
ATOM     24  O   UNL A   1      40.049  21.823  26.273  1.00  0.00    -0.269 OA
BRANCH  22  25
ATOM     25  C   UNL A   1      39.621  24.076  26.759  1.00  0.00     0.039 A 
ATOM     26  C   UNL A   1      39.159  24.366  28.048  1.00  0.00     0.014 A 
ATOM     27  C   UNL A   1      40.325  25.053  26.047  1.00  0.00     0.014 A 
ATOM     28  C   UNL A   1      39.443  25.603  28.639  1.00  0.00     0.010 A 
ATOM     29  C   UNL A   1      40.652  26.269  26.657  1.00  0.00     0.010 A 
ATOM     30  C   UNL A   1      40.218  26.557  27.960  1.00  0.00    -0.014 A 
BRANCH  30  31
ATOM     31  C   UNL A   1      40.608  27.833  28.621  1.00  0.00     0.031 A 
ATOM     32  C   UNL A   1      39.618  28.955  28.792  1.00  0.00     0.074 A 
ATOM     33  C   UNL A   1      41.881  28.003  29.032  1.00  0.00     0.049 A 
ATOM     34  N   UNL A   1      39.803  30.150  29.299  1.00  0.00    -0.248 NA
ATOM     35  C   UNL A   1      38.245  28.705  28.329  1.00  0.00     0.031 C 
ATOM     36  C   UNL A   1      42.944  27.003  28.922  1.00  0.00     0.029 A 
ATOM     37  N   UNL A   1      42.499  29.080  29.621  1.00  0.00    -0.354 N 
ATOM     38  C   UNL A   1      38.577  30.797  29.207  1.00  0.00     0.074 A 
ATOM     39  C   UNL A   1      37.665  29.875  28.563  1.00  0.00     0.031 C 
ATOM     40  C   UNL A   1      44.076  27.506  29.440  1.00  0.00     0.029 A 
ATOM     41  C   UNL A   1      43.834  28.879  29.872  1.00  0.00     0.049 A 
ATOM     42  H   UNL A   1      42.028  29.917  29.840  1.00  0.00     0.167 HD
ATOM     43  C   UNL A   1      38.238  32.040  29.629  1.00  0.00     0.031 A 
ATOM     44  C   UNL A   1      44.770  29.708  30.372  1.00  0.00     0.031 A 
ATOM     45  C   UNL A   1      39.146  32.964  30.260  1.00  0.00     0.049 A 
ATOM     46  C   UNL A   1      44.384  31.108  30.764  1.00  0.00     0.074 A 
ATOM     47  C   UNL A   1      38.880  34.226  30.764  1.00  0.00     0.029 A 
ATOM     48  N   UNL A   1      40.498  32.733  30.460  1.00  0.00    -0.354 N 
ATOM     49  N   UNL A   1      43.205  31.678  30.732  1.00  0.00    -0.248 NA
ATOM     50  C   UNL A   1      45.461  31.977  31.261  1.00  0.00     0.031 C 
ATOM     51  C   UNL A   1      40.084  34.787  31.200  1.00  0.00     0.029 A 
ATOM     52  C   UNL A   1      41.089  33.848  31.034  1.00  0.00     0.049 A 
ATOM     53  H   UNL A   1      40.970  31.901  30.230  1.00  0.00     0.167 HD
ATOM     54  C   UNL A   1      43.394  32.966  31.219  1.00  0.00     0.074 A 
ATOM     55  C   UNL A   1      44.795  33.083  31.565  1.00  0.00     0.031 C 
ATOM     56  C   UNL A   1      42.487  33.963  31.361  1.00  0.00     0.031 A 
BRANCH  43  57
ATOM     57  C   UNL A   1      36.820  32.493  29.401  1.00  0.00    -0.014 A 
ATOM     58  C   UNL A   1      35.832  32.329  30.384  1.00  0.00     0.009 A 
ATOM     59  C   UNL A   1      36.481  33.146  28.204  1.00  0.00     0.009 A 
ATOM     60  C   UNL A   1      34.528  32.775  30.159  1.00  0.00     0.001 A 
ATOM     61  C   UNL A   1      35.185  33.619  27.994  1.00  0.00     0.001 A 
ATOM     62  C   UNL A   1      34.206  33.424  28.967  1.00  0.00     0.000 A 
ENDBRANCH  43  57
BRANCH  44  63
ATOM     63  C   UNL A   1      46.178  29.246  30.508  1.00  0.00    -0.014 A 
ATOM     64  C   UNL A   1      47.072  29.348  29.432  1.00  0.00     0.009 A 
ATOM     65  C   UNL A   1      46.630  28.686  31.714  1.00  0.00     0.009 A 
ATOM     66  C   UNL A   1      48.382  28.878  29.553  1.00  0.00     0.001 A 
ATOM     67  C   UNL A   1      47.949  28.249  31.844  1.00  0.00     0.001 A 
ATOM     68  C   UNL A   1      48.822  28.335  30.760  1.00  0.00     0.000 A 
ENDBRANCH  44  63
BRANCH  56  69
ATOM     69  C   UNL A   1      42.979  35.269  31.921  1.00  0.00    -0.014 A 
ATOM     70  C   UNL A   1      43.570  36.237  31.093  1.00  0.00     0.009 A 
ATOM     71  C   UNL A   1      42.812  35.555  33.285  1.00  0.00     0.009 A 
ATOM     72  C   UNL A   1      44.009  37.451  31.626  1.00  0.00     0.001 A 
ATOM     73  C   UNL A   1      43.222  36.782  33.809  1.00  0.00     0.001 A 
ATOM     74  C   UNL A   1      43.828  37.726  32.981  1.00  0.00     0.000 A 
ENDBRANCH  56  69
ENDBRANCH  30  31
ENDBRANCH  22  25
ENDBRANCH  20  21
ENDBRANCH   1  20
TORSDOF 12
ENDMDL
