MODEL 1
REMARK VINA RESULT:     -11.3      0.000      0.000
REMARK SMILES O=C(/C=C/c1ccccc1Oc1cccc(Cl)c1)NCCCNC(=O)c1ccc(-c2c3nc(c(-c4ccccc4)c4ccc([nH]4)c(-c4ccccc4)c4nc(c(-c5ccccc5)c5ccc2[nH]5)C=C4)C=C3)cc1
REMARK SMILES IDX 20 1 19 2 1 3 2 4 3 6 4 7 5 8 6 9 10 10 7 11 9 12 8 13 11 14
REMARK SMILES IDX 12 15 13 16 18 17 14 18 16 19 15 20 17 21 21 22 22 23 23 24
REMARK SMILES IDX 24 25 25 27 26 28 27 29 73 30 28 31 72 32 29 33 30 34 31 35
REMARK SMILES IDX 66 36 32 37 71 38 65 39 67 40 33 41 70 42 64 43 63 44 34 46
REMARK SMILES IDX 56 47 41 48 55 49 42 50 45 51 54 52 68 53 43 54 44 55 53 57
REMARK SMILES IDX 69 58 46 59 35 60 36 61 40 62 37 63 39 64 38 65 57 66 58 67
REMARK SMILES IDX 62 68 59 69 61 70 60 71 47 72 48 73 52 74 49 75 51 76 50 77
REMARK H PARENT 19 5 23 26 67 45 45 56
REMARK Flexibility Score: inf
ROOT
ATOM      1  C   UNL A   1      31.722  27.561  26.537  1.00  0.00     0.118 C 
ENDROOT
BRANCH   1   2
ATOM      2  N   UNL A   1      32.697  26.525  26.274  1.00  0.00    -0.352 N 
ATOM      3  O   UNL A   1      32.909  26.905  24.019  1.00  0.00    -0.270 OA
ATOM      4  C   UNL A   1      33.247  26.310  25.034  1.00  0.00     0.244 C 
ATOM      5  H   UNL A   1      32.980  25.946  27.019  1.00  0.00     0.163 HD
BRANCH   4   6
ATOM      6  C   UNL A   1      34.384  25.351  24.993  1.00  0.00     0.072 C 
ATOM      7  C   UNL A   1      34.380  24.151  25.591  1.00  0.00     0.017 C 
BRANCH   7   8
ATOM      8  C   UNL A   1      35.548  23.264  25.662  1.00  0.00     0.017 A 
ATOM      9  C   UNL A   1      36.791  23.912  25.510  1.00  0.00     0.012 A 
ATOM     10  C   UNL A   1      35.526  21.863  25.800  1.00  0.00     0.134 A 
ATOM     11  C   UNL A   1      37.989  23.194  25.495  1.00  0.00     0.001 A 
ATOM     12  C   UNL A   1      36.745  21.158  25.785  1.00  0.00     0.048 A 
ATOM     13  C   UNL A   1      37.964  21.813  25.629  1.00  0.00     0.004 A 
BRANCH  10  14
ATOM     14  O   UNL A   1      34.461  21.011  26.017  1.00  0.00    -0.457 OA
BRANCH  14  15
ATOM     15  C   UNL A   1      33.851  20.337  24.996  1.00  0.00     0.128 A 
ATOM     16  C   UNL A   1      32.903  21.045  24.250  1.00  0.00     0.047 A 
ATOM     17  C   UNL A   1      34.067  18.981  24.761  1.00  0.00     0.067 A 
ATOM     18  C   UNL A   1      32.221  20.418  23.210  1.00  0.00     0.005 A 
ATOM     19  C   UNL A   1      33.383  18.361  23.715  1.00  0.00     0.044 A 
ATOM     20  C   UNL A   1      32.467  19.073  22.936  1.00  0.00     0.021 A 
ATOM     21  Cl  UNL A   1      33.714  16.715  23.339  1.00  0.00    -0.084 Cl
ENDBRANCH  14  15
ENDBRANCH  10  14
ENDBRANCH   7   8
ENDBRANCH   4   6
ENDBRANCH   1   2
BRANCH   1  22
ATOM     22  C   UNL A   1      32.160  28.577  27.581  1.00  0.00     0.042 C 
BRANCH  22  23
ATOM     23  C   UNL A   1      33.465  29.289  27.257  1.00  0.00     0.118 C 
BRANCH  23  24
ATOM     24  N   UNL A   1      33.593  30.603  27.879  1.00  0.00    -0.352 N 
ATOM     25  C   UNL A   1      34.671  31.142  28.548  1.00  0.00     0.251 C 
ATOM     26  H   UNL A   1      32.801  31.184  27.813  1.00  0.00     0.163 HD
ATOM     27  O   UNL A   1      34.589  32.236  29.087  1.00  0.00    -0.269 OA
BRANCH  25  28
ATOM     28  C   UNL A   1      35.922  30.359  28.651  1.00  0.00     0.039 A 
ATOM     29  C   UNL A   1      36.798  30.337  27.560  1.00  0.00     0.014 A 
ATOM     30  C   UNL A   1      36.259  29.706  29.838  1.00  0.00     0.014 A 
ATOM     31  C   UNL A   1      38.058  29.749  27.698  1.00  0.00     0.010 A 
ATOM     32  C   UNL A   1      37.538  29.184  29.996  1.00  0.00     0.010 A 
ATOM     33  C   UNL A   1      38.457  29.218  28.934  1.00  0.00    -0.014 A 
BRANCH  33  34
ATOM     34  C   UNL A   1      39.838  28.720  29.165  1.00  0.00     0.031 A 
ATOM     35  C   UNL A   1      40.894  29.649  29.693  1.00  0.00     0.074 A 
ATOM     36  C   UNL A   1      40.168  27.467  28.796  1.00  0.00     0.049 A 
ATOM     37  N   UNL A   1      42.183  29.453  29.810  1.00  0.00    -0.248 NA
ATOM     38  C   UNL A   1      40.444  30.983  30.119  1.00  0.00     0.031 C 
ATOM     39  C   UNL A   1      39.250  26.472  28.238  1.00  0.00     0.029 A 
ATOM     40  N   UNL A   1      41.381  26.822  28.814  1.00  0.00    -0.354 N 
ATOM     41  C   UNL A   1      42.702  30.649  30.288  1.00  0.00     0.074 A 
ATOM     42  C   UNL A   1      41.595  31.573  30.411  1.00  0.00     0.031 C 
ATOM     43  C   UNL A   1      39.927  25.341  27.982  1.00  0.00     0.029 A 
ATOM     44  C   UNL A   1      41.334  25.544  28.311  1.00  0.00     0.049 A 
ATOM     45  H   UNL A   1      42.206  27.236  29.156  1.00  0.00     0.167 HD
ATOM     46  C   UNL A   1      43.983  30.949  30.606  1.00  0.00     0.031 A 
ATOM     47  C   UNL A   1      42.315  24.642  28.117  1.00  0.00     0.031 A 
ATOM     48  C   UNL A   1      45.081  30.027  30.508  1.00  0.00     0.049 A 
ATOM     49  C   UNL A   1      43.729  25.000  28.478  1.00  0.00     0.074 A 
ATOM     50  C   UNL A   1      46.405  30.223  30.862  1.00  0.00     0.029 A 
ATOM     51  N   UNL A   1      44.982  28.732  30.024  1.00  0.00    -0.354 N 
ATOM     52  N   UNL A   1      44.196  26.119  28.973  1.00  0.00    -0.248 NA
ATOM     53  C   UNL A   1      44.751  23.965  28.258  1.00  0.00     0.031 C 
ATOM     54  C   UNL A   1      47.115  29.056  30.560  1.00  0.00     0.029 A 
ATOM     55  C   UNL A   1      46.224  28.121  30.058  1.00  0.00     0.049 A 
ATOM     56  H   UNL A   1      44.152  28.310  29.704  1.00  0.00     0.167 HD
ATOM     57  C   UNL A   1      45.557  25.914  29.152  1.00  0.00     0.074 A 
ATOM     58  C   UNL A   1      45.842  24.562  28.718  1.00  0.00     0.031 C 
ATOM     59  C   UNL A   1      46.488  26.771  29.637  1.00  0.00     0.031 A 
BRANCH  46  60
ATOM     60  C   UNL A   1      44.265  32.345  31.086  1.00  0.00    -0.014 A 
ATOM     61  C   UNL A   1      44.469  33.396  30.179  1.00  0.00     0.009 A 
ATOM     62  C   UNL A   1      44.299  32.616  32.462  1.00  0.00     0.009 A 
ATOM     63  C   UNL A   1      44.737  34.686  30.643  1.00  0.00     0.001 A 
ATOM     64  C   UNL A   1      44.540  33.911  32.922  1.00  0.00     0.001 A 
ATOM     65  C   UNL A   1      44.768  34.943  32.013  1.00  0.00     0.000 A 
ENDBRANCH  46  60
BRANCH  47  66
ATOM     66  C   UNL A   1      41.994  23.303  27.559  1.00  0.00    -0.014 A 
ATOM     67  C   UNL A   1      41.549  22.274  28.402  1.00  0.00     0.009 A 
ATOM     68  C   UNL A   1      42.134  23.046  26.187  1.00  0.00     0.009 A 
ATOM     69  C   UNL A   1      41.271  21.006  27.886  1.00  0.00     0.001 A 
ATOM     70  C   UNL A   1      41.832  21.785  25.670  1.00  0.00     0.001 A 
ATOM     71  C   UNL A   1      41.410  20.764  26.520  1.00  0.00     0.000 A 
ENDBRANCH  47  66
BRANCH  59  72
ATOM     72  C   UNL A   1      47.892  26.261  29.773  1.00  0.00    -0.014 A 
ATOM     73  C   UNL A   1      48.381  25.794  31.002  1.00  0.00     0.009 A 
ATOM     74  C   UNL A   1      48.716  26.193  28.638  1.00  0.00     0.009 A 
ATOM     75  C   UNL A   1      49.679  25.286  31.095  1.00  0.00     0.001 A 
ATOM     76  C   UNL A   1      50.004  25.663  28.731  1.00  0.00     0.001 A 
ATOM     77  C   UNL A   1      50.486  25.216  29.959  1.00  0.00     0.000 A 
ENDBRANCH  59  72
ENDBRANCH  33  34
ENDBRANCH  25  28
ENDBRANCH  23  24
ENDBRANCH  22  23
ENDBRANCH   1  22
TORSDOF 13
ENDMDL
MODEL 2
REMARK VINA RESULT:     -11.1      4.678     10.033
REMARK SMILES O=C(/C=C/c1ccccc1Oc1cccc(Cl)c1)NCCCNC(=O)c1ccc(-c2c3nc(c(-c4ccccc4)c4ccc([nH]4)c(-c4ccccc4)c4nc(c(-c5ccccc5)c5ccc2[nH]5)C=C4)C=C3)cc1
REMARK SMILES IDX 20 1 19 2 1 3 2 4 3 6 4 7 5 8 6 9 10 10 7 11 9 12 8 13 11 14
REMARK SMILES IDX 12 15 13 16 18 17 14 18 16 19 15 20 17 21 21 22 22 23 23 24
REMARK SMILES IDX 24 25 25 27 26 28 27 29 73 30 28 31 72 32 29 33 30 34 31 35
REMARK SMILES IDX 66 36 32 37 71 38 65 39 67 40 33 41 70 42 64 43 63 44 34 46
REMARK SMILES IDX 56 47 41 48 55 49 42 50 45 51 54 52 68 53 43 54 44 55 53 57
REMARK SMILES IDX 69 58 46 59 35 60 36 61 40 62 37 63 39 64 38 65 57 66 58 67
REMARK SMILES IDX 62 68 59 69 61 70 60 71 47 72 48 73 52 74 49 75 51 76 50 77
REMARK H PARENT 19 5 23 26 67 45 45 56
REMARK Flexibility Score: inf
ROOT
ATOM      1  C   UNL A   1      45.749  19.234  24.404  1.00  0.00     0.118 C 
ENDROOT
BRANCH   1   2
ATOM      2  N   UNL A   1      45.959  20.638  24.120  1.00  0.00    -0.352 N 
ATOM      3  O   UNL A   1      45.697  21.400  26.270  1.00  0.00    -0.270 OA
ATOM      4  C   UNL A   1      45.959  21.607  25.093  1.00  0.00     0.244 C 
ATOM      5  H   UNL A   1      46.110  20.910  23.186  1.00  0.00     0.163 HD
BRANCH   4   6
ATOM      6  C   UNL A   1      46.403  22.958  24.653  1.00  0.00     0.072 C 
ATOM      7  C   UNL A   1      46.348  24.056  25.420  1.00  0.00     0.017 C 
BRANCH   7   8
ATOM      8  C   UNL A   1      46.662  25.408  24.943  1.00  0.00     0.017 A 
ATOM      9  C   UNL A   1      48.003  25.600  24.553  1.00  0.00     0.012 A 
ATOM     10  C   UNL A   1      45.781  26.506  24.904  1.00  0.00     0.134 A 
ATOM     11  C   UNL A   1      48.467  26.848  24.132  1.00  0.00     0.001 A 
ATOM     12  C   UNL A   1      46.267  27.756  24.474  1.00  0.00     0.048 A 
ATOM     13  C   UNL A   1      47.597  27.930  24.097  1.00  0.00     0.004 A 
BRANCH  10  14
ATOM     14  O   UNL A   1      44.428  26.566  25.176  1.00  0.00    -0.457 OA
BRANCH  14  15
ATOM     15  C   UNL A   1      43.845  27.675  25.722  1.00  0.00     0.128 A 
ATOM     16  C   UNL A   1      42.507  27.910  25.393  1.00  0.00     0.047 A 
ATOM     17  C   UNL A   1      44.559  28.598  26.483  1.00  0.00     0.067 A 
ATOM     18  C   UNL A   1      41.851  29.034  25.890  1.00  0.00     0.005 A 
ATOM     19  C   UNL A   1      43.895  29.719  26.981  1.00  0.00     0.044 A 
ATOM     20  C   UNL A   1      42.545  29.938  26.694  1.00  0.00     0.021 A 
ATOM     21  Cl  UNL A   1      44.730  30.815  28.011  1.00  0.00    -0.084 Cl
ENDBRANCH  14  15
ENDBRANCH  10  14
ENDBRANCH   7   8
ENDBRANCH   4   6
ENDBRANCH   1   2
BRANCH   1  22
ATOM     22  C   UNL A   1      44.291  18.803  24.364  1.00  0.00     0.042 C 
BRANCH  22  23
ATOM     23  C   UNL A   1      43.616  18.736  25.727  1.00  0.00     0.118 C 
BRANCH  23  24
ATOM     24  N   UNL A   1      42.160  18.795  25.669  1.00  0.00    -0.352 N 
ATOM     25  C   UNL A   1      41.318  19.807  26.077  1.00  0.00     0.251 C 
ATOM     26  H   UNL A   1      41.717  18.002  25.288  1.00  0.00     0.163 HD
ATOM     27  O   UNL A   1      40.104  19.666  26.034  1.00  0.00    -0.269 OA
BRANCH  25  28
ATOM     28  C   UNL A   1      41.899  21.058  26.614  1.00  0.00     0.039 A 
ATOM     29  C   UNL A   1      42.247  22.079  25.724  1.00  0.00     0.014 A 
ATOM     30  C   UNL A   1      42.037  21.245  27.991  1.00  0.00     0.014 A 
ATOM     31  C   UNL A   1      42.634  23.325  26.221  1.00  0.00     0.010 A 
ATOM     32  C   UNL A   1      42.354  22.506  28.483  1.00  0.00     0.010 A 
ATOM     33  C   UNL A   1      42.636  23.564  27.604  1.00  0.00    -0.014 A 
BRANCH  33  34
ATOM     34  C   UNL A   1      42.896  24.914  28.167  1.00  0.00     0.031 A 
ATOM     35  C   UNL A   1      44.261  25.262  28.689  1.00  0.00     0.074 A 
ATOM     36  C   UNL A   1      41.878  25.786  28.313  1.00  0.00     0.049 A 
ATOM     37  N   UNL A   1      44.645  26.319  29.359  1.00  0.00    -0.248 NA
ATOM     38  C   UNL A   1      45.328  24.278  28.449  1.00  0.00     0.031 C 
ATOM     39  C   UNL A   1      40.496  25.563  27.882  1.00  0.00     0.029 A 
ATOM     40  N   UNL A   1      41.848  27.033  28.888  1.00  0.00    -0.354 N 
ATOM     41  C   UNL A   1      45.986  26.111  29.651  1.00  0.00     0.074 A 
ATOM     42  C   UNL A   1      46.342  24.815  29.113  1.00  0.00     0.031 C 
ATOM     43  C   UNL A   1      39.759  26.641  28.194  1.00  0.00     0.029 A 
ATOM     44  C   UNL A   1      40.600  27.610  28.888  1.00  0.00     0.049 A 
ATOM     45  H   UNL A   1      42.644  27.473  29.264  1.00  0.00     0.167 HD
ATOM     46  C   UNL A   1      46.849  26.928  30.300  1.00  0.00     0.031 A 
ATOM     47  C   UNL A   1      40.175  28.777  29.406  1.00  0.00     0.031 A 
ATOM     48  C   UNL A   1      46.505  28.225  30.816  1.00  0.00     0.049 A 
ATOM     49  C   UNL A   1      41.152  29.667  30.122  1.00  0.00     0.074 A 
ATOM     50  C   UNL A   1      47.327  29.150  31.437  1.00  0.00     0.029 A 
ATOM     51  N   UNL A   1      45.238  28.784  30.764  1.00  0.00    -0.354 N 
ATOM     52  N   UNL A   1      42.428  29.477  30.349  1.00  0.00    -0.248 NA
ATOM     53  C   UNL A   1      40.629  30.937  30.648  1.00  0.00     0.031 C 
ATOM     54  C   UNL A   1      46.547  30.256  31.794  1.00  0.00     0.029 A 
ATOM     55  C   UNL A   1      45.252  30.035  31.355  1.00  0.00     0.049 A 
ATOM     56  H   UNL A   1      44.446  28.354  30.367  1.00  0.00     0.167 HD
ATOM     57  C   UNL A   1      42.867  30.612  31.016  1.00  0.00     0.074 A 
ATOM     58  C   UNL A   1      41.723  31.490  31.153  1.00  0.00     0.031 C 
ATOM     59  C   UNL A   1      44.110  30.902  31.471  1.00  0.00     0.031 A 
BRANCH  46  60
ATOM     60  C   UNL A   1      48.254  26.433  30.496  1.00  0.00    -0.014 A 
ATOM     61  C   UNL A   1      48.616  25.713  31.645  1.00  0.00     0.009 A 
ATOM     62  C   UNL A   1      49.219  26.664  29.504  1.00  0.00     0.009 A 
ATOM     63  C   UNL A   1      49.927  25.266  31.813  1.00  0.00     0.001 A 
ATOM     64  C   UNL A   1      50.523  26.192  29.663  1.00  0.00     0.001 A 
ATOM     65  C   UNL A   1      50.879  25.502  30.821  1.00  0.00     0.000 A 
ENDBRANCH  46  60
BRANCH  47  66
ATOM     66  C   UNL A   1      38.754  29.183  29.258  1.00  0.00    -0.014 A 
ATOM     67  C   UNL A   1      38.299  29.747  28.057  1.00  0.00     0.009 A 
ATOM     68  C   UNL A   1      37.846  29.012  30.315  1.00  0.00     0.009 A 
ATOM     69  C   UNL A   1      36.970  30.153  27.923  1.00  0.00     0.001 A 
ATOM     70  C   UNL A   1      36.511  29.396  30.169  1.00  0.00     0.001 A 
ATOM     71  C   UNL A   1      36.077  29.974  28.978  1.00  0.00     0.000 A 
ENDBRANCH  47  66
BRANCH  59  72
ATOM     72  C   UNL A   1      44.314  32.241  32.115  1.00  0.00    -0.014 A 
ATOM     73  C   UNL A   1      44.177  32.412  33.501  1.00  0.00     0.009 A 
ATOM     74  C   UNL A   1      44.707  33.335  31.327  1.00  0.00     0.009 A 
ATOM     75  C   UNL A   1      44.411  33.660  34.082  1.00  0.00     0.001 A 
ATOM     76  C   UNL A   1      44.962  34.574  31.914  1.00  0.00     0.001 A 
ATOM     77  C   UNL A   1      44.809  34.738  33.290  1.00  0.00     0.000 A 
ENDBRANCH  59  72
ENDBRANCH  33  34
ENDBRANCH  25  28
ENDBRANCH  23  24
ENDBRANCH  22  23
ENDBRANCH   1  22
TORSDOF 13
ENDMDL
MODEL 3
REMARK VINA RESULT:     -11.1      4.321      9.928
REMARK SMILES O=C(/C=C/c1ccccc1Oc1cccc(Cl)c1)NCCCNC(=O)c1ccc(-c2c3nc(c(-c4ccccc4)c4ccc([nH]4)c(-c4ccccc4)c4nc(c(-c5ccccc5)c5ccc2[nH]5)C=C4)C=C3)cc1
REMARK SMILES IDX 20 1 19 2 1 3 2 4 3 6 4 7 5 8 6 9 10 10 7 11 9 12 8 13 11 14
REMARK SMILES IDX 12 15 13 16 18 17 14 18 16 19 15 20 17 21 21 22 22 23 23 24
REMARK SMILES IDX 24 25 25 27 26 28 27 29 73 30 28 31 72 32 29 33 30 34 31 35
REMARK SMILES IDX 66 36 32 37 71 38 65 39 67 40 33 41 70 42 64 43 63 44 34 46
REMARK SMILES IDX 56 47 41 48 55 49 42 50 45 51 54 52 68 53 43 54 44 55 53 57
REMARK SMILES IDX 69 58 46 59 35 60 36 61 40 62 37 63 39 64 38 65 57 66 58 67
REMARK SMILES IDX 62 68 59 69 61 70 60 71 47 72 48 73 52 74 49 75 51 76 50 77
REMARK H PARENT 19 5 23 26 67 45 45 56
REMARK Flexibility Score: inf
ROOT
ATOM      1  C   UNL A   1      45.989  19.591  24.806  1.00  0.00     0.118 C 
ENDROOT
BRANCH   1   2
ATOM      2  N   UNL A   1      46.286  20.929  24.343  1.00  0.00    -0.352 N 
ATOM      3  O   UNL A   1      45.363  22.052  26.121  1.00  0.00    -0.270 OA
ATOM      4  C   UNL A   1      45.985  22.057  25.067  1.00  0.00     0.244 C 
ATOM      5  H   UNL A   1      46.726  21.037  23.469  1.00  0.00     0.163 HD
BRANCH   4   6
ATOM      6  C   UNL A   1      46.553  23.328  24.541  1.00  0.00     0.072 C 
ATOM      7  C   UNL A   1      47.041  24.311  25.312  1.00  0.00     0.017 C 
BRANCH   7   8
ATOM      8  C   UNL A   1      47.478  25.616  24.801  1.00  0.00     0.017 A 
ATOM      9  C   UNL A   1      48.275  25.558  23.639  1.00  0.00     0.012 A 
ATOM     10  C   UNL A   1      47.228  26.871  25.388  1.00  0.00     0.134 A 
ATOM     11  C   UNL A   1      48.814  26.712  23.068  1.00  0.00     0.001 A 
ATOM     12  C   UNL A   1      47.779  28.023  24.797  1.00  0.00     0.048 A 
ATOM     13  C   UNL A   1      48.569  27.947  23.652  1.00  0.00     0.004 A 
BRANCH  10  14
ATOM     14  O   UNL A   1      46.445  27.197  26.478  1.00  0.00    -0.457 OA
BRANCH  14  15
ATOM     15  C   UNL A   1      45.159  27.640  26.343  1.00  0.00     0.128 A 
ATOM     16  C   UNL A   1      44.886  28.933  26.799  1.00  0.00     0.047 A 
ATOM     17  C   UNL A   1      44.131  26.823  25.875  1.00  0.00     0.067 A 
ATOM     18  C   UNL A   1      43.593  29.445  26.717  1.00  0.00     0.005 A 
ATOM     19  C   UNL A   1      42.840  27.345  25.793  1.00  0.00     0.044 A 
ATOM     20  C   UNL A   1      42.568  28.652  26.205  1.00  0.00     0.021 A 
ATOM     21  Cl  UNL A   1      41.578  26.389  25.120  1.00  0.00    -0.084 Cl
ENDBRANCH  14  15
ENDBRANCH  10  14
ENDBRANCH   7   8
ENDBRANCH   4   6
ENDBRANCH   1   2
BRANCH   1  22
ATOM     22  C   UNL A   1      44.544  19.165  24.592  1.00  0.00     0.042 C 
BRANCH  22  23
ATOM     23  C   UNL A   1      43.674  19.241  25.839  1.00  0.00     0.118 C 
BRANCH  23  24
ATOM     24  N   UNL A   1      42.286  18.853  25.616  1.00  0.00    -0.352 N 
ATOM     25  C   UNL A   1      41.134  19.541  25.930  1.00  0.00     0.251 C 
ATOM     26  H   UNL A   1      42.153  17.979  25.182  1.00  0.00     0.163 HD
ATOM     27  O   UNL A   1      40.035  19.038  25.748  1.00  0.00    -0.269 OA
BRANCH  25  28
ATOM     28  C   UNL A   1      41.240  20.886  26.538  1.00  0.00     0.039 A 
ATOM     29  C   UNL A   1      41.002  21.030  27.909  1.00  0.00     0.014 A 
ATOM     30  C   UNL A   1      41.636  21.985  25.772  1.00  0.00     0.014 A 
ATOM     31  C   UNL A   1      41.264  22.253  28.530  1.00  0.00     0.010 A 
ATOM     32  C   UNL A   1      41.963  23.180  26.404  1.00  0.00     0.010 A 
ATOM     33  C   UNL A   1      41.799  23.320  27.792  1.00  0.00    -0.014 A 
BRANCH  33  34
ATOM     34  C   UNL A   1      42.231  24.585  28.440  1.00  0.00     0.031 A 
ATOM     35  C   UNL A   1      41.256  25.715  28.608  1.00  0.00     0.074 A 
ATOM     36  C   UNL A   1      43.525  24.758  28.775  1.00  0.00     0.049 A 
ATOM     37  N   UNL A   1      41.475  26.946  28.998  1.00  0.00    -0.248 NA
ATOM     38  C   UNL A   1      39.853  25.432  28.265  1.00  0.00     0.031 C 
ATOM     39  C   UNL A   1      44.584  23.757  28.633  1.00  0.00     0.029 A 
ATOM     40  N   UNL A   1      44.175  25.856  29.285  1.00  0.00    -0.354 N 
ATOM     41  C   UNL A   1      40.249  27.591  28.913  1.00  0.00     0.074 A 
ATOM     42  C   UNL A   1      39.296  26.626  28.407  1.00  0.00     0.031 C 
ATOM     43  C   UNL A   1      45.745  24.279  29.059  1.00  0.00     0.029 A 
ATOM     44  C   UNL A   1      45.525  25.665  29.459  1.00  0.00     0.049 A 
ATOM     45  H   UNL A   1      43.718  26.699  29.505  1.00  0.00     0.167 HD
ATOM     46  C   UNL A   1      39.940  28.868  29.237  1.00  0.00     0.031 A 
ATOM     47  C   UNL A   1      46.483  26.515  29.874  1.00  0.00     0.031 A 
ATOM     48  C   UNL A   1      40.878  29.822  29.763  1.00  0.00     0.049 A 
ATOM     49  C   UNL A   1      46.114  27.928  30.228  1.00  0.00     0.074 A 
ATOM     50  C   UNL A   1      40.644  31.123  30.175  1.00  0.00     0.029 A 
ATOM     51  N   UNL A   1      42.228  29.576  29.954  1.00  0.00    -0.354 N 
ATOM     52  N   UNL A   1      44.941  28.510  30.187  1.00  0.00    -0.248 NA
ATOM     53  C   UNL A   1      47.204  28.801  30.691  1.00  0.00     0.031 C 
ATOM     54  C   UNL A   1      41.863  31.677  30.583  1.00  0.00     0.029 A 
ATOM     55  C   UNL A   1      42.844  30.706  30.465  1.00  0.00     0.049 A 
ATOM     56  H   UNL A   1      42.682  28.725  29.755  1.00  0.00     0.167 HD
ATOM     57  C   UNL A   1      45.144  29.804  30.645  1.00  0.00     0.074 A 
ATOM     58  C   UNL A   1      46.551  29.923  30.966  1.00  0.00     0.031 C 
ATOM     59  C   UNL A   1      44.242  30.804  30.792  1.00  0.00     0.031 A 
BRANCH  46  60
ATOM     60  C   UNL A   1      38.520  29.310  29.022  1.00  0.00    -0.014 A 
ATOM     61  C   UNL A   1      38.074  29.731  27.759  1.00  0.00     0.009 A 
ATOM     62  C   UNL A   1      37.610  29.276  30.089  1.00  0.00     0.009 A 
ATOM     63  C   UNL A   1      36.753  30.144  27.579  1.00  0.00     0.001 A 
ATOM     64  C   UNL A   1      36.283  29.664  29.899  1.00  0.00     0.001 A 
ATOM     65  C   UNL A   1      35.858  30.107  28.648  1.00  0.00     0.000 A 
ENDBRANCH  46  60
BRANCH  47  66
ATOM     66  C   UNL A   1      47.890  26.052  29.989  1.00  0.00    -0.014 A 
ATOM     67  C   UNL A   1      48.717  26.010  28.857  1.00  0.00     0.009 A 
ATOM     68  C   UNL A   1      48.412  25.646  31.227  1.00  0.00     0.009 A 
ATOM     69  C   UNL A   1      50.032  25.551  28.956  1.00  0.00     0.001 A 
ATOM     70  C   UNL A   1      49.735  25.211  31.328  1.00  0.00     0.001 A 
ATOM     71  C   UNL A   1      50.540  25.155  30.192  1.00  0.00     0.000 A 
ENDBRANCH  47  66
BRANCH  59  72
ATOM     72  C   UNL A   1      44.733  32.099  31.368  1.00  0.00    -0.014 A 
ATOM     73  C   UNL A   1      45.187  33.138  30.543  1.00  0.00     0.009 A 
ATOM     74  C   UNL A   1      44.685  32.300  32.757  1.00  0.00     0.009 A 
ATOM     75  C   UNL A   1      45.603  34.349  31.100  1.00  0.00     0.001 A 
ATOM     76  C   UNL A   1      45.079  33.519  33.309  1.00  0.00     0.001 A 
ATOM     77  C   UNL A   1      45.543  34.540  32.482  1.00  0.00     0.000 A 
ENDBRANCH  59  72
ENDBRANCH  33  34
ENDBRANCH  25  28
ENDBRANCH  23  24
ENDBRANCH  22  23
ENDBRANCH   1  22
TORSDOF 13
ENDMDL
