MODEL 1
REMARK VINA RESULT:     -11.4      0.000      0.000
REMARK SMILES Cc1nn(Cc2ccc(C(=O)NCCCNC(=O)c3ccc(-c4c5nc(c(-c6ccccc6)c6ccc([nH]6)c(-c6ccccc6)c6nc(c(-c7ccccc7)c7ccc4[nH]7)C=C6)C=C5)cc3)o2)c(C)c1C
REMARK SMILES IDX 14 1 13 2 12 3 10 4 11 5 9 7 6 8 7 9 67 10 8 11 5 12 4 13
REMARK SMILES IDX 1 14 2 15 3 16 70 17 68 18 71 19 69 20 15 21 16 22 17 23
REMARK SMILES IDX 18 25 19 26 20 27 66 28 21 29 65 30 22 31 23 32 24 33 59 34
REMARK SMILES IDX 25 35 64 36 58 37 60 38 26 39 63 40 57 41 56 42 27 44 49 45
REMARK SMILES IDX 34 46 48 47 35 48 38 49 47 50 61 51 36 52 37 53 46 55 62 56
REMARK SMILES IDX 39 57 28 58 29 59 33 60 30 61 32 62 31 63 50 64 51 65 55 66
REMARK SMILES IDX 52 67 54 68 53 69 40 70 41 71 45 72 42 73 44 74 43 75
REMARK H PARENT 12 6 16 24 60 43 38 54
REMARK Flexibility Score: inf
ROOT
ATOM      1  C   UNL A   1      34.449  35.321  28.235  1.00  0.00     0.042 C 
ENDROOT
BRANCH   1   2
ATOM      2  C   UNL A   1      33.138  35.253  29.025  1.00  0.00     0.118 C 
BRANCH   2   3
ATOM      3  N   UNL A   1      32.877  36.465  29.790  1.00  0.00    -0.349 N 
ATOM      4  C   UNL A   1      33.180  36.801  31.090  1.00  0.00     0.286 C 
ATOM      5  O   UNL A   1      32.902  37.955  31.431  1.00  0.00    -0.266 OA
ATOM      6  H   UNL A   1      32.400  37.167  29.290  1.00  0.00     0.163 HD
BRANCH   4   7
ATOM      7  C   UNL A   1      33.818  35.861  31.989  1.00  0.00     0.191 A 
ATOM      8  C   UNL A   1      34.793  33.987  32.624  1.00  0.00     0.126 A 
ATOM      9  C   UNL A   1      34.778  34.809  33.730  1.00  0.00     0.048 A 
ATOM     10  O   UNL A   1      34.192  34.612  31.574  1.00  0.00    -0.454 OA
ATOM     11  C   UNL A   1      34.141  36.005  33.327  1.00  0.00     0.056 A 
BRANCH   8  12
ATOM     12  C   UNL A   1      35.353  32.636  32.367  1.00  0.00     0.219 C 
BRANCH  12  13
ATOM     13  N   UNL A   1      36.734  32.528  32.820  1.00  0.00    -0.262 N 
ATOM     14  C   UNL A   1      39.021  30.929  34.994  1.00  0.00     0.069 C 
ATOM     15  C   UNL A   1      38.343  31.801  34.003  1.00  0.00     0.063 A 
ATOM     16  N   UNL A   1      37.032  31.649  33.799  1.00  0.00    -0.177 NA
ATOM     17  C   UNL A   1      38.886  32.834  33.193  1.00  0.00    -0.007 A 
ATOM     18  C   UNL A   1      37.811  33.301  32.452  1.00  0.00     0.039 A 
ATOM     19  C   UNL A   1      40.284  33.329  33.148  1.00  0.00     0.048 C 
ATOM     20  C   UNL A   1      37.730  34.397  31.453  1.00  0.00     0.066 C 
ENDBRANCH  12  13
ENDBRANCH   8  12
ENDBRANCH   4   7
ENDBRANCH   2   3
ENDBRANCH   1   2
BRANCH   1  21
ATOM     21  C   UNL A   1      35.195  33.997  28.262  1.00  0.00     0.118 C 
BRANCH  21  22
ATOM     22  N   UNL A   1      34.318  32.814  28.169  1.00  0.00    -0.352 N 
ATOM     23  C   UNL A   1      34.674  31.486  27.997  1.00  0.00     0.251 C 
ATOM     24  H   UNL A   1      33.353  32.993  28.238  1.00  0.00     0.163 HD
ATOM     25  O   UNL A   1      33.847  30.648  27.637  1.00  0.00    -0.269 OA
BRANCH  23  26
ATOM     26  C   UNL A   1      36.065  31.089  28.266  1.00  0.00     0.039 A 
ATOM     27  C   UNL A   1      36.963  31.852  29.018  1.00  0.00     0.014 A 
ATOM     28  C   UNL A   1      36.445  29.852  27.767  1.00  0.00     0.014 A 
ATOM     29  C   UNL A   1      38.220  31.311  29.292  1.00  0.00     0.010 A 
ATOM     30  C   UNL A   1      37.510  29.210  28.310  1.00  0.00     0.010 A 
ATOM     31  C   UNL A   1      38.472  29.979  28.933  1.00  0.00    -0.014 A 
BRANCH  31  32
ATOM     32  C   UNL A   1      39.730  29.303  29.177  1.00  0.00     0.031 A 
ATOM     33  C   UNL A   1      39.981  28.948  30.587  1.00  0.00     0.074 A 
ATOM     34  C   UNL A   1      40.496  28.821  28.172  1.00  0.00     0.049 A 
ATOM     35  N   UNL A   1      40.847  29.491  31.370  1.00  0.00    -0.248 NA
ATOM     36  C   UNL A   1      39.093  27.982  31.249  1.00  0.00     0.031 C 
ATOM     37  C   UNL A   1      40.231  28.786  26.724  1.00  0.00     0.029 A 
ATOM     38  N   UNL A   1      41.661  28.138  28.269  1.00  0.00    -0.354 N 
ATOM     39  C   UNL A   1      40.743  28.829  32.585  1.00  0.00     0.074 A 
ATOM     40  C   UNL A   1      39.549  28.024  32.504  1.00  0.00     0.031 C 
ATOM     41  C   UNL A   1      41.084  27.922  26.127  1.00  0.00     0.029 A 
ATOM     42  C   UNL A   1      42.057  27.485  27.110  1.00  0.00     0.049 A 
ATOM     43  H   UNL A   1      42.189  28.107  29.099  1.00  0.00     0.167 HD
ATOM     44  C   UNL A   1      41.767  28.849  33.482  1.00  0.00     0.031 A 
ATOM     45  C   UNL A   1      43.103  26.629  26.992  1.00  0.00     0.031 A 
ATOM     46  C   UNL A   1      42.788  29.790  33.092  1.00  0.00     0.049 A 
ATOM     47  C   UNL A   1      44.017  26.909  28.127  1.00  0.00     0.074 A 
ATOM     48  C   UNL A   1      42.827  31.159  32.922  1.00  0.00     0.029 A 
ATOM     49  N   UNL A   1      43.858  29.288  32.385  1.00  0.00    -0.354 N 
ATOM     50  N   UNL A   1      44.664  28.034  28.252  1.00  0.00    -0.248 NA
ATOM     51  C   UNL A   1      43.825  26.162  29.362  1.00  0.00     0.031 C 
ATOM     52  C   UNL A   1      43.601  31.356  31.739  1.00  0.00     0.029 A 
ATOM     53  C   UNL A   1      44.060  30.110  31.305  1.00  0.00     0.049 A 
ATOM     54  H   UNL A   1      44.381  28.486  32.613  1.00  0.00     0.167 HD
ATOM     55  C   UNL A   1      44.558  28.356  29.598  1.00  0.00     0.074 A 
ATOM     56  C   UNL A   1      44.118  27.120  30.248  1.00  0.00     0.031 C 
ATOM     57  C   UNL A   1      44.546  29.657  30.017  1.00  0.00     0.031 A 
BRANCH  44  58
ATOM     58  C   UNL A   1      42.035  27.782  34.501  1.00  0.00    -0.014 A 
ATOM     59  C   UNL A   1      42.592  26.566  34.067  1.00  0.00     0.009 A 
ATOM     60  C   UNL A   1      41.523  27.819  35.811  1.00  0.00     0.009 A 
ATOM     61  C   UNL A   1      42.570  25.425  34.876  1.00  0.00     0.001 A 
ATOM     62  C   UNL A   1      41.534  26.691  36.636  1.00  0.00     0.001 A 
ATOM     63  C   UNL A   1      42.032  25.487  36.157  1.00  0.00     0.000 A 
ENDBRANCH  44  58
BRANCH  45  64
ATOM     64  C   UNL A   1      43.201  25.406  26.164  1.00  0.00    -0.014 A 
ATOM     65  C   UNL A   1      44.285  25.208  25.293  1.00  0.00     0.009 A 
ATOM     66  C   UNL A   1      42.376  24.300  26.441  1.00  0.00     0.009 A 
ATOM     67  C   UNL A   1      44.558  23.939  24.758  1.00  0.00     0.001 A 
ATOM     68  C   UNL A   1      42.649  23.034  25.908  1.00  0.00     0.001 A 
ATOM     69  C   UNL A   1      43.750  22.850  25.080  1.00  0.00     0.000 A 
ENDBRANCH  45  64
BRANCH  57  70
ATOM     70  C   UNL A   1      44.819  30.733  28.990  1.00  0.00    -0.014 A 
ATOM     71  C   UNL A   1      43.828  31.247  28.130  1.00  0.00     0.009 A 
ATOM     72  C   UNL A   1      46.069  31.366  29.003  1.00  0.00     0.009 A 
ATOM     73  C   UNL A   1      44.092  32.337  27.294  1.00  0.00     0.001 A 
ATOM     74  C   UNL A   1      46.328  32.467  28.183  1.00  0.00     0.001 A 
ATOM     75  C   UNL A   1      45.343  32.950  27.325  1.00  0.00     0.000 A 
ENDBRANCH  57  70
ENDBRANCH  31  32
ENDBRANCH  23  26
ENDBRANCH  21  22
ENDBRANCH   1  21
TORSDOF 12
ENDMDL
MODEL 2
REMARK VINA RESULT:     -11.3      5.656     10.683
REMARK SMILES Cc1nn(Cc2ccc(C(=O)NCCCNC(=O)c3ccc(-c4c5nc(c(-c6ccccc6)c6ccc([nH]6)c(-c6ccccc6)c6nc(c(-c7ccccc7)c7ccc4[nH]7)C=C6)C=C5)cc3)o2)c(C)c1C
REMARK SMILES IDX 14 1 13 2 12 3 10 4 11 5 9 7 6 8 7 9 67 10 8 11 5 12 4 13
REMARK SMILES IDX 1 14 2 15 3 16 70 17 68 18 71 19 69 20 15 21 16 22 17 23
REMARK SMILES IDX 18 25 19 26 20 27 66 28 21 29 65 30 22 31 23 32 24 33 59 34
REMARK SMILES IDX 25 35 64 36 58 37 60 38 26 39 63 40 57 41 56 42 27 44 49 45
REMARK SMILES IDX 34 46 48 47 35 48 38 49 47 50 61 51 36 52 37 53 46 55 62 56
REMARK SMILES IDX 39 57 28 58 29 59 33 60 30 61 32 62 31 63 50 64 51 65 55 66
REMARK SMILES IDX 52 67 54 68 53 69 40 70 41 71 45 72 42 73 44 74 43 75
REMARK H PARENT 12 6 16 24 60 43 38 54
REMARK Flexibility Score: inf
ROOT
ATOM      1  C   UNL A   1      38.103  19.591  24.964  1.00  0.00     0.042 C 
ENDROOT
BRANCH   1   2
ATOM      2  C   UNL A   1      37.163  20.763  24.663  1.00  0.00     0.118 C 
BRANCH   2   3
ATOM      3  N   UNL A   1      37.538  21.983  25.365  1.00  0.00    -0.349 N 
ATOM      4  C   UNL A   1      36.816  23.115  25.666  1.00  0.00     0.286 C 
ATOM      5  O   UNL A   1      37.392  23.958  26.361  1.00  0.00    -0.266 OA
ATOM      6  H   UNL A   1      38.471  22.001  25.679  1.00  0.00     0.163 HD
BRANCH   4   7
ATOM      7  C   UNL A   1      35.449  23.287  25.219  1.00  0.00     0.191 A 
ATOM      8  C   UNL A   1      33.303  22.825  24.994  1.00  0.00     0.126 A 
ATOM      9  C   UNL A   1      33.514  24.015  24.331  1.00  0.00     0.048 A 
ATOM     10  O   UNL A   1      34.477  22.369  25.513  1.00  0.00    -0.454 OA
ATOM     11  C   UNL A   1      34.891  24.304  24.464  1.00  0.00     0.056 A 
BRANCH   8  12
ATOM     12  C   UNL A   1      32.091  22.015  25.270  1.00  0.00     0.219 C 
BRANCH  12  13
ATOM     13  N   UNL A   1      32.217  20.659  24.750  1.00  0.00    -0.262 N 
ATOM     14  C   UNL A   1      32.747  17.241  25.488  1.00  0.00     0.069 C 
ATOM     15  C   UNL A   1      32.542  18.561  24.843  1.00  0.00     0.063 A 
ATOM     16  N   UNL A   1      32.456  19.650  25.612  1.00  0.00    -0.177 NA
ATOM     17  C   UNL A   1      32.421  18.879  23.464  1.00  0.00    -0.007 A 
ATOM     18  C   UNL A   1      32.233  20.253  23.436  1.00  0.00     0.039 A 
ATOM     19  C   UNL A   1      32.493  17.963  22.298  1.00  0.00     0.048 C 
ATOM     20  C   UNL A   1      32.075  21.182  22.288  1.00  0.00     0.066 C 
ENDBRANCH  12  13
ENDBRANCH   8  12
ENDBRANCH   4   7
ENDBRANCH   2   3
ENDBRANCH   1   2
BRANCH   1  21
ATOM     21  C   UNL A   1      39.241  20.002  25.885  1.00  0.00     0.118 C 
BRANCH  21  22
ATOM     22  N   UNL A   1      40.428  19.131  25.795  1.00  0.00    -0.352 N 
ATOM     23  C   UNL A   1      41.766  19.482  25.878  1.00  0.00     0.251 C 
ATOM     24  H   UNL A   1      40.245  18.174  25.659  1.00  0.00     0.163 HD
ATOM     25  O   UNL A   1      42.649  18.717  25.490  1.00  0.00    -0.269 OA
BRANCH  23  26
ATOM     26  C   UNL A   1      42.116  20.791  26.453  1.00  0.00     0.039 A 
ATOM     27  C   UNL A   1      42.610  21.864  25.707  1.00  0.00     0.014 A 
ATOM     28  C   UNL A   1      41.877  20.934  27.811  1.00  0.00     0.014 A 
ATOM     29  C   UNL A   1      42.800  23.085  26.354  1.00  0.00     0.010 A 
ATOM     30  C   UNL A   1      41.743  22.177  28.339  1.00  0.00     0.010 A 
ATOM     31  C   UNL A   1      42.352  23.223  27.676  1.00  0.00    -0.014 A 
BRANCH  31  32
ATOM     32  C   UNL A   1      42.479  24.443  28.447  1.00  0.00     0.031 A 
ATOM     33  C   UNL A   1      41.422  25.444  28.204  1.00  0.00     0.074 A 
ATOM     34  C   UNL A   1      43.349  24.558  29.476  1.00  0.00     0.049 A 
ATOM     35  N   UNL A   1      41.558  26.567  27.590  1.00  0.00    -0.248 NA
ATOM     36  C   UNL A   1      40.034  25.117  28.560  1.00  0.00     0.031 C 
ATOM     37  C   UNL A   1      44.237  23.545  30.072  1.00  0.00     0.029 A 
ATOM     38  N   UNL A   1      43.532  25.620  30.296  1.00  0.00    -0.354 N 
ATOM     39  C   UNL A   1      40.315  27.182  27.620  1.00  0.00     0.074 A 
ATOM     40  C   UNL A   1      39.384  26.183  28.085  1.00  0.00     0.031 C 
ATOM     41  C   UNL A   1      44.673  23.976  31.277  1.00  0.00     0.029 A 
ATOM     42  C   UNL A   1      44.244  25.350  31.456  1.00  0.00     0.049 A 
ATOM     43  H   UNL A   1      43.187  26.517  30.084  1.00  0.00     0.167 HD
ATOM     44  C   UNL A   1      40.195  28.526  27.448  1.00  0.00     0.031 A 
ATOM     45  C   UNL A   1      44.437  26.205  32.492  1.00  0.00     0.031 A 
ATOM     46  C   UNL A   1      41.443  29.115  27.027  1.00  0.00     0.049 A 
ATOM     47  C   UNL A   1      44.219  27.575  31.966  1.00  0.00     0.074 A 
ATOM     48  C   UNL A   1      42.249  28.981  25.915  1.00  0.00     0.029 A 
ATOM     49  N   UNL A   1      42.242  29.648  28.014  1.00  0.00    -0.354 N 
ATOM     50  N   UNL A   1      44.999  28.124  31.077  1.00  0.00    -0.248 NA
ATOM     51  C   UNL A   1      42.875  28.131  32.040  1.00  0.00     0.031 C 
ATOM     52  C   UNL A   1      43.580  28.969  26.430  1.00  0.00     0.029 A 
ATOM     53  C   UNL A   1      43.516  29.181  27.810  1.00  0.00     0.049 A 
ATOM     54  H   UNL A   1      41.952  30.252  28.735  1.00  0.00     0.167 HD
ATOM     55  C   UNL A   1      44.137  28.755  30.191  1.00  0.00     0.074 A 
ATOM     56  C   UNL A   1      42.852  28.810  30.888  1.00  0.00     0.031 C 
ATOM     57  C   UNL A   1      44.462  28.906  28.871  1.00  0.00     0.031 A 
BRANCH  44  58
ATOM     58  C   UNL A   1      39.081  29.366  28.000  1.00  0.00    -0.014 A 
ATOM     59  C   UNL A   1      39.066  29.634  29.380  1.00  0.00     0.009 A 
ATOM     60  C   UNL A   1      37.916  29.676  27.275  1.00  0.00     0.009 A 
ATOM     61  C   UNL A   1      37.918  30.119  30.015  1.00  0.00     0.001 A 
ATOM     62  C   UNL A   1      36.780  30.196  27.901  1.00  0.00     0.001 A 
ATOM     63  C   UNL A   1      36.772  30.390  29.275  1.00  0.00     0.000 A 
ENDBRANCH  44  58
BRANCH  45  64
ATOM     64  C   UNL A   1      44.487  25.898  33.939  1.00  0.00    -0.014 A 
ATOM     65  C   UNL A   1      43.313  25.644  34.665  1.00  0.00     0.009 A 
ATOM     66  C   UNL A   1      45.714  25.574  34.548  1.00  0.00     0.009 A 
ATOM     67  C   UNL A   1      43.364  25.044  35.933  1.00  0.00     0.001 A 
ATOM     68  C   UNL A   1      45.765  24.975  35.813  1.00  0.00     0.001 A 
ATOM     69  C   UNL A   1      44.588  24.694  36.498  1.00  0.00     0.000 A 
ENDBRANCH  45  64
BRANCH  57  70
ATOM     70  C   UNL A   1      45.858  28.513  28.438  1.00  0.00    -0.014 A 
ATOM     71  C   UNL A   1      46.939  29.415  28.413  1.00  0.00     0.009 A 
ATOM     72  C   UNL A   1      46.127  27.157  28.209  1.00  0.00     0.009 A 
ATOM     73  C   UNL A   1      48.240  28.975  28.140  1.00  0.00     0.001 A 
ATOM     74  C   UNL A   1      47.428  26.714  27.956  1.00  0.00     0.001 A 
ATOM     75  C   UNL A   1      48.483  27.622  27.916  1.00  0.00     0.000 A 
ENDBRANCH  57  70
ENDBRANCH  31  32
ENDBRANCH  23  26
ENDBRANCH  21  22
ENDBRANCH   1  21
TORSDOF 12
ENDMDL
MODEL 3
REMARK VINA RESULT:     -11.3      5.140     10.162
REMARK SMILES Cc1nn(Cc2ccc(C(=O)NCCCNC(=O)c3ccc(-c4c5nc(c(-c6ccccc6)c6ccc([nH]6)c(-c6ccccc6)c6nc(c(-c7ccccc7)c7ccc4[nH]7)C=C6)C=C5)cc3)o2)c(C)c1C
REMARK SMILES IDX 14 1 13 2 12 3 10 4 11 5 9 7 6 8 7 9 67 10 8 11 5 12 4 13
REMARK SMILES IDX 1 14 2 15 3 16 70 17 68 18 71 19 69 20 15 21 16 22 17 23
REMARK SMILES IDX 18 25 19 26 20 27 66 28 21 29 65 30 22 31 23 32 24 33 59 34
REMARK SMILES IDX 25 35 64 36 58 37 60 38 26 39 63 40 57 41 56 42 27 44 49 45
REMARK SMILES IDX 34 46 48 47 35 48 38 49 47 50 61 51 36 52 37 53 46 55 62 56
REMARK SMILES IDX 39 57 28 58 29 59 33 60 30 61 32 62 31 63 50 64 51 65 55 66
REMARK SMILES IDX 52 67 54 68 53 69 40 70 41 71 45 72 42 73 44 74 43 75
REMARK H PARENT 12 6 16 24 60 43 38 54
REMARK Flexibility Score: inf
ROOT
ATOM      1  C   UNL A   1      37.652  19.801  24.737  1.00  0.00     0.042 C 
ENDROOT
BRANCH   1   2
ATOM      2  C   UNL A   1      36.366  20.535  25.130  1.00  0.00     0.118 C 
BRANCH   2   3
ATOM      3  N   UNL A   1      35.185  19.687  25.051  1.00  0.00    -0.349 N 
ATOM      4  C   UNL A   1      33.862  19.991  24.820  1.00  0.00     0.286 C 
ATOM      5  O   UNL A   1      33.093  19.030  24.721  1.00  0.00    -0.266 OA
ATOM      6  H   UNL A   1      35.363  18.728  25.185  1.00  0.00     0.163 HD
BRANCH   4   7
ATOM      7  C   UNL A   1      33.412  21.360  24.670  1.00  0.00     0.191 A 
ATOM      8  C   UNL A   1      32.612  23.323  25.283  1.00  0.00     0.126 A 
ATOM      9  C   UNL A   1      32.888  23.421  23.936  1.00  0.00     0.048 A 
ATOM     10  O   UNL A   1      32.907  22.068  25.726  1.00  0.00    -0.454 OA
ATOM     11  C   UNL A   1      33.388  22.159  23.540  1.00  0.00     0.056 A 
BRANCH   8  12
ATOM     12  C   UNL A   1      32.121  24.291  26.295  1.00  0.00     0.219 C 
BRANCH  12  13
ATOM     13  N   UNL A   1      31.478  25.442  25.674  1.00  0.00    -0.262 N 
ATOM     14  C   UNL A   1      28.667  26.672  23.913  1.00  0.00     0.069 C 
ATOM     15  C   UNL A   1      29.972  26.482  24.593  1.00  0.00     0.063 A 
ATOM     16  N   UNL A   1      30.279  25.276  25.078  1.00  0.00    -0.177 NA
ATOM     17  C   UNL A   1      31.012  27.422  24.823  1.00  0.00    -0.007 A 
ATOM     18  C   UNL A   1      31.985  26.710  25.507  1.00  0.00     0.039 A 
ATOM     19  C   UNL A   1      31.070  28.848  24.414  1.00  0.00     0.048 C 
ATOM     20  C   UNL A   1      33.323  27.129  25.997  1.00  0.00     0.066 C 
ENDBRANCH  12  13
ENDBRANCH   8  12
ENDBRANCH   4   7
ENDBRANCH   2   3
ENDBRANCH   1   2
BRANCH   1  21
ATOM     21  C   UNL A   1      38.840  20.258  25.568  1.00  0.00     0.118 C 
BRANCH  21  22
ATOM     22  N   UNL A   1      39.894  19.237  25.717  1.00  0.00    -0.352 N 
ATOM     23  C   UNL A   1      41.242  19.419  25.982  1.00  0.00     0.251 C 
ATOM     24  H   UNL A   1      39.601  18.304  25.614  1.00  0.00     0.163 HD
ATOM     25  O   UNL A   1      42.057  18.517  25.784  1.00  0.00    -0.269 OA
BRANCH  23  26
ATOM     26  C   UNL A   1      41.686  20.715  26.522  1.00  0.00     0.039 A 
ATOM     27  C   UNL A   1      42.345  21.689  25.768  1.00  0.00     0.014 A 
ATOM     28  C   UNL A   1      41.361  20.956  27.848  1.00  0.00     0.014 A 
ATOM     29  C   UNL A   1      42.614  22.919  26.370  1.00  0.00     0.010 A 
ATOM     30  C   UNL A   1      41.321  22.234  28.304  1.00  0.00     0.010 A 
ATOM     31  C   UNL A   1      42.085  23.174  27.644  1.00  0.00    -0.014 A 
BRANCH  31  32
ATOM     32  C   UNL A   1      42.282  24.416  28.364  1.00  0.00     0.031 A 
ATOM     33  C   UNL A   1      41.235  25.433  28.147  1.00  0.00     0.074 A 
ATOM     34  C   UNL A   1      43.212  24.544  29.338  1.00  0.00     0.049 A 
ATOM     35  N   UNL A   1      41.361  26.532  27.488  1.00  0.00    -0.248 NA
ATOM     36  C   UNL A   1      39.863  25.151  28.591  1.00  0.00     0.031 C 
ATOM     37  C   UNL A   1      44.110  23.531  29.918  1.00  0.00     0.029 A 
ATOM     38  N   UNL A   1      43.464  25.627  30.109  1.00  0.00    -0.354 N 
ATOM     39  C   UNL A   1      40.135  27.176  27.566  1.00  0.00     0.074 A 
ATOM     40  C   UNL A   1      39.210  26.216  28.117  1.00  0.00     0.031 C 
ATOM     41  C   UNL A   1      44.623  23.990  31.082  1.00  0.00     0.029 A 
ATOM     42  C   UNL A   1      44.235  25.380  31.237  1.00  0.00     0.049 A 
ATOM     43  H   UNL A   1      43.127  26.525  29.887  1.00  0.00     0.167 HD
ATOM     44  C   UNL A   1      40.035  28.517  27.356  1.00  0.00     0.031 A 
ATOM     45  C   UNL A   1      44.505  26.262  32.230  1.00  0.00     0.031 A 
ATOM     46  C   UNL A   1      41.269  29.062  26.846  1.00  0.00     0.049 A 
ATOM     47  C   UNL A   1      44.287  27.619  31.670  1.00  0.00     0.074 A 
ATOM     48  C   UNL A   1      42.007  28.872  25.695  1.00  0.00     0.029 A 
ATOM     49  N   UNL A   1      42.135  29.608  27.768  1.00  0.00    -0.354 N 
ATOM     50  N   UNL A   1      45.027  28.120  30.721  1.00  0.00    -0.248 NA
ATOM     51  C   UNL A   1      42.963  28.210  31.801  1.00  0.00     0.031 C 
ATOM     52  C   UNL A   1      43.365  28.845  26.135  1.00  0.00     0.029 A 
ATOM     53  C   UNL A   1      43.385  29.104  27.508  1.00  0.00     0.049 A 
ATOM     54  H   UNL A   1      41.899  30.242  28.483  1.00  0.00     0.167 HD
ATOM     55  C   UNL A   1      44.131  28.742  29.863  1.00  0.00     0.074 A 
ATOM     56  C   UNL A   1      42.889  28.851  30.630  1.00  0.00     0.031 C 
ATOM     57  C   UNL A   1      44.383  28.841  28.524  1.00  0.00     0.031 A 
BRANCH  44  58
ATOM     58  C   UNL A   1      38.973  29.400  27.940  1.00  0.00    -0.014 A 
ATOM     59  C   UNL A   1      39.100  29.801  29.282  1.00  0.00     0.009 A 
ATOM     60  C   UNL A   1      37.733  29.633  27.318  1.00  0.00     0.009 A 
ATOM     61  C   UNL A   1      38.018  30.339  29.986  1.00  0.00     0.001 A 
ATOM     62  C   UNL A   1      36.661  30.206  28.008  1.00  0.00     0.001 A 
ATOM     63  C   UNL A   1      36.796  30.532  29.350  1.00  0.00     0.000 A 
ENDBRANCH  44  58
BRANCH  45  64
ATOM     64  C   UNL A   1      44.631  26.003  33.682  1.00  0.00    -0.014 A 
ATOM     65  C   UNL A   1      43.509  25.664  34.456  1.00  0.00     0.009 A 
ATOM     66  C   UNL A   1      45.901  25.808  34.255  1.00  0.00     0.009 A 
ATOM     67  C   UNL A   1      43.657  25.107  35.736  1.00  0.00     0.001 A 
ATOM     68  C   UNL A   1      46.049  25.252  35.532  1.00  0.00     0.001 A 
ATOM     69  C   UNL A   1      44.926  24.886  36.265  1.00  0.00     0.000 A 
ENDBRANCH  45  64
BRANCH  57  70
ATOM     70  C   UNL A   1      45.743  28.402  28.026  1.00  0.00    -0.014 A 
ATOM     71  C   UNL A   1      46.053  27.064  27.713  1.00  0.00     0.009 A 
ATOM     72  C   UNL A   1      46.686  29.387  27.704  1.00  0.00     0.009 A 
ATOM     73  C   UNL A   1      47.277  26.725  27.124  1.00  0.00     0.001 A 
ATOM     74  C   UNL A   1      47.899  29.052  27.099  1.00  0.00     0.001 A 
ATOM     75  C   UNL A   1      48.198  27.722  26.813  1.00  0.00     0.000 A 
ENDBRANCH  57  70
ENDBRANCH  31  32
ENDBRANCH  23  26
ENDBRANCH  21  22
ENDBRANCH   1  21
TORSDOF 12
ENDMDL
