MODEL 1
REMARK VINA RESULT:     -11.6      0.000      0.000
REMARK SMILES Cc1cc(/C=C2\C(=O)N(Cc3ccco3)C(=O)[NH+]=C2NCCCNC(=O)c2ccc(-c3c4nc(c(-c5ccccc5)c5ccc([nH]5)c(-c5ccccc5)c5nc(c(-c6ccccc6)c6ccc3[nH]6)C=C5)C=C4)cc2)c(C)n1-c1ccc(Cl)c(C(=O)[O-])c1
REMARK SMILES IDX 22 1 21 2 20 3 5 4 6 5 7 6 19 7 8 8 9 9 18 10 16 11 17 14
REMARK SMILES IDX 4 15 1 16 2 17 3 18 77 19 75 20 76 21 78 22 79 23 87 24
REMARK SMILES IDX 80 25 83 26 81 27 82 28 84 29 85 30 86 31 10 32 11 33 12 34
REMARK SMILES IDX 15 35 13 36 14 37 23 38 24 39 25 40 26 42 27 43 28 44 74 45
REMARK SMILES IDX 29 46 73 47 30 48 31 49 32 50 67 51 33 52 72 53 66 54 68 55
REMARK SMILES IDX 34 56 71 57 65 58 64 59 35 61 57 62 42 63 56 64 43 65 46 66
REMARK SMILES IDX 55 67 69 68 44 69 45 70 54 72 70 73 47 74 36 75 37 76 41 77
REMARK SMILES IDX 38 78 40 79 39 80 58 81 59 82 63 83 60 84 62 85 61 86 48 87
REMARK SMILES IDX 49 88 53 89 50 90 52 91 51 92
REMARK H PARENT 18 12 20 13 24 41 68 60 46 71
REMARK Flexibility Score: inf
ROOT
ATOM      1  C   UNL A   1      41.968  34.300  33.040  1.00  0.00     0.059 C 
ENDROOT
BRANCH   1   2
ATOM      2  C   UNL A   1      41.112  33.349  33.895  1.00  0.00     0.195 C 
BRANCH   2   3
ATOM      3  N   UNL A   1      39.779  33.860  34.067  1.00  0.00    -0.305 N 
ATOM      4  C   UNL A   1      39.011  32.125  31.506  1.00  0.00     0.032 C 
ATOM      5  C   UNL A   1      38.212  32.483  32.531  1.00  0.00     0.129 C 
ATOM      6  C   UNL A   1      36.823  32.005  32.728  1.00  0.00     0.323 C 
ATOM      7  C   UNL A   1      38.569  33.568  33.492  1.00  0.00     0.236 C 
ATOM      8  O   UNL A   1      36.534  30.816  32.755  1.00  0.00    -0.250 OA
ATOM      9  N   UNL A   1      35.943  33.057  32.871  1.00  0.00    -0.182 N 
ATOM     10  N   UNL A   1      37.621  34.368  33.909  1.00  0.00    -0.210 N 
ATOM     11  C   UNL A   1      36.346  34.261  33.417  1.00  0.00     0.444 C 
ATOM     12  H   UNL A   1      37.827  35.053  34.585  1.00  0.00     0.270 HD
ATOM     13  H   UNL A   1      39.723  34.575  34.742  1.00  0.00     0.256 HD
ATOM     14  O   UNL A   1      35.582  35.223  33.474  1.00  0.00    -0.212 OA
BRANCH   4  15
ATOM     15  C   UNL A   1      38.824  31.233  30.386  1.00  0.00    -0.003 A 
ATOM     16  C   UNL A   1      36.982  30.113  27.333  1.00  0.00     0.065 C 
ATOM     17  C   UNL A   1      37.872  30.378  28.499  1.00  0.00     0.020 A 
ATOM     18  C   UNL A   1      37.784  31.396  29.431  1.00  0.00     0.031 A 
ATOM     19  N   UNL A   1      38.926  29.559  28.867  1.00  0.00    -0.318 N 
ATOM     20  C   UNL A   1      39.490  30.060  30.046  1.00  0.00     0.027 A 
ATOM     21  C   UNL A   1      40.683  29.426  30.666  1.00  0.00     0.065 C 
BRANCH  19  22
ATOM     22  C   UNL A   1      39.437  28.451  28.132  1.00  0.00     0.046 A 
ATOM     23  C   UNL A   1      39.044  27.154  28.468  1.00  0.00     0.028 A 
ATOM     24  C   UNL A   1      40.474  28.656  27.215  1.00  0.00     0.038 A 
ATOM     25  C   UNL A   1      39.775  26.066  27.995  1.00  0.00     0.023 A 
ATOM     26  C   UNL A   1      41.204  27.556  26.710  1.00  0.00     0.018 A 
ATOM     27  C   UNL A   1      40.868  26.261  27.140  1.00  0.00     0.050 A 
ATOM     28  Cl  UNL A   1      41.747  24.835  26.713  1.00  0.00    -0.084 Cl
BRANCH  26  29
ATOM     29  C   UNL A   1      42.338  27.809  25.785  1.00  0.00     0.073 C 
ATOM     30  O   UNL A   1      42.300  27.987  24.569  1.00  0.00    -0.545 OA
ATOM     31  O   UNL A   1      43.522  27.849  26.416  1.00  0.00    -0.545 OA
ENDBRANCH  26  29
ENDBRANCH  19  22
ENDBRANCH   4  15
BRANCH   9  32
ATOM     32  C   UNL A   1      34.575  32.929  32.402  1.00  0.00     0.285 C 
BRANCH  32  33
ATOM     33  C   UNL A   1      34.412  33.331  30.990  1.00  0.00     0.138 A 
ATOM     34  C   UNL A   1      34.786  32.768  29.789  1.00  0.00     0.049 A 
ATOM     35  O   UNL A   1      33.662  34.448  30.770  1.00  0.00    -0.466 OA
ATOM     36  C   UNL A   1      34.245  33.599  28.779  1.00  0.00     0.042 A 
ATOM     37  C   UNL A   1      33.572  34.608  29.427  1.00  0.00     0.195 A 
ENDBRANCH  32  33
ENDBRANCH   9  32
ENDBRANCH   2   3
ENDBRANCH   1   2
BRANCH   1  38
ATOM     38  C   UNL A   1      43.215  33.695  32.351  1.00  0.00     0.119 C 
BRANCH  38  39
ATOM     39  N   UNL A   1      42.949  32.574  31.474  1.00  0.00    -0.352 N 
ATOM     40  C   UNL A   1      42.717  32.575  30.107  1.00  0.00     0.251 C 
ATOM     41  H   UNL A   1      42.931  31.690  31.908  1.00  0.00     0.163 HD
ATOM     42  O   UNL A   1      42.455  31.493  29.580  1.00  0.00    -0.269 OA
BRANCH  40  43
ATOM     43  C   UNL A   1      42.640  33.839  29.276  1.00  0.00     0.039 A 
ATOM     44  C   UNL A   1      43.691  34.079  28.413  1.00  0.00     0.014 A 
ATOM     45  C   UNL A   1      41.738  34.909  29.445  1.00  0.00     0.014 A 
ATOM     46  C   UNL A   1      43.791  35.313  27.703  1.00  0.00     0.010 A 
ATOM     47  C   UNL A   1      41.911  36.219  28.784  1.00  0.00     0.010 A 
ATOM     48  C   UNL A   1      42.963  36.487  27.886  1.00  0.00    -0.014 A 
BRANCH  48  49
ATOM     49  C   UNL A   1      43.630  37.927  27.415  1.00  0.00     0.031 A 
ATOM     50  C   UNL A   1      44.946  37.887  28.107  1.00  0.00     0.074 A 
ATOM     51  C   UNL A   1      43.430  39.173  26.800  1.00  0.00     0.049 A 
ATOM     52  N   UNL A   1      44.934  37.786  29.402  1.00  0.00    -0.248 NA
ATOM     53  C   UNL A   1      46.212  37.523  27.470  1.00  0.00     0.031 C 
ATOM     54  C   UNL A   1      42.198  39.738  26.224  1.00  0.00     0.029 A 
ATOM     55  N   UNL A   1      44.325  40.278  26.542  1.00  0.00    -0.354 N 
ATOM     56  C   UNL A   1      46.221  37.544  29.799  1.00  0.00     0.074 A 
ATOM     57  C   UNL A   1      46.927  37.220  28.563  1.00  0.00     0.031 C 
ATOM     58  C   UNL A   1      42.426  40.927  25.582  1.00  0.00     0.029 A 
ATOM     59  C   UNL A   1      43.823  41.349  25.706  1.00  0.00     0.049 A 
ATOM     60  H   UNL A   1      45.233  40.302  26.918  1.00  0.00     0.167 HD
ATOM     61  C   UNL A   1      46.641  38.275  30.870  1.00  0.00     0.031 A 
ATOM     62  C   UNL A   1      44.430  42.516  25.227  1.00  0.00     0.031 A 
ATOM     63  C   UNL A   1      47.361  39.441  30.430  1.00  0.00     0.049 A 
ATOM     64  C   UNL A   1      45.467  42.869  26.205  1.00  0.00     0.074 A 
ATOM     65  C   UNL A   1      48.331  39.625  29.463  1.00  0.00     0.029 A 
ATOM     66  N   UNL A   1      46.740  40.660  30.612  1.00  0.00    -0.354 N 
ATOM     67  N   UNL A   1      45.150  43.449  27.324  1.00  0.00    -0.248 NA
ATOM     68  C   UNL A   1      46.896  42.778  25.933  1.00  0.00     0.031 C 
ATOM     69  C   UNL A   1      47.873  40.740  28.729  1.00  0.00     0.029 A 
ATOM     70  C   UNL A   1      46.929  41.427  29.485  1.00  0.00     0.049 A 
ATOM     71  H   UNL A   1      46.243  40.935  31.416  1.00  0.00     0.167 HD
ATOM     72  C   UNL A   1      46.252  43.229  28.085  1.00  0.00     0.074 A 
ATOM     73  C   UNL A   1      47.351  43.126  27.141  1.00  0.00     0.031 C 
ATOM     74  C   UNL A   1      46.049  42.544  29.238  1.00  0.00     0.031 A 
BRANCH  61  75
ATOM     75  C   UNL A   1      45.650  38.291  32.014  1.00  0.00    -0.014 A 
ATOM     76  C   UNL A   1      45.552  37.174  32.847  1.00  0.00     0.009 A 
ATOM     77  C   UNL A   1      44.719  39.338  32.195  1.00  0.00     0.009 A 
ATOM     78  C   UNL A   1      44.509  37.080  33.778  1.00  0.00     0.001 A 
ATOM     79  C   UNL A   1      43.654  39.224  33.085  1.00  0.00     0.001 A 
ATOM     80  C   UNL A   1      43.546  38.087  33.875  1.00  0.00     0.000 A 
ENDBRANCH  61  75
BRANCH  62  81
ATOM     81  C   UNL A   1      44.318  43.733  24.253  1.00  0.00    -0.014 A 
ATOM     82  C   UNL A   1      45.286  44.796  24.328  1.00  0.00     0.009 A 
ATOM     83  C   UNL A   1      43.648  43.664  23.023  1.00  0.00     0.009 A 
ATOM     84  C   UNL A   1      45.652  45.622  23.242  1.00  0.00     0.001 A 
ATOM     85  C   UNL A   1      43.985  44.527  21.937  1.00  0.00     0.001 A 
ATOM     86  C   UNL A   1      45.007  45.474  22.031  1.00  0.00     0.000 A 
ENDBRANCH  62  81
BRANCH  74  87
ATOM     87  C   UNL A   1      44.770  42.843  30.011  1.00  0.00    -0.014 A 
ATOM     88  C   UNL A   1      44.583  43.945  30.878  1.00  0.00     0.009 A 
ATOM     89  C   UNL A   1      43.715  41.926  29.923  1.00  0.00     0.009 A 
ATOM     90  C   UNL A   1      43.436  44.083  31.671  1.00  0.00     0.001 A 
ATOM     91  C   UNL A   1      42.543  42.089  30.674  1.00  0.00     0.001 A 
ATOM     92  C   UNL A   1      42.412  43.154  31.563  1.00  0.00     0.000 A 
ENDBRANCH  74  87
ENDBRANCH  48  49
ENDBRANCH  40  43
ENDBRANCH  38  39
ENDBRANCH   1  38
TORSDOF 14
ENDMDL
MODEL 2
REMARK VINA RESULT:     -11.5      1.925      4.563
REMARK SMILES Cc1cc(/C=C2\C(=O)N(Cc3ccco3)C(=O)[NH+]=C2NCCCNC(=O)c2ccc(-c3c4nc(c(-c5ccccc5)c5ccc([nH]5)c(-c5ccccc5)c5nc(c(-c6ccccc6)c6ccc3[nH]6)C=C5)C=C4)cc2)c(C)n1-c1ccc(Cl)c(C(=O)[O-])c1
REMARK SMILES IDX 22 1 21 2 20 3 5 4 6 5 7 6 19 7 8 8 9 9 18 10 16 11 17 14
REMARK SMILES IDX 4 15 1 16 2 17 3 18 77 19 75 20 76 21 78 22 79 23 87 24
REMARK SMILES IDX 80 25 83 26 81 27 82 28 84 29 85 30 86 31 10 32 11 33 12 34
REMARK SMILES IDX 15 35 13 36 14 37 23 38 24 39 25 40 26 42 27 43 28 44 74 45
REMARK SMILES IDX 29 46 73 47 30 48 31 49 32 50 67 51 33 52 72 53 66 54 68 55
REMARK SMILES IDX 34 56 71 57 65 58 64 59 35 61 57 62 42 63 56 64 43 65 46 66
REMARK SMILES IDX 55 67 69 68 44 69 45 70 54 72 70 73 47 74 36 75 37 76 41 77
REMARK SMILES IDX 38 78 40 79 39 80 58 81 59 82 63 83 60 84 62 85 61 86 48 87
REMARK SMILES IDX 49 88 53 89 50 90 52 91 51 92
REMARK H PARENT 18 12 20 13 24 41 68 60 46 71
REMARK Flexibility Score: inf
ROOT
ATOM      1  C   UNL A   1      41.919  34.049  34.110  1.00  0.00     0.059 C 
ENDROOT
BRANCH   1   2
ATOM      2  C   UNL A   1      40.794  33.005  34.223  1.00  0.00     0.195 C 
BRANCH   2   3
ATOM      3  N   UNL A   1      39.504  33.635  34.308  1.00  0.00    -0.305 N 
ATOM      4  C   UNL A   1      38.792  32.053  31.634  1.00  0.00     0.032 C 
ATOM      5  C   UNL A   1      37.948  32.456  32.605  1.00  0.00     0.129 C 
ATOM      6  C   UNL A   1      36.510  32.106  32.675  1.00  0.00     0.323 C 
ATOM      7  C   UNL A   1      38.324  33.475  33.629  1.00  0.00     0.236 C 
ATOM      8  O   UNL A   1      36.111  30.949  32.637  1.00  0.00    -0.250 OA
ATOM      9  N   UNL A   1      35.721  33.232  32.786  1.00  0.00    -0.182 N 
ATOM     10  N   UNL A   1      37.423  34.349  33.999  1.00  0.00    -0.210 N 
ATOM     11  C   UNL A   1      36.188  34.377  33.404  1.00  0.00     0.444 C 
ATOM     12  H   UNL A   1      37.635  34.992  34.713  1.00  0.00     0.270 HD
ATOM     13  H   UNL A   1      39.459  34.332  35.001  1.00  0.00     0.256 HD
ATOM     14  O   UNL A   1      35.513  35.405  33.435  1.00  0.00    -0.212 OA
BRANCH   4  15
ATOM     15  C   UNL A   1      38.615  31.214  30.472  1.00  0.00    -0.003 A 
ATOM     16  C   UNL A   1      36.694  30.108  27.463  1.00  0.00     0.065 C 
ATOM     17  C   UNL A   1      37.628  30.386  28.591  1.00  0.00     0.020 A 
ATOM     18  C   UNL A   1      37.508  31.335  29.590  1.00  0.00     0.031 A 
ATOM     19  N   UNL A   1      38.771  29.648  28.846  1.00  0.00    -0.318 N 
ATOM     20  C   UNL A   1      39.360  30.130  30.020  1.00  0.00     0.027 A 
ATOM     21  C   UNL A   1      40.642  29.575  30.530  1.00  0.00     0.065 C 
BRANCH  19  22
ATOM     22  C   UNL A   1      39.332  28.637  28.013  1.00  0.00     0.046 A 
ATOM     23  C   UNL A   1      39.080  27.293  28.288  1.00  0.00     0.028 A 
ATOM     24  C   UNL A   1      40.287  28.991  27.053  1.00  0.00     0.038 A 
ATOM     25  C   UNL A   1      39.874  26.307  27.706  1.00  0.00     0.023 A 
ATOM     26  C   UNL A   1      41.079  27.996  26.439  1.00  0.00     0.018 A 
ATOM     27  C   UNL A   1      40.888  26.652  26.804  1.00  0.00     0.050 A 
ATOM     28  Cl  UNL A   1      41.863  25.342  26.237  1.00  0.00    -0.084 Cl
BRANCH  26  29
ATOM     29  C   UNL A   1      42.125  28.406  25.468  1.00  0.00     0.073 C 
ATOM     30  O   UNL A   1      42.532  27.790  24.484  1.00  0.00    -0.545 OA
ATOM     31  O   UNL A   1      42.643  29.613  25.744  1.00  0.00    -0.545 OA
ENDBRANCH  26  29
ENDBRANCH  19  22
ENDBRANCH   4  15
BRANCH   9  32
ATOM     32  C   UNL A   1      34.390  33.247  32.206  1.00  0.00     0.285 C 
BRANCH  32  33
ATOM     33  C   UNL A   1      34.394  33.580  30.767  1.00  0.00     0.138 A 
ATOM     34  C   UNL A   1      34.577  32.841  29.618  1.00  0.00     0.049 A 
ATOM     35  O   UNL A   1      34.065  34.864  30.451  1.00  0.00    -0.466 OA
ATOM     36  C   UNL A   1      34.362  33.732  28.539  1.00  0.00     0.042 A 
ATOM     37  C   UNL A   1      34.056  34.951  29.098  1.00  0.00     0.195 A 
ENDBRANCH  32  33
ENDBRANCH   9  32
ENDBRANCH   2   3
ENDBRANCH   1   2
BRANCH   1  38
ATOM     38  C   UNL A   1      42.021  35.097  35.245  1.00  0.00     0.119 C 
BRANCH  38  39
ATOM     39  N   UNL A   1      43.363  35.353  35.725  1.00  0.00    -0.352 N 
ATOM     40  C   UNL A   1      44.228  36.381  35.382  1.00  0.00     0.251 C 
ATOM     41  H   UNL A   1      43.708  34.710  36.387  1.00  0.00     0.163 HD
ATOM     42  O   UNL A   1      45.352  36.361  35.883  1.00  0.00    -0.269 OA
BRANCH  40  43
ATOM     43  C   UNL A   1      43.904  37.427  34.335  1.00  0.00     0.039 A 
ATOM     44  C   UNL A   1      44.319  37.163  33.044  1.00  0.00     0.014 A 
ATOM     45  C   UNL A   1      43.434  38.736  34.564  1.00  0.00     0.014 A 
ATOM     46  C   UNL A   1      44.202  38.149  32.020  1.00  0.00     0.010 A 
ATOM     47  C   UNL A   1      43.416  39.780  33.518  1.00  0.00     0.010 A 
ATOM     48  C   UNL A   1      43.817  39.534  32.190  1.00  0.00    -0.014 A 
BRANCH  48  49
ATOM     49  C   UNL A   1      44.328  40.581  31.014  1.00  0.00     0.031 A 
ATOM     50  C   UNL A   1      43.292  40.382  29.965  1.00  0.00     0.074 A 
ATOM     51  C   UNL A   1      45.355  41.416  30.545  1.00  0.00     0.049 A 
ATOM     52  N   UNL A   1      43.154  39.182  29.487  1.00  0.00    -0.248 NA
ATOM     53  C   UNL A   1      42.155  41.274  29.737  1.00  0.00     0.031 C 
ATOM     54  C   UNL A   1      46.677  41.685  31.136  1.00  0.00     0.029 A 
ATOM     55  N   UNL A   1      45.460  42.252  29.371  1.00  0.00    -0.354 N 
ATOM     56  C   UNL A   1      42.020  39.183  28.720  1.00  0.00     0.074 A 
ATOM     57  C   UNL A   1      41.358  40.441  29.052  1.00  0.00     0.031 C 
ATOM     58  C   UNL A   1      47.352  42.669  30.464  1.00  0.00     0.029 A 
ATOM     59  C   UNL A   1      46.603  43.138  29.296  1.00  0.00     0.049 A 
ATOM     60  H   UNL A   1      44.786  42.221  28.656  1.00  0.00     0.167 HD
ATOM     61  C   UNL A   1      42.140  38.560  27.514  1.00  0.00     0.031 A 
ATOM     62  C   UNL A   1      46.975  44.096  28.344  1.00  0.00     0.031 A 
ATOM     63  C   UNL A   1      42.426  39.520  26.480  1.00  0.00     0.049 A 
ATOM     64  C   UNL A   1      46.392  43.656  27.071  1.00  0.00     0.074 A 
ATOM     65  C   UNL A   1      41.897  40.764  26.195  1.00  0.00     0.029 A 
ATOM     66  N   UNL A   1      43.694  39.490  25.937  1.00  0.00    -0.354 N 
ATOM     67  N   UNL A   1      46.948  42.704  26.383  1.00  0.00    -0.248 NA
ATOM     68  C   UNL A   1      45.297  44.349  26.403  1.00  0.00     0.031 C 
ATOM     69  C   UNL A   1      43.031  41.585  26.018  1.00  0.00     0.029 A 
ATOM     70  C   UNL A   1      44.143  40.782  25.785  1.00  0.00     0.049 A 
ATOM     71  H   UNL A   1      44.196  38.677  25.700  1.00  0.00     0.167 HD
ATOM     72  C   UNL A   1      45.943  42.321  25.555  1.00  0.00     0.074 A 
ATOM     73  C   UNL A   1      45.124  43.508  25.380  1.00  0.00     0.031 C 
ATOM     74  C   UNL A   1      45.559  41.024  25.649  1.00  0.00     0.031 A 
BRANCH  61  75
ATOM     75  C   UNL A   1      42.809  37.205  27.599  1.00  0.00    -0.014 A 
ATOM     76  C   UNL A   1      42.107  36.131  28.153  1.00  0.00     0.009 A 
ATOM     77  C   UNL A   1      44.168  37.009  27.267  1.00  0.00     0.009 A 
ATOM     78  C   UNL A   1      42.767  34.927  28.432  1.00  0.00     0.001 A 
ATOM     79  C   UNL A   1      44.836  35.831  27.589  1.00  0.00     0.001 A 
ATOM     80  C   UNL A   1      44.134  34.789  28.179  1.00  0.00     0.000 A 
ENDBRANCH  61  75
BRANCH  62  81
ATOM     81  C   UNL A   1      47.939  45.276  27.998  1.00  0.00    -0.014 A 
ATOM     82  C   UNL A   1      47.400  46.593  27.774  1.00  0.00     0.009 A 
ATOM     83  C   UNL A   1      49.300  45.272  28.336  1.00  0.00     0.009 A 
ATOM     84  C   UNL A   1      48.107  47.794  27.999  1.00  0.00     0.001 A 
ATOM     85  C   UNL A   1      50.029  46.485  28.521  1.00  0.00     0.001 A 
ATOM     86  C   UNL A   1      49.429  47.739  28.393  1.00  0.00     0.000 A 
ENDBRANCH  62  81
BRANCH  74  87
ATOM     87  C   UNL A   1      46.654  39.987  25.872  1.00  0.00    -0.014 A 
ATOM     88  C   UNL A   1      47.289  39.244  24.849  1.00  0.00     0.009 A 
ATOM     89  C   UNL A   1      47.018  39.682  27.189  1.00  0.00     0.009 A 
ATOM     90  C   UNL A   1      48.183  38.202  25.131  1.00  0.00     0.001 A 
ATOM     91  C   UNL A   1      47.952  38.677  27.473  1.00  0.00     0.001 A 
ATOM     92  C   UNL A   1      48.518  37.923  26.447  1.00  0.00     0.000 A 
ENDBRANCH  74  87
ENDBRANCH  48  49
ENDBRANCH  40  43
ENDBRANCH  38  39
ENDBRANCH   1  38
TORSDOF 14
ENDMDL
MODEL 3
REMARK VINA RESULT:     -11.1      6.426     12.153
REMARK SMILES Cc1cc(/C=C2\C(=O)N(Cc3ccco3)C(=O)[NH+]=C2NCCCNC(=O)c2ccc(-c3c4nc(c(-c5ccccc5)c5ccc([nH]5)c(-c5ccccc5)c5nc(c(-c6ccccc6)c6ccc3[nH]6)C=C5)C=C4)cc2)c(C)n1-c1ccc(Cl)c(C(=O)[O-])c1
REMARK SMILES IDX 22 1 21 2 20 3 5 4 6 5 7 6 19 7 8 8 9 9 18 10 16 11 17 14
REMARK SMILES IDX 4 15 1 16 2 17 3 18 77 19 75 20 76 21 78 22 79 23 87 24
REMARK SMILES IDX 80 25 83 26 81 27 82 28 84 29 85 30 86 31 10 32 11 33 12 34
REMARK SMILES IDX 15 35 13 36 14 37 23 38 24 39 25 40 26 42 27 43 28 44 74 45
REMARK SMILES IDX 29 46 73 47 30 48 31 49 32 50 67 51 33 52 72 53 66 54 68 55
REMARK SMILES IDX 34 56 71 57 65 58 64 59 35 61 57 62 42 63 56 64 43 65 46 66
REMARK SMILES IDX 55 67 69 68 44 69 45 70 54 72 70 73 47 74 36 75 37 76 41 77
REMARK SMILES IDX 38 78 40 79 39 80 58 81 59 82 63 83 60 84 62 85 61 86 48 87
REMARK SMILES IDX 49 88 53 89 50 90 52 91 51 92
REMARK H PARENT 18 12 20 13 24 41 68 60 46 71
REMARK Flexibility Score: inf
ROOT
ATOM      1  C   UNL A   1      33.826  28.043  26.329  1.00  0.00     0.059 C 
ENDROOT
BRANCH   1   2
ATOM      2  C   UNL A   1      34.209  26.884  25.391  1.00  0.00     0.195 C 
BRANCH   2   3
ATOM      3  N   UNL A   1      33.256  25.810  25.475  1.00  0.00    -0.305 N 
ATOM      4  C   UNL A   1      35.779  23.870  25.653  1.00  0.00     0.032 C 
ATOM      5  C   UNL A   1      34.549  23.675  26.168  1.00  0.00     0.129 C 
ATOM      6  C   UNL A   1      34.173  22.550  27.057  1.00  0.00     0.323 C 
ATOM      7  C   UNL A   1      33.360  24.469  25.742  1.00  0.00     0.236 C 
ATOM      8  O   UNL A   1      34.781  22.294  28.087  1.00  0.00    -0.250 OA
ATOM      9  N   UNL A   1      33.079  21.865  26.569  1.00  0.00    -0.182 N 
ATOM     10  N   UNL A   1      32.210  23.855  25.621  1.00  0.00    -0.210 N 
ATOM     11  C   UNL A   1      32.116  22.500  25.807  1.00  0.00     0.444 C 
ATOM     12  H   UNL A   1      31.404  24.374  25.395  1.00  0.00     0.270 HD
ATOM     13  H   UNL A   1      32.331  26.099  25.302  1.00  0.00     0.256 HD
ATOM     14  O   UNL A   1      31.183  21.874  25.308  1.00  0.00    -0.212 OA
BRANCH   4  15
ATOM     15  C   UNL A   1      37.023  23.150  25.791  1.00  0.00    -0.003 A 
ATOM     16  C   UNL A   1      39.120  20.082  25.392  1.00  0.00     0.065 C 
ATOM     17  C   UNL A   1      38.488  21.410  25.637  1.00  0.00     0.020 A 
ATOM     18  C   UNL A   1      37.196  21.810  25.351  1.00  0.00     0.031 A 
ATOM     19  N   UNL A   1      39.121  22.460  26.280  1.00  0.00    -0.318 N 
ATOM     20  C   UNL A   1      38.213  23.517  26.409  1.00  0.00     0.027 A 
ATOM     21  C   UNL A   1      38.614  24.815  27.013  1.00  0.00     0.065 C 
BRANCH  19  22
ATOM     22  C   UNL A   1      40.494  22.519  26.659  1.00  0.00     0.046 A 
ATOM     23  C   UNL A   1      40.872  22.165  27.954  1.00  0.00     0.028 A 
ATOM     24  C   UNL A   1      41.418  23.118  25.796  1.00  0.00     0.038 A 
ATOM     25  C   UNL A   1      42.128  22.531  28.433  1.00  0.00     0.023 A 
ATOM     26  C   UNL A   1      42.704  23.470  26.265  1.00  0.00     0.018 A 
ATOM     27  C   UNL A   1      43.035  23.204  27.604  1.00  0.00     0.050 A 
ATOM     28  Cl  UNL A   1      44.515  23.690  28.355  1.00  0.00    -0.084 Cl
BRANCH  26  29
ATOM     29  C   UNL A   1      43.643  24.157  25.343  1.00  0.00     0.073 C 
ATOM     30  O   UNL A   1      44.687  23.724  24.861  1.00  0.00    -0.545 OA
ATOM     31  O   UNL A   1      43.241  25.397  25.024  1.00  0.00    -0.545 OA
ENDBRANCH  26  29
ENDBRANCH  19  22
ENDBRANCH   4  15
BRANCH   9  32
ATOM     32  C   UNL A   1      32.947  20.440  26.812  1.00  0.00     0.285 C 
BRANCH  32  33
ATOM     33  C   UNL A   1      33.134  19.630  25.591  1.00  0.00     0.138 A 
ATOM     34  C   UNL A   1      34.140  19.536  24.653  1.00  0.00     0.049 A 
ATOM     35  O   UNL A   1      32.173  18.696  25.342  1.00  0.00    -0.466 OA
ATOM     36  C   UNL A   1      33.761  18.495  23.772  1.00  0.00     0.042 A 
ATOM     37  C   UNL A   1      32.556  18.017  24.233  1.00  0.00     0.195 A 
ENDBRANCH  32  33
ENDBRANCH   9  32
ENDBRANCH   2   3
ENDBRANCH   1   2
BRANCH   1  38
ATOM     38  C   UNL A   1      34.075  29.479  25.809  1.00  0.00     0.119 C 
BRANCH  38  39
ATOM     39  N   UNL A   1      33.970  30.521  26.809  1.00  0.00    -0.352 N 
ATOM     40  C   UNL A   1      34.849  30.837  27.833  1.00  0.00     0.251 C 
ATOM     41  H   UNL A   1      33.163  31.083  26.753  1.00  0.00     0.163 HD
ATOM     42  O   UNL A   1      34.517  31.738  28.602  1.00  0.00    -0.269 OA
BRANCH  40  43
ATOM     43  C   UNL A   1      36.110  30.048  28.120  1.00  0.00     0.039 A 
ATOM     44  C   UNL A   1      36.195  29.444  29.360  1.00  0.00     0.014 A 
ATOM     45  C   UNL A   1      37.298  30.046  27.363  1.00  0.00     0.014 A 
ATOM     46  C   UNL A   1      37.400  28.811  29.787  1.00  0.00     0.010 A 
ATOM     47  C   UNL A   1      38.569  29.479  27.860  1.00  0.00     0.010 A 
ATOM     48  C   UNL A   1      38.681  28.843  29.113  1.00  0.00    -0.014 A 
BRANCH  48  49
ATOM     49  C   UNL A   1      40.010  28.574  30.063  1.00  0.00     0.031 A 
ATOM     50  C   UNL A   1      39.717  29.438  31.238  1.00  0.00     0.074 A 
ATOM     51  C   UNL A   1      41.301  28.028  30.158  1.00  0.00     0.049 A 
ATOM     52  N   UNL A   1      39.558  30.707  31.017  1.00  0.00    -0.248 NA
ATOM     53  C   UNL A   1      39.177  28.958  32.510  1.00  0.00     0.031 C 
ATOM     54  C   UNL A   1      42.091  27.328  29.131  1.00  0.00     0.029 A 
ATOM     55  N   UNL A   1      42.251  27.977  31.245  1.00  0.00    -0.354 N 
ATOM     56  C   UNL A   1      39.084  31.261  32.176  1.00  0.00     0.074 A 
ATOM     57  C   UNL A   1      38.706  30.115  32.998  1.00  0.00     0.031 C 
ATOM     58  C   UNL A   1      43.254  26.812  29.637  1.00  0.00     0.029 A 
ATOM     59  C   UNL A   1      43.429  27.159  31.050  1.00  0.00     0.049 A 
ATOM     60  H   UNL A   1      42.104  28.477  32.080  1.00  0.00     0.167 HD
ATOM     61  C   UNL A   1      39.682  32.430  32.542  1.00  0.00     0.031 A 
ATOM     62  C   UNL A   1      44.500  26.854  31.899  1.00  0.00     0.031 A 
ATOM     63  C   UNL A   1      40.730  32.179  33.496  1.00  0.00     0.049 A 
ATOM     64  C   UNL A   1      44.626  27.989  32.822  1.00  0.00     0.074 A 
ATOM     65  C   UNL A   1      40.795  31.372  34.616  1.00  0.00     0.029 A 
ATOM     66  N   UNL A   1      42.026  32.360  33.057  1.00  0.00    -0.354 N 
ATOM     67  N   UNL A   1      45.197  29.092  32.438  1.00  0.00    -0.248 NA
ATOM     68  C   UNL A   1      44.309  27.913  34.243  1.00  0.00     0.031 C 
ATOM     69  C   UNL A   1      42.005  30.664  34.456  1.00  0.00     0.029 A 
ATOM     70  C   UNL A   1      42.804  31.328  33.531  1.00  0.00     0.049 A 
ATOM     71  H   UNL A   1      42.342  33.105  32.496  1.00  0.00     0.167 HD
ATOM     72  C   UNL A   1      44.758  29.981  33.366  1.00  0.00     0.074 A 
ATOM     73  C   UNL A   1      44.518  29.193  34.562  1.00  0.00     0.031 C 
ATOM     74  C   UNL A   1      44.063  31.043  32.887  1.00  0.00     0.031 A 
BRANCH  61  75
ATOM     75  C   UNL A   1      39.809  33.423  31.408  1.00  0.00    -0.014 A 
ATOM     76  C   UNL A   1      38.659  33.837  30.730  1.00  0.00     0.009 A 
ATOM     77  C   UNL A   1      41.062  33.849  30.910  1.00  0.00     0.009 A 
ATOM     78  C   UNL A   1      38.768  34.590  29.553  1.00  0.00     0.001 A 
ATOM     79  C   UNL A   1      41.172  34.554  29.715  1.00  0.00     0.001 A 
ATOM     80  C   UNL A   1      40.021  34.920  29.031  1.00  0.00     0.000 A 
ENDBRANCH  61  75
BRANCH  62  81
ATOM     81  C   UNL A   1      45.763  25.963  32.129  1.00  0.00    -0.014 A 
ATOM     82  C   UNL A   1      46.970  26.237  31.392  1.00  0.00     0.009 A 
ATOM     83  C   UNL A   1      45.972  25.227  33.303  1.00  0.00     0.009 A 
ATOM     84  C   UNL A   1      48.271  25.930  31.847  1.00  0.00     0.001 A 
ATOM     85  C   UNL A   1      47.284  24.876  33.744  1.00  0.00     0.001 A 
ATOM     86  C   UNL A   1      48.430  25.258  33.043  1.00  0.00     0.000 A 
ENDBRANCH  62  81
BRANCH  74  87
ATOM     87  C   UNL A   1      44.535  31.649  31.571  1.00  0.00    -0.014 A 
ATOM     88  C   UNL A   1      45.605  32.564  31.435  1.00  0.00     0.009 A 
ATOM     89  C   UNL A   1      43.818  31.344  30.407  1.00  0.00     0.009 A 
ATOM     90  C   UNL A   1      45.896  33.197  30.219  1.00  0.00     0.001 A 
ATOM     91  C   UNL A   1      44.139  31.934  29.177  1.00  0.00     0.001 A 
ATOM     92  C   UNL A   1      45.162  32.876  29.087  1.00  0.00     0.000 A 
ENDBRANCH  74  87
ENDBRANCH  48  49
ENDBRANCH  40  43
ENDBRANCH  38  39
ENDBRANCH   1  38
TORSDOF 14
ENDMDL
