MODEL 1
REMARK VINA RESULT:     -12.3      0.000      0.000
REMARK SMILES CC(C)c1ccc(NC(=O)C(=O)N/N=C/c2ccccc2C(=O)NCCCNC(=O)c2ccc(-c3c4nc(c(-c5ccccc5)c5ccc([nH]5)c(-c5ccccc5)c5nc(c(-c6ccccc6)c6ccc3[nH]6)C=C5)C=C4)cc2)cc1
REMARK SMILES IDX 22 1 23 2 24 3 21 5 16 6 17 7 18 8 20 9 19 10 15 11 14 12
REMARK SMILES IDX 13 13 11 14 12 15 9 17 8 18 10 20 7 21 4 22 5 23 80 24 6 25
REMARK SMILES IDX 79 26 2 27 1 28 3 29 25 30 26 31 27 32 28 33 29 34 30 36
REMARK SMILES IDX 31 37 32 38 78 39 33 40 77 41 34 42 35 43 36 44 71 45 37 46
REMARK SMILES IDX 76 47 70 48 72 49 38 50 75 51 69 52 68 53 39 55 61 56 46 57
REMARK SMILES IDX 60 58 47 59 50 60 59 61 73 62 48 63 49 64 58 66 74 67 51 68
REMARK SMILES IDX 40 69 41 70 45 71 42 72 44 73 43 74 62 75 63 76 67 77 64 78
REMARK SMILES IDX 66 79 65 80 52 81 53 82 57 83 54 84 56 85 55 86
REMARK H PARENT 24 4 13 16 8 19 28 35 72 54 50 65
REMARK Flexibility Score: inf
ROOT
ATOM      1  C   UNL A   1      33.800  24.197  26.268  1.00  0.00     0.251 C 
ATOM      2  O   UNL A   1      33.326  23.471  27.148  1.00  0.00    -0.269 OA
ATOM      3  N   UNL A   1      33.219  25.427  26.134  1.00  0.00    -0.352 N 
ATOM      4  H   UNL A   1      32.438  25.554  26.721  1.00  0.00     0.163 HD
ENDROOT
BRANCH   1   5
ATOM      5  C   UNL A   1      34.870  23.627  25.410  1.00  0.00     0.048 A 
ATOM      6  C   UNL A   1      34.883  23.486  24.018  1.00  0.00     0.007 A 
ATOM      7  C   UNL A   1      36.027  23.017  23.349  1.00  0.00     0.010 A 
ATOM      8  C   UNL A   1      37.183  22.700  24.061  1.00  0.00     0.001 A 
ATOM      9  C   UNL A   1      36.054  23.294  26.107  1.00  0.00     0.014 A 
ATOM     10  C   UNL A   1      37.195  22.833  25.443  1.00  0.00     0.001 A 
BRANCH   6  11
ATOM     11  C   UNL A   1      33.729  23.715  23.152  1.00  0.00     0.142 C 
ATOM     12  N   UNL A   1      33.596  24.768  22.417  1.00  0.00    -0.180 NA
BRANCH  12  13
ATOM     13  N   UNL A   1      32.435  24.918  21.666  1.00  0.00    -0.239 N 
ATOM     14  C   UNL A   1      31.377  25.771  21.960  1.00  0.00     0.329 C 
ATOM     15  O   UNL A   1      31.185  26.801  21.323  1.00  0.00    -0.262 OA
ATOM     16  H   UNL A   1      32.355  24.370  20.852  1.00  0.00     0.194 HD
BRANCH  14  17
ATOM     17  C   UNL A   1      30.453  25.364  23.129  1.00  0.00     0.315 C 
ATOM     18  N   UNL A   1      29.776  26.308  23.872  1.00  0.00    -0.318 N 
ATOM     19  H   UNL A   1      29.477  25.965  24.746  1.00  0.00     0.170 HD
ATOM     20  O   UNL A   1      30.387  24.189  23.486  1.00  0.00    -0.263 OA
BRANCH  18  21
ATOM     21  C   UNL A   1      29.417  27.649  23.661  1.00  0.00     0.041 A 
ATOM     22  C   UNL A   1      28.539  30.256  22.962  1.00  0.00    -0.045 A 
ATOM     23  C   UNL A   1      29.829  30.034  23.462  1.00  0.00     0.006 A 
ATOM     24  C   UNL A   1      27.685  29.157  22.836  1.00  0.00     0.006 A 
ATOM     25  C   UNL A   1      30.267  28.743  23.795  1.00  0.00     0.026 A 
ATOM     26  C   UNL A   1      28.120  27.872  23.180  1.00  0.00     0.026 A 
BRANCH  22  27
ATOM     27  C   UNL A   1      28.082  31.622  22.482  1.00  0.00     0.013 C 
ATOM     28  C   UNL A   1      28.843  32.774  23.136  1.00  0.00     0.012 C 
ATOM     29  C   UNL A   1      28.175  31.714  20.956  1.00  0.00     0.012 C 
ENDBRANCH  22  27
ENDBRANCH  18  21
ENDBRANCH  14  17
ENDBRANCH  12  13
ENDBRANCH   6  11
ENDBRANCH   1   5
BRANCH   3  30
ATOM     30  C   UNL A   1      33.505  26.585  25.311  1.00  0.00     0.118 C 
BRANCH  30  31
ATOM     31  C   UNL A   1      34.070  27.788  26.069  1.00  0.00     0.042 C 
BRANCH  31  32
ATOM     32  C   UNL A   1      33.238  28.257  27.260  1.00  0.00     0.118 C 
BRANCH  32  33
ATOM     33  N   UNL A   1      33.356  29.671  27.566  1.00  0.00    -0.352 N 
ATOM     34  C   UNL A   1      34.359  30.481  28.031  1.00  0.00     0.251 C 
ATOM     35  H   UNL A   1      32.520  30.163  27.401  1.00  0.00     0.163 HD
ATOM     36  O   UNL A   1      34.080  31.674  28.182  1.00  0.00    -0.269 OA
BRANCH  34  37
ATOM     37  C   UNL A   1      35.737  30.028  28.373  1.00  0.00     0.039 A 
ATOM     38  C   UNL A   1      36.704  30.125  27.357  1.00  0.00     0.014 A 
ATOM     39  C   UNL A   1      36.116  29.441  29.581  1.00  0.00     0.014 A 
ATOM     40  C   UNL A   1      38.013  29.668  27.552  1.00  0.00     0.010 A 
ATOM     41  C   UNL A   1      37.439  29.031  29.798  1.00  0.00     0.010 A 
ATOM     42  C   UNL A   1      38.400  29.135  28.784  1.00  0.00    -0.014 A 
BRANCH  42  43
ATOM     43  C   UNL A   1      39.789  28.670  29.029  1.00  0.00     0.031 A 
ATOM     44  C   UNL A   1      40.809  29.596  29.632  1.00  0.00     0.074 A 
ATOM     45  C   UNL A   1      40.163  27.433  28.652  1.00  0.00     0.049 A 
ATOM     46  N   UNL A   1      42.102  29.427  29.761  1.00  0.00    -0.248 NA
ATOM     47  C   UNL A   1      40.314  30.885  30.136  1.00  0.00     0.031 C 
ATOM     48  C   UNL A   1      39.289  26.428  28.047  1.00  0.00     0.029 A 
ATOM     49  N   UNL A   1      41.387  26.817  28.719  1.00  0.00    -0.354 N 
ATOM     50  C   UNL A   1      42.584  30.613  30.300  1.00  0.00     0.074 A 
ATOM     51  C   UNL A   1      41.442  31.482  30.497  1.00  0.00     0.031 C 
ATOM     52  C   UNL A   1      40.001  25.312  27.819  1.00  0.00     0.029 A 
ATOM     53  C   UNL A   1      41.385  25.538  28.222  1.00  0.00     0.049 A 
ATOM     54  H   UNL A   1      42.190  27.251  29.087  1.00  0.00     0.167 HD
ATOM     55  C   UNL A   1      43.862  30.956  30.587  1.00  0.00     0.031 A 
ATOM     56  C   UNL A   1      42.386  24.649  28.088  1.00  0.00     0.031 A 
ATOM     57  C   UNL A   1      45.001  30.091  30.443  1.00  0.00     0.049 A 
ATOM     58  C   UNL A   1      43.784  25.026  28.481  1.00  0.00     0.074 A 
ATOM     59  C   UNL A   1      46.329  30.354  30.732  1.00  0.00     0.029 A 
ATOM     60  N   UNL A   1      44.943  28.786  29.983  1.00  0.00    -0.354 N 
ATOM     61  N   UNL A   1      44.227  26.160  28.962  1.00  0.00    -0.248 NA
ATOM     62  C   UNL A   1      44.823  24.001  28.294  1.00  0.00     0.031 C 
ATOM     63  C   UNL A   1      47.079  29.209  30.436  1.00  0.00     0.029 A 
ATOM     64  C   UNL A   1      46.212  28.230  29.979  1.00  0.00     0.049 A 
ATOM     65  H   UNL A   1      44.122  28.322  29.701  1.00  0.00     0.167 HD
ATOM     66  C   UNL A   1      45.594  25.991  29.129  1.00  0.00     0.074 A 
ATOM     67  C   UNL A   1      45.906  24.637  28.719  1.00  0.00     0.031 C 
ATOM     68  C   UNL A   1      46.509  26.885  29.569  1.00  0.00     0.031 A 
BRANCH  55  69
ATOM     69  C   UNL A   1      44.098  32.364  31.046  1.00  0.00    -0.014 A 
ATOM     70  C   UNL A   1      44.333  33.400  30.132  1.00  0.00     0.009 A 
ATOM     71  C   UNL A   1      44.072  32.652  32.420  1.00  0.00     0.009 A 
ATOM     72  C   UNL A   1      44.566  34.699  30.589  1.00  0.00     0.001 A 
ATOM     73  C   UNL A   1      44.292  33.953  32.872  1.00  0.00     0.001 A 
ATOM     74  C   UNL A   1      44.546  34.974  31.957  1.00  0.00     0.000 A 
ENDBRANCH  55  69
BRANCH  56  75
ATOM     75  C   UNL A   1      42.099  23.304  27.538  1.00  0.00    -0.014 A 
ATOM     76  C   UNL A   1      42.440  22.999  26.212  1.00  0.00     0.009 A 
ATOM     77  C   UNL A   1      41.492  22.322  28.335  1.00  0.00     0.009 A 
ATOM     78  C   UNL A   1      42.167  21.734  25.689  1.00  0.00     0.001 A 
ATOM     79  C   UNL A   1      41.233  21.054  27.812  1.00  0.00     0.001 A 
ATOM     80  C   UNL A   1      41.567  20.763  26.490  1.00  0.00     0.000 A 
ENDBRANCH  56  75
BRANCH  68  81
ATOM     81  C   UNL A   1      47.934  26.426  29.630  1.00  0.00    -0.014 A 
ATOM     82  C   UNL A   1      48.763  26.518  28.501  1.00  0.00     0.009 A 
ATOM     83  C   UNL A   1      48.460  25.919  30.827  1.00  0.00     0.009 A 
ATOM     84  C   UNL A   1      50.092  26.092  28.567  1.00  0.00     0.001 A 
ATOM     85  C   UNL A   1      49.792  25.504  30.892  1.00  0.00     0.001 A 
ATOM     86  C   UNL A   1      50.603  25.587  29.761  1.00  0.00     0.000 A 
ENDBRANCH  68  81
ENDBRANCH  42  43
ENDBRANCH  34  37
ENDBRANCH  32  33
ENDBRANCH  31  32
ENDBRANCH  30  31
ENDBRANCH   3  30
TORSDOF 15
ENDMDL
MODEL 2
REMARK VINA RESULT:     -12.2      2.229      6.642
REMARK SMILES CC(C)c1ccc(NC(=O)C(=O)N/N=C/c2ccccc2C(=O)NCCCNC(=O)c2ccc(-c3c4nc(c(-c5ccccc5)c5ccc([nH]5)c(-c5ccccc5)c5nc(c(-c6ccccc6)c6ccc3[nH]6)C=C5)C=C4)cc2)cc1
REMARK SMILES IDX 22 1 23 2 24 3 21 5 16 6 17 7 18 8 20 9 19 10 15 11 14 12
REMARK SMILES IDX 13 13 11 14 12 15 9 17 8 18 10 20 7 21 4 22 5 23 80 24 6 25
REMARK SMILES IDX 79 26 2 27 1 28 3 29 25 30 26 31 27 32 28 33 29 34 30 36
REMARK SMILES IDX 31 37 32 38 78 39 33 40 77 41 34 42 35 43 36 44 71 45 37 46
REMARK SMILES IDX 76 47 70 48 72 49 38 50 75 51 69 52 68 53 39 55 61 56 46 57
REMARK SMILES IDX 60 58 47 59 50 60 59 61 73 62 48 63 49 64 58 66 74 67 51 68
REMARK SMILES IDX 40 69 41 70 45 71 42 72 44 73 43 74 62 75 63 76 67 77 64 78
REMARK SMILES IDX 66 79 65 80 52 81 53 82 57 83 54 84 56 85 55 86
REMARK H PARENT 24 4 13 16 8 19 28 35 72 54 50 65
REMARK Flexibility Score: inf
ROOT
ATOM      1  C   UNL A   1      34.454  21.128  25.806  1.00  0.00     0.251 C 
ATOM      2  O   UNL A   1      33.943  21.459  26.881  1.00  0.00    -0.269 OA
ATOM      3  N   UNL A   1      35.746  21.531  25.611  1.00  0.00    -0.352 N 
ATOM      4  H   UNL A   1      36.088  22.101  26.338  1.00  0.00     0.163 HD
ENDROOT
BRANCH   1   5
ATOM      5  C   UNL A   1      33.592  20.420  24.825  1.00  0.00     0.048 A 
ATOM      6  C   UNL A   1      32.984  20.934  23.675  1.00  0.00     0.007 A 
ATOM      7  C   UNL A   1      32.279  20.096  22.792  1.00  0.00     0.010 A 
ATOM      8  C   UNL A   1      32.189  18.727  23.037  1.00  0.00     0.001 A 
ATOM      9  C   UNL A   1      33.482  19.029  25.051  1.00  0.00     0.014 A 
ATOM     10  C   UNL A   1      32.786  18.193  24.172  1.00  0.00     0.001 A 
BRANCH   6  11
ATOM     11  C   UNL A   1      32.939  22.352  23.325  1.00  0.00     0.142 C 
ATOM     12  N   UNL A   1      31.859  22.952  22.949  1.00  0.00    -0.180 NA
BRANCH  12  13
ATOM     13  N   UNL A   1      31.929  24.293  22.587  1.00  0.00    -0.239 N 
ATOM     14  C   UNL A   1      32.890  25.204  23.012  1.00  0.00     0.329 C 
ATOM     15  O   UNL A   1      33.781  25.594  22.266  1.00  0.00    -0.262 OA
ATOM     16  H   UNL A   1      31.236  24.627  21.973  1.00  0.00     0.194 HD
BRANCH  14  17
ATOM     17  C   UNL A   1      32.784  25.704  24.470  1.00  0.00     0.315 C 
ATOM     18  N   UNL A   1      32.026  26.809  24.797  1.00  0.00    -0.318 N 
ATOM     19  H   UNL A   1      32.274  27.198  25.667  1.00  0.00     0.170 HD
ATOM     20  O   UNL A   1      33.463  25.185  25.353  1.00  0.00    -0.263 OA
BRANCH  18  21
ATOM     21  C   UNL A   1      30.980  27.501  24.166  1.00  0.00     0.041 A 
ATOM     22  C   UNL A   1      28.921  29.143  23.106  1.00  0.00    -0.045 A 
ATOM     23  C   UNL A   1      28.743  27.762  23.257  1.00  0.00     0.006 A 
ATOM     24  C   UNL A   1      30.154  29.691  23.473  1.00  0.00     0.006 A 
ATOM     25  C   UNL A   1      29.757  26.952  23.793  1.00  0.00     0.026 A 
ATOM     26  C   UNL A   1      31.168  28.880  23.997  1.00  0.00     0.026 A 
BRANCH  22  27
ATOM     27  C   UNL A   1      27.801  30.058  22.642  1.00  0.00     0.013 C 
ATOM     28  C   UNL A   1      27.562  31.237  23.584  1.00  0.00     0.012 C 
ATOM     29  C   UNL A   1      28.068  30.553  21.218  1.00  0.00     0.012 C 
ENDBRANCH  22  27
ENDBRANCH  18  21
ENDBRANCH  14  17
ENDBRANCH  12  13
ENDBRANCH   6  11
ENDBRANCH   1   5
BRANCH   3  30
ATOM     30  C   UNL A   1      36.720  21.299  24.565  1.00  0.00     0.118 C 
BRANCH  30  31
ATOM     31  C   UNL A   1      38.153  21.083  25.056  1.00  0.00     0.042 C 
BRANCH  31  32
ATOM     32  C   UNL A   1      38.401  19.765  25.785  1.00  0.00     0.118 C 
BRANCH  32  33
ATOM     33  N   UNL A   1      39.729  19.207  25.602  1.00  0.00    -0.352 N 
ATOM     34  C   UNL A   1      41.001  19.619  25.903  1.00  0.00     0.251 C 
ATOM     35  H   UNL A   1      39.711  18.328  25.160  1.00  0.00     0.163 HD
ATOM     36  O   UNL A   1      41.918  18.858  25.579  1.00  0.00    -0.269 OA
BRANCH  34  37
ATOM     37  C   UNL A   1      41.351  20.904  26.571  1.00  0.00     0.039 A 
ATOM     38  C   UNL A   1      41.849  21.930  25.747  1.00  0.00     0.014 A 
ATOM     39  C   UNL A   1      41.305  21.136  27.946  1.00  0.00     0.014 A 
ATOM     40  C   UNL A   1      42.267  23.154  26.282  1.00  0.00     0.010 A 
ATOM     41  C   UNL A   1      41.674  22.379  28.479  1.00  0.00     0.010 A 
ATOM     42  C   UNL A   1      42.164  23.399  27.654  1.00  0.00    -0.014 A 
BRANCH  42  43
ATOM     43  C   UNL A   1      42.572  24.698  28.244  1.00  0.00     0.031 A 
ATOM     44  C   UNL A   1      41.549  25.761  28.535  1.00  0.00     0.074 A 
ATOM     45  C   UNL A   1      43.874  24.959  28.466  1.00  0.00     0.049 A 
ATOM     46  N   UNL A   1      41.733  27.010  28.887  1.00  0.00    -0.248 NA
ATOM     47  C   UNL A   1      40.138  25.375  28.392  1.00  0.00     0.031 C 
ATOM     48  C   UNL A   1      44.981  24.033  28.225  1.00  0.00     0.029 A 
ATOM     49  N   UNL A   1      44.485  26.095  28.938  1.00  0.00    -0.354 N 
ATOM     50  C   UNL A   1      40.466  27.575  28.943  1.00  0.00     0.074 A 
ATOM     51  C   UNL A   1      39.521  26.527  28.614  1.00  0.00     0.031 C 
ATOM     52  C   UNL A   1      46.133  24.629  28.574  1.00  0.00     0.029 A 
ATOM     53  C   UNL A   1      45.850  25.990  29.021  1.00  0.00     0.049 A 
ATOM     54  H   UNL A   1      43.990  26.907  29.193  1.00  0.00     0.167 HD
ATOM     55  C   UNL A   1      40.119  28.854  29.222  1.00  0.00     0.031 A 
ATOM     56  C   UNL A   1      46.776  26.890  29.396  1.00  0.00     0.031 A 
ATOM     57  C   UNL A   1      41.038  29.895  29.597  1.00  0.00     0.049 A 
ATOM     58  C   UNL A   1      46.363  28.282  29.773  1.00  0.00     0.074 A 
ATOM     59  C   UNL A   1      40.766  31.214  29.918  1.00  0.00     0.029 A 
ATOM     60  N   UNL A   1      42.407  29.728  29.716  1.00  0.00    -0.354 N 
ATOM     61  N   UNL A   1      45.163  28.808  29.793  1.00  0.00    -0.248 NA
ATOM     62  C   UNL A   1      47.437  29.209  30.162  1.00  0.00     0.031 C 
ATOM     63  C   UNL A   1      41.976  31.850  30.222  1.00  0.00     0.029 A 
ATOM     64  C   UNL A   1      42.995  30.920  30.105  1.00  0.00     0.049 A 
ATOM     65  H   UNL A   1      42.891  28.887  29.549  1.00  0.00     0.167 HD
ATOM     66  C   UNL A   1      45.337  30.127  30.188  1.00  0.00     0.074 A 
ATOM     67  C   UNL A   1      46.754  30.317  30.420  1.00  0.00     0.031 C 
ATOM     68  C   UNL A   1      44.404  31.097  30.331  1.00  0.00     0.031 A 
BRANCH  55  69
ATOM     69  C   UNL A   1      38.669  29.209  29.083  1.00  0.00    -0.014 A 
ATOM     70  C   UNL A   1      37.795  29.151  30.177  1.00  0.00     0.009 A 
ATOM     71  C   UNL A   1      38.178  29.617  27.833  1.00  0.00     0.009 A 
ATOM     72  C   UNL A   1      36.445  29.470  30.014  1.00  0.00     0.001 A 
ATOM     73  C   UNL A   1      36.833  29.948  27.676  1.00  0.00     0.001 A 
ATOM     74  C   UNL A   1      35.965  29.867  28.765  1.00  0.00     0.000 A 
ENDBRANCH  55  69
BRANCH  56  75
ATOM     75  C   UNL A   1      48.205  26.500  29.421  1.00  0.00    -0.014 A 
ATOM     76  C   UNL A   1      49.010  26.706  28.291  1.00  0.00     0.009 A 
ATOM     77  C   UNL A   1      48.768  25.929  30.571  1.00  0.00     0.009 A 
ATOM     78  C   UNL A   1      50.356  26.337  28.310  1.00  0.00     0.001 A 
ATOM     79  C   UNL A   1      50.118  25.573  30.591  1.00  0.00     0.001 A 
ATOM     80  C   UNL A   1      50.909  25.773  29.460  1.00  0.00     0.000 A 
ENDBRANCH  56  75
BRANCH  68  81
ATOM     81  C   UNL A   1      44.888  32.448  30.758  1.00  0.00    -0.014 A 
ATOM     82  C   UNL A   1      45.250  33.412  29.805  1.00  0.00     0.009 A 
ATOM     83  C   UNL A   1      44.962  32.771  32.121  1.00  0.00     0.009 A 
ATOM     84  C   UNL A   1      45.696  34.672  30.211  1.00  0.00     0.001 A 
ATOM     85  C   UNL A   1      45.398  34.036  32.523  1.00  0.00     0.001 A 
ATOM     86  C   UNL A   1      45.769  34.981  31.568  1.00  0.00     0.000 A 
ENDBRANCH  68  81
ENDBRANCH  42  43
ENDBRANCH  34  37
ENDBRANCH  32  33
ENDBRANCH  31  32
ENDBRANCH  30  31
ENDBRANCH   3  30
TORSDOF 15
ENDMDL
MODEL 3
REMARK VINA RESULT:     -12.1      2.683      7.122
REMARK SMILES CC(C)c1ccc(NC(=O)C(=O)N/N=C/c2ccccc2C(=O)NCCCNC(=O)c2ccc(-c3c4nc(c(-c5ccccc5)c5ccc([nH]5)c(-c5ccccc5)c5nc(c(-c6ccccc6)c6ccc3[nH]6)C=C5)C=C4)cc2)cc1
REMARK SMILES IDX 22 1 23 2 24 3 21 5 16 6 17 7 18 8 20 9 19 10 15 11 14 12
REMARK SMILES IDX 13 13 11 14 12 15 9 17 8 18 10 20 7 21 4 22 5 23 80 24 6 25
REMARK SMILES IDX 79 26 2 27 1 28 3 29 25 30 26 31 27 32 28 33 29 34 30 36
REMARK SMILES IDX 31 37 32 38 78 39 33 40 77 41 34 42 35 43 36 44 71 45 37 46
REMARK SMILES IDX 76 47 70 48 72 49 38 50 75 51 69 52 68 53 39 55 61 56 46 57
REMARK SMILES IDX 60 58 47 59 50 60 59 61 73 62 48 63 49 64 58 66 74 67 51 68
REMARK SMILES IDX 40 69 41 70 45 71 42 72 44 73 43 74 62 75 63 76 67 77 64 78
REMARK SMILES IDX 66 79 65 80 52 81 53 82 57 83 54 84 56 85 55 86
REMARK H PARENT 24 4 13 16 8 19 28 35 72 54 50 65
REMARK Flexibility Score: inf
ROOT
ATOM      1  C   UNL A   1      33.859  21.290  25.471  1.00  0.00     0.251 C 
ATOM      2  O   UNL A   1      33.349  21.374  26.593  1.00  0.00    -0.269 OA
ATOM      3  N   UNL A   1      34.841  22.199  25.193  1.00  0.00    -0.352 N 
ATOM      4  H   UNL A   1      34.973  22.860  25.911  1.00  0.00     0.163 HD
ENDROOT
BRANCH   1   5
ATOM      5  C   UNL A   1      33.293  20.286  24.534  1.00  0.00     0.048 A 
ATOM      6  C   UNL A   1      32.588  20.508  23.346  1.00  0.00     0.007 A 
ATOM      7  C   UNL A   1      32.210  19.436  22.518  1.00  0.00     0.010 A 
ATOM      8  C   UNL A   1      32.549  18.127  22.856  1.00  0.00     0.001 A 
ATOM      9  C   UNL A   1      33.620  18.948  24.854  1.00  0.00     0.014 A 
ATOM     10  C   UNL A   1      33.250  17.882  24.029  1.00  0.00     0.001 A 
BRANCH   6  11
ATOM     11  C   UNL A   1      32.108  21.813  22.900  1.00  0.00     0.142 C 
ATOM     12  N   UNL A   1      32.880  22.710  22.382  1.00  0.00    -0.180 NA
BRANCH  12  13
ATOM     13  N   UNL A   1      32.337  23.942  22.036  1.00  0.00    -0.239 N 
ATOM     14  C   UNL A   1      32.979  25.172  22.127  1.00  0.00     0.329 C 
ATOM     15  O   UNL A   1      33.380  25.764  21.131  1.00  0.00    -0.262 OA
ATOM     16  H   UNL A   1      31.413  23.944  21.696  1.00  0.00     0.194 HD
BRANCH  14  17
ATOM     17  C   UNL A   1      33.167  25.761  23.543  1.00  0.00     0.315 C 
ATOM     18  N   UNL A   1      32.461  26.870  23.960  1.00  0.00    -0.318 N 
ATOM     19  H   UNL A   1      32.874  27.318  24.733  1.00  0.00     0.170 HD
ATOM     20  O   UNL A   1      34.032  25.311  24.291  1.00  0.00    -0.263 OA
BRANCH  18  21
ATOM     21  C   UNL A   1      31.284  27.502  23.526  1.00  0.00     0.041 A 
ATOM     22  C   UNL A   1      29.047  29.063  22.740  1.00  0.00    -0.045 A 
ATOM     23  C   UNL A   1      28.882  27.833  23.389  1.00  0.00     0.006 A 
ATOM     24  C   UNL A   1      30.350  29.494  22.469  1.00  0.00     0.006 A 
ATOM     25  C   UNL A   1      29.989  27.067  23.789  1.00  0.00     0.026 A 
ATOM     26  C   UNL A   1      31.451  28.724  22.858  1.00  0.00     0.026 A 
BRANCH  22  27
ATOM     27  C   UNL A   1      27.873  29.966  22.405  1.00  0.00     0.013 C 
ATOM     28  C   UNL A   1      27.566  30.982  23.504  1.00  0.00     0.012 C 
ATOM     29  C   UNL A   1      28.104  30.673  21.067  1.00  0.00     0.012 C 
ENDBRANCH  22  27
ENDBRANCH  18  21
ENDBRANCH  14  17
ENDBRANCH  12  13
ENDBRANCH   6  11
ENDBRANCH   1   5
BRANCH   3  30
ATOM     30  C   UNL A   1      35.730  22.399  24.066  1.00  0.00     0.118 C 
BRANCH  30  31
ATOM     31  C   UNL A   1      36.971  23.242  24.368  1.00  0.00     0.042 C 
BRANCH  31  32
ATOM     32  C   UNL A   1      37.578  23.034  25.754  1.00  0.00     0.118 C 
BRANCH  32  33
ATOM     33  N   UNL A   1      38.905  22.448  25.757  1.00  0.00    -0.352 N 
ATOM     34  C   UNL A   1      40.150  22.873  26.143  1.00  0.00     0.251 C 
ATOM     35  H   UNL A   1      38.913  21.531  25.400  1.00  0.00     0.163 HD
ATOM     36  O   UNL A   1      41.079  22.075  25.984  1.00  0.00    -0.269 OA
BRANCH  34  37
ATOM     37  C   UNL A   1      40.459  24.212  26.720  1.00  0.00     0.039 A 
ATOM     38  C   UNL A   1      40.312  24.348  28.112  1.00  0.00     0.014 A 
ATOM     39  C   UNL A   1      40.793  25.349  25.985  1.00  0.00     0.014 A 
ATOM     40  C   UNL A   1      40.514  25.579  28.748  1.00  0.00     0.010 A 
ATOM     41  C   UNL A   1      41.048  26.570  26.623  1.00  0.00     0.010 A 
ATOM     42  C   UNL A   1      40.905  26.700  28.011  1.00  0.00    -0.014 A 
BRANCH  42  43
ATOM     43  C   UNL A   1      41.156  28.010  28.662  1.00  0.00     0.031 A 
ATOM     44  C   UNL A   1      42.509  28.335  29.230  1.00  0.00     0.074 A 
ATOM     45  C   UNL A   1      40.151  28.895  28.807  1.00  0.00     0.049 A 
ATOM     46  N   UNL A   1      42.869  29.348  29.979  1.00  0.00    -0.248 NA
ATOM     47  C   UNL A   1      43.594  27.388  28.933  1.00  0.00     0.031 C 
ATOM     48  C   UNL A   1      38.784  28.717  28.317  1.00  0.00     0.029 A 
ATOM     49  N   UNL A   1      40.131  30.123  29.420  1.00  0.00    -0.354 N 
ATOM     50  C   UNL A   1      44.202  29.126  30.298  1.00  0.00     0.074 A 
ATOM     51  C   UNL A   1      44.595  27.897  29.640  1.00  0.00     0.031 C 
ATOM     52  C   UNL A   1      38.064  29.807  28.629  1.00  0.00     0.029 A 
ATOM     53  C   UNL A   1      38.906  30.738  29.374  1.00  0.00     0.049 A 
ATOM     54  H   UNL A   1      40.920  30.524  29.851  1.00  0.00     0.167 HD
ATOM     55  C   UNL A   1      45.022  29.866  31.083  1.00  0.00     0.031 A 
ATOM     56  C   UNL A   1      38.496  31.912  29.889  1.00  0.00     0.031 A 
ATOM     57  C   UNL A   1      44.664  31.111  31.705  1.00  0.00     0.049 A 
ATOM     58  C   UNL A   1      39.442  32.752  30.694  1.00  0.00     0.074 A 
ATOM     59  C   UNL A   1      45.444  31.936  32.499  1.00  0.00     0.029 A 
ATOM     60  N   UNL A   1      43.427  31.721  31.589  1.00  0.00    -0.354 N 
ATOM     61  N   UNL A   1      40.690  32.513  31.009  1.00  0.00    -0.248 NA
ATOM     62  C   UNL A   1      38.913  34.016  31.230  1.00  0.00     0.031 C 
ATOM     63  C   UNL A   1      44.670  33.043  32.874  1.00  0.00     0.029 A 
ATOM     64  C   UNL A   1      43.418  32.911  32.297  1.00  0.00     0.049 A 
ATOM     65  H   UNL A   1      42.665  31.362  31.079  1.00  0.00     0.167 HD
ATOM     66  C   UNL A   1      41.096  33.590  31.784  1.00  0.00     0.074 A 
ATOM     67  C   UNL A   1      39.968  34.496  31.874  1.00  0.00     0.031 C 
ATOM     68  C   UNL A   1      42.292  33.801  32.381  1.00  0.00     0.031 A 
BRANCH  55  69
ATOM     69  C   UNL A   1      46.387  29.308  31.351  1.00  0.00    -0.014 A 
ATOM     70  C   UNL A   1      46.625  28.448  32.432  1.00  0.00     0.009 A 
ATOM     71  C   UNL A   1      47.448  29.645  30.496  1.00  0.00     0.009 A 
ATOM     72  C   UNL A   1      47.911  27.957  32.668  1.00  0.00     0.001 A 
ATOM     73  C   UNL A   1      48.728  29.142  30.726  1.00  0.00     0.001 A 
ATOM     74  C   UNL A   1      48.960  28.304  31.816  1.00  0.00     0.000 A 
ENDBRANCH  55  69
BRANCH  56  75
ATOM     75  C   UNL A   1      37.101  32.360  29.664  1.00  0.00    -0.014 A 
ATOM     76  C   UNL A   1      36.770  33.077  28.506  1.00  0.00     0.009 A 
ATOM     77  C   UNL A   1      36.099  32.067  30.602  1.00  0.00     0.009 A 
ATOM     78  C   UNL A   1      35.458  33.503  28.294  1.00  0.00     0.001 A 
ATOM     79  C   UNL A   1      34.786  32.484  30.380  1.00  0.00     0.001 A 
ATOM     80  C   UNL A   1      34.468  33.205  29.229  1.00  0.00     0.000 A 
ENDBRANCH  56  75
BRANCH  68  81
ATOM     81  C   UNL A   1      42.441  35.059  33.181  1.00  0.00    -0.014 A 
ATOM     82  C   UNL A   1      43.113  36.169  32.647  1.00  0.00     0.009 A 
ATOM     83  C   UNL A   1      41.888  35.145  34.467  1.00  0.00     0.009 A 
ATOM     84  C   UNL A   1      43.243  37.340  33.396  1.00  0.00     0.001 A 
ATOM     85  C   UNL A   1      42.012  36.322  35.209  1.00  0.00     0.001 A 
ATOM     86  C   UNL A   1      42.693  37.415  34.674  1.00  0.00     0.000 A 
ENDBRANCH  68  81
ENDBRANCH  42  43
ENDBRANCH  34  37
ENDBRANCH  32  33
ENDBRANCH  31  32
ENDBRANCH  30  31
ENDBRANCH   3  30
TORSDOF 15
ENDMDL
