MODEL 1
REMARK VINA RESULT:     -11.9      0.000      0.000
REMARK SMILES CC(C)(C)OC(=O)N1CCC[C@@H](CC2CCCCC2)[C@@H]1C(=O)NCCCNC(=O)c1ccc(-c2c3nc(c(-c4ccccc4)c4ccc([nH]4)c(-c4ccccc4)c4nc(c(-c5ccccc5)c5ccc2[nH]5)C=C4)C=C3)cc1
REMARK SMILES IDX 24 1 23 2 21 3 22 4 20 6 8 7 9 8 10 9 12 10 11 11 6 12 7 13
REMARK SMILES IDX 5 14 2 15 1 16 3 17 4 18 13 19 14 20 15 21 19 22 16 23 18 24
REMARK SMILES IDX 17 25 25 26 26 27 27 28 28 29 29 31 30 32 31 33 77 34 32 35
REMARK SMILES IDX 76 36 33 37 34 38 35 39 70 40 36 41 75 42 69 43 71 44 37 45
REMARK SMILES IDX 74 46 68 47 67 48 38 50 60 51 45 52 59 53 46 54 49 55 58 56
REMARK SMILES IDX 72 57 47 58 48 59 57 61 73 62 50 63 39 64 40 65 44 66 41 67
REMARK SMILES IDX 43 68 42 69 61 70 62 71 66 72 63 73 65 74 64 75 51 76 52 77
REMARK SMILES IDX 56 78 53 79 55 80 54 81
REMARK H PARENT 23 5 27 30 71 49 49 60
REMARK Flexibility Score: inf
ROOT
ATOM      1  C   UNL A   1      32.051  29.681  25.956  1.00  0.00     0.117 C 
ENDROOT
BRANCH   1   2
ATOM      2  N   UNL A   1      32.956  29.691  24.822  1.00  0.00    -0.354 N 
ATOM      3  C   UNL A   1      33.070  28.811  23.789  1.00  0.00     0.243 C 
ATOM      4  O   UNL A   1      34.007  28.978  23.003  1.00  0.00    -0.273 OA
ATOM      5  H   UNL A   1      33.583  30.450  24.795  1.00  0.00     0.163 HD
BRANCH   3   6
ATOM      6  C   UNL A   1      32.161  27.566  23.700  1.00  0.00     0.181 C 
ATOM      7  N   UNL A   1      30.717  27.878  23.473  1.00  0.00    -0.296 N 
ATOM      8  C   UNL A   1      29.780  26.786  23.693  1.00  0.00     0.124 C 
ATOM      9  C   UNL A   1      29.904  26.229  25.093  1.00  0.00     0.022 C 
ATOM     10  C   UNL A   1      32.377  26.737  25.029  1.00  0.00     0.022 C 
ATOM     11  C   UNL A   1      31.306  25.667  25.270  1.00  0.00     0.008 C 
BRANCH   7  12
ATOM     12  C   UNL A   1      30.219  28.960  22.745  1.00  0.00     0.410 C 
ATOM     13  O   UNL A   1      30.492  29.126  21.560  1.00  0.00    -0.224 OA
BRANCH  12  14
ATOM     14  O   UNL A   1      29.378  29.766  23.438  1.00  0.00    -0.444 OA
BRANCH  14  15
ATOM     15  C   UNL A   1      28.054  30.093  22.921  1.00  0.00     0.106 C 
ATOM     16  C   UNL A   1      27.556  31.253  23.796  1.00  0.00     0.056 C 
ATOM     17  C   UNL A   1      27.104  28.904  23.109  1.00  0.00     0.056 C 
ATOM     18  C   UNL A   1      28.057  30.561  21.460  1.00  0.00     0.056 C 
ENDBRANCH  14  15
ENDBRANCH  12  14
ENDBRANCH   7  12
BRANCH  10  19
ATOM     19  C   UNL A   1      33.820  26.237  25.347  1.00  0.00     0.010 C 
BRANCH  19  20
ATOM     20  C   UNL A   1      34.353  24.844  24.936  1.00  0.00    -0.011 C 
ATOM     21  C   UNL A   1      34.313  24.569  23.423  1.00  0.00     0.003 C 
ATOM     22  C   UNL A   1      35.711  24.507  25.554  1.00  0.00     0.003 C 
ATOM     23  C   UNL A   1      34.872  23.195  23.050  1.00  0.00     0.000 C 
ATOM     24  C   UNL A   1      36.188  23.110  25.177  1.00  0.00     0.000 C 
ATOM     25  C   UNL A   1      36.249  22.965  23.662  1.00  0.00     0.000 C 
ENDBRANCH  19  20
ENDBRANCH  10  19
ENDBRANCH   3   6
ENDBRANCH   1   2
BRANCH   1  26
ATOM     26  C   UNL A   1      31.691  31.091  26.379  1.00  0.00     0.042 C 
BRANCH  26  27
ATOM     27  C   UNL A   1      32.826  31.797  27.103  1.00  0.00     0.118 C 
BRANCH  27  28
ATOM     28  N   UNL A   1      32.488  33.166  27.477  1.00  0.00    -0.352 N 
ATOM     29  C   UNL A   1      33.114  34.005  28.363  1.00  0.00     0.251 C 
ATOM     30  H   UNL A   1      31.695  33.542  27.029  1.00  0.00     0.163 HD
ATOM     31  O   UNL A   1      32.584  35.052  28.715  1.00  0.00    -0.269 OA
BRANCH  29  32
ATOM     32  C   UNL A   1      34.431  33.616  28.898  1.00  0.00     0.039 A 
ATOM     33  C   UNL A   1      34.498  32.878  30.080  1.00  0.00     0.014 A 
ATOM     34  C   UNL A   1      35.593  33.952  28.200  1.00  0.00     0.014 A 
ATOM     35  C   UNL A   1      35.735  32.413  30.525  1.00  0.00     0.010 A 
ATOM     36  C   UNL A   1      36.805  33.401  28.584  1.00  0.00     0.010 A 
ATOM     37  C   UNL A   1      36.890  32.639  29.757  1.00  0.00    -0.014 A 
BRANCH  37  38
ATOM     38  C   UNL A   1      38.213  32.117  30.175  1.00  0.00     0.031 A 
ATOM     39  C   UNL A   1      38.686  30.791  29.646  1.00  0.00     0.074 A 
ATOM     40  C   UNL A   1      38.950  32.797  31.074  1.00  0.00     0.049 A 
ATOM     41  N   UNL A   1      39.762  30.115  29.955  1.00  0.00    -0.248 NA
ATOM     42  C   UNL A   1      37.817  30.120  28.663  1.00  0.00     0.031 C 
ATOM     43  C   UNL A   1      38.582  34.076  31.686  1.00  0.00     0.029 A 
ATOM     44  N   UNL A   1      40.166  32.499  31.635  1.00  0.00    -0.354 N 
ATOM     45  C   UNL A   1      39.690  28.939  29.219  1.00  0.00     0.074 A 
ATOM     46  C   UNL A   1      38.436  28.961  28.500  1.00  0.00     0.031 C 
ATOM     47  C   UNL A   1      39.570  34.470  32.507  1.00  0.00     0.029 A 
ATOM     48  C   UNL A   1      40.614  33.453  32.516  1.00  0.00     0.049 A 
ATOM     49  H   UNL A   1      40.670  31.681  31.424  1.00  0.00     0.167 HD
ATOM     50  C   UNL A   1      40.600  27.942  29.123  1.00  0.00     0.031 A 
ATOM     51  C   UNL A   1      41.740  33.496  33.252  1.00  0.00     0.031 A 
ATOM     52  C   UNL A   1      41.852  27.928  29.827  1.00  0.00     0.049 A 
ATOM     53  C   UNL A   1      42.721  32.360  33.150  1.00  0.00     0.074 A 
ATOM     54  C   UNL A   1      42.860  26.982  29.775  1.00  0.00     0.029 A 
ATOM     55  N   UNL A   1      42.269  28.915  30.706  1.00  0.00    -0.354 N 
ATOM     56  N   UNL A   1      42.661  31.278  32.410  1.00  0.00    -0.248 NA
ATOM     57  C   UNL A   1      43.932  32.457  33.977  1.00  0.00     0.031 C 
ATOM     58  C   UNL A   1      43.871  27.377  30.657  1.00  0.00     0.029 A 
ATOM     59  C   UNL A   1      43.515  28.594  31.215  1.00  0.00     0.049 A 
ATOM     60  H   UNL A   1      41.755  29.723  30.936  1.00  0.00     0.167 HD
ATOM     61  C   UNL A   1      43.840  30.587  32.657  1.00  0.00     0.074 A 
ATOM     62  C   UNL A   1      44.601  31.377  33.602  1.00  0.00     0.031 C 
ATOM     63  C   UNL A   1      44.258  29.404  32.146  1.00  0.00     0.031 A 
BRANCH  50  64
ATOM     64  C   UNL A   1      40.268  26.791  28.216  1.00  0.00    -0.014 A 
ATOM     65  C   UNL A   1      40.772  26.735  26.906  1.00  0.00     0.009 A 
ATOM     66  C   UNL A   1      39.467  25.738  28.680  1.00  0.00     0.009 A 
ATOM     67  C   UNL A   1      40.447  25.667  26.067  1.00  0.00     0.001 A 
ATOM     68  C   UNL A   1      39.169  24.655  27.849  1.00  0.00     0.001 A 
ATOM     69  C   UNL A   1      39.652  24.625  26.541  1.00  0.00     0.000 A 
ENDBRANCH  50  64
BRANCH  51  70
ATOM     70  C   UNL A   1      42.019  34.657  34.136  1.00  0.00    -0.014 A 
ATOM     71  C   UNL A   1      42.680  35.789  33.632  1.00  0.00     0.009 A 
ATOM     72  C   UNL A   1      41.655  34.633  35.490  1.00  0.00     0.009 A 
ATOM     73  C   UNL A   1      43.002  36.856  34.475  1.00  0.00     0.001 A 
ATOM     74  C   UNL A   1      41.951  35.715  36.324  1.00  0.00     0.001 A 
ATOM     75  C   UNL A   1      42.636  36.818  35.819  1.00  0.00     0.000 A 
ENDBRANCH  51  70
BRANCH  63  76
ATOM     76  C   UNL A   1      45.619  28.920  32.559  1.00  0.00    -0.014 A 
ATOM     77  C   UNL A   1      45.801  28.150  33.717  1.00  0.00     0.009 A 
ATOM     78  C   UNL A   1      46.728  29.207  31.749  1.00  0.00     0.009 A 
ATOM     79  C   UNL A   1      47.074  27.706  34.075  1.00  0.00     0.001 A 
ATOM     80  C   UNL A   1      47.996  28.735  32.092  1.00  0.00     0.001 A 
ATOM     81  C   UNL A   1      48.169  27.994  33.258  1.00  0.00     0.000 A 
ENDBRANCH  63  76
ENDBRANCH  37  38
ENDBRANCH  29  32
ENDBRANCH  27  28
ENDBRANCH  26  27
ENDBRANCH   1  26
TORSDOF 15
ENDMDL
MODEL 2
REMARK VINA RESULT:     -11.8      0.464      5.872
REMARK SMILES CC(C)(C)OC(=O)N1CCC[C@@H](CC2CCCCC2)[C@@H]1C(=O)NCCCNC(=O)c1ccc(-c2c3nc(c(-c4ccccc4)c4ccc([nH]4)c(-c4ccccc4)c4nc(c(-c5ccccc5)c5ccc2[nH]5)C=C4)C=C3)cc1
REMARK SMILES IDX 24 1 23 2 21 3 22 4 20 6 8 7 9 8 10 9 12 10 11 11 6 12 7 13
REMARK SMILES IDX 5 14 2 15 1 16 3 17 4 18 13 19 14 20 15 21 19 22 16 23 18 24
REMARK SMILES IDX 17 25 25 26 26 27 27 28 28 29 29 31 30 32 31 33 77 34 32 35
REMARK SMILES IDX 76 36 33 37 34 38 35 39 70 40 36 41 75 42 69 43 71 44 37 45
REMARK SMILES IDX 74 46 68 47 67 48 38 50 60 51 45 52 59 53 46 54 49 55 58 56
REMARK SMILES IDX 72 57 47 58 48 59 57 61 73 62 50 63 39 64 40 65 44 66 41 67
REMARK SMILES IDX 43 68 42 69 61 70 62 71 66 72 63 73 65 74 64 75 51 76 52 77
REMARK SMILES IDX 56 78 53 79 55 80 54 81
REMARK H PARENT 23 5 27 30 71 49 49 60
REMARK Flexibility Score: inf
ROOT
ATOM      1  C   UNL A   1      31.739  29.882  26.001  1.00  0.00     0.117 C 
ENDROOT
BRANCH   1   2
ATOM      2  N   UNL A   1      32.702  29.852  24.916  1.00  0.00    -0.354 N 
ATOM      3  C   UNL A   1      32.920  28.898  23.969  1.00  0.00     0.243 C 
ATOM      4  O   UNL A   1      33.888  29.055  23.219  1.00  0.00    -0.273 OA
ATOM      5  H   UNL A   1      33.286  30.643  24.854  1.00  0.00     0.163 HD
BRANCH   3   6
ATOM      6  C   UNL A   1      32.088  27.597  23.943  1.00  0.00     0.181 C 
ATOM      7  N   UNL A   1      30.641  27.803  23.635  1.00  0.00    -0.296 N 
ATOM      8  C   UNL A   1      29.758  26.677  23.904  1.00  0.00     0.124 C 
ATOM      9  C   UNL A   1      29.853  26.238  25.348  1.00  0.00     0.022 C 
ATOM     10  C   UNL A   1      32.293  26.887  25.341  1.00  0.00     0.022 C 
ATOM     11  C   UNL A   1      31.275  25.776  25.623  1.00  0.00     0.008 C 
BRANCH   7  12
ATOM     12  C   UNL A   1      30.115  28.794  22.804  1.00  0.00     0.410 C 
ATOM     13  O   UNL A   1      30.316  28.801  21.594  1.00  0.00    -0.224 OA
BRANCH  12  14
ATOM     14  O   UNL A   1      29.330  29.700  23.437  1.00  0.00    -0.444 OA
BRANCH  14  15
ATOM     15  C   UNL A   1      28.008  30.040  22.922  1.00  0.00     0.106 C 
ATOM     16  C   UNL A   1      27.555  31.254  23.746  1.00  0.00     0.056 C 
ATOM     17  C   UNL A   1      27.028  28.889  23.177  1.00  0.00     0.056 C 
ATOM     18  C   UNL A   1      28.004  30.438  21.439  1.00  0.00     0.056 C 
ENDBRANCH  14  15
ENDBRANCH  12  14
ENDBRANCH   7  12
BRANCH  10  19
ATOM     19  C   UNL A   1      33.746  26.501  25.754  1.00  0.00     0.010 C 
BRANCH  19  20
ATOM     20  C   UNL A   1      34.413  25.155  25.382  1.00  0.00    -0.011 C 
ATOM     21  C   UNL A   1      34.045  23.986  26.312  1.00  0.00     0.003 C 
ATOM     22  C   UNL A   1      34.264  24.792  23.904  1.00  0.00     0.003 C 
ATOM     23  C   UNL A   1      34.700  22.666  25.900  1.00  0.00     0.000 C 
ATOM     24  C   UNL A   1      34.974  23.490  23.552  1.00  0.00     0.000 C 
ATOM     25  C   UNL A   1      34.457  22.356  24.428  1.00  0.00     0.000 C 
ENDBRANCH  19  20
ENDBRANCH  10  19
ENDBRANCH   3   6
ENDBRANCH   1   2
BRANCH   1  26
ATOM     26  C   UNL A   1      31.467  31.304  26.450  1.00  0.00     0.042 C 
BRANCH  26  27
ATOM     27  C   UNL A   1      32.709  32.001  26.981  1.00  0.00     0.118 C 
BRANCH  27  28
ATOM     28  N   UNL A   1      32.443  33.368  27.414  1.00  0.00    -0.352 N 
ATOM     29  C   UNL A   1      33.113  34.134  28.334  1.00  0.00     0.251 C 
ATOM     30  H   UNL A   1      31.671  33.804  26.985  1.00  0.00     0.163 HD
ATOM     31  O   UNL A   1      32.638  35.192  28.732  1.00  0.00    -0.269 OA
BRANCH  29  32
ATOM     32  C   UNL A   1      34.408  33.656  28.848  1.00  0.00     0.039 A 
ATOM     33  C   UNL A   1      34.445  32.934  30.041  1.00  0.00     0.014 A 
ATOM     34  C   UNL A   1      35.576  33.891  28.120  1.00  0.00     0.014 A 
ATOM     35  C   UNL A   1      35.653  32.383  30.468  1.00  0.00     0.010 A 
ATOM     36  C   UNL A   1      36.751  33.255  28.488  1.00  0.00     0.010 A 
ATOM     37  C   UNL A   1      36.804  32.508  29.673  1.00  0.00    -0.014 A 
BRANCH  37  38
ATOM     38  C   UNL A   1      38.093  31.893  30.072  1.00  0.00     0.031 A 
ATOM     39  C   UNL A   1      39.008  32.635  31.007  1.00  0.00     0.074 A 
ATOM     40  C   UNL A   1      38.466  30.713  29.543  1.00  0.00     0.049 A 
ATOM     41  N   UNL A   1      40.213  32.320  31.406  1.00  0.00    -0.248 NA
ATOM     42  C   UNL A   1      38.515  33.918  31.540  1.00  0.00     0.031 C 
ATOM     43  C   UNL A   1      37.681  29.915  28.597  1.00  0.00     0.029 A 
ATOM     44  N   UNL A   1      39.611  29.979  29.725  1.00  0.00    -0.354 N 
ATOM     45  C   UNL A   1      40.624  33.368  32.220  1.00  0.00     0.074 A 
ATOM     46  C   UNL A   1      39.571  34.358  32.206  1.00  0.00     0.031 C 
ATOM     47  C   UNL A   1      38.352  28.786  28.313  1.00  0.00     0.029 A 
ATOM     48  C   UNL A   1      39.629  28.803  29.016  1.00  0.00     0.049 A 
ATOM     49  H   UNL A   1      40.349  30.268  30.309  1.00  0.00     0.167 HD
ATOM     50  C   UNL A   1      41.763  33.485  32.940  1.00  0.00     0.031 A 
ATOM     51  C   UNL A   1      40.575  27.848  28.939  1.00  0.00     0.031 A 
ATOM     52  C   UNL A   1      42.803  32.494  32.965  1.00  0.00     0.049 A 
ATOM     53  C   UNL A   1      41.846  28.017  29.728  1.00  0.00     0.074 A 
ATOM     54  C   UNL A   1      43.982  32.498  33.687  1.00  0.00     0.029 A 
ATOM     55  N   UNL A   1      42.780  31.315  32.236  1.00  0.00    -0.354 N 
ATOM     56  N   UNL A   1      42.198  28.991  30.532  1.00  0.00    -0.248 NA
ATOM     57  C   UNL A   1      42.845  26.946  29.604  1.00  0.00     0.031 C 
ATOM     58  C   UNL A   1      44.695  31.339  33.362  1.00  0.00     0.029 A 
ATOM     59  C   UNL A   1      43.932  30.589  32.481  1.00  0.00     0.049 A 
ATOM     60  H   UNL A   1      42.054  31.036  31.633  1.00  0.00     0.167 HD
ATOM     61  C   UNL A   1      43.441  28.632  31.037  1.00  0.00     0.074 A 
ATOM     62  C   UNL A   1      43.774  27.347  30.460  1.00  0.00     0.031 C 
ATOM     63  C   UNL A   1      44.236  29.306  31.903  1.00  0.00     0.031 A 
BRANCH  50  64
ATOM     64  C   UNL A   1      41.932  34.728  33.767  1.00  0.00    -0.014 A 
ATOM     65  C   UNL A   1      41.422  34.803  35.074  1.00  0.00     0.009 A 
ATOM     66  C   UNL A   1      42.629  35.829  33.247  1.00  0.00     0.009 A 
ATOM     67  C   UNL A   1      41.574  35.968  35.828  1.00  0.00     0.001 A 
ATOM     68  C   UNL A   1      42.807  36.982  34.014  1.00  0.00     0.001 A 
ATOM     69  C   UNL A   1      42.271  37.054  35.300  1.00  0.00     0.000 A 
ENDBRANCH  50  64
BRANCH  51  70
ATOM     70  C   UNL A   1      40.360  26.638  28.104  1.00  0.00    -0.014 A 
ATOM     71  C   UNL A   1      40.870  26.579  26.797  1.00  0.00     0.009 A 
ATOM     72  C   UNL A   1      39.624  25.549  28.594  1.00  0.00     0.009 A 
ATOM     73  C   UNL A   1      40.614  25.470  25.986  1.00  0.00     0.001 A 
ATOM     74  C   UNL A   1      39.396  24.428  27.791  1.00  0.00     0.001 A 
ATOM     75  C   UNL A   1      39.880  24.396  26.484  1.00  0.00     0.000 A 
ENDBRANCH  51  70
BRANCH  63  76
ATOM     76  C   UNL A   1      45.517  28.640  32.317  1.00  0.00    -0.014 A 
ATOM     77  C   UNL A   1      45.570  27.782  33.426  1.00  0.00     0.009 A 
ATOM     78  C   UNL A   1      46.678  28.844  31.556  1.00  0.00     0.009 A 
ATOM     79  C   UNL A   1      46.771  27.169  33.785  1.00  0.00     0.001 A 
ATOM     80  C   UNL A   1      47.870  28.205  31.899  1.00  0.00     0.001 A 
ATOM     81  C   UNL A   1      47.918  27.376  33.017  1.00  0.00     0.000 A 
ENDBRANCH  63  76
ENDBRANCH  37  38
ENDBRANCH  29  32
ENDBRANCH  27  28
ENDBRANCH  26  27
ENDBRANCH   1  26
TORSDOF 15
ENDMDL
MODEL 3
REMARK VINA RESULT:     -11.6      2.231      6.778
REMARK SMILES CC(C)(C)OC(=O)N1CCC[C@@H](CC2CCCCC2)[C@@H]1C(=O)NCCCNC(=O)c1ccc(-c2c3nc(c(-c4ccccc4)c4ccc([nH]4)c(-c4ccccc4)c4nc(c(-c5ccccc5)c5ccc2[nH]5)C=C4)C=C3)cc1
REMARK SMILES IDX 24 1 23 2 21 3 22 4 20 6 8 7 9 8 10 9 12 10 11 11 6 12 7 13
REMARK SMILES IDX 5 14 2 15 1 16 3 17 4 18 13 19 14 20 15 21 19 22 16 23 18 24
REMARK SMILES IDX 17 25 25 26 26 27 27 28 28 29 29 31 30 32 31 33 77 34 32 35
REMARK SMILES IDX 76 36 33 37 34 38 35 39 70 40 36 41 75 42 69 43 71 44 37 45
REMARK SMILES IDX 74 46 68 47 67 48 38 50 60 51 45 52 59 53 46 54 49 55 58 56
REMARK SMILES IDX 72 57 47 58 48 59 57 61 73 62 50 63 39 64 40 65 44 66 41 67
REMARK SMILES IDX 43 68 42 69 61 70 62 71 66 72 63 73 65 74 64 75 51 76 52 77
REMARK SMILES IDX 56 78 53 79 55 80 54 81
REMARK H PARENT 23 5 27 30 71 49 49 60
REMARK Flexibility Score: inf
ROOT
ATOM      1  C   UNL A   1      31.483  27.941  26.980  1.00  0.00     0.117 C 
ENDROOT
BRANCH   1   2
ATOM      2  N   UNL A   1      31.143  26.544  26.785  1.00  0.00    -0.354 N 
ATOM      3  C   UNL A   1      31.403  25.722  25.731  1.00  0.00     0.243 C 
ATOM      4  O   UNL A   1      30.899  24.595  25.753  1.00  0.00    -0.273 OA
ATOM      5  H   UNL A   1      30.648  26.127  27.527  1.00  0.00     0.163 HD
BRANCH   3   6
ATOM      6  C   UNL A   1      32.162  26.237  24.488  1.00  0.00     0.181 C 
ATOM      7  N   UNL A   1      31.286  26.524  23.312  1.00  0.00    -0.296 N 
ATOM      8  C   UNL A   1      31.960  26.704  22.035  1.00  0.00     0.124 C 
ATOM      9  C   UNL A   1      32.803  25.499  21.684  1.00  0.00     0.022 C 
ATOM     10  C   UNL A   1      33.270  25.162  24.143  1.00  0.00     0.022 C 
ATOM     11  C   UNL A   1      33.879  25.332  22.746  1.00  0.00     0.008 C 
BRANCH   7  12
ATOM     12  C   UNL A   1      29.969  26.985  23.366  1.00  0.00     0.410 C 
ATOM     13  O   UNL A   1      29.184  26.607  24.230  1.00  0.00    -0.224 OA
BRANCH  12  14
ATOM     14  O   UNL A   1      29.658  27.913  22.428  1.00  0.00    -0.444 OA
BRANCH  14  15
ATOM     15  C   UNL A   1      29.522  29.321  22.781  1.00  0.00     0.106 C 
ATOM     16  C   UNL A   1      28.032  29.512  23.104  1.00  0.00     0.056 C 
ATOM     17  C   UNL A   1      29.871  30.204  21.577  1.00  0.00     0.056 C 
ATOM     18  C   UNL A   1      30.337  29.734  24.013  1.00  0.00     0.056 C 
ENDBRANCH  14  15
ENDBRANCH  12  14
ENDBRANCH   7  12
BRANCH  10  19
ATOM     19  C   UNL A   1      34.334  24.839  25.236  1.00  0.00     0.010 C 
BRANCH  19  20
ATOM     20  C   UNL A   1      35.671  24.118  24.942  1.00  0.00    -0.011 C 
ATOM     21  C   UNL A   1      36.611  24.003  26.155  1.00  0.00     0.003 C 
ATOM     22  C   UNL A   1      35.494  22.783  24.215  1.00  0.00     0.003 C 
ATOM     23  C   UNL A   1      37.910  23.262  25.836  1.00  0.00     0.000 C 
ATOM     24  C   UNL A   1      36.826  22.119  23.890  1.00  0.00     0.000 C 
ATOM     25  C   UNL A   1      37.639  21.921  25.162  1.00  0.00     0.000 C 
ENDBRANCH  19  20
ENDBRANCH  10  19
ENDBRANCH   3   6
ENDBRANCH   1   2
BRANCH   1  26
ATOM     26  C   UNL A   1      32.947  28.100  27.341  1.00  0.00     0.042 C 
BRANCH  26  27
ATOM     27  C   UNL A   1      33.648  29.156  26.503  1.00  0.00     0.118 C 
BRANCH  27  28
ATOM     28  N   UNL A   1      33.599  30.480  27.113  1.00  0.00    -0.352 N 
ATOM     29  C   UNL A   1      34.463  31.057  28.010  1.00  0.00     0.251 C 
ATOM     30  H   UNL A   1      32.836  31.041  26.844  1.00  0.00     0.163 HD
ATOM     31  O   UNL A   1      34.168  32.100  28.581  1.00  0.00    -0.269 OA
BRANCH  29  32
ATOM     32  C   UNL A   1      35.747  30.390  28.287  1.00  0.00     0.039 A 
ATOM     33  C   UNL A   1      36.778  30.474  27.351  1.00  0.00     0.014 A 
ATOM     34  C   UNL A   1      35.935  29.717  29.496  1.00  0.00     0.014 A 
ATOM     35  C   UNL A   1      38.029  29.942  27.664  1.00  0.00     0.010 A 
ATOM     36  C   UNL A   1      37.204  29.284  29.848  1.00  0.00     0.010 A 
ATOM     37  C   UNL A   1      38.259  29.379  28.930  1.00  0.00    -0.014 A 
BRANCH  37  38
ATOM     38  C   UNL A   1      39.588  28.848  29.313  1.00  0.00     0.031 A 
ATOM     39  C   UNL A   1      40.514  29.698  30.138  1.00  0.00     0.074 A 
ATOM     40  C   UNL A   1      39.984  27.642  28.864  1.00  0.00     0.049 A 
ATOM     41  N   UNL A   1      41.749  29.462  30.502  1.00  0.00    -0.248 NA
ATOM     42  C   UNL A   1      39.995  31.002  30.590  1.00  0.00     0.031 C 
ATOM     43  C   UNL A   1      39.190  26.740  28.027  1.00  0.00     0.029 A 
ATOM     44  N   UNL A   1      41.166  26.968  29.049  1.00  0.00    -0.354 N 
ATOM     45  C   UNL A   1      42.153  30.589  31.206  1.00  0.00     0.074 A 
ATOM     46  C   UNL A   1      41.062  31.535  31.164  1.00  0.00     0.031 C 
ATOM     47  C   UNL A   1      39.892  25.617  27.803  1.00  0.00     0.029 A 
ATOM     48  C   UNL A   1      41.199  25.739  28.438  1.00  0.00     0.049 A 
ATOM     49  H   UNL A   1      41.917  27.332  29.570  1.00  0.00     0.167 HD
ATOM     50  C   UNL A   1      43.320  30.807  31.858  1.00  0.00     0.031 A 
ATOM     51  C   UNL A   1      42.178  24.817  28.393  1.00  0.00     0.031 A 
ATOM     52  C   UNL A   1      44.398  29.860  31.911  1.00  0.00     0.049 A 
ATOM     53  C   UNL A   1      43.476  25.097  29.101  1.00  0.00     0.074 A 
ATOM     54  C   UNL A   1      45.609  29.968  32.571  1.00  0.00     0.029 A 
ATOM     55  N   UNL A   1      44.390  28.625  31.283  1.00  0.00    -0.354 N 
ATOM     56  N   UNL A   1      43.825  26.147  29.804  1.00  0.00    -0.248 NA
ATOM     57  C   UNL A   1      44.511  24.057  29.016  1.00  0.00     0.031 C 
ATOM     58  C   UNL A   1      46.352  28.813  32.307  1.00  0.00     0.029 A 
ATOM     59  C   UNL A   1      45.581  27.965  31.529  1.00  0.00     0.049 A 
ATOM     60  H   UNL A   1      43.648  28.270  30.741  1.00  0.00     0.167 HD
ATOM     61  C   UNL A   1      45.103  25.878  30.275  1.00  0.00     0.074 A 
ATOM     62  C   UNL A   1      45.461  24.562  29.789  1.00  0.00     0.031 C 
ATOM     63  C   UNL A   1      45.910  26.649  31.043  1.00  0.00     0.031 A 
BRANCH  50  64
ATOM     64  C   UNL A   1      43.475  32.120  32.571  1.00  0.00    -0.014 A 
ATOM     65  C   UNL A   1      43.065  32.272  33.905  1.00  0.00     0.009 A 
ATOM     66  C   UNL A   1      44.062  33.212  31.913  1.00  0.00     0.009 A 
ATOM     67  C   UNL A   1      43.203  33.500  34.554  1.00  0.00     0.001 A 
ATOM     68  C   UNL A   1      44.228  34.431  32.574  1.00  0.00     0.001 A 
ATOM     69  C   UNL A   1      43.790  34.576  33.890  1.00  0.00     0.000 A 
ENDBRANCH  50  64
BRANCH  51  70
ATOM     70  C   UNL A   1      41.974  23.534  27.671  1.00  0.00    -0.014 A 
ATOM     71  C   UNL A   1      41.370  22.444  28.320  1.00  0.00     0.009 A 
ATOM     72  C   UNL A   1      42.402  23.379  26.345  1.00  0.00     0.009 A 
ATOM     73  C   UNL A   1      41.234  21.217  27.666  1.00  0.00     0.001 A 
ATOM     74  C   UNL A   1      42.238  22.159  25.684  1.00  0.00     0.001 A 
ATOM     75  C   UNL A   1      41.666  21.076  26.350  1.00  0.00     0.000 A 
ENDBRANCH  51  70
BRANCH  63  76
ATOM     76  C   UNL A   1      47.235  26.068  31.446  1.00  0.00    -0.014 A 
ATOM     77  C   UNL A   1      48.344  26.115  30.589  1.00  0.00     0.009 A 
ATOM     78  C   UNL A   1      47.382  25.504  32.723  1.00  0.00     0.009 A 
ATOM     79  C   UNL A   1      49.567  25.575  30.990  1.00  0.00     0.001 A 
ATOM     80  C   UNL A   1      48.614  24.994  33.133  1.00  0.00     0.001 A 
ATOM     81  C   UNL A   1      49.701  25.021  32.264  1.00  0.00     0.000 A 
ENDBRANCH  63  76
ENDBRANCH  37  38
ENDBRANCH  29  32
ENDBRANCH  27  28
ENDBRANCH  26  27
ENDBRANCH   1  26
TORSDOF 15
ENDMDL
