MODEL 1
REMARK VINA RESULT:      -9.8      0.000      0.000
REMARK SMILES CC(C)[C@@H](CO)NC(=O)CC(C)(C)CC(=O)NCCCNC(=O)c1ccc(-c2c3nc(c(-c4ccccc4)c4ccc([nH]4)c(-c4ccccc4)c4nc(c(-c5ccccc5)c5ccc2[nH]5)C=C4)C=C3)cc1
REMARK SMILES IDX 15 1 16 2 17 3 14 5 11 6 12 7 13 8 10 9 8 10 7 11 9 13 4 14
REMARK SMILES IDX 2 15 1 16 3 17 5 18 6 19 18 21 19 22 20 23 21 24 22 25 23 27
REMARK SMILES IDX 24 28 25 29 71 30 26 31 70 32 27 33 28 34 29 35 64 36 30 37
REMARK SMILES IDX 69 38 63 39 65 40 31 41 68 42 62 43 61 44 32 46 54 47 39 48
REMARK SMILES IDX 53 49 40 50 43 51 52 52 66 53 41 54 42 55 51 57 67 58 44 59
REMARK SMILES IDX 33 60 34 61 38 62 35 63 37 64 36 65 55 66 56 67 60 68 57 69
REMARK SMILES IDX 59 70 58 71 45 72 46 73 50 74 47 75 49 76 48 77
REMARK H PARENT 17 4 7 12 6 20 21 26 65 45 43 56
REMARK Flexibility Score: inf
ROOT
ATOM      1  C   UNL A   1      30.721  26.390  25.625  1.00  0.00     0.220 C 
ATOM      2  O   UNL A   1      29.939  25.849  26.403  1.00  0.00    -0.275 OA
ATOM      3  N   UNL A   1      31.208  27.616  25.965  1.00  0.00    -0.356 N 
ATOM      4  H   UNL A   1      30.975  27.905  26.878  1.00  0.00     0.163 HD
ENDROOT
BRANCH   1   5
ATOM      5  C   UNL A   1      31.152  25.731  24.333  1.00  0.00     0.107 C 
BRANCH   5   6
ATOM      6  C   UNL A   1      32.142  24.545  24.456  1.00  0.00    -0.018 C 
ATOM      7  C   UNL A   1      32.981  24.796  25.722  1.00  0.00     0.012 C 
ATOM      8  C   UNL A   1      33.171  24.500  23.312  1.00  0.00     0.012 C 
BRANCH   6   9
ATOM      9  C   UNL A   1      31.442  23.157  24.458  1.00  0.00     0.107 C 
BRANCH   9  10
ATOM     10  C   UNL A   1      31.259  22.402  25.765  1.00  0.00     0.220 C 
ATOM     11  N   UNL A   1      31.946  21.254  26.009  1.00  0.00    -0.351 N 
ATOM     12  H   UNL A   1      31.657  20.762  26.810  1.00  0.00     0.163 HD
ATOM     13  O   UNL A   1      30.449  22.778  26.613  1.00  0.00    -0.275 OA
BRANCH  11  14
ATOM     14  C   UNL A   1      33.041  20.635  25.274  1.00  0.00     0.110 C 
BRANCH  14  15
ATOM     15  C   UNL A   1      34.417  21.037  25.884  1.00  0.00     0.007 C 
ATOM     16  C   UNL A   1      35.206  21.896  24.889  1.00  0.00     0.009 C 
ATOM     17  C   UNL A   1      34.335  21.783  27.228  1.00  0.00     0.009 C 
ENDBRANCH  14  15
BRANCH  14  18
ATOM     18  C   UNL A   1      32.836  19.106  25.184  1.00  0.00     0.181 C 
BRANCH  18  19
ATOM     19  O   UNL A   1      32.564  18.525  26.454  1.00  0.00    -0.394 OA
ATOM     20  H   UNL A   1      32.706  19.187  27.150  1.00  0.00     0.210 HD
ENDBRANCH  18  19
ENDBRANCH  14  18
ENDBRANCH  11  14
ENDBRANCH   9  10
ENDBRANCH   6   9
ENDBRANCH   5   6
ENDBRANCH   1   5
BRANCH   3  21
ATOM     21  C   UNL A   1      32.011  28.575  25.221  1.00  0.00     0.117 C 
BRANCH  21  22
ATOM     22  C   UNL A   1      33.436  28.668  25.761  1.00  0.00     0.042 C 
BRANCH  22  23
ATOM     23  C   UNL A   1      33.518  28.764  27.278  1.00  0.00     0.118 C 
BRANCH  23  24
ATOM     24  N   UNL A   1      33.574  30.142  27.723  1.00  0.00    -0.352 N 
ATOM     25  C   UNL A   1      34.570  30.801  28.400  1.00  0.00     0.251 C 
ATOM     26  H   UNL A   1      32.781  30.685  27.510  1.00  0.00     0.163 HD
ATOM     27  O   UNL A   1      34.327  31.885  28.923  1.00  0.00    -0.269 OA
BRANCH  25  28
ATOM     28  C   UNL A   1      35.931  30.222  28.520  1.00  0.00     0.039 A 
ATOM     29  C   UNL A   1      36.319  29.671  29.745  1.00  0.00     0.014 A 
ATOM     30  C   UNL A   1      36.855  30.288  27.472  1.00  0.00     0.014 A 
ATOM     31  C   UNL A   1      37.614  29.171  29.911  1.00  0.00     0.010 A 
ATOM     32  C   UNL A   1      38.115  29.709  27.609  1.00  0.00     0.010 A 
ATOM     33  C   UNL A   1      38.521  29.175  28.840  1.00  0.00    -0.014 A 
BRANCH  33  34
ATOM     34  C   UNL A   1      39.921  28.704  29.013  1.00  0.00     0.031 A 
ATOM     35  C   UNL A   1      40.956  29.629  29.603  1.00  0.00     0.074 A 
ATOM     36  C   UNL A   1      40.278  27.467  28.620  1.00  0.00     0.049 A 
ATOM     37  N   UNL A   1      42.237  29.428  29.787  1.00  0.00    -0.248 NA
ATOM     38  C   UNL A   1      40.493  30.964  30.021  1.00  0.00     0.031 C 
ATOM     39  C   UNL A   1      39.386  26.476  28.013  1.00  0.00     0.029 A 
ATOM     40  N   UNL A   1      41.493  26.830  28.676  1.00  0.00    -0.354 N 
ATOM     41  C   UNL A   1      42.732  30.615  30.315  1.00  0.00     0.074 A 
ATOM     42  C   UNL A   1      41.627  31.546  30.378  1.00  0.00     0.031 C 
ATOM     43  C   UNL A   1      40.076  25.347  27.783  1.00  0.00     0.029 A 
ATOM     44  C   UNL A   1      41.465  25.545  28.192  1.00  0.00     0.049 A 
ATOM     45  H   UNL A   1      42.307  27.255  29.028  1.00  0.00     0.167 HD
ATOM     46  C   UNL A   1      43.987  30.903  30.734  1.00  0.00     0.031 A 
ATOM     47  C   UNL A   1      42.445  24.629  28.089  1.00  0.00     0.031 A 
ATOM     48  C   UNL A   1      45.086  29.976  30.704  1.00  0.00     0.049 A 
ATOM     49  C   UNL A   1      43.832  24.972  28.559  1.00  0.00     0.074 A 
ATOM     50  C   UNL A   1      46.384  30.161  31.149  1.00  0.00     0.029 A 
ATOM     51  N   UNL A   1      45.009  28.684  30.211  1.00  0.00    -0.354 N 
ATOM     52  N   UNL A   1      44.271  26.085  29.091  1.00  0.00    -0.248 NA
ATOM     53  C   UNL A   1      44.854  23.924  28.421  1.00  0.00     0.031 C 
ATOM     54  C   UNL A   1      47.103  28.987  30.894  1.00  0.00     0.029 A 
ATOM     55  C   UNL A   1      46.240  28.062  30.329  1.00  0.00     0.049 A 
ATOM     56  H   UNL A   1      44.201  28.271  29.832  1.00  0.00     0.167 HD
ATOM     57  C   UNL A   1      45.613  25.864  29.375  1.00  0.00     0.074 A 
ATOM     58  C   UNL A   1      45.911  24.506  28.968  1.00  0.00     0.031 C 
ATOM     59  C   UNL A   1      46.517  26.710  29.925  1.00  0.00     0.031 A 
BRANCH  46  60
ATOM     60  C   UNL A   1      44.235  32.286  31.267  1.00  0.00    -0.014 A 
ATOM     61  C   UNL A   1      44.666  33.322  30.423  1.00  0.00     0.009 A 
ATOM     62  C   UNL A   1      44.013  32.564  32.625  1.00  0.00     0.009 A 
ATOM     63  C   UNL A   1      44.905  34.598  30.935  1.00  0.00     0.001 A 
ATOM     64  C   UNL A   1      44.228  33.848  33.128  1.00  0.00     0.001 A 
ATOM     65  C   UNL A   1      44.682  34.861  32.286  1.00  0.00     0.000 A 
ENDBRANCH  46  60
BRANCH  47  66
ATOM     66  C   UNL A   1      42.151  23.281  27.538  1.00  0.00    -0.014 A 
ATOM     67  C   UNL A   1      41.803  22.226  28.396  1.00  0.00     0.009 A 
ATOM     68  C   UNL A   1      42.230  23.038  26.159  1.00  0.00     0.009 A 
ATOM     69  C   UNL A   1      41.564  20.949  27.886  1.00  0.00     0.001 A 
ATOM     70  C   UNL A   1      41.967  21.765  25.650  1.00  0.00     0.001 A 
ATOM     71  C   UNL A   1      41.644  20.720  26.514  1.00  0.00     0.000 A 
ENDBRANCH  47  66
BRANCH  59  72
ATOM     72  C   UNL A   1      47.903  26.179  30.150  1.00  0.00    -0.014 A 
ATOM     73  C   UNL A   1      48.832  26.107  29.103  1.00  0.00     0.009 A 
ATOM     74  C   UNL A   1      48.293  25.784  31.439  1.00  0.00     0.009 A 
ATOM     75  C   UNL A   1      50.119  25.618  29.336  1.00  0.00     0.001 A 
ATOM     76  C   UNL A   1      49.587  25.318  31.673  1.00  0.00     0.001 A 
ATOM     77  C   UNL A   1      50.497  25.229  30.620  1.00  0.00     0.000 A 
ENDBRANCH  59  72
ENDBRANCH  33  34
ENDBRANCH  25  28
ENDBRANCH  23  24
ENDBRANCH  22  23
ENDBRANCH  21  22
ENDBRANCH   3  21
TORSDOF 17
ENDMDL
MODEL 2
REMARK VINA RESULT:      -9.6      1.395      2.201
REMARK SMILES CC(C)[C@@H](CO)NC(=O)CC(C)(C)CC(=O)NCCCNC(=O)c1ccc(-c2c3nc(c(-c4ccccc4)c4ccc([nH]4)c(-c4ccccc4)c4nc(c(-c5ccccc5)c5ccc2[nH]5)C=C4)C=C3)cc1
REMARK SMILES IDX 15 1 16 2 17 3 14 5 11 6 12 7 13 8 10 9 8 10 7 11 9 13 4 14
REMARK SMILES IDX 2 15 1 16 3 17 5 18 6 19 18 21 19 22 20 23 21 24 22 25 23 27
REMARK SMILES IDX 24 28 25 29 71 30 26 31 70 32 27 33 28 34 29 35 64 36 30 37
REMARK SMILES IDX 69 38 63 39 65 40 31 41 68 42 62 43 61 44 32 46 54 47 39 48
REMARK SMILES IDX 53 49 40 50 43 51 52 52 66 53 41 54 42 55 51 57 67 58 44 59
REMARK SMILES IDX 33 60 34 61 38 62 35 63 37 64 36 65 55 66 56 67 60 68 57 69
REMARK SMILES IDX 59 70 58 71 45 72 46 73 50 74 47 75 49 76 48 77
REMARK H PARENT 17 4 7 12 6 20 21 26 65 45 43 56
REMARK Flexibility Score: inf
ROOT
ATOM      1  C   UNL A   1      34.065  25.236  23.720  1.00  0.00     0.220 C 
ATOM      2  O   UNL A   1      33.963  25.239  22.495  1.00  0.00    -0.275 OA
ATOM      3  N   UNL A   1      33.602  26.323  24.397  1.00  0.00    -0.356 N 
ATOM      4  H   UNL A   1      33.111  26.970  23.838  1.00  0.00     0.163 HD
ENDROOT
BRANCH   1   5
ATOM      5  C   UNL A   1      34.668  24.070  24.472  1.00  0.00     0.107 C 
BRANCH   5   6
ATOM      6  C   UNL A   1      33.736  22.861  24.741  1.00  0.00    -0.018 C 
ATOM      7  C   UNL A   1      32.345  23.245  24.206  1.00  0.00     0.012 C 
ATOM      8  C   UNL A   1      33.513  22.596  26.241  1.00  0.00     0.012 C 
BRANCH   6   9
ATOM      9  C   UNL A   1      34.269  21.528  24.145  1.00  0.00     0.107 C 
BRANCH   9  10
ATOM     10  C   UNL A   1      35.207  20.653  24.963  1.00  0.00     0.220 C 
ATOM     11  N   UNL A   1      34.934  19.337  25.162  1.00  0.00    -0.351 N 
ATOM     12  H   UNL A   1      35.514  18.890  25.818  1.00  0.00     0.163 HD
ATOM     13  O   UNL A   1      36.206  21.122  25.509  1.00  0.00    -0.275 OA
BRANCH  11  14
ATOM     14  C   UNL A   1      33.921  18.480  24.559  1.00  0.00     0.110 C 
BRANCH  14  15
ATOM     15  C   UNL A   1      34.533  17.114  24.127  1.00  0.00     0.007 C 
ATOM     16  C   UNL A   1      34.219  16.039  25.175  1.00  0.00     0.009 C 
ATOM     17  C   UNL A   1      34.079  16.609  22.747  1.00  0.00     0.009 C 
ENDBRANCH  14  15
BRANCH  14  18
ATOM     18  C   UNL A   1      32.706  18.334  25.502  1.00  0.00     0.181 C 
BRANCH  18  19
ATOM     19  O   UNL A   1      32.976  18.832  26.808  1.00  0.00    -0.394 OA
ATOM     20  H   UNL A   1      32.187  19.280  27.152  1.00  0.00     0.210 HD
ENDBRANCH  18  19
ENDBRANCH  14  18
ENDBRANCH  11  14
ENDBRANCH   9  10
ENDBRANCH   6   9
ENDBRANCH   5   6
ENDBRANCH   1   5
BRANCH   3  21
ATOM     21  C   UNL A   1      33.704  26.702  25.799  1.00  0.00     0.117 C 
BRANCH  21  22
ATOM     22  C   UNL A   1      33.498  28.201  26.003  1.00  0.00     0.042 C 
BRANCH  22  23
ATOM     23  C   UNL A   1      33.347  28.612  27.460  1.00  0.00     0.118 C 
BRANCH  23  24
ATOM     24  N   UNL A   1      33.442  30.049  27.622  1.00  0.00    -0.352 N 
ATOM     25  C   UNL A   1      34.469  30.805  28.131  1.00  0.00     0.251 C 
ATOM     26  H   UNL A   1      32.654  30.558  27.324  1.00  0.00     0.163 HD
ATOM     27  O   UNL A   1      34.261  31.976  28.434  1.00  0.00    -0.269 OA
BRANCH  25  28
ATOM     28  C   UNL A   1      35.821  30.228  28.332  1.00  0.00     0.039 A 
ATOM     29  C   UNL A   1      36.166  29.753  29.601  1.00  0.00     0.014 A 
ATOM     30  C   UNL A   1      36.779  30.224  27.313  1.00  0.00     0.014 A 
ATOM     31  C   UNL A   1      37.451  29.259  29.840  1.00  0.00     0.010 A 
ATOM     32  C   UNL A   1      38.030  29.649  27.526  1.00  0.00     0.010 A 
ATOM     33  C   UNL A   1      38.393  29.191  28.801  1.00  0.00    -0.014 A 
BRANCH  33  34
ATOM     34  C   UNL A   1      39.783  28.726  29.049  1.00  0.00     0.031 A 
ATOM     35  C   UNL A   1      40.774  29.645  29.718  1.00  0.00     0.074 A 
ATOM     36  C   UNL A   1      40.172  27.499  28.655  1.00  0.00     0.049 A 
ATOM     37  N   UNL A   1      42.043  29.449  29.975  1.00  0.00    -0.248 NA
ATOM     38  C   UNL A   1      40.277  30.969  30.133  1.00  0.00     0.031 C 
ATOM     39  C   UNL A   1      39.325  26.515  27.976  1.00  0.00     0.029 A 
ATOM     40  N   UNL A   1      41.386  26.869  28.771  1.00  0.00    -0.354 N 
ATOM     41  C   UNL A   1      42.497  30.628  30.554  1.00  0.00     0.074 A 
ATOM     42  C   UNL A   1      41.383  31.551  30.568  1.00  0.00     0.031 C 
ATOM     43  C   UNL A   1      40.037  25.395  27.767  1.00  0.00     0.029 A 
ATOM     44  C   UNL A   1      41.396  25.593  28.262  1.00  0.00     0.049 A 
ATOM     45  H   UNL A   1      42.175  27.292  29.180  1.00  0.00     0.167 HD
ATOM     46  C   UNL A   1      43.723  30.915  31.053  1.00  0.00     0.031 A 
ATOM     47  C   UNL A   1      42.388  24.685  28.200  1.00  0.00     0.031 A 
ATOM     48  C   UNL A   1      44.827  29.996  31.072  1.00  0.00     0.049 A 
ATOM     49  C   UNL A   1      43.741  25.027  28.759  1.00  0.00     0.074 A 
ATOM     50  C   UNL A   1      46.095  30.180  31.597  1.00  0.00     0.029 A 
ATOM     51  N   UNL A   1      44.790  28.714  30.550  1.00  0.00    -0.354 N 
ATOM     52  N   UNL A   1      44.140  26.133  29.339  1.00  0.00    -0.248 NA
ATOM     53  C   UNL A   1      44.778  23.989  28.663  1.00  0.00     0.031 C 
ATOM     54  C   UNL A   1      46.836  29.017  31.364  1.00  0.00     0.029 A 
ATOM     55  C   UNL A   1      46.016  28.097  30.731  1.00  0.00     0.049 A 
ATOM     56  H   UNL A   1      44.009  28.303  30.116  1.00  0.00     0.167 HD
ATOM     57  C   UNL A   1      45.464  25.915  29.698  1.00  0.00     0.074 A 
ATOM     58  C   UNL A   1      45.796  24.567  29.284  1.00  0.00     0.031 C 
ATOM     59  C   UNL A   1      46.327  26.755  30.317  1.00  0.00     0.031 A 
BRANCH  46  60
ATOM     60  C   UNL A   1      43.927  32.290  31.627  1.00  0.00    -0.014 A 
ATOM     61  C   UNL A   1      44.364  33.354  30.821  1.00  0.00     0.009 A 
ATOM     62  C   UNL A   1      43.659  32.530  32.983  1.00  0.00     0.009 A 
ATOM     63  C   UNL A   1      44.563  34.621  31.372  1.00  0.00     0.001 A 
ATOM     64  C   UNL A   1      43.834  33.805  33.524  1.00  0.00     0.001 A 
ATOM     65  C   UNL A   1      44.294  34.846  32.721  1.00  0.00     0.000 A 
ENDBRANCH  46  60
BRANCH  47  66
ATOM     66  C   UNL A   1      42.138  23.347  27.607  1.00  0.00    -0.014 A 
ATOM     67  C   UNL A   1      42.585  23.053  26.310  1.00  0.00     0.009 A 
ATOM     68  C   UNL A   1      41.441  22.364  28.326  1.00  0.00     0.009 A 
ATOM     69  C   UNL A   1      42.318  21.809  25.734  1.00  0.00     0.001 A 
ATOM     70  C   UNL A   1      41.196  21.112  27.756  1.00  0.00     0.001 A 
ATOM     71  C   UNL A   1      41.626  20.840  26.458  1.00  0.00     0.000 A 
ENDBRANCH  47  66
BRANCH  59  72
ATOM     72  C   UNL A   1      47.700  26.229  30.616  1.00  0.00    -0.014 A 
ATOM     73  C   UNL A   1      48.029  25.736  31.887  1.00  0.00     0.009 A 
ATOM     74  C   UNL A   1      48.666  26.190  29.598  1.00  0.00     0.009 A 
ATOM     75  C   UNL A   1      49.309  25.242  32.142  1.00  0.00     0.001 A 
ATOM     76  C   UNL A   1      49.937  25.675  29.849  1.00  0.00     0.001 A 
ATOM     77  C   UNL A   1      50.260  25.208  31.123  1.00  0.00     0.000 A 
ENDBRANCH  59  72
ENDBRANCH  33  34
ENDBRANCH  25  28
ENDBRANCH  23  24
ENDBRANCH  22  23
ENDBRANCH  21  22
ENDBRANCH   3  21
TORSDOF 17
ENDMDL
MODEL 3
REMARK VINA RESULT:      -9.6      2.185      7.659
REMARK SMILES CC(C)[C@@H](CO)NC(=O)CC(C)(C)CC(=O)NCCCNC(=O)c1ccc(-c2c3nc(c(-c4ccccc4)c4ccc([nH]4)c(-c4ccccc4)c4nc(c(-c5ccccc5)c5ccc2[nH]5)C=C4)C=C3)cc1
REMARK SMILES IDX 15 1 16 2 17 3 14 5 11 6 12 7 13 8 10 9 8 10 7 11 9 13 4 14
REMARK SMILES IDX 2 15 1 16 3 17 5 18 6 19 18 21 19 22 20 23 21 24 22 25 23 27
REMARK SMILES IDX 24 28 25 29 71 30 26 31 70 32 27 33 28 34 29 35 64 36 30 37
REMARK SMILES IDX 69 38 63 39 65 40 31 41 68 42 62 43 61 44 32 46 54 47 39 48
REMARK SMILES IDX 53 49 40 50 43 51 52 52 66 53 41 54 42 55 51 57 67 58 44 59
REMARK SMILES IDX 33 60 34 61 38 62 35 63 37 64 36 65 55 66 56 67 60 68 57 69
REMARK SMILES IDX 59 70 58 71 45 72 46 73 50 74 47 75 49 76 48 77
REMARK H PARENT 17 4 7 12 6 20 21 26 65 45 43 56
REMARK Flexibility Score: inf
ROOT
ATOM      1  C   UNL A   1      33.646  20.002  25.003  1.00  0.00     0.220 C 
ATOM      2  O   UNL A   1      32.844  19.217  24.501  1.00  0.00    -0.275 OA
ATOM      3  N   UNL A   1      34.967  19.824  24.721  1.00  0.00    -0.356 N 
ATOM      4  H   UNL A   1      35.146  19.143  24.032  1.00  0.00     0.163 HD
ENDROOT
BRANCH   1   5
ATOM      5  C   UNL A   1      33.203  21.141  25.895  1.00  0.00     0.107 C 
BRANCH   5   6
ATOM      6  C   UNL A   1      32.715  22.429  25.184  1.00  0.00    -0.018 C 
ATOM      7  C   UNL A   1      33.403  23.613  25.887  1.00  0.00     0.012 C 
ATOM      8  C   UNL A   1      31.209  22.687  25.377  1.00  0.00     0.012 C 
BRANCH   6   9
ATOM      9  C   UNL A   1      32.954  22.412  23.649  1.00  0.00     0.107 C 
BRANCH   9  10
ATOM     10  C   UNL A   1      33.980  23.350  23.031  1.00  0.00     0.220 C 
ATOM     11  N   UNL A   1      33.603  24.547  22.509  1.00  0.00    -0.351 N 
ATOM     12  H   UNL A   1      34.306  25.016  22.005  1.00  0.00     0.163 HD
ATOM     13  O   UNL A   1      35.166  23.031  22.940  1.00  0.00    -0.275 OA
BRANCH  11  14
ATOM     14  C   UNL A   1      32.327  25.247  22.574  1.00  0.00     0.110 C 
BRANCH  14  15
ATOM     15  C   UNL A   1      32.329  26.300  23.722  1.00  0.00     0.007 C 
ATOM     16  C   UNL A   1      33.740  26.864  23.920  1.00  0.00     0.009 C 
ATOM     17  C   UNL A   1      31.349  27.471  23.527  1.00  0.00     0.009 C 
ENDBRANCH  14  15
BRANCH  14  18
ATOM     18  C   UNL A   1      31.968  25.846  21.196  1.00  0.00     0.181 C 
BRANCH  18  19
ATOM     19  O   UNL A   1      33.124  26.220  20.454  1.00  0.00    -0.394 OA
ATOM     20  H   UNL A   1      33.012  25.956  19.527  1.00  0.00     0.210 HD
ENDBRANCH  18  19
ENDBRANCH  14  18
ENDBRANCH  11  14
ENDBRANCH   9  10
ENDBRANCH   6   9
ENDBRANCH   5   6
ENDBRANCH   1   5
BRANCH   3  21
ATOM     21  C   UNL A   1      36.161  20.462  25.256  1.00  0.00     0.117 C 
BRANCH  21  22
ATOM     22  C   UNL A   1      37.420  19.643  24.977  1.00  0.00     0.042 C 
BRANCH  22  23
ATOM     23  C   UNL A   1      38.711  20.337  25.385  1.00  0.00     0.118 C 
BRANCH  23  24
ATOM     24  N   UNL A   1      39.767  19.382  25.655  1.00  0.00    -0.352 N 
ATOM     25  C   UNL A   1      41.059  19.600  26.065  1.00  0.00     0.251 C 
ATOM     26  H   UNL A   1      39.523  18.437  25.526  1.00  0.00     0.163 HD
ATOM     27  O   UNL A   1      41.879  18.690  25.982  1.00  0.00    -0.269 OA
BRANCH  25  28
ATOM     28  C   UNL A   1      41.484  20.920  26.594  1.00  0.00     0.039 A 
ATOM     29  C   UNL A   1      41.397  21.149  27.971  1.00  0.00     0.014 A 
ATOM     30  C   UNL A   1      41.888  21.958  25.748  1.00  0.00     0.014 A 
ATOM     31  C   UNL A   1      41.732  22.401  28.497  1.00  0.00     0.010 A 
ATOM     32  C   UNL A   1      42.308  23.176  26.281  1.00  0.00     0.010 A 
ATOM     33  C   UNL A   1      42.202  23.423  27.657  1.00  0.00    -0.014 A 
BRANCH  33  34
ATOM     34  C   UNL A   1      42.505  24.778  28.187  1.00  0.00     0.031 A 
ATOM     35  C   UNL A   1      43.917  25.132  28.580  1.00  0.00     0.074 A 
ATOM     36  C   UNL A   1      41.521  25.684  28.346  1.00  0.00     0.049 A 
ATOM     37  N   UNL A   1      44.377  26.237  29.110  1.00  0.00    -0.248 NA
ATOM     38  C   UNL A   1      44.944  24.097  28.369  1.00  0.00     0.031 C 
ATOM     39  C   UNL A   1      40.107  25.469  28.029  1.00  0.00     0.029 A 
ATOM     40  N   UNL A   1      41.565  26.974  28.816  1.00  0.00    -0.354 N 
ATOM     41  C   UNL A   1      45.734  26.020  29.318  1.00  0.00     0.074 A 
ATOM     42  C   UNL A   1      46.015  24.663  28.903  1.00  0.00     0.031 C 
ATOM     43  C   UNL A   1      39.425  26.599  28.282  1.00  0.00     0.029 A 
ATOM     44  C   UNL A   1      40.344  27.603  28.812  1.00  0.00     0.049 A 
ATOM     45  H   UNL A   1      42.393  27.405  29.126  1.00  0.00     0.167 HD
ATOM     46  C   UNL A   1      46.672  26.875  29.790  1.00  0.00     0.031 A 
ATOM     47  C   UNL A   1      40.002  28.848  29.192  1.00  0.00     0.031 A 
ATOM     48  C   UNL A   1      46.410  28.234  30.177  1.00  0.00     0.049 A 
ATOM     49  C   UNL A   1      41.060  29.780  29.715  1.00  0.00     0.074 A 
ATOM     50  C   UNL A   1      47.304  29.193  30.624  1.00  0.00     0.029 A 
ATOM     51  N   UNL A   1      45.160  28.830  30.152  1.00  0.00    -0.354 N 
ATOM     52  N   UNL A   1      42.345  29.569  29.866  1.00  0.00    -0.248 NA
ATOM     53  C   UNL A   1      40.620  31.126  30.108  1.00  0.00     0.031 C 
ATOM     54  C   UNL A   1      46.586  30.362  30.900  1.00  0.00     0.029 A 
ATOM     55  C   UNL A   1      45.256  30.141  30.586  1.00  0.00     0.049 A 
ATOM     56  H   UNL A   1      44.329  28.387  29.868  1.00  0.00     0.167 HD
ATOM     57  C   UNL A   1      42.869  30.761  30.348  1.00  0.00     0.074 A 
ATOM     58  C   UNL A   1      41.767  31.695  30.451  1.00  0.00     0.031 C 
ATOM     59  C   UNL A   1      44.150  31.057  30.676  1.00  0.00     0.031 A 
BRANCH  46  60
ATOM     60  C   UNL A   1      48.079  26.358  29.907  1.00  0.00    -0.014 A 
ATOM     61  C   UNL A   1      48.540  25.776  31.099  1.00  0.00     0.009 A 
ATOM     62  C   UNL A   1      48.947  26.432  28.807  1.00  0.00     0.009 A 
ATOM     63  C   UNL A   1      49.853  25.313  31.198  1.00  0.00     0.001 A 
ATOM     64  C   UNL A   1      50.251  25.944  28.901  1.00  0.00     0.001 A 
ATOM     65  C   UNL A   1      50.705  25.394  30.098  1.00  0.00     0.000 A 
ENDBRANCH  46  60
BRANCH  47  66
ATOM     66  C   UNL A   1      38.594  29.304  29.071  1.00  0.00    -0.014 A 
ATOM     67  C   UNL A   1      37.730  29.234  30.176  1.00  0.00     0.009 A 
ATOM     68  C   UNL A   1      38.103  29.798  27.854  1.00  0.00     0.009 A 
ATOM     69  C   UNL A   1      36.395  29.625  30.056  1.00  0.00     0.001 A 
ATOM     70  C   UNL A   1      36.773  30.211  27.744  1.00  0.00     0.001 A 
ATOM     71  C   UNL A   1      35.919  30.115  28.841  1.00  0.00     0.000 A 
ENDBRANCH  47  66
BRANCH  59  72
ATOM     72  C   UNL A   1      44.433  32.455  31.140  1.00  0.00    -0.014 A 
ATOM     73  C   UNL A   1      44.366  32.797  32.499  1.00  0.00     0.009 A 
ATOM     74  C   UNL A   1      44.809  33.434  30.208  1.00  0.00     0.009 A 
ATOM     75  C   UNL A   1      44.642  34.102  32.912  1.00  0.00     0.001 A 
ATOM     76  C   UNL A   1      45.106  34.731  30.626  1.00  0.00     0.001 A 
ATOM     77  C   UNL A   1      45.016  35.066  31.977  1.00  0.00     0.000 A 
ENDBRANCH  59  72
ENDBRANCH  33  34
ENDBRANCH  25  28
ENDBRANCH  23  24
ENDBRANCH  22  23
ENDBRANCH  21  22
ENDBRANCH   3  21
TORSDOF 17
ENDMDL
