MODEL 1
REMARK VINA RESULT:     -12.5      0.000      0.000
REMARK SMILES O=C(NCCCNC(=O)[C@H]1CC2(CCN(C(=O)C3CC3)CC2)CN1C(=O)CCn1cccn1)c1ccc(-c2c3nc(c(-c4ccccc4)c4ccc([nH]4)c(-c4ccccc4)c4nc(c(-c5ccccc5)c5ccc2[nH]5)C=C4)C=C3)cc1
REMARK SMILES IDX 6 1 5 2 4 3 3 4 1 5 2 6 34 8 35 9 81 10 36 11 80 12 37 13
REMARK SMILES IDX 38 14 39 15 74 16 40 17 79 18 73 19 75 20 41 21 78 22 72 23
REMARK SMILES IDX 71 24 42 26 64 27 49 28 63 29 50 30 53 31 62 32 76 33 51 34
REMARK SMILES IDX 52 35 61 37 77 38 54 39 43 40 44 41 48 42 45 43 47 44 46 45
REMARK SMILES IDX 65 46 66 47 70 48 67 49 69 50 68 51 55 52 56 53 60 54 57 55
REMARK SMILES IDX 59 56 58 57 7 58 8 59 9 61 10 62 11 63 24 64 12 65 23 66
REMARK SMILES IDX 13 67 22 68 14 69 21 70 15 71 16 72 17 73 25 74 26 75 27 76
REMARK SMILES IDX 28 77 29 78 30 79 33 80 31 81 32 82 18 83 19 84 20 85
REMARK H PARENT 3 7 75 25 53 36 7 60
REMARK Flexibility Score: inf
ROOT
ATOM      1  C   UNL A   1      33.007  30.011  26.559  1.00  0.00     0.117 C 
ENDROOT
BRANCH   1   2
ATOM      2  C   UNL A   1      33.127  31.265  27.429  1.00  0.00     0.042 C 
BRANCH   2   3
ATOM      3  C   UNL A   1      34.552  31.588  27.897  1.00  0.00     0.118 C 
BRANCH   3   4
ATOM      4  N   UNL A   1      34.675  32.057  29.265  1.00  0.00    -0.352 N 
ATOM      5  O   UNL A   1      35.528  32.609  31.240  1.00  0.00    -0.269 OA
ATOM      6  C   UNL A   1      35.647  31.929  30.220  1.00  0.00     0.251 C 
ATOM      7  H   UNL A   1      33.897  32.577  29.569  1.00  0.00     0.163 HD
BRANCH   6   8
ATOM      8  C   UNL A   1      36.753  30.945  30.139  1.00  0.00     0.039 A 
ATOM      9  C   UNL A   1      36.639  29.584  30.417  1.00  0.00     0.014 A 
ATOM     10  C   UNL A   1      38.011  31.468  29.790  1.00  0.00     0.014 A 
ATOM     11  C   UNL A   1      37.776  28.792  30.503  1.00  0.00     0.010 A 
ATOM     12  C   UNL A   1      39.147  30.673  29.834  1.00  0.00     0.010 A 
ATOM     13  C   UNL A   1      39.031  29.348  30.240  1.00  0.00    -0.014 A 
BRANCH  13  14
ATOM     14  C   UNL A   1      40.181  28.454  30.201  1.00  0.00     0.031 A 
ATOM     15  C   UNL A   1      40.845  28.277  31.523  1.00  0.00     0.074 A 
ATOM     16  C   UNL A   1      40.532  27.731  29.119  1.00  0.00     0.049 A 
ATOM     17  N   UNL A   1      42.054  28.593  31.853  1.00  0.00    -0.248 NA
ATOM     18  C   UNL A   1      40.019  27.810  32.651  1.00  0.00     0.031 C 
ATOM     19  C   UNL A   1      39.810  27.587  27.854  1.00  0.00     0.029 A 
ATOM     20  N   UNL A   1      41.575  26.865  28.974  1.00  0.00    -0.354 N 
ATOM     21  C   UNL A   1      42.203  28.207  33.183  1.00  0.00     0.074 A 
ATOM     22  C   UNL A   1      40.886  27.868  33.661  1.00  0.00     0.031 C 
ATOM     23  C   UNL A   1      40.293  26.514  27.185  1.00  0.00     0.029 A 
ATOM     24  C   UNL A   1      41.440  25.985  27.906  1.00  0.00     0.049 A 
ATOM     25  H   UNL A   1      42.355  26.863  29.573  1.00  0.00     0.167 HD
ATOM     26  C   UNL A   1      43.427  27.976  33.730  1.00  0.00     0.031 A 
ATOM     27  C   UNL A   1      42.176  24.868  27.676  1.00  0.00     0.031 A 
ATOM     28  C   UNL A   1      44.485  28.526  32.927  1.00  0.00     0.049 A 
ATOM     29  C   UNL A   1      43.421  24.978  28.469  1.00  0.00     0.074 A 
ATOM     30  C   UNL A   1      44.849  29.793  32.521  1.00  0.00     0.029 A 
ATOM     31  N   UNL A   1      45.156  27.654  32.105  1.00  0.00    -0.354 N 
ATOM     32  N   UNL A   1      44.358  25.843  28.213  1.00  0.00    -0.248 NA
ATOM     33  C   UNL A   1      43.424  24.429  29.815  1.00  0.00     0.031 C 
ATOM     34  C   UNL A   1      45.322  29.625  31.187  1.00  0.00     0.029 A 
ATOM     35  C   UNL A   1      45.284  28.262  30.885  1.00  0.00     0.049 A 
ATOM     36  H   UNL A   1      45.484  26.758  32.347  1.00  0.00     0.167 HD
ATOM     37  C   UNL A   1      44.770  26.288  29.460  1.00  0.00     0.074 A 
ATOM     38  C   UNL A   1      44.231  25.313  30.408  1.00  0.00     0.031 C 
ATOM     39  C   UNL A   1      45.258  27.552  29.628  1.00  0.00     0.031 A 
BRANCH  26  40
ATOM     40  C   UNL A   1      43.694  26.897  34.750  1.00  0.00    -0.014 A 
ATOM     41  C   UNL A   1      43.511  25.554  34.373  1.00  0.00     0.009 A 
ATOM     42  C   UNL A   1      43.811  27.159  36.128  1.00  0.00     0.009 A 
ATOM     43  C   UNL A   1      43.367  24.543  35.330  1.00  0.00     0.001 A 
ATOM     44  C   UNL A   1      43.710  26.145  37.084  1.00  0.00     0.001 A 
ATOM     45  C   UNL A   1      43.457  24.841  36.686  1.00  0.00     0.000 A 
ENDBRANCH  26  40
BRANCH  27  46
ATOM     46  C   UNL A   1      41.762  23.585  27.061  1.00  0.00    -0.014 A 
ATOM     47  C   UNL A   1      42.620  22.892  26.191  1.00  0.00     0.009 A 
ATOM     48  C   UNL A   1      40.639  22.898  27.556  1.00  0.00     0.009 A 
ATOM     49  C   UNL A   1      42.383  21.549  25.862  1.00  0.00     0.001 A 
ATOM     50  C   UNL A   1      40.401  21.558  27.225  1.00  0.00     0.001 A 
ATOM     51  C   UNL A   1      41.282  20.880  26.390  1.00  0.00     0.000 A 
ENDBRANCH  27  46
BRANCH  39  52
ATOM     52  C   UNL A   1      45.561  28.363  28.393  1.00  0.00    -0.014 A 
ATOM     53  C   UNL A   1      44.619  29.198  27.765  1.00  0.00     0.009 A 
ATOM     54  C   UNL A   1      46.888  28.400  27.942  1.00  0.00     0.009 A 
ATOM     55  C   UNL A   1      44.993  30.022  26.699  1.00  0.00     0.001 A 
ATOM     56  C   UNL A   1      47.266  29.239  26.892  1.00  0.00     0.001 A 
ATOM     57  C   UNL A   1      46.317  30.045  26.268  1.00  0.00     0.000 A 
ENDBRANCH  39  52
ENDBRANCH  13  14
ENDBRANCH   6   8
ENDBRANCH   3   4
ENDBRANCH   2   3
ENDBRANCH   1   2
BRANCH   1  58
ATOM     58  N   UNL A   1      32.977  28.809  27.365  1.00  0.00    -0.354 N 
ATOM     59  C   UNL A   1      32.185  27.739  27.043  1.00  0.00     0.242 C 
ATOM     60  H   UNL A   1      33.544  28.759  28.169  1.00  0.00     0.163 HD
ATOM     61  O   UNL A   1      31.122  27.624  27.649  1.00  0.00    -0.273 OA
BRANCH  59  62
ATOM     62  C   UNL A   1      32.625  26.866  25.856  1.00  0.00     0.175 C 
ATOM     63  C   UNL A   1      32.525  25.350  26.047  1.00  0.00     0.044 C 
ATOM     64  N   UNL A   1      32.154  26.987  24.470  1.00  0.00    -0.330 N 
ATOM     65  C   UNL A   1      33.029  24.768  24.697  1.00  0.00    -0.006 C 
ATOM     66  C   UNL A   1      32.890  25.969  23.714  1.00  0.00     0.127 C 
ATOM     67  C   UNL A   1      32.176  23.584  24.200  1.00  0.00     0.030 C 
ATOM     68  C   UNL A   1      34.488  24.292  24.841  1.00  0.00     0.030 C 
ATOM     69  C   UNL A   1      32.342  22.317  25.035  1.00  0.00     0.120 C 
ATOM     70  C   UNL A   1      34.594  23.028  25.705  1.00  0.00     0.120 C 
ATOM     71  N   UNL A   1      33.748  21.950  25.189  1.00  0.00    -0.342 N 
ATOM     72  C   UNL A   1      34.345  20.699  25.022  1.00  0.00     0.225 C 
ATOM     73  O   UNL A   1      35.541  20.539  25.303  1.00  0.00    -0.275 OA
BRANCH  64  74
ATOM     74  C   UNL A   1      30.897  27.335  23.988  1.00  0.00     0.225 C 
ATOM     75  O   UNL A   1      30.049  26.473  23.727  1.00  0.00    -0.275 OA
BRANCH  74  76
ATOM     76  C   UNL A   1      30.546  28.765  23.638  1.00  0.00     0.124 C 
BRANCH  76  77
ATOM     77  C   UNL A   1      29.252  28.932  22.854  1.00  0.00     0.154 C 
BRANCH  77  78
ATOM     78  N   UNL A   1      28.887  30.280  22.471  1.00  0.00    -0.272 N 
ATOM     79  C   UNL A   1      28.404  30.694  21.259  1.00  0.00     0.108 A 
ATOM     80  N   UNL A   1      28.864  31.255  23.400  1.00  0.00    -0.182 NA
ATOM     81  C   UNL A   1      28.123  32.035  21.394  1.00  0.00     0.042 A 
ATOM     82  C   UNL A   1      28.404  32.321  22.739  1.00  0.00     0.135 A 
ENDBRANCH  77  78
ENDBRANCH  76  77
ENDBRANCH  74  76
ENDBRANCH  64  74
BRANCH  72  83
ATOM     83  C   UNL A   1      33.674  19.480  24.481  1.00  0.00     0.079 C 
ATOM     84  C   UNL A   1      34.017  18.025  24.604  1.00  0.00     0.014 C 
ATOM     85  C   UNL A   1      32.845  18.585  25.367  1.00  0.00     0.014 C 
ENDBRANCH  72  83
ENDBRANCH  59  62
ENDBRANCH   1  58
TORSDOF 15
ENDMDL
MODEL 2
REMARK VINA RESULT:     -12.4      2.492      8.847
REMARK SMILES O=C(NCCCNC(=O)[C@H]1CC2(CCN(C(=O)C3CC3)CC2)CN1C(=O)CCn1cccn1)c1ccc(-c2c3nc(c(-c4ccccc4)c4ccc([nH]4)c(-c4ccccc4)c4nc(c(-c5ccccc5)c5ccc2[nH]5)C=C4)C=C3)cc1
REMARK SMILES IDX 6 1 5 2 4 3 3 4 1 5 2 6 34 8 35 9 81 10 36 11 80 12 37 13
REMARK SMILES IDX 38 14 39 15 74 16 40 17 79 18 73 19 75 20 41 21 78 22 72 23
REMARK SMILES IDX 71 24 42 26 64 27 49 28 63 29 50 30 53 31 62 32 76 33 51 34
REMARK SMILES IDX 52 35 61 37 77 38 54 39 43 40 44 41 48 42 45 43 47 44 46 45
REMARK SMILES IDX 65 46 66 47 70 48 67 49 69 50 68 51 55 52 56 53 60 54 57 55
REMARK SMILES IDX 59 56 58 57 7 58 8 59 9 61 10 62 11 63 24 64 12 65 23 66
REMARK SMILES IDX 13 67 22 68 14 69 21 70 15 71 16 72 17 73 25 74 26 75 27 76
REMARK SMILES IDX 28 77 29 78 30 79 33 80 31 81 32 82 18 83 19 84 20 85
REMARK H PARENT 3 7 75 25 53 36 7 60
REMARK Flexibility Score: inf
ROOT
ATOM      1  C   UNL A   1      37.841  22.356  25.554  1.00  0.00     0.117 C 
ENDROOT
BRANCH   1   2
ATOM      2  C   UNL A   1      38.870  22.836  26.581  1.00  0.00     0.042 C 
BRANCH   2   3
ATOM      3  C   UNL A   1      40.093  21.924  26.741  1.00  0.00     0.118 C 
BRANCH   3   4
ATOM      4  N   UNL A   1      41.194  22.181  25.831  1.00  0.00    -0.352 N 
ATOM      5  O   UNL A   1      43.079  22.977  24.967  1.00  0.00    -0.269 OA
ATOM      6  C   UNL A   1      42.165  23.143  25.776  1.00  0.00     0.251 C 
ATOM      7  H   UNL A   1      41.256  21.524  25.100  1.00  0.00     0.163 HD
BRANCH   6   8
ATOM      8  C   UNL A   1      42.109  24.409  26.546  1.00  0.00     0.039 A 
ATOM      9  C   UNL A   1      42.699  24.618  27.792  1.00  0.00     0.014 A 
ATOM     10  C   UNL A   1      41.361  25.447  25.963  1.00  0.00     0.014 A 
ATOM     11  C   UNL A   1      42.420  25.771  28.512  1.00  0.00     0.010 A 
ATOM     12  C   UNL A   1      41.110  26.620  26.660  1.00  0.00     0.010 A 
ATOM     13  C   UNL A   1      41.599  26.756  27.955  1.00  0.00    -0.014 A 
BRANCH  13  14
ATOM     14  C   UNL A   1      41.446  28.010  28.680  1.00  0.00     0.031 A 
ATOM     15  C   UNL A   1      42.497  29.017  28.358  1.00  0.00     0.074 A 
ATOM     16  C   UNL A   1      40.382  28.306  29.453  1.00  0.00     0.049 A 
ATOM     17  N   UNL A   1      43.371  29.535  29.157  1.00  0.00    -0.248 NA
ATOM     18  C   UNL A   1      42.678  29.396  26.946  1.00  0.00     0.031 C 
ATOM     19  C   UNL A   1      39.151  27.534  29.628  1.00  0.00     0.029 A 
ATOM     20  N   UNL A   1      40.134  29.441  30.164  1.00  0.00    -0.354 N 
ATOM     21  C   UNL A   1      44.105  30.437  28.390  1.00  0.00     0.074 A 
ATOM     22  C   UNL A   1      43.734  30.205  27.018  1.00  0.00     0.031 C 
ATOM     23  C   UNL A   1      38.204  28.328  30.181  1.00  0.00     0.029 A 
ATOM     24  C   UNL A   1      38.800  29.609  30.521  1.00  0.00     0.049 A 
ATOM     25  H   UNL A   1      40.837  30.086  30.404  1.00  0.00     0.167 HD
ATOM     26  C   UNL A   1      44.796  31.463  28.957  1.00  0.00     0.031 A 
ATOM     27  C   UNL A   1      38.223  30.743  30.995  1.00  0.00     0.031 A 
ATOM     28  C   UNL A   1      44.977  31.273  30.370  1.00  0.00     0.049 A 
ATOM     29  C   UNL A   1      39.303  31.621  31.500  1.00  0.00     0.074 A 
ATOM     30  C   UNL A   1      45.618  30.339  31.157  1.00  0.00     0.029 A 
ATOM     31  N   UNL A   1      44.119  31.949  31.202  1.00  0.00    -0.354 N 
ATOM     32  N   UNL A   1      40.012  31.348  32.555  1.00  0.00    -0.248 NA
ATOM     33  C   UNL A   1      39.893  32.577  30.577  1.00  0.00     0.031 C 
ATOM     34  C   UNL A   1      44.769  30.176  32.291  1.00  0.00     0.029 A 
ATOM     35  C   UNL A   1      43.702  31.067  32.162  1.00  0.00     0.049 A 
ATOM     36  H   UNL A   1      43.853  32.893  31.123  1.00  0.00     0.167 HD
ATOM     37  C   UNL A   1      41.302  31.724  32.214  1.00  0.00     0.074 A 
ATOM     38  C   UNL A   1      41.152  32.563  31.025  1.00  0.00     0.031 C 
ATOM     39  C   UNL A   1      42.384  31.087  32.752  1.00  0.00     0.031 A 
BRANCH  26  40
ATOM     40  C   UNL A   1      44.930  32.826  28.324  1.00  0.00    -0.014 A 
ATOM     41  C   UNL A   1      43.792  33.649  28.249  1.00  0.00     0.009 A 
ATOM     42  C   UNL A   1      46.035  33.198  27.534  1.00  0.00     0.009 A 
ATOM     43  C   UNL A   1      43.735  34.734  27.366  1.00  0.00     0.001 A 
ATOM     44  C   UNL A   1      45.995  34.305  26.683  1.00  0.00     0.001 A 
ATOM     45  C   UNL A   1      44.834  35.055  26.576  1.00  0.00     0.000 A 
ENDBRANCH  26  40
BRANCH  27  46
ATOM     46  C   UNL A   1      36.849  31.253  30.780  1.00  0.00    -0.014 A 
ATOM     47  C   UNL A   1      36.061  31.682  31.862  1.00  0.00     0.009 A 
ATOM     48  C   UNL A   1      36.418  31.590  29.485  1.00  0.00     0.009 A 
ATOM     49  C   UNL A   1      34.907  32.453  31.654  1.00  0.00     0.001 A 
ATOM     50  C   UNL A   1      35.265  32.357  29.277  1.00  0.00     0.001 A 
ATOM     51  C   UNL A   1      34.519  32.801  30.363  1.00  0.00     0.000 A 
ENDBRANCH  27  46
BRANCH  39  52
ATOM     52  C   UNL A   1      42.148  30.135  33.897  1.00  0.00    -0.014 A 
ATOM     53  C   UNL A   1      41.850  28.771  33.721  1.00  0.00     0.009 A 
ATOM     54  C   UNL A   1      42.385  30.602  35.197  1.00  0.00     0.009 A 
ATOM     55  C   UNL A   1      41.765  27.911  34.821  1.00  0.00     0.001 A 
ATOM     56  C   UNL A   1      42.322  29.738  36.292  1.00  0.00     0.001 A 
ATOM     57  C   UNL A   1      42.007  28.395  36.104  1.00  0.00     0.000 A 
ENDBRANCH  39  52
ENDBRANCH  13  14
ENDBRANCH   6   8
ENDBRANCH   3   4
ENDBRANCH   2   3
ENDBRANCH   1   2
BRANCH   1  58
ATOM     58  N   UNL A   1      37.582  23.368  24.552  1.00  0.00    -0.354 N 
ATOM     59  C   UNL A   1      36.375  23.461  23.910  1.00  0.00     0.242 C 
ATOM     60  H   UNL A   1      38.295  24.008  24.325  1.00  0.00     0.163 HD
ATOM     61  O   UNL A   1      36.299  22.976  22.784  1.00  0.00    -0.273 OA
BRANCH  59  62
ATOM     62  C   UNL A   1      35.192  24.030  24.711  1.00  0.00     0.175 C 
ATOM     63  C   UNL A   1      34.298  25.040  23.986  1.00  0.00     0.044 C 
ATOM     64  N   UNL A   1      34.175  23.248  25.428  1.00  0.00    -0.330 N 
ATOM     65  C   UNL A   1      33.220  25.411  25.042  1.00  0.00    -0.006 C 
ATOM     66  C   UNL A   1      33.295  24.235  26.061  1.00  0.00     0.127 C 
ATOM     67  C   UNL A   1      31.800  25.494  24.444  1.00  0.00     0.030 C 
ATOM     68  C   UNL A   1      33.558  26.770  25.685  1.00  0.00     0.030 C 
ATOM     69  C   UNL A   1      31.594  26.693  23.522  1.00  0.00     0.120 C 
ATOM     70  C   UNL A   1      33.350  27.933  24.707  1.00  0.00     0.120 C 
ATOM     71  N   UNL A   1      31.991  27.945  24.164  1.00  0.00    -0.342 N 
ATOM     72  C   UNL A   1      31.296  29.155  24.217  1.00  0.00     0.225 C 
ATOM     73  O   UNL A   1      31.830  30.157  24.712  1.00  0.00    -0.275 OA
BRANCH  64  74
ATOM     74  C   UNL A   1      33.607  22.022  25.102  1.00  0.00     0.225 C 
ATOM     75  O   UNL A   1      32.465  21.950  24.632  1.00  0.00    -0.275 OA
BRANCH  74  76
ATOM     76  C   UNL A   1      34.297  20.713  25.423  1.00  0.00     0.124 C 
BRANCH  76  77
ATOM     77  C   UNL A   1      33.377  19.501  25.471  1.00  0.00     0.154 C 
BRANCH  77  78
ATOM     78  N   UNL A   1      33.502  18.541  24.395  1.00  0.00    -0.272 N 
ATOM     79  C   UNL A   1      34.379  17.494  24.317  1.00  0.00     0.108 A 
ATOM     80  N   UNL A   1      32.597  18.535  23.397  1.00  0.00    -0.182 NA
ATOM     81  C   UNL A   1      34.070  16.815  23.159  1.00  0.00     0.042 A 
ATOM     82  C   UNL A   1      32.949  17.488  22.646  1.00  0.00     0.135 A 
ENDBRANCH  77  78
ENDBRANCH  76  77
ENDBRANCH  74  76
ENDBRANCH  64  74
BRANCH  72  83
ATOM     83  C   UNL A   1      29.894  29.374  23.753  1.00  0.00     0.079 C 
ATOM     84  C   UNL A   1      29.122  30.634  23.499  1.00  0.00     0.014 C 
ATOM     85  C   UNL A   1      29.597  29.801  22.337  1.00  0.00     0.014 C 
ENDBRANCH  72  83
ENDBRANCH  59  62
ENDBRANCH   1  58
TORSDOF 15
ENDMDL
MODEL 3
REMARK VINA RESULT:     -11.0      4.763      9.136
REMARK SMILES O=C(NCCCNC(=O)[C@H]1CC2(CCN(C(=O)C3CC3)CC2)CN1C(=O)CCn1cccn1)c1ccc(-c2c3nc(c(-c4ccccc4)c4ccc([nH]4)c(-c4ccccc4)c4nc(c(-c5ccccc5)c5ccc2[nH]5)C=C4)C=C3)cc1
REMARK SMILES IDX 6 1 5 2 4 3 3 4 1 5 2 6 34 8 35 9 81 10 36 11 80 12 37 13
REMARK SMILES IDX 38 14 39 15 74 16 40 17 79 18 73 19 75 20 41 21 78 22 72 23
REMARK SMILES IDX 71 24 42 26 64 27 49 28 63 29 50 30 53 31 62 32 76 33 51 34
REMARK SMILES IDX 52 35 61 37 77 38 54 39 43 40 44 41 48 42 45 43 47 44 46 45
REMARK SMILES IDX 65 46 66 47 70 48 67 49 69 50 68 51 55 52 56 53 60 54 57 55
REMARK SMILES IDX 59 56 58 57 7 58 8 59 9 61 10 62 11 63 24 64 12 65 23 66
REMARK SMILES IDX 13 67 22 68 14 69 21 70 15 71 16 72 17 73 25 74 26 75 27 76
REMARK SMILES IDX 28 77 29 78 30 79 33 80 31 81 32 82 18 83 19 84 20 85
REMARK H PARENT 3 7 75 25 53 36 7 60
REMARK Flexibility Score: inf
ROOT
ATOM      1  C   UNL A   1      35.729  33.065  32.937  1.00  0.00     0.117 C 
ENDROOT
BRANCH   1   2
ATOM      2  C   UNL A   1      35.141  32.583  31.608  1.00  0.00     0.042 C 
BRANCH   2   3
ATOM      3  C   UNL A   1      35.614  33.364  30.375  1.00  0.00     0.118 C 
BRANCH   3   4
ATOM      4  N   UNL A   1      35.236  32.803  29.091  1.00  0.00    -0.352 N 
ATOM      5  O   UNL A   1      34.955  31.383  27.407  1.00  0.00    -0.269 OA
ATOM      6  C   UNL A   1      35.605  31.674  28.412  1.00  0.00     0.251 C 
ATOM      7  H   UNL A   1      34.575  33.348  28.608  1.00  0.00     0.163 HD
BRANCH   6   8
ATOM      8  C   UNL A   1      36.798  30.863  28.755  1.00  0.00     0.039 A 
ATOM      9  C   UNL A   1      38.085  31.365  28.937  1.00  0.00     0.014 A 
ATOM     10  C   UNL A   1      36.585  29.477  28.856  1.00  0.00     0.014 A 
ATOM     11  C   UNL A   1      39.162  30.497  29.059  1.00  0.00     0.010 A 
ATOM     12  C   UNL A   1      37.651  28.604  29.018  1.00  0.00     0.010 A 
ATOM     13  C   UNL A   1      38.944  29.117  29.068  1.00  0.00    -0.014 A 
BRANCH  13  14
ATOM     14  C   UNL A   1      40.079  28.246  29.340  1.00  0.00     0.031 A 
ATOM     15  C   UNL A   1      40.508  28.253  30.768  1.00  0.00     0.074 A 
ATOM     16  C   UNL A   1      40.606  27.395  28.438  1.00  0.00     0.049 A 
ATOM     17  N   UNL A   1      41.644  28.630  31.253  1.00  0.00    -0.248 NA
ATOM     18  C   UNL A   1      39.500  27.921  31.790  1.00  0.00     0.031 C 
ATOM     19  C   UNL A   1      40.109  27.076  27.098  1.00  0.00     0.029 A 
ATOM     20  N   UNL A   1      41.654  26.536  28.585  1.00  0.00    -0.354 N 
ATOM     21  C   UNL A   1      41.563  28.423  32.628  1.00  0.00     0.074 A 
ATOM     22  C   UNL A   1      40.183  28.125  32.916  1.00  0.00     0.031 C 
ATOM     23  C   UNL A   1      40.694  25.934  26.667  1.00  0.00     0.029 A 
ATOM     24  C   UNL A   1      41.698  25.523  27.634  1.00  0.00     0.049 A 
ATOM     25  H   UNL A   1      42.321  26.625  29.303  1.00  0.00     0.167 HD
ATOM     26  C   UNL A   1      42.676  28.286  33.400  1.00  0.00     0.031 A 
ATOM     27  C   UNL A   1      42.458  24.398  27.680  1.00  0.00     0.031 A 
ATOM     28  C   UNL A   1      43.857  28.746  32.723  1.00  0.00     0.049 A 
ATOM     29  C   UNL A   1      43.550  24.632  28.651  1.00  0.00     0.074 A 
ATOM     30  C   UNL A   1      44.290  29.956  32.222  1.00  0.00     0.029 A 
ATOM     31  N   UNL A   1      44.654  27.787  32.147  1.00  0.00    -0.354 N 
ATOM     32  N   UNL A   1      44.521  25.473  28.447  1.00  0.00    -0.248 NA
ATOM     33  C   UNL A   1      43.321  24.263  30.039  1.00  0.00     0.031 C 
ATOM     34  C   UNL A   1      44.983  29.624  31.021  1.00  0.00     0.029 A 
ATOM     35  C   UNL A   1      44.991  28.234  30.898  1.00  0.00     0.049 A 
ATOM     36  H   UNL A   1      44.932  26.936  32.556  1.00  0.00     0.167 HD
ATOM     37  C   UNL A   1      44.717  26.083  29.677  1.00  0.00     0.074 A 
ATOM     38  C   UNL A   1      44.020  25.230  30.639  1.00  0.00     0.031 C 
ATOM     39  C   UNL A   1      45.176  27.366  29.758  1.00  0.00     0.031 A 
BRANCH  26  40
ATOM     40  C   UNL A   1      42.759  27.353  34.582  1.00  0.00    -0.014 A 
ATOM     41  C   UNL A   1      43.089  26.005  34.355  1.00  0.00     0.009 A 
ATOM     42  C   UNL A   1      42.232  27.672  35.848  1.00  0.00     0.009 A 
ATOM     43  C   UNL A   1      42.822  25.018  35.311  1.00  0.00     0.001 A 
ATOM     44  C   UNL A   1      42.003  26.695  36.821  1.00  0.00     0.001 A 
ATOM     45  C   UNL A   1      42.270  25.364  36.540  1.00  0.00     0.000 A 
ENDBRANCH  26  40
BRANCH  27  46
ATOM     46  C   UNL A   1      42.148  23.040  27.177  1.00  0.00    -0.014 A 
ATOM     47  C   UNL A   1      43.017  22.384  26.289  1.00  0.00     0.009 A 
ATOM     48  C   UNL A   1      41.145  22.272  27.796  1.00  0.00     0.009 A 
ATOM     49  C   UNL A   1      42.909  21.004  26.060  1.00  0.00     0.001 A 
ATOM     50  C   UNL A   1      41.036  20.895  27.565  1.00  0.00     0.001 A 
ATOM     51  C   UNL A   1      41.928  20.259  26.710  1.00  0.00     0.000 A 
ENDBRANCH  27  46
BRANCH  39  52
ATOM     52  C   UNL A   1      45.688  28.016  28.497  1.00  0.00    -0.014 A 
ATOM     53  C   UNL A   1      47.035  27.970  28.095  1.00  0.00     0.009 A 
ATOM     54  C   UNL A   1      44.747  28.561  27.612  1.00  0.00     0.009 A 
ATOM     55  C   UNL A   1      47.429  28.482  26.854  1.00  0.00     0.001 A 
ATOM     56  C   UNL A   1      45.137  29.052  26.365  1.00  0.00     0.001 A 
ATOM     57  C   UNL A   1      46.477  29.017  25.989  1.00  0.00     0.000 A 
ENDBRANCH  39  52
ENDBRANCH  13  14
ENDBRANCH   6   8
ENDBRANCH   3   4
ENDBRANCH   2   3
ENDBRANCH   1   2
BRANCH   1  58
ATOM     58  N   UNL A   1      36.236  31.961  33.722  1.00  0.00    -0.354 N 
ATOM     59  C   UNL A   1      37.287  31.191  33.299  1.00  0.00     0.242 C 
ATOM     60  H   UNL A   1      35.813  31.757  34.588  1.00  0.00     0.163 HD
ATOM     61  O   UNL A   1      37.018  30.107  32.785  1.00  0.00    -0.273 OA
BRANCH  59  62
ATOM     62  C   UNL A   1      38.692  31.813  33.368  1.00  0.00     0.175 C 
ATOM     63  C   UNL A   1      39.203  32.492  32.095  1.00  0.00     0.044 C 
ATOM     64  N   UNL A   1      39.169  32.764  34.382  1.00  0.00    -0.330 N 
ATOM     65  C   UNL A   1      40.615  33.009  32.488  1.00  0.00    -0.006 C 
ATOM     66  C   UNL A   1      40.572  33.026  34.045  1.00  0.00     0.127 C 
ATOM     67  C   UNL A   1      40.902  34.429  31.958  1.00  0.00     0.030 C 
ATOM     68  C   UNL A   1      41.696  32.057  31.940  1.00  0.00     0.030 C 
ATOM     69  C   UNL A   1      41.084  34.491  30.443  1.00  0.00     0.120 C 
ATOM     70  C   UNL A   1      41.819  32.149  30.414  1.00  0.00     0.120 C 
ATOM     71  N   UNL A   1      42.074  33.523  29.976  1.00  0.00    -0.342 N 
ATOM     72  C   UNL A   1      43.136  33.721  29.091  1.00  0.00     0.225 C 
ATOM     73  O   UNL A   1      43.818  32.759  28.714  1.00  0.00    -0.275 OA
BRANCH  64  74
ATOM     74  C   UNL A   1      38.483  33.780  35.037  1.00  0.00     0.225 C 
ATOM     75  O   UNL A   1      38.476  34.936  34.595  1.00  0.00    -0.275 OA
BRANCH  74  76
ATOM     76  C   UNL A   1      37.822  33.559  36.380  1.00  0.00     0.124 C 
BRANCH  76  77
ATOM     77  C   UNL A   1      38.191  32.251  37.066  1.00  0.00     0.154 C 
BRANCH  77  78
ATOM     78  N   UNL A   1      37.489  31.934  38.292  1.00  0.00    -0.272 N 
ATOM     79  C   UNL A   1      37.115  32.805  39.280  1.00  0.00     0.108 A 
ATOM     80  N   UNL A   1      37.000  30.694  38.482  1.00  0.00    -0.182 NA
ATOM     81  C   UNL A   1      36.405  32.064  40.199  1.00  0.00     0.042 A 
ATOM     82  C   UNL A   1      36.347  30.776  39.644  1.00  0.00     0.135 A 
ENDBRANCH  77  78
ENDBRANCH  76  77
ENDBRANCH  74  76
ENDBRANCH  64  74
BRANCH  72  83
ATOM     83  C   UNL A   1      43.584  35.039  28.552  1.00  0.00     0.079 C 
ATOM     84  C   UNL A   1      44.118  35.427  27.205  1.00  0.00     0.014 C 
ATOM     85  C   UNL A   1      42.720  35.829  27.599  1.00  0.00     0.014 C 
ENDBRANCH  72  83
ENDBRANCH  59  62
ENDBRANCH   1  58
TORSDOF 15
ENDMDL
