MODEL 1
REMARK VINA RESULT:     -11.2      0.000      0.000
REMARK SMILES C[C@@H](Oc1ccc(I)cc1)C(=O)NCc1ccc(C(=O)NCCCNC(=O)c2ccc(-c3c4nc(c(-c5ccccc5)c5ccc([nH]5)c(-c5ccccc5)c5nc(c(-c6ccccc6)c6ccc3[nH]6)C=C5)C=C4)cc2)cc1
REMARK SMILES IDX 19 1 20 2 21 3 18 5 15 6 16 7 77 8 17 9 76 10 14 11 13 12
REMARK SMILES IDX 11 13 12 14 2 16 1 17 3 18 4 19 5 20 10 21 6 22 9 23 7 24
REMARK SMILES IDX 8 25 22 26 23 27 24 28 25 29 26 30 27 32 28 33 29 34 75 35
REMARK SMILES IDX 30 36 74 37 31 38 32 39 33 40 68 41 34 42 73 43 67 44 69 45
REMARK SMILES IDX 35 46 72 47 66 48 65 49 36 51 58 52 43 53 57 54 44 55 47 56
REMARK SMILES IDX 56 57 70 58 45 59 46 60 55 62 71 63 48 64 37 65 38 66 42 67
REMARK SMILES IDX 39 68 41 69 40 70 59 71 60 72 64 73 61 74 63 75 62 76 49 77
REMARK SMILES IDX 50 78 54 79 51 80 53 81 52 82
REMARK H PARENT 21 4 13 15 25 31 69 50 47 61
REMARK Flexibility Score: inf
ROOT
ATOM      1  C   UNL A   1      33.714  20.490  24.217  1.00  0.00     0.251 C 
ATOM      2  O   UNL A   1      32.805  19.709  23.937  1.00  0.00    -0.269 OA
ATOM      3  N   UNL A   1      34.776  20.011  24.942  1.00  0.00    -0.352 N 
ATOM      4  H   UNL A   1      34.673  19.078  25.239  1.00  0.00     0.163 HD
ENDROOT
BRANCH   1   5
ATOM      5  C   UNL A   1      33.645  21.890  23.722  1.00  0.00     0.039 A 
ATOM      6  C   UNL A   1      33.364  24.520  22.723  1.00  0.00    -0.029 A 
ATOM      7  C   UNL A   1      32.277  23.638  22.719  1.00  0.00     0.006 A 
ATOM      8  C   UNL A   1      34.580  24.076  23.267  1.00  0.00     0.006 A 
ATOM      9  C   UNL A   1      32.416  22.337  23.219  1.00  0.00     0.014 A 
ATOM     10  C   UNL A   1      34.713  22.784  23.781  1.00  0.00     0.014 A 
BRANCH   6  11
ATOM     11  C   UNL A   1      33.314  25.919  22.158  1.00  0.00     0.151 C 
BRANCH  11  12
ATOM     12  N   UNL A   1      31.993  26.401  21.812  1.00  0.00    -0.349 N 
ATOM     13  C   UNL A   1      31.181  27.291  22.454  1.00  0.00     0.261 C 
ATOM     14  O   UNL A   1      30.132  27.610  21.887  1.00  0.00    -0.271 OA
ATOM     15  H   UNL A   1      31.622  26.028  20.980  1.00  0.00     0.163 HD
BRANCH  13  16
ATOM     16  C   UNL A   1      31.497  27.802  23.873  1.00  0.00     0.258 C 
ATOM     17  C   UNL A   1      31.415  29.327  23.852  1.00  0.00     0.064 C 
BRANCH  16  18
ATOM     18  O   UNL A   1      30.610  27.191  24.812  1.00  0.00    -0.481 OA
BRANCH  18  19
ATOM     19  C   UNL A   1      31.140  26.164  25.535  1.00  0.00     0.120 A 
ATOM     20  C   UNL A   1      30.398  25.013  25.794  1.00  0.00     0.047 A 
ATOM     21  C   UNL A   1      32.499  26.206  25.843  1.00  0.00     0.047 A 
ATOM     22  C   UNL A   1      31.001  23.916  26.410  1.00  0.00     0.018 A 
ATOM     23  C   UNL A   1      33.110  25.104  26.448  1.00  0.00     0.018 A 
ATOM     24  C   UNL A   1      32.356  23.965  26.732  1.00  0.00     0.013 A 
ATOM     25  I   UNL A   1      33.267  22.309  27.599  1.00  0.00    -0.044 I 
ENDBRANCH  18  19
ENDBRANCH  16  18
ENDBRANCH  13  16
ENDBRANCH  11  12
ENDBRANCH   6  11
ENDBRANCH   1   5
BRANCH   3  26
ATOM     26  C   UNL A   1      36.024  20.631  25.349  1.00  0.00     0.118 C 
BRANCH  26  27
ATOM     27  C   UNL A   1      37.224  19.771  24.956  1.00  0.00     0.042 C 
BRANCH  27  28
ATOM     28  C   UNL A   1      38.569  20.407  25.299  1.00  0.00     0.118 C 
BRANCH  28  29
ATOM     29  N   UNL A   1      39.590  19.409  25.579  1.00  0.00    -0.352 N 
ATOM     30  C   UNL A   1      40.867  19.563  26.056  1.00  0.00     0.251 C 
ATOM     31  H   UNL A   1      39.323  18.479  25.398  1.00  0.00     0.163 HD
ATOM     32  O   UNL A   1      41.645  18.616  26.020  1.00  0.00    -0.269 OA
BRANCH  30  33
ATOM     33  C   UNL A   1      41.320  20.862  26.603  1.00  0.00     0.039 A 
ATOM     34  C   UNL A   1      41.910  21.786  25.733  1.00  0.00     0.014 A 
ATOM     35  C   UNL A   1      41.222  21.153  27.966  1.00  0.00     0.014 A 
ATOM     36  C   UNL A   1      42.357  23.016  26.221  1.00  0.00     0.010 A 
ATOM     37  C   UNL A   1      41.607  22.406  28.440  1.00  0.00     0.010 A 
ATOM     38  C   UNL A   1      42.187  23.345  27.575  1.00  0.00    -0.014 A 
BRANCH  38  39
ATOM     39  C   UNL A   1      42.614  24.664  28.105  1.00  0.00     0.031 A 
ATOM     40  C   UNL A   1      41.603  25.750  28.345  1.00  0.00     0.074 A 
ATOM     41  C   UNL A   1      43.923  24.906  28.307  1.00  0.00     0.049 A 
ATOM     42  N   UNL A   1      41.794  26.982  28.746  1.00  0.00    -0.248 NA
ATOM     43  C   UNL A   1      40.195  25.416  28.074  1.00  0.00     0.031 C 
ATOM     44  C   UNL A   1      45.007  23.950  28.073  1.00  0.00     0.029 A 
ATOM     45  N   UNL A   1      44.563  26.038  28.745  1.00  0.00    -0.354 N 
ATOM     46  C   UNL A   1      40.538  27.574  28.753  1.00  0.00     0.074 A 
ATOM     47  C   UNL A   1      39.600  26.581  28.277  1.00  0.00     0.031 C 
ATOM     48  C   UNL A   1      46.176  24.529  28.389  1.00  0.00     0.029 A 
ATOM     49  C   UNL A   1      45.928  25.904  28.810  1.00  0.00     0.049 A 
ATOM     50  H   UNL A   1      44.090  26.866  28.987  1.00  0.00     0.167 HD
ATOM     51  C   UNL A   1      40.192  28.828  29.136  1.00  0.00     0.031 A 
ATOM     52  C   UNL A   1      46.877  26.790  29.166  1.00  0.00     0.031 A 
ATOM     53  C   UNL A   1      41.123  29.812  29.620  1.00  0.00     0.049 A 
ATOM     54  C   UNL A   1      46.472  28.173  29.589  1.00  0.00     0.074 A 
ATOM     55  C   UNL A   1      40.863  31.087  30.092  1.00  0.00     0.029 A 
ATOM     56  N   UNL A   1      42.496  29.632  29.687  1.00  0.00    -0.354 N 
ATOM     57  N   UNL A   1      45.273  28.697  29.657  1.00  0.00    -0.248 NA
ATOM     58  C   UNL A   1      47.553  29.081  29.996  1.00  0.00     0.031 C 
ATOM     59  C   UNL A   1      42.085  31.696  30.401  1.00  0.00     0.029 A 
ATOM     60  C   UNL A   1      43.100  30.781  30.169  1.00  0.00     0.049 A 
ATOM     61  H   UNL A   1      42.971  28.809  29.429  1.00  0.00     0.167 HD
ATOM     62  C   UNL A   1      45.449  29.989  30.133  1.00  0.00     0.074 A 
ATOM     63  C   UNL A   1      46.871  30.163  30.351  1.00  0.00     0.031 C 
ATOM     64  C   UNL A   1      44.517  30.943  30.370  1.00  0.00     0.031 A 
BRANCH  51  65
ATOM     65  C   UNL A   1      38.739  29.202  29.030  1.00  0.00    -0.014 A 
ATOM     66  C   UNL A   1      38.208  29.738  27.846  1.00  0.00     0.009 A 
ATOM     67  C   UNL A   1      37.886  29.008  30.128  1.00  0.00     0.009 A 
ATOM     68  C   UNL A   1      36.865  30.116  27.779  1.00  0.00     0.001 A 
ATOM     69  C   UNL A   1      36.537  29.358  30.049  1.00  0.00     0.001 A 
ATOM     70  C   UNL A   1      36.030  29.923  28.879  1.00  0.00     0.000 A 
ENDBRANCH  51  65
BRANCH  52  71
ATOM     71  C   UNL A   1      48.304  26.380  29.155  1.00  0.00    -0.014 A 
ATOM     72  C   UNL A   1      48.886  25.805  30.294  1.00  0.00     0.009 A 
ATOM     73  C   UNL A   1      49.082  26.535  27.997  1.00  0.00     0.009 A 
ATOM     74  C   UNL A   1      50.225  25.406  30.278  1.00  0.00     0.001 A 
ATOM     75  C   UNL A   1      50.413  26.113  27.977  1.00  0.00     0.001 A 
ATOM     76  C   UNL A   1      50.984  25.554  29.119  1.00  0.00     0.000 A 
ENDBRANCH  52  71
BRANCH  64  77
ATOM     77  C   UNL A   1      45.005  32.255  30.916  1.00  0.00    -0.014 A 
ATOM     78  C   UNL A   1      45.324  33.323  30.064  1.00  0.00     0.009 A 
ATOM     79  C   UNL A   1      45.109  32.436  32.304  1.00  0.00     0.009 A 
ATOM     80  C   UNL A   1      45.766  34.538  30.591  1.00  0.00     0.001 A 
ATOM     81  C   UNL A   1      45.526  33.658  32.829  1.00  0.00     0.001 A 
ATOM     82  C   UNL A   1      45.862  34.706  31.973  1.00  0.00     0.000 A 
ENDBRANCH  64  77
ENDBRANCH  38  39
ENDBRANCH  30  33
ENDBRANCH  28  29
ENDBRANCH  27  28
ENDBRANCH  26  27
ENDBRANCH   3  26
TORSDOF 15
ENDMDL
MODEL 2
REMARK VINA RESULT:     -11.0      3.805      8.827
REMARK SMILES C[C@@H](Oc1ccc(I)cc1)C(=O)NCc1ccc(C(=O)NCCCNC(=O)c2ccc(-c3c4nc(c(-c5ccccc5)c5ccc([nH]5)c(-c5ccccc5)c5nc(c(-c6ccccc6)c6ccc3[nH]6)C=C5)C=C4)cc2)cc1
REMARK SMILES IDX 19 1 20 2 21 3 18 5 15 6 16 7 77 8 17 9 76 10 14 11 13 12
REMARK SMILES IDX 11 13 12 14 2 16 1 17 3 18 4 19 5 20 10 21 6 22 9 23 7 24
REMARK SMILES IDX 8 25 22 26 23 27 24 28 25 29 26 30 27 32 28 33 29 34 75 35
REMARK SMILES IDX 30 36 74 37 31 38 32 39 33 40 68 41 34 42 73 43 67 44 69 45
REMARK SMILES IDX 35 46 72 47 66 48 65 49 36 51 58 52 43 53 57 54 44 55 47 56
REMARK SMILES IDX 56 57 70 58 45 59 46 60 55 62 71 63 48 64 37 65 38 66 42 67
REMARK SMILES IDX 39 68 41 69 40 70 59 71 60 72 64 73 61 74 63 75 62 76 49 77
REMARK SMILES IDX 50 78 54 79 51 80 53 81 52 82
REMARK H PARENT 21 4 13 15 25 31 69 50 47 61
REMARK Flexibility Score: inf
ROOT
ATOM      1  C   UNL A   1      33.065  29.210  24.576  1.00  0.00     0.251 C 
ATOM      2  O   UNL A   1      33.530  29.416  23.456  1.00  0.00    -0.269 OA
ATOM      3  N   UNL A   1      32.505  30.267  25.247  1.00  0.00    -0.352 N 
ATOM      4  H   UNL A   1      32.596  31.132  24.785  1.00  0.00     0.163 HD
ENDROOT
BRANCH   1   5
ATOM      5  C   UNL A   1      33.086  27.829  25.126  1.00  0.00     0.039 A 
ATOM      6  C   UNL A   1      33.004  25.246  26.273  1.00  0.00    -0.029 A 
ATOM      7  C   UNL A   1      32.023  26.194  26.585  1.00  0.00     0.006 A 
ATOM      8  C   UNL A   1      34.003  25.600  25.352  1.00  0.00     0.006 A 
ATOM      9  C   UNL A   1      32.062  27.471  26.013  1.00  0.00     0.014 A 
ATOM     10  C   UNL A   1      34.031  26.869  24.769  1.00  0.00     0.014 A 
BRANCH   6  11
ATOM     11  C   UNL A   1      33.066  23.867  26.884  1.00  0.00     0.151 C 
BRANCH  11  12
ATOM     12  N   UNL A   1      31.866  23.069  26.733  1.00  0.00    -0.349 N 
ATOM     13  C   UNL A   1      31.280  22.558  25.612  1.00  0.00     0.261 C 
ATOM     14  O   UNL A   1      30.305  21.816  25.770  1.00  0.00    -0.271 OA
ATOM     15  H   UNL A   1      31.401  22.859  27.575  1.00  0.00     0.163 HD
BRANCH  13  16
ATOM     16  C   UNL A   1      31.737  22.965  24.197  1.00  0.00     0.258 C 
ATOM     17  C   UNL A   1      32.423  21.759  23.559  1.00  0.00     0.064 C 
BRANCH  16  18
ATOM     18  O   UNL A   1      30.619  23.452  23.452  1.00  0.00    -0.481 OA
BRANCH  18  19
ATOM     19  C   UNL A   1      30.545  24.807  23.326  1.00  0.00     0.120 A 
ATOM     20  C   UNL A   1      31.370  25.490  22.435  1.00  0.00     0.047 A 
ATOM     21  C   UNL A   1      29.497  25.471  23.962  1.00  0.00     0.047 A 
ATOM     22  C   UNL A   1      31.182  26.856  22.215  1.00  0.00     0.018 A 
ATOM     23  C   UNL A   1      29.297  26.836  23.734  1.00  0.00     0.018 A 
ATOM     24  C   UNL A   1      30.144  27.523  22.863  1.00  0.00     0.013 A 
ATOM     25  I   UNL A   1      29.831  29.544  22.492  1.00  0.00    -0.044 I 
ENDBRANCH  18  19
ENDBRANCH  16  18
ENDBRANCH  13  16
ENDBRANCH  11  12
ENDBRANCH   6  11
ENDBRANCH   1   5
BRANCH   3  26
ATOM     26  C   UNL A   1      31.803  30.343  26.516  1.00  0.00     0.118 C 
BRANCH  26  27
ATOM     27  C   UNL A   1      31.502  31.791  26.898  1.00  0.00     0.042 C 
BRANCH  27  28
ATOM     28  C   UNL A   1      32.736  32.691  26.900  1.00  0.00     0.118 C 
BRANCH  28  29
ATOM     29  N   UNL A   1      32.509  33.927  27.633  1.00  0.00    -0.352 N 
ATOM     30  C   UNL A   1      33.166  34.438  28.724  1.00  0.00     0.251 C 
ATOM     31  H   UNL A   1      31.772  34.483  27.293  1.00  0.00     0.163 HD
ATOM     32  O   UNL A   1      32.686  35.391  29.327  1.00  0.00    -0.269 OA
BRANCH  30  33
ATOM     33  C   UNL A   1      34.440  33.844  29.188  1.00  0.00     0.039 A 
ATOM     34  C   UNL A   1      35.629  34.233  28.561  1.00  0.00     0.014 A 
ATOM     35  C   UNL A   1      34.468  32.871  30.190  1.00  0.00     0.014 A 
ATOM     36  C   UNL A   1      36.845  33.683  28.969  1.00  0.00     0.010 A 
ATOM     37  C   UNL A   1      35.688  32.371  30.642  1.00  0.00     0.010 A 
ATOM     38  C   UNL A   1      36.887  32.765  30.031  1.00  0.00    -0.014 A 
BRANCH  38  39
ATOM     39  C   UNL A   1      38.174  32.203  30.509  1.00  0.00     0.031 A 
ATOM     40  C   UNL A   1      38.709  30.926  29.924  1.00  0.00     0.074 A 
ATOM     41  C   UNL A   1      38.829  32.807  31.518  1.00  0.00     0.049 A 
ATOM     42  N   UNL A   1      39.783  30.252  30.254  1.00  0.00    -0.248 NA
ATOM     43  C   UNL A   1      37.922  30.311  28.843  1.00  0.00     0.031 C 
ATOM     44  C   UNL A   1      38.394  34.028  32.199  1.00  0.00     0.029 A 
ATOM     45  N   UNL A   1      39.996  32.467  32.155  1.00  0.00    -0.354 N 
ATOM     46  C   UNL A   1      39.786  29.127  29.440  1.00  0.00     0.074 A 
ATOM     47  C   UNL A   1      38.588  29.186  28.632  1.00  0.00     0.031 C 
ATOM     48  C   UNL A   1      39.292  34.345  33.145  1.00  0.00     0.029 A 
ATOM     49  C   UNL A   1      40.344  33.333  33.162  1.00  0.00     0.049 A 
ATOM     50  H   UNL A   1      40.532  31.676  31.914  1.00  0.00     0.167 HD
ATOM     51  C   UNL A   1      40.711  28.138  29.361  1.00  0.00     0.031 A 
ATOM     52  C   UNL A   1      41.390  33.314  34.008  1.00  0.00     0.031 A 
ATOM     53  C   UNL A   1      41.907  28.084  30.158  1.00  0.00     0.049 A 
ATOM     54  C   UNL A   1      42.404  32.211  33.902  1.00  0.00     0.074 A 
ATOM     55  C   UNL A   1      42.937  27.160  30.107  1.00  0.00     0.029 A 
ATOM     56  N   UNL A   1      42.232  28.990  31.155  1.00  0.00    -0.354 N 
ATOM     57  N   UNL A   1      42.430  31.191  33.080  1.00  0.00    -0.248 NA
ATOM     58  C   UNL A   1      43.539  32.267  34.833  1.00  0.00     0.031 C 
ATOM     59  C   UNL A   1      43.862  27.481  31.107  1.00  0.00     0.029 A 
ATOM     60  C   UNL A   1      43.432  28.634  31.746  1.00  0.00     0.049 A 
ATOM     61  H   UNL A   1      41.688  29.771  31.407  1.00  0.00     0.167 HD
ATOM     62  C   UNL A   1      43.592  30.493  33.379  1.00  0.00     0.074 A 
ATOM     63  C   UNL A   1      44.250  31.215  34.448  1.00  0.00     0.031 C 
ATOM     64  C   UNL A   1      44.070  29.357  32.816  1.00  0.00     0.031 A 
BRANCH  51  65
ATOM     65  C   UNL A   1      40.446  27.028  28.381  1.00  0.00    -0.014 A 
ATOM     66  C   UNL A   1      39.675  25.910  28.735  1.00  0.00     0.009 A 
ATOM     67  C   UNL A   1      40.971  27.105  27.082  1.00  0.00     0.009 A 
ATOM     68  C   UNL A   1      39.473  24.871  27.825  1.00  0.00     0.001 A 
ATOM     69  C   UNL A   1      40.743  26.078  26.163  1.00  0.00     0.001 A 
ATOM     70  C   UNL A   1      40.005  24.957  26.539  1.00  0.00     0.000 A 
ENDBRANCH  51  65
BRANCH  52  71
ATOM     71  C   UNL A   1      41.536  34.394  35.017  1.00  0.00    -0.014 A 
ATOM     72  C   UNL A   1      41.004  34.239  36.304  1.00  0.00     0.009 A 
ATOM     73  C   UNL A   1      42.235  35.571  34.706  1.00  0.00     0.009 A 
ATOM     74  C   UNL A   1      41.154  35.248  37.258  1.00  0.00     0.001 A 
ATOM     75  C   UNL A   1      42.405  36.568  35.669  1.00  0.00     0.001 A 
ATOM     76  C   UNL A   1      41.860  36.408  36.942  1.00  0.00     0.000 A 
ENDBRANCH  52  71
BRANCH  64  77
ATOM     77  C   UNL A   1      45.382  28.838  33.332  1.00  0.00    -0.014 A 
ATOM     78  C   UNL A   1      46.595  29.197  32.726  1.00  0.00     0.009 A 
ATOM     79  C   UNL A   1      45.405  28.009  34.465  1.00  0.00     0.009 A 
ATOM     80  C   UNL A   1      47.805  28.713  33.228  1.00  0.00     0.001 A 
ATOM     81  C   UNL A   1      46.616  27.547  34.979  1.00  0.00     0.001 A 
ATOM     82  C   UNL A   1      47.814  27.892  34.356  1.00  0.00     0.000 A 
ENDBRANCH  64  77
ENDBRANCH  38  39
ENDBRANCH  30  33
ENDBRANCH  28  29
ENDBRANCH  27  28
ENDBRANCH  26  27
ENDBRANCH   3  26
TORSDOF 15
ENDMDL
MODEL 3
REMARK VINA RESULT:     -10.9      3.531      8.576
REMARK SMILES C[C@@H](Oc1ccc(I)cc1)C(=O)NCc1ccc(C(=O)NCCCNC(=O)c2ccc(-c3c4nc(c(-c5ccccc5)c5ccc([nH]5)c(-c5ccccc5)c5nc(c(-c6ccccc6)c6ccc3[nH]6)C=C5)C=C4)cc2)cc1
REMARK SMILES IDX 19 1 20 2 21 3 18 5 15 6 16 7 77 8 17 9 76 10 14 11 13 12
REMARK SMILES IDX 11 13 12 14 2 16 1 17 3 18 4 19 5 20 10 21 6 22 9 23 7 24
REMARK SMILES IDX 8 25 22 26 23 27 24 28 25 29 26 30 27 32 28 33 29 34 75 35
REMARK SMILES IDX 30 36 74 37 31 38 32 39 33 40 68 41 34 42 73 43 67 44 69 45
REMARK SMILES IDX 35 46 72 47 66 48 65 49 36 51 58 52 43 53 57 54 44 55 47 56
REMARK SMILES IDX 56 57 70 58 45 59 46 60 55 62 71 63 48 64 37 65 38 66 42 67
REMARK SMILES IDX 39 68 41 69 40 70 59 71 60 72 64 73 61 74 63 75 62 76 49 77
REMARK SMILES IDX 50 78 54 79 51 80 53 81 52 82
REMARK H PARENT 21 4 13 15 25 31 69 50 47 61
REMARK Flexibility Score: inf
ROOT
ATOM      1  C   UNL A   1      33.065  29.151  24.486  1.00  0.00     0.251 C 
ATOM      2  O   UNL A   1      33.525  29.352  23.363  1.00  0.00    -0.269 OA
ATOM      3  N   UNL A   1      32.492  30.208  25.148  1.00  0.00    -0.352 N 
ATOM      4  H   UNL A   1      32.571  31.069  24.677  1.00  0.00     0.163 HD
ENDROOT
BRANCH   1   5
ATOM      5  C   UNL A   1      33.105  27.776  25.050  1.00  0.00     0.039 A 
ATOM      6  C   UNL A   1      33.060  25.204  26.223  1.00  0.00    -0.029 A 
ATOM      7  C   UNL A   1      32.072  26.146  26.535  1.00  0.00     0.006 A 
ATOM      8  C   UNL A   1      34.047  25.559  25.289  1.00  0.00     0.006 A 
ATOM      9  C   UNL A   1      32.093  27.417  25.949  1.00  0.00     0.014 A 
ATOM     10  C   UNL A   1      34.057  26.822  24.693  1.00  0.00     0.014 A 
BRANCH   6  11
ATOM     11  C   UNL A   1      33.142  23.832  26.847  1.00  0.00     0.151 C 
BRANCH  11  12
ATOM     12  N   UNL A   1      31.949  23.020  26.716  1.00  0.00    -0.349 N 
ATOM     13  C   UNL A   1      31.341  22.515  25.604  1.00  0.00     0.261 C 
ATOM     14  O   UNL A   1      30.380  21.760  25.778  1.00  0.00    -0.271 OA
ATOM     15  H   UNL A   1      31.507  22.796  27.567  1.00  0.00     0.163 HD
BRANCH  13  16
ATOM     16  C   UNL A   1      31.757  22.945  24.184  1.00  0.00     0.258 C 
ATOM     17  C   UNL A   1      32.442  21.755  23.514  1.00  0.00     0.064 C 
BRANCH  16  18
ATOM     18  O   UNL A   1      30.616  23.426  23.472  1.00  0.00    -0.481 OA
BRANCH  18  19
ATOM     19  C   UNL A   1      30.542  24.780  23.330  1.00  0.00     0.120 A 
ATOM     20  C   UNL A   1      31.353  25.449  22.415  1.00  0.00     0.047 A 
ATOM     21  C   UNL A   1      29.507  25.455  23.975  1.00  0.00     0.047 A 
ATOM     22  C   UNL A   1      31.164  26.813  22.181  1.00  0.00     0.018 A 
ATOM     23  C   UNL A   1      29.307  26.817  23.733  1.00  0.00     0.018 A 
ATOM     24  C   UNL A   1      30.140  27.490  22.838  1.00  0.00     0.013 A 
ATOM     25  I   UNL A   1      29.825  29.507  22.446  1.00  0.00    -0.044 I 
ENDBRANCH  18  19
ENDBRANCH  16  18
ENDBRANCH  13  16
ENDBRANCH  11  12
ENDBRANCH   6  11
ENDBRANCH   1   5
BRANCH   3  26
ATOM     26  C   UNL A   1      31.792  30.287  26.418  1.00  0.00     0.118 C 
BRANCH  26  27
ATOM     27  C   UNL A   1      31.492  31.736  26.796  1.00  0.00     0.042 C 
BRANCH  27  28
ATOM     28  C   UNL A   1      32.733  32.624  26.844  1.00  0.00     0.118 C 
BRANCH  28  29
ATOM     29  N   UNL A   1      32.507  33.837  27.614  1.00  0.00    -0.352 N 
ATOM     30  C   UNL A   1      33.184  34.331  28.701  1.00  0.00     0.251 C 
ATOM     31  H   UNL A   1      31.753  34.389  27.308  1.00  0.00     0.163 HD
ATOM     32  O   UNL A   1      32.706  35.261  29.340  1.00  0.00    -0.269 OA
BRANCH  30  33
ATOM     33  C   UNL A   1      34.479  33.746  29.117  1.00  0.00     0.039 A 
ATOM     34  C   UNL A   1      34.500  32.877  30.214  1.00  0.00     0.014 A 
ATOM     35  C   UNL A   1      35.672  34.088  28.477  1.00  0.00     0.014 A 
ATOM     36  C   UNL A   1      35.708  32.318  30.637  1.00  0.00     0.010 A 
ATOM     37  C   UNL A   1      36.867  33.479  28.857  1.00  0.00     0.010 A 
ATOM     38  C   UNL A   1      36.898  32.595  29.946  1.00  0.00    -0.014 A 
BRANCH  38  39
ATOM     39  C   UNL A   1      38.184  31.977  30.352  1.00  0.00     0.031 A 
ATOM     40  C   UNL A   1      39.092  32.679  31.322  1.00  0.00     0.074 A 
ATOM     41  C   UNL A   1      38.565  30.811  29.797  1.00  0.00     0.049 A 
ATOM     42  N   UNL A   1      40.279  32.324  31.748  1.00  0.00    -0.248 NA
ATOM     43  C   UNL A   1      38.617  33.963  31.864  1.00  0.00     0.031 C 
ATOM     44  C   UNL A   1      37.793  30.049  28.813  1.00  0.00     0.029 A 
ATOM     45  N   UNL A   1      39.706  30.070  29.973  1.00  0.00    -0.354 N 
ATOM     46  C   UNL A   1      40.699  33.348  32.587  1.00  0.00     0.074 A 
ATOM     47  C   UNL A   1      39.662  34.356  32.577  1.00  0.00     0.031 C 
ATOM     48  C   UNL A   1      38.473  28.939  28.488  1.00  0.00     0.029 A 
ATOM     49  C   UNL A   1      39.741  28.929  29.210  1.00  0.00     0.049 A 
ATOM     50  H   UNL A   1      40.430  30.331  30.587  1.00  0.00     0.167 HD
ATOM     51  C   UNL A   1      41.840  33.436  33.314  1.00  0.00     0.031 A 
ATOM     52  C   UNL A   1      40.690  27.981  29.099  1.00  0.00     0.031 A 
ATOM     53  C   UNL A   1      42.868  32.429  33.332  1.00  0.00     0.049 A 
ATOM     54  C   UNL A   1      41.946  28.097  29.915  1.00  0.00     0.074 A 
ATOM     55  C   UNL A   1      44.030  32.395  34.084  1.00  0.00     0.029 A 
ATOM     56  N   UNL A   1      42.858  31.280  32.557  1.00  0.00    -0.354 N 
ATOM     57  N   UNL A   1      42.298  29.036  30.757  1.00  0.00    -0.248 NA
ATOM     58  C   UNL A   1      42.928  27.012  29.772  1.00  0.00     0.031 C 
ATOM     59  C   UNL A   1      44.746  31.247  33.728  1.00  0.00     0.029 A 
ATOM     60  C   UNL A   1      44.006  30.541  32.793  1.00  0.00     0.049 A 
ATOM     61  H   UNL A   1      42.142  31.026  31.931  1.00  0.00     0.167 HD
ATOM     62  C   UNL A   1      43.533  28.650  31.262  1.00  0.00     0.074 A 
ATOM     63  C   UNL A   1      43.859  27.382  30.641  1.00  0.00     0.031 C 
ATOM     64  C   UNL A   1      44.322  29.287  32.160  1.00  0.00     0.031 A 
BRANCH  51  65
ATOM     65  C   UNL A   1      42.035  34.679  34.138  1.00  0.00    -0.014 A 
ATOM     66  C   UNL A   1      42.665  35.816  33.608  1.00  0.00     0.009 A 
ATOM     67  C   UNL A   1      41.574  34.716  35.463  1.00  0.00     0.009 A 
ATOM     68  C   UNL A   1      42.872  36.946  34.400  1.00  0.00     0.001 A 
ATOM     69  C   UNL A   1      41.755  35.859  36.245  1.00  0.00     0.001 A 
ATOM     70  C   UNL A   1      42.414  36.968  35.718  1.00  0.00     0.000 A 
ENDBRANCH  51  65
BRANCH  52  71
ATOM     71  C   UNL A   1      40.472  26.827  28.190  1.00  0.00    -0.014 A 
ATOM     72  C   UNL A   1      39.704  25.731  28.607  1.00  0.00     0.009 A 
ATOM     73  C   UNL A   1      41.005  26.831  26.891  1.00  0.00     0.009 A 
ATOM     74  C   UNL A   1      39.487  24.652  27.746  1.00  0.00     0.001 A 
ATOM     75  C   UNL A   1      40.765  25.763  26.025  1.00  0.00     0.001 A 
ATOM     76  C   UNL A   1      40.011  24.672  26.455  1.00  0.00     0.000 A 
ENDBRANCH  52  71
BRANCH  64  77
ATOM     77  C   UNL A   1      45.607  28.610  32.542  1.00  0.00    -0.014 A 
ATOM     78  C   UNL A   1      45.657  27.686  33.597  1.00  0.00     0.009 A 
ATOM     79  C   UNL A   1      46.776  28.872  31.811  1.00  0.00     0.009 A 
ATOM     80  C   UNL A   1      46.859  27.059  33.930  1.00  0.00     0.001 A 
ATOM     81  C   UNL A   1      47.970  28.225  32.129  1.00  0.00     0.001 A 
ATOM     82  C   UNL A   1      48.013  27.326  33.193  1.00  0.00     0.000 A 
ENDBRANCH  64  77
ENDBRANCH  38  39
ENDBRANCH  30  33
ENDBRANCH  28  29
ENDBRANCH  27  28
ENDBRANCH  26  27
ENDBRANCH   3  26
TORSDOF 15
ENDMDL
