MODEL 1
REMARK VINA RESULT:     -13.5      0.000      0.000
REMARK SMILES Cc1ccc(-c2nc(NC(=O)[C@H]3[C@@H](C(=O)NCCCNC(=O)c4ccc(-c5c6nc(c(-c7ccccc7)c7ccc([nH]7)c(-c7ccccc7)c7nc(c(-c8ccccc8)c8ccc5[nH]8)C=C7)C=C6)cc4)[C@@H]4CC[C@H]3O4)sc2C)cc1
REMARK SMILES IDX 17 1 16 2 14 3 15 4 13 6 12 7 74 8 71 9 73 10 75 11 72 12
REMARK SMILES IDX 10 13 9 14 11 16 8 17 6 18 7 19 77 20 76 21 78 22 5 23 1 24
REMARK SMILES IDX 2 25 3 26 80 27 4 28 79 29 18 30 19 31 20 32 21 33 22 35
REMARK SMILES IDX 23 36 24 37 70 38 25 39 69 40 26 41 27 42 28 43 63 44 29 45
REMARK SMILES IDX 68 46 62 47 64 48 30 49 67 50 61 51 60 52 31 54 53 55 38 56
REMARK SMILES IDX 52 57 39 58 42 59 51 60 65 61 40 62 41 63 50 65 66 66 43 67
REMARK SMILES IDX 32 68 33 69 37 70 34 71 36 72 35 73 54 74 55 75 59 76 56 77
REMARK SMILES IDX 58 78 57 79 44 80 45 81 49 82 46 83 48 84 47 85
REMARK H PARENT 16 5 9 15 20 34 64 53 42 64
REMARK Flexibility Score: inf
ROOT
ATOM      1  C   UNL A   1      33.020  30.329  26.346  1.00  0.00     0.117 C 
ENDROOT
BRANCH   1   2
ATOM      2  N   UNL A   1      33.689  29.403  25.450  1.00  0.00    -0.356 N 
ATOM      3  C   UNL A   1      33.196  29.011  24.238  1.00  0.00     0.226 C 
ATOM      4  O   UNL A   1      33.872  29.277  23.243  1.00  0.00    -0.275 OA
ATOM      5  H   UNL A   1      34.557  29.033  25.734  1.00  0.00     0.163 HD
BRANCH   3   6
ATOM      6  C   UNL A   1      31.812  28.412  24.148  1.00  0.00     0.122 C 
ATOM      7  C   UNL A   1      31.098  27.560  25.216  1.00  0.00     0.123 C 
ATOM      8  C   UNL A   1      30.193  26.714  24.301  1.00  0.00     0.132 C 
ATOM      9  C   UNL A   1      31.599  27.542  22.871  1.00  0.00     0.132 C 
ATOM     10  C   UNL A   1      29.311  27.591  23.372  1.00  0.00     0.035 C 
ATOM     11  O   UNL A   1      31.201  26.242  23.390  1.00  0.00    -0.373 OA
ATOM     12  C   UNL A   1      30.276  27.934  22.229  1.00  0.00     0.035 C 
BRANCH   7  13
ATOM     13  C   UNL A   1      31.537  26.664  26.412  1.00  0.00     0.232 C 
ATOM     14  N   UNL A   1      32.124  25.456  26.546  1.00  0.00    -0.302 N 
ATOM     15  H   UNL A   1      32.079  25.135  27.477  1.00  0.00     0.172 HD
ATOM     16  O   UNL A   1      31.215  27.139  27.527  1.00  0.00    -0.274 OA
BRANCH  14  17
ATOM     17  C   UNL A   1      32.765  24.559  25.740  1.00  0.00     0.190 A 
ATOM     18  C   UNL A   1      33.366  22.621  24.800  1.00  0.00     0.086 A 
ATOM     19  N   UNL A   1      32.417  23.292  25.597  1.00  0.00    -0.220 NA
ATOM     20  C   UNL A   1      34.352  23.458  24.295  1.00  0.00     0.031 A 
ATOM     21  S   UNL A   1      34.084  25.036  24.846  1.00  0.00    -0.101 S 
ATOM     22  C   UNL A   1      35.516  23.262  23.392  1.00  0.00     0.059 C 
BRANCH  18  23
ATOM     23  C   UNL A   1      33.331  21.178  24.512  1.00  0.00     0.001 A 
ATOM     24  C   UNL A   1      33.651  17.004  23.349  1.00  0.00     0.044 C 
ATOM     25  C   UNL A   1      33.515  18.438  23.773  1.00  0.00    -0.051 A 
ATOM     26  C   UNL A   1      32.457  19.238  23.319  1.00  0.00     0.004 A 
ATOM     27  C   UNL A   1      34.447  19.000  24.645  1.00  0.00     0.004 A 
ATOM     28  C   UNL A   1      32.365  20.598  23.682  1.00  0.00     0.010 A 
ATOM     29  C   UNL A   1      34.339  20.341  25.023  1.00  0.00     0.010 A 
ENDBRANCH  18  23
ENDBRANCH  14  17
ENDBRANCH   7  13
ENDBRANCH   3   6
ENDBRANCH   1   2
BRANCH   1  30
ATOM     30  C   UNL A   1      33.735  30.624  27.647  1.00  0.00     0.042 C 
BRANCH  30  31
ATOM     31  C   UNL A   1      34.324  32.022  27.747  1.00  0.00     0.118 C 
BRANCH  31  32
ATOM     32  N   UNL A   1      34.784  32.285  29.095  1.00  0.00    -0.352 N 
ATOM     33  C   UNL A   1      35.563  31.563  29.979  1.00  0.00     0.251 C 
ATOM     34  H   UNL A   1      34.480  33.150  29.453  1.00  0.00     0.163 HD
ATOM     35  O   UNL A   1      35.542  31.884  31.139  1.00  0.00    -0.269 OA
BRANCH  33  36
ATOM     36  C   UNL A   1      36.553  30.550  29.500  1.00  0.00     0.039 A 
ATOM     37  C   UNL A   1      36.692  29.417  30.323  1.00  0.00     0.014 A 
ATOM     38  C   UNL A   1      37.440  30.737  28.446  1.00  0.00     0.014 A 
ATOM     39  C   UNL A   1      37.831  28.622  30.234  1.00  0.00     0.010 A 
ATOM     40  C   UNL A   1      38.591  29.978  28.378  1.00  0.00     0.010 A 
ATOM     41  C   UNL A   1      38.818  28.981  29.325  1.00  0.00    -0.014 A 
BRANCH  41  42
ATOM     42  C   UNL A   1      40.172  28.464  29.363  1.00  0.00     0.031 A 
ATOM     43  C   UNL A   1      40.493  27.155  28.783  1.00  0.00     0.074 A 
ATOM     44  C   UNL A   1      41.141  29.265  29.851  1.00  0.00     0.049 A 
ATOM     45  N   UNL A   1      41.520  26.451  29.115  1.00  0.00    -0.248 NA
ATOM     46  C   UNL A   1      39.631  26.507  27.804  1.00  0.00     0.031 C 
ATOM     47  C   UNL A   1      42.584  29.108  29.729  1.00  0.00     0.029 A 
ATOM     48  N   UNL A   1      40.977  30.306  30.767  1.00  0.00    -0.354 N 
ATOM     49  C   UNL A   1      41.628  25.435  28.195  1.00  0.00     0.074 A 
ATOM     50  C   UNL A   1      40.369  25.441  27.482  1.00  0.00     0.031 C 
ATOM     51  C   UNL A   1      43.178  29.819  30.703  1.00  0.00     0.029 A 
ATOM     52  C   UNL A   1      42.125  30.310  31.578  1.00  0.00     0.049 A 
ATOM     53  H   UNL A   1      40.207  30.917  30.831  1.00  0.00     0.167 HD
ATOM     54  C   UNL A   1      42.831  24.815  28.032  1.00  0.00     0.031 A 
ATOM     55  C   UNL A   1      42.031  30.027  32.911  1.00  0.00     0.031 A 
ATOM     56  C   UNL A   1      43.817  25.287  29.007  1.00  0.00     0.049 A 
ATOM     57  C   UNL A   1      42.816  28.803  33.328  1.00  0.00     0.074 A 
ATOM     58  C   UNL A   1      44.874  26.179  28.923  1.00  0.00     0.029 A 
ATOM     59  N   UNL A   1      43.596  25.067  30.363  1.00  0.00    -0.354 N 
ATOM     60  N   UNL A   1      43.206  27.867  32.508  1.00  0.00    -0.248 NA
ATOM     61  C   UNL A   1      43.197  28.526  34.710  1.00  0.00     0.031 C 
ATOM     62  C   UNL A   1      45.245  26.547  30.243  1.00  0.00     0.029 A 
ATOM     63  C   UNL A   1      44.436  25.854  31.126  1.00  0.00     0.049 A 
ATOM     64  H   UNL A   1      42.933  24.436  30.727  1.00  0.00     0.167 HD
ATOM     65  C   UNL A   1      43.875  26.894  33.203  1.00  0.00     0.074 A 
ATOM     66  C   UNL A   1      43.850  27.357  34.579  1.00  0.00     0.031 C 
ATOM     67  C   UNL A   1      44.383  25.788  32.582  1.00  0.00     0.031 A 
BRANCH  54  68
ATOM     68  C   UNL A   1      43.202  24.012  26.804  1.00  0.00    -0.014 A 
ATOM     69  C   UNL A   1      43.036  22.614  26.814  1.00  0.00     0.009 A 
ATOM     70  C   UNL A   1      43.775  24.546  25.638  1.00  0.00     0.009 A 
ATOM     71  C   UNL A   1      43.501  21.798  25.772  1.00  0.00     0.001 A 
ATOM     72  C   UNL A   1      44.271  23.738  24.606  1.00  0.00     0.001 A 
ATOM     73  C   UNL A   1      44.145  22.359  24.678  1.00  0.00     0.000 A 
ENDBRANCH  54  68
BRANCH  55  74
ATOM     74  C   UNL A   1      40.736  30.449  33.521  1.00  0.00    -0.014 A 
ATOM     75  C   UNL A   1      40.536  31.819  33.785  1.00  0.00     0.009 A 
ATOM     76  C   UNL A   1      39.616  29.606  33.483  1.00  0.00     0.009 A 
ATOM     77  C   UNL A   1      39.247  32.349  33.891  1.00  0.00     0.001 A 
ATOM     78  C   UNL A   1      38.327  30.140  33.603  1.00  0.00     0.001 A 
ATOM     79  C   UNL A   1      38.142  31.512  33.769  1.00  0.00     0.000 A 
ENDBRANCH  55  74
BRANCH  67  80
ATOM     80  C   UNL A   1      44.942  24.553  33.253  1.00  0.00    -0.014 A 
ATOM     81  C   UNL A   1      46.226  24.451  33.800  1.00  0.00     0.009 A 
ATOM     82  C   UNL A   1      44.081  23.450  33.467  1.00  0.00     0.009 A 
ATOM     83  C   UNL A   1      46.641  23.300  34.485  1.00  0.00     0.001 A 
ATOM     84  C   UNL A   1      44.473  22.321  34.190  1.00  0.00     0.001 A 
ATOM     85  C   UNL A   1      45.761  22.242  34.692  1.00  0.00     0.000 A 
ENDBRANCH  67  80
ENDBRANCH  41  42
ENDBRANCH  33  36
ENDBRANCH  31  32
ENDBRANCH  30  31
ENDBRANCH   1  30
TORSDOF 13
ENDMDL
MODEL 2
REMARK VINA RESULT:     -13.4      3.383      9.047
REMARK SMILES Cc1ccc(-c2nc(NC(=O)[C@H]3[C@@H](C(=O)NCCCNC(=O)c4ccc(-c5c6nc(c(-c7ccccc7)c7ccc([nH]7)c(-c7ccccc7)c7nc(c(-c8ccccc8)c8ccc5[nH]8)C=C7)C=C6)cc4)[C@@H]4CC[C@H]3O4)sc2C)cc1
REMARK SMILES IDX 17 1 16 2 14 3 15 4 13 6 12 7 74 8 71 9 73 10 75 11 72 12
REMARK SMILES IDX 10 13 9 14 11 16 8 17 6 18 7 19 77 20 76 21 78 22 5 23 1 24
REMARK SMILES IDX 2 25 3 26 80 27 4 28 79 29 18 30 19 31 20 32 21 33 22 35
REMARK SMILES IDX 23 36 24 37 70 38 25 39 69 40 26 41 27 42 28 43 63 44 29 45
REMARK SMILES IDX 68 46 62 47 64 48 30 49 67 50 61 51 60 52 31 54 53 55 38 56
REMARK SMILES IDX 52 57 39 58 42 59 51 60 65 61 40 62 41 63 50 65 66 66 43 67
REMARK SMILES IDX 32 68 33 69 37 70 34 71 36 72 35 73 54 74 55 75 59 76 56 77
REMARK SMILES IDX 58 78 57 79 44 80 45 81 49 82 46 83 48 84 47 85
REMARK H PARENT 16 5 9 15 20 34 64 53 42 64
REMARK Flexibility Score: inf
ROOT
ATOM      1  C   UNL A   1      36.483  20.816  25.445  1.00  0.00     0.117 C 
ENDROOT
BRANCH   1   2
ATOM      2  N   UNL A   1      35.824  21.602  26.472  1.00  0.00    -0.356 N 
ATOM      3  C   UNL A   1      34.475  21.619  26.683  1.00  0.00     0.226 C 
ATOM      4  O   UNL A   1      34.073  21.239  27.785  1.00  0.00    -0.275 OA
ATOM      5  H   UNL A   1      36.386  22.161  27.056  1.00  0.00     0.163 HD
BRANCH   3   6
ATOM      6  C   UNL A   1      33.539  21.952  25.545  1.00  0.00     0.122 C 
ATOM      7  C   UNL A   1      32.646  23.202  25.413  1.00  0.00     0.123 C 
ATOM      8  C   UNL A   1      31.511  22.612  24.555  1.00  0.00     0.132 C 
ATOM      9  C   UNL A   1      32.520  20.814  25.231  1.00  0.00     0.132 C 
ATOM     10  C   UNL A   1      32.039  21.963  23.247  1.00  0.00     0.035 C 
ATOM     11  O   UNL A   1      31.220  21.456  25.360  1.00  0.00    -0.373 OA
ATOM     12  C   UNL A   1      32.498  20.580  23.727  1.00  0.00     0.035 C 
BRANCH   7  13
ATOM     13  C   UNL A   1      32.015  24.236  26.392  1.00  0.00     0.232 C 
ATOM     14  N   UNL A   1      31.876  25.578  26.419  1.00  0.00    -0.302 N 
ATOM     15  H   UNL A   1      31.574  25.892  27.302  1.00  0.00     0.172 HD
ATOM     16  O   UNL A   1      31.584  23.713  27.448  1.00  0.00    -0.274 OA
BRANCH  14  17
ATOM     17  C   UNL A   1      32.041  26.619  25.549  1.00  0.00     0.190 A 
ATOM     18  C   UNL A   1      31.561  28.336  24.201  1.00  0.00     0.086 A 
ATOM     19  N   UNL A   1      31.093  27.476  25.214  1.00  0.00    -0.220 NA
ATOM     20  C   UNL A   1      32.898  28.138  23.883  1.00  0.00     0.031 A 
ATOM     21  S   UNL A   1      33.518  26.878  24.830  1.00  0.00    -0.101 S 
ATOM     22  C   UNL A   1      33.851  28.792  22.949  1.00  0.00     0.059 C 
BRANCH  18  23
ATOM     23  C   UNL A   1      30.735  29.356  23.534  1.00  0.00     0.001 A 
ATOM     24  C   UNL A   1      27.878  32.142  21.814  1.00  0.00     0.044 C 
ATOM     25  C   UNL A   1      28.891  31.197  22.394  1.00  0.00    -0.051 A 
ATOM     26  C   UNL A   1      29.513  30.217  21.606  1.00  0.00     0.004 A 
ATOM     27  C   UNL A   1      29.240  31.287  23.741  1.00  0.00     0.004 A 
ATOM     28  C   UNL A   1      30.426  29.302  22.170  1.00  0.00     0.010 A 
ATOM     29  C   UNL A   1      30.164  30.394  24.292  1.00  0.00     0.010 A 
ENDBRANCH  18  23
ENDBRANCH  14  17
ENDBRANCH   7  13
ENDBRANCH   3   6
ENDBRANCH   1   2
BRANCH   1  30
ATOM     30  C   UNL A   1      37.740  21.418  24.856  1.00  0.00     0.042 C 
BRANCH  30  31
ATOM     31  C   UNL A   1      38.169  22.735  25.481  1.00  0.00     0.118 C 
BRANCH  31  32
ATOM     32  N   UNL A   1      39.434  22.584  26.169  1.00  0.00    -0.352 N 
ATOM     33  C   UNL A   1      40.300  23.489  26.753  1.00  0.00     0.251 C 
ATOM     34  H   UNL A   1      39.738  21.650  26.233  1.00  0.00     0.163 HD
ATOM     35  O   UNL A   1      41.421  23.123  26.991  1.00  0.00    -0.269 OA
BRANCH  33  36
ATOM     36  C   UNL A   1      39.822  24.812  27.258  1.00  0.00     0.039 A 
ATOM     37  C   UNL A   1      40.221  25.923  26.493  1.00  0.00     0.014 A 
ATOM     38  C   UNL A   1      39.199  25.022  28.484  1.00  0.00     0.014 A 
ATOM     39  C   UNL A   1      40.208  27.199  27.049  1.00  0.00     0.010 A 
ATOM     40  C   UNL A   1      39.221  26.277  29.057  1.00  0.00     0.010 A 
ATOM     41  C   UNL A   1      39.802  27.340  28.369  1.00  0.00    -0.014 A 
BRANCH  41  42
ATOM     42  C   UNL A   1      40.060  28.523  29.167  1.00  0.00     0.031 A 
ATOM     43  C   UNL A   1      39.032  29.558  29.331  1.00  0.00     0.074 A 
ATOM     44  C   UNL A   1      41.229  28.592  29.837  1.00  0.00     0.049 A 
ATOM     45  N   UNL A   1      39.283  30.780  29.653  1.00  0.00    -0.248 NA
ATOM     46  C   UNL A   1      37.621  29.295  29.085  1.00  0.00     0.031 C 
ATOM     47  C   UNL A   1      41.597  29.503  30.913  1.00  0.00     0.029 A 
ATOM     48  N   UNL A   1      42.420  27.948  29.499  1.00  0.00    -0.354 N 
ATOM     49  C   UNL A   1      38.081  31.372  29.960  1.00  0.00     0.074 A 
ATOM     50  C   UNL A   1      37.076  30.452  29.475  1.00  0.00     0.031 C 
ATOM     51  C   UNL A   1      42.937  29.563  30.985  1.00  0.00     0.029 A 
ATOM     52  C   UNL A   1      43.462  28.824  29.847  1.00  0.00     0.049 A 
ATOM     53  H   UNL A   1      42.511  27.054  29.095  1.00  0.00     0.167 HD
ATOM     54  C   UNL A   1      38.075  32.492  30.736  1.00  0.00     0.031 A 
ATOM     55  C   UNL A   1      44.268  29.359  28.882  1.00  0.00     0.031 A 
ATOM     56  C   UNL A   1      39.434  32.961  31.018  1.00  0.00     0.049 A 
ATOM     57  C   UNL A   1      44.207  30.868  28.809  1.00  0.00     0.074 A 
ATOM     58  C   UNL A   1      40.259  32.851  32.126  1.00  0.00     0.029 A 
ATOM     59  N   UNL A   1      40.243  33.380  29.967  1.00  0.00    -0.354 N 
ATOM     60  N   UNL A   1      43.230  31.587  29.288  1.00  0.00    -0.248 NA
ATOM     61  C   UNL A   1      45.232  31.683  28.163  1.00  0.00     0.031 C 
ATOM     62  C   UNL A   1      41.586  33.144  31.718  1.00  0.00     0.029 A 
ATOM     63  C   UNL A   1      41.561  33.463  30.372  1.00  0.00     0.049 A 
ATOM     64  H   UNL A   1      39.920  33.591  29.061  1.00  0.00     0.167 HD
ATOM     65  C   UNL A   1      43.470  32.914  29.043  1.00  0.00     0.074 A 
ATOM     66  C   UNL A   1      44.742  32.923  28.342  1.00  0.00     0.031 C 
ATOM     67  C   UNL A   1      42.594  33.887  29.432  1.00  0.00     0.031 A 
BRANCH  54  68
ATOM     68  C   UNL A   1      36.858  32.984  31.490  1.00  0.00    -0.014 A 
ATOM     69  C   UNL A   1      36.619  32.521  32.798  1.00  0.00     0.009 A 
ATOM     70  C   UNL A   1      35.879  33.842  30.963  1.00  0.00     0.009 A 
ATOM     71  C   UNL A   1      35.436  32.817  33.492  1.00  0.00     0.001 A 
ATOM     72  C   UNL A   1      34.680  34.118  31.634  1.00  0.00     0.001 A 
ATOM     73  C   UNL A   1      34.452  33.595  32.897  1.00  0.00     0.000 A 
ENDBRANCH  54  68
BRANCH  55  74
ATOM     74  C   UNL A   1      44.465  28.463  27.706  1.00  0.00    -0.014 A 
ATOM     75  C   UNL A   1      45.108  27.225  27.908  1.00  0.00     0.009 A 
ATOM     76  C   UNL A   1      43.719  28.644  26.532  1.00  0.00     0.009 A 
ATOM     77  C   UNL A   1      44.913  26.162  27.021  1.00  0.00     0.001 A 
ATOM     78  C   UNL A   1      43.537  27.580  25.640  1.00  0.00     0.001 A 
ATOM     79  C   UNL A   1      44.102  26.331  25.903  1.00  0.00     0.000 A 
ENDBRANCH  55  74
BRANCH  67  80
ATOM     80  C   UNL A   1      42.630  35.346  29.037  1.00  0.00    -0.014 A 
ATOM     81  C   UNL A   1      43.366  36.336  29.699  1.00  0.00     0.009 A 
ATOM     82  C   UNL A   1      41.982  35.741  27.842  1.00  0.00     0.009 A 
ATOM     83  C   UNL A   1      43.420  37.653  29.218  1.00  0.00     0.001 A 
ATOM     84  C   UNL A   1      42.073  37.039  27.333  1.00  0.00     0.001 A 
ATOM     85  C   UNL A   1      42.785  38.001  28.030  1.00  0.00     0.000 A 
ENDBRANCH  67  80
ENDBRANCH  41  42
ENDBRANCH  33  36
ENDBRANCH  31  32
ENDBRANCH  30  31
ENDBRANCH   1  30
TORSDOF 13
ENDMDL
MODEL 3
REMARK VINA RESULT:     -13.3      2.263      3.722
REMARK SMILES Cc1ccc(-c2nc(NC(=O)[C@H]3[C@@H](C(=O)NCCCNC(=O)c4ccc(-c5c6nc(c(-c7ccccc7)c7ccc([nH]7)c(-c7ccccc7)c7nc(c(-c8ccccc8)c8ccc5[nH]8)C=C7)C=C6)cc4)[C@@H]4CC[C@H]3O4)sc2C)cc1
REMARK SMILES IDX 17 1 16 2 14 3 15 4 13 6 12 7 74 8 71 9 73 10 75 11 72 12
REMARK SMILES IDX 10 13 9 14 11 16 8 17 6 18 7 19 77 20 76 21 78 22 5 23 1 24
REMARK SMILES IDX 2 25 3 26 80 27 4 28 79 29 18 30 19 31 20 32 21 33 22 35
REMARK SMILES IDX 23 36 24 37 70 38 25 39 69 40 26 41 27 42 28 43 63 44 29 45
REMARK SMILES IDX 68 46 62 47 64 48 30 49 67 50 61 51 60 52 31 54 53 55 38 56
REMARK SMILES IDX 52 57 39 58 42 59 51 60 65 61 40 62 41 63 50 65 66 66 43 67
REMARK SMILES IDX 32 68 33 69 37 70 34 71 36 72 35 73 54 74 55 75 59 76 56 77
REMARK SMILES IDX 58 78 57 79 44 80 45 81 49 82 46 83 48 84 47 85
REMARK H PARENT 16 5 9 15 20 34 64 53 42 64
REMARK Flexibility Score: inf
ROOT
ATOM      1  C   UNL A   1      33.344  29.400  25.887  1.00  0.00     0.117 C 
ENDROOT
BRANCH   1   2
ATOM      2  N   UNL A   1      33.716  28.115  26.449  1.00  0.00    -0.356 N 
ATOM      3  C   UNL A   1      33.473  26.912  25.849  1.00  0.00     0.226 C 
ATOM      4  O   UNL A   1      34.450  26.217  25.565  1.00  0.00    -0.275 OA
ATOM      5  H   UNL A   1      34.175  28.108  27.320  1.00  0.00     0.163 HD
BRANCH   3   6
ATOM      6  C   UNL A   1      32.066  26.549  25.434  1.00  0.00     0.122 C 
ATOM      7  C   UNL A   1      31.236  25.345  25.922  1.00  0.00     0.123 C 
ATOM      8  C   UNL A   1      30.347  25.133  24.682  1.00  0.00     0.132 C 
ATOM      9  C   UNL A   1      31.888  26.438  23.888  1.00  0.00     0.132 C 
ATOM     10  C   UNL A   1      29.579  26.421  24.281  1.00  0.00     0.035 C 
ATOM     11  O   UNL A   1      31.384  25.087  23.687  1.00  0.00    -0.373 OA
ATOM     12  C   UNL A   1      30.635  27.200  23.485  1.00  0.00     0.035 C 
BRANCH   7  13
ATOM     13  C   UNL A   1      31.545  23.945  26.532  1.00  0.00     0.232 C 
ATOM     14  N   UNL A   1      32.520  23.024  26.386  1.00  0.00    -0.302 N 
ATOM     15  H   UNL A   1      32.277  22.171  26.813  1.00  0.00     0.172 HD
ATOM     16  O   UNL A   1      30.641  23.533  27.298  1.00  0.00    -0.274 OA
BRANCH  14  17
ATOM     17  C   UNL A   1      33.755  22.957  25.807  1.00  0.00     0.190 A 
ATOM     18  C   UNL A   1      35.979  22.982  25.571  1.00  0.00     0.086 A 
ATOM     19  N   UNL A   1      34.897  22.909  26.471  1.00  0.00    -0.220 NA
ATOM     20  C   UNL A   1      35.588  22.986  24.239  1.00  0.00     0.031 A 
ATOM     21  S   UNL A   1      33.898  22.928  24.150  1.00  0.00    -0.101 S 
ATOM     22  C   UNL A   1      36.318  23.003  22.944  1.00  0.00     0.059 C 
BRANCH  18  23
ATOM     23  C   UNL A   1      37.391  23.041  25.980  1.00  0.00     0.001 A 
ATOM     24  C   UNL A   1      41.427  22.888  27.585  1.00  0.00     0.044 C 
ATOM     25  C   UNL A   1      40.044  22.960  27.003  1.00  0.00    -0.051 A 
ATOM     26  C   UNL A   1      39.265  24.121  27.108  1.00  0.00     0.004 A 
ATOM     27  C   UNL A   1      39.510  21.860  26.332  1.00  0.00     0.004 A 
ATOM     28  C   UNL A   1      37.949  24.163  26.604  1.00  0.00     0.010 A 
ATOM     29  C   UNL A   1      38.214  21.913  25.812  1.00  0.00     0.010 A 
ENDBRANCH  18  23
ENDBRANCH  14  17
ENDBRANCH   7  13
ENDBRANCH   3   6
ENDBRANCH   1   2
BRANCH   1  30
ATOM     30  C   UNL A   1      32.897  30.452  26.880  1.00  0.00     0.042 C 
BRANCH  30  31
ATOM     31  C   UNL A   1      34.026  31.150  27.619  1.00  0.00     0.118 C 
BRANCH  31  32
ATOM     32  N   UNL A   1      33.636  32.494  27.991  1.00  0.00    -0.352 N 
ATOM     33  C   UNL A   1      34.035  33.341  29.008  1.00  0.00     0.251 C 
ATOM     34  H   UNL A   1      32.949  32.882  27.402  1.00  0.00     0.163 HD
ATOM     35  O   UNL A   1      33.334  34.286  29.262  1.00  0.00    -0.269 OA
BRANCH  33  36
ATOM     36  C   UNL A   1      35.382  33.216  29.645  1.00  0.00     0.039 A 
ATOM     37  C   UNL A   1      36.447  33.753  28.898  1.00  0.00     0.014 A 
ATOM     38  C   UNL A   1      35.661  32.468  30.783  1.00  0.00     0.014 A 
ATOM     39  C   UNL A   1      37.755  33.353  29.155  1.00  0.00     0.010 A 
ATOM     40  C   UNL A   1      36.950  32.035  31.019  1.00  0.00     0.010 A 
ATOM     41  C   UNL A   1      37.974  32.412  30.152  1.00  0.00    -0.014 A 
BRANCH  41  42
ATOM     42  C   UNL A   1      39.208  31.664  30.294  1.00  0.00     0.031 A 
ATOM     43  C   UNL A   1      39.384  30.370  29.626  1.00  0.00     0.074 A 
ATOM     44  C   UNL A   1      40.224  32.242  30.968  1.00  0.00     0.049 A 
ATOM     45  N   UNL A   1      40.229  29.472  30.002  1.00  0.00    -0.248 NA
ATOM     46  C   UNL A   1      38.562  29.962  28.495  1.00  0.00     0.031 C 
ATOM     47  C   UNL A   1      41.625  31.845  30.998  1.00  0.00     0.029 A 
ATOM     48  N   UNL A   1      40.115  33.220  31.959  1.00  0.00    -0.354 N 
ATOM     49  C   UNL A   1      40.287  28.530  29.003  1.00  0.00     0.074 A 
ATOM     50  C   UNL A   1      39.151  28.812  28.155  1.00  0.00     0.031 C 
ATOM     51  C   UNL A   1      42.195  32.361  32.100  1.00  0.00     0.029 A 
ATOM     52  C   UNL A   1      41.132  32.959  32.893  1.00  0.00     0.049 A 
ATOM     53  H   UNL A   1      39.454  33.949  31.995  1.00  0.00     0.167 HD
ATOM     54  C   UNL A   1      41.383  27.723  28.918  1.00  0.00     0.031 A 
ATOM     55  C   UNL A   1      40.820  32.592  34.171  1.00  0.00     0.031 A 
ATOM     56  C   UNL A   1      42.298  27.936  30.043  1.00  0.00     0.049 A 
ATOM     57  C   UNL A   1      41.332  31.220  34.551  1.00  0.00     0.074 A 
ATOM     58  C   UNL A   1      43.488  28.633  30.171  1.00  0.00     0.029 A 
ATOM     59  N   UNL A   1      41.869  27.652  31.335  1.00  0.00    -0.354 N 
ATOM     60  N   UNL A   1      41.667  30.298  33.691  1.00  0.00    -0.248 NA
ATOM     61  C   UNL A   1      41.479  30.772  35.933  1.00  0.00     0.031 C 
ATOM     62  C   UNL A   1      43.739  28.824  31.555  1.00  0.00     0.029 A 
ATOM     63  C   UNL A   1      42.720  28.216  32.265  1.00  0.00     0.049 A 
ATOM     64  H   UNL A   1      41.070  27.120  31.556  1.00  0.00     0.167 HD
ATOM     65  C   UNL A   1      42.071  29.170  34.358  1.00  0.00     0.074 A 
ATOM     66  C   UNL A   1      41.943  29.521  35.761  1.00  0.00     0.031 C 
ATOM     67  C   UNL A   1      42.467  28.046  33.692  1.00  0.00     0.031 A 
BRANCH  54  68
ATOM     68  C   UNL A   1      41.774  26.967  27.667  1.00  0.00    -0.014 A 
ATOM     69  C   UNL A   1      42.955  26.200  27.661  1.00  0.00     0.009 A 
ATOM     70  C   UNL A   1      41.076  27.014  26.449  1.00  0.00     0.009 A 
ATOM     71  C   UNL A   1      43.453  25.602  26.494  1.00  0.00     0.001 A 
ATOM     72  C   UNL A   1      41.581  26.448  25.270  1.00  0.00     0.001 A 
ATOM     73  C   UNL A   1      42.778  25.750  25.290  1.00  0.00     0.000 A 
ENDBRANCH  54  68
BRANCH  55  74
ATOM     74  C   UNL A   1      39.544  33.184  34.667  1.00  0.00    -0.014 A 
ATOM     75  C   UNL A   1      38.334  32.539  34.337  1.00  0.00     0.009 A 
ATOM     76  C   UNL A   1      39.543  34.105  35.724  1.00  0.00     0.009 A 
ATOM     77  C   UNL A   1      37.188  32.722  35.117  1.00  0.00     0.001 A 
ATOM     78  C   UNL A   1      38.388  34.294  36.495  1.00  0.00     0.001 A 
ATOM     79  C   UNL A   1      37.225  33.576  36.214  1.00  0.00     0.000 A 
ENDBRANCH  55  74
BRANCH  67  80
ATOM     80  C   UNL A   1      42.723  26.683  34.294  1.00  0.00    -0.014 A 
ATOM     81  C   UNL A   1      43.953  26.014  34.266  1.00  0.00     0.009 A 
ATOM     82  C   UNL A   1      41.697  26.074  35.056  1.00  0.00     0.009 A 
ATOM     83  C   UNL A   1      44.135  24.789  34.926  1.00  0.00     0.001 A 
ATOM     84  C   UNL A   1      41.887  24.880  35.755  1.00  0.00     0.001 A 
ATOM     85  C   UNL A   1      43.108  24.230  35.680  1.00  0.00     0.000 A 
ENDBRANCH  67  80
ENDBRANCH  41  42
ENDBRANCH  33  36
ENDBRANCH  31  32
ENDBRANCH  30  31
ENDBRANCH   1  30
TORSDOF 13
ENDMDL
