MODEL 1
REMARK VINA RESULT:     -11.4      0.000      0.000
REMARK SMILES C[C@H](c1ccncc1)[N@H+]1[C@@H]2CC[C@H]1C[C@H](CC(=O)NCCCNC(=O)c1ccc(-c3c4nc(c(-c5ccccc5)c5ccc([nH]5)c(-c5ccccc5)c5nc(c(-c6ccccc6)c6ccc3[nH]6)C=C5)C=C4)cc1)C2
REMARK SMILES IDX 20 1 19 2 17 3 18 4 16 6 15 7 9 8 10 9 13 10 11 12 74 13
REMARK SMILES IDX 12 14 14 15 2 16 1 17 3 18 4 19 8 20 5 21 7 22 6 23 21 24
REMARK SMILES IDX 22 25 23 26 24 27 25 29 26 30 27 31 73 32 28 33 72 34 29 35
REMARK SMILES IDX 30 36 31 37 66 38 32 39 71 40 65 41 67 42 33 43 70 44 64 45
REMARK SMILES IDX 63 46 34 48 56 49 41 50 55 51 42 52 45 53 54 54 68 55 43 56
REMARK SMILES IDX 44 57 53 59 69 60 46 61 35 62 36 63 40 64 37 65 39 66 38 67
REMARK SMILES IDX 57 68 58 69 62 70 59 71 61 72 60 73 47 74 48 75 52 76 49 77
REMARK SMILES IDX 51 78 50 79
REMARK H PARENT 19 5 9 11 23 28 67 47 45 58
REMARK Flexibility Score: inf
ROOT
ATOM      1  C   UNL A   1      37.424  21.335  24.375  1.00  0.00     0.117 C 
ENDROOT
BRANCH   1   2
ATOM      2  N   UNL A   1      37.847  22.450  25.213  1.00  0.00    -0.356 N 
ATOM      3  C   UNL A   1      37.248  23.635  25.525  1.00  0.00     0.220 C 
ATOM      4  O   UNL A   1      37.871  24.421  26.243  1.00  0.00    -0.275 OA
ATOM      5  H   UNL A   1      38.730  22.324  25.632  1.00  0.00     0.163 HD
BRANCH   3   6
ATOM      6  C   UNL A   1      35.862  23.993  25.017  1.00  0.00     0.104 C 
BRANCH   6   7
ATOM      7  C   UNL A   1      34.721  23.625  25.996  1.00  0.00     0.010 C 
ATOM      8  N   UNL A   1      32.846  21.306  25.913  1.00  0.00    -0.324 N 
ATOM      9  C   UNL A   1      33.798  21.410  27.027  1.00  0.00     0.185 C 
ATOM     10  C   UNL A   1      32.316  22.658  25.805  1.00  0.00     0.185 C 
ATOM     11  H   UNL A   1      32.063  20.669  26.061  1.00  0.00     0.349 HD
ATOM     12  C   UNL A   1      32.913  22.097  28.078  1.00  0.00     0.071 C 
ATOM     13  C   UNL A   1      35.029  22.296  26.728  1.00  0.00     0.069 C 
ATOM     14  C   UNL A   1      31.975  22.983  27.265  1.00  0.00     0.071 C 
ATOM     15  C   UNL A   1      33.371  23.619  25.270  1.00  0.00     0.069 C 
BRANCH   8  16
ATOM     16  C   UNL A   1      33.205  20.467  24.757  1.00  0.00     0.212 C 
ATOM     17  C   UNL A   1      32.391  20.527  23.456  1.00  0.00     0.081 C 
BRANCH  16  18
ATOM     18  C   UNL A   1      33.457  18.977  25.031  1.00  0.00     0.012 A 
ATOM     19  C   UNL A   1      32.528  18.138  25.657  1.00  0.00     0.030 A 
ATOM     20  C   UNL A   1      34.577  18.362  24.452  1.00  0.00     0.030 A 
ATOM     21  C   UNL A   1      32.758  16.768  25.694  1.00  0.00     0.111 A 
ATOM     22  C   UNL A   1      34.711  16.982  24.519  1.00  0.00     0.111 A 
ATOM     23  N   UNL A   1      33.826  16.170  25.133  1.00  0.00    -0.265 NA
ENDBRANCH  16  18
ENDBRANCH   8  16
ENDBRANCH   6   7
ENDBRANCH   3   6
ENDBRANCH   1   2
BRANCH   1  24
ATOM     24  C   UNL A   1      38.062  20.013  24.807  1.00  0.00     0.042 C 
BRANCH  24  25
ATOM     25  C   UNL A   1      38.934  20.104  26.051  1.00  0.00     0.118 C 
BRANCH  25  26
ATOM     26  N   UNL A   1      40.099  19.244  25.950  1.00  0.00    -0.352 N 
ATOM     27  C   UNL A   1      41.439  19.538  25.998  1.00  0.00     0.251 C 
ATOM     28  H   UNL A   1      39.894  18.289  25.827  1.00  0.00     0.163 HD
ATOM     29  O   UNL A   1      42.240  18.678  25.625  1.00  0.00    -0.269 OA
BRANCH  27  30
ATOM     30  C   UNL A   1      41.958  20.848  26.473  1.00  0.00     0.039 A 
ATOM     31  C   UNL A   1      42.046  21.068  27.855  1.00  0.00     0.014 A 
ATOM     32  C   UNL A   1      42.256  21.899  25.603  1.00  0.00     0.014 A 
ATOM     33  C   UNL A   1      42.445  22.314  28.354  1.00  0.00     0.010 A 
ATOM     34  C   UNL A   1      42.739  23.115  26.098  1.00  0.00     0.010 A 
ATOM     35  C   UNL A   1      42.809  23.348  27.479  1.00  0.00    -0.014 A 
BRANCH  35  36
ATOM     36  C   UNL A   1      43.197  24.695  27.983  1.00  0.00     0.031 A 
ATOM     37  C   UNL A   1      42.136  25.730  28.273  1.00  0.00     0.074 A 
ATOM     38  C   UNL A   1      44.496  25.016  28.142  1.00  0.00     0.049 A 
ATOM     39  N   UNL A   1      42.276  26.979  28.642  1.00  0.00    -0.248 NA
ATOM     40  C   UNL A   1      40.736  25.312  28.100  1.00  0.00     0.031 C 
ATOM     41  C   UNL A   1      45.630  24.128  27.881  1.00  0.00     0.029 A 
ATOM     42  N   UNL A   1      45.081  26.187  28.560  1.00  0.00    -0.354 N 
ATOM     43  C   UNL A   1      40.989  27.501  28.706  1.00  0.00     0.074 A 
ATOM     44  C   UNL A   1      40.085  26.447  28.305  1.00  0.00     0.031 C 
ATOM     45  C   UNL A   1      46.770  24.776  28.173  1.00  0.00     0.029 A 
ATOM     46  C   UNL A   1      46.453  26.134  28.603  1.00  0.00     0.049 A 
ATOM     47  H   UNL A   1      44.565  26.989  28.807  1.00  0.00     0.167 HD
ATOM     48  C   UNL A   1      40.589  28.741  29.081  1.00  0.00     0.031 A 
ATOM     49  C   UNL A   1      47.356  27.072  28.946  1.00  0.00     0.031 A 
ATOM     50  C   UNL A   1      41.475  29.782  29.527  1.00  0.00     0.049 A 
ATOM     51  C   UNL A   1      46.887  28.436  29.371  1.00  0.00     0.074 A 
ATOM     52  C   UNL A   1      41.154  31.045  29.995  1.00  0.00     0.029 A 
ATOM     53  N   UNL A   1      42.855  29.678  29.568  1.00  0.00    -0.354 N 
ATOM     54  N   UNL A   1      45.663  28.894  29.473  1.00  0.00    -0.248 NA
ATOM     55  C   UNL A   1      47.927  29.409  29.737  1.00  0.00     0.031 C 
ATOM     56  C   UNL A   1      42.346  31.719  30.284  1.00  0.00     0.029 A 
ATOM     57  C   UNL A   1      43.402  30.859  30.038  1.00  0.00     0.049 A 
ATOM     58  H   UNL A   1      43.370  28.882  29.302  1.00  0.00     0.167 HD
ATOM     59  C   UNL A   1      45.785  30.195  29.945  1.00  0.00     0.074 A 
ATOM     60  C   UNL A   1      47.201  30.451  30.117  1.00  0.00     0.031 C 
ATOM     61  C   UNL A   1      44.811  31.097  30.212  1.00  0.00     0.031 A 
BRANCH  48  62
ATOM     62  C   UNL A   1      39.117  29.043  29.021  1.00  0.00    -0.014 A 
ATOM     63  C   UNL A   1      38.294  28.891  30.149  1.00  0.00     0.009 A 
ATOM     64  C   UNL A   1      38.554  29.523  27.829  1.00  0.00     0.009 A 
ATOM     65  C   UNL A   1      36.930  29.179  30.071  1.00  0.00     0.001 A 
ATOM     66  C   UNL A   1      37.195  29.836  27.762  1.00  0.00     0.001 A 
ATOM     67  C   UNL A   1      36.383  29.654  28.881  1.00  0.00     0.000 A 
ENDBRANCH  48  62
BRANCH  49  68
ATOM     68  C   UNL A   1      48.807  26.753  28.926  1.00  0.00    -0.014 A 
ATOM     69  C   UNL A   1      49.430  26.225  30.067  1.00  0.00     0.009 A 
ATOM     70  C   UNL A   1      49.577  26.986  27.777  1.00  0.00     0.009 A 
ATOM     71  C   UNL A   1      50.802  25.962  30.067  1.00  0.00     0.001 A 
ATOM     72  C   UNL A   1      50.944  26.698  27.771  1.00  0.00     0.001 A 
ATOM     73  C   UNL A   1      51.556  26.195  28.917  1.00  0.00     0.000 A 
ENDBRANCH  49  68
BRANCH  61  74
ATOM     74  C   UNL A   1      45.237  32.428  30.760  1.00  0.00    -0.014 A 
ATOM     75  C   UNL A   1      45.387  32.633  32.141  1.00  0.00     0.009 A 
ATOM     76  C   UNL A   1      45.533  33.479  29.878  1.00  0.00     0.009 A 
ATOM     77  C   UNL A   1      45.794  33.877  32.628  1.00  0.00     0.001 A 
ATOM     78  C   UNL A   1      45.963  34.714  30.367  1.00  0.00     0.001 A 
ATOM     79  C   UNL A   1      46.085  34.914  31.741  1.00  0.00     0.000 A 
ENDBRANCH  61  74
ENDBRANCH  35  36
ENDBRANCH  27  30
ENDBRANCH  25  26
ENDBRANCH  24  25
ENDBRANCH   1  24
TORSDOF 13
ENDMDL
MODEL 2
REMARK VINA RESULT:     -11.2      0.584      5.948
REMARK SMILES C[C@H](c1ccncc1)[N@H+]1[C@@H]2CC[C@H]1C[C@H](CC(=O)NCCCNC(=O)c1ccc(-c3c4nc(c(-c5ccccc5)c5ccc([nH]5)c(-c5ccccc5)c5nc(c(-c6ccccc6)c6ccc3[nH]6)C=C5)C=C4)cc1)C2
REMARK SMILES IDX 20 1 19 2 17 3 18 4 16 6 15 7 9 8 10 9 13 10 11 12 74 13
REMARK SMILES IDX 12 14 14 15 2 16 1 17 3 18 4 19 8 20 5 21 7 22 6 23 21 24
REMARK SMILES IDX 22 25 23 26 24 27 25 29 26 30 27 31 73 32 28 33 72 34 29 35
REMARK SMILES IDX 30 36 31 37 66 38 32 39 71 40 65 41 67 42 33 43 70 44 64 45
REMARK SMILES IDX 63 46 34 48 56 49 41 50 55 51 42 52 45 53 54 54 68 55 43 56
REMARK SMILES IDX 44 57 53 59 69 60 46 61 35 62 36 63 40 64 37 65 39 66 38 67
REMARK SMILES IDX 57 68 58 69 62 70 59 71 61 72 60 73 47 74 48 75 52 76 49 77
REMARK SMILES IDX 51 78 50 79
REMARK H PARENT 19 5 9 11 23 28 67 47 45 58
REMARK Flexibility Score: inf
ROOT
ATOM      1  C   UNL A   1      37.518  20.957  24.497  1.00  0.00     0.117 C 
ENDROOT
BRANCH   1   2
ATOM      2  N   UNL A   1      37.962  22.136  25.230  1.00  0.00    -0.356 N 
ATOM      3  C   UNL A   1      37.402  23.368  25.402  1.00  0.00     0.220 C 
ATOM      4  O   UNL A   1      38.036  24.200  26.055  1.00  0.00    -0.275 OA
ATOM      5  H   UNL A   1      38.827  22.022  25.687  1.00  0.00     0.163 HD
BRANCH   3   6
ATOM      6  C   UNL A   1      36.046  23.722  24.818  1.00  0.00     0.104 C 
BRANCH   6   7
ATOM      7  C   UNL A   1      34.863  23.478  25.785  1.00  0.00     0.010 C 
ATOM      8  N   UNL A   1      32.820  21.305  25.749  1.00  0.00    -0.324 N 
ATOM      9  C   UNL A   1      33.758  21.380  26.878  1.00  0.00     0.185 C 
ATOM     10  C   UNL A   1      32.396  22.687  25.581  1.00  0.00     0.185 C 
ATOM     11  H   UNL A   1      31.989  20.734  25.904  1.00  0.00     0.349 HD
ATOM     12  C   UNL A   1      32.907  22.171  27.884  1.00  0.00     0.071 C 
ATOM     13  C   UNL A   1      35.056  22.159  26.572  1.00  0.00     0.069 C 
ATOM     14  C   UNL A   1      32.054  23.093  27.019  1.00  0.00     0.071 C 
ATOM     15  C   UNL A   1      33.530  23.545  25.032  1.00  0.00     0.069 C 
BRANCH   8  16
ATOM     16  C   UNL A   1      33.135  20.398  24.632  1.00  0.00     0.212 C 
ATOM     17  C   UNL A   1      32.234  20.332  23.390  1.00  0.00     0.081 C 
BRANCH  16  18
ATOM     18  C   UNL A   1      33.468  18.942  24.992  1.00  0.00     0.012 A 
ATOM     19  C   UNL A   1      32.568  18.077  25.628  1.00  0.00     0.030 A 
ATOM     20  C   UNL A   1      34.645  18.370  24.485  1.00  0.00     0.030 A 
ATOM     21  C   UNL A   1      32.880  16.729  25.744  1.00  0.00     0.111 A 
ATOM     22  C   UNL A   1      34.859  17.007  24.628  1.00  0.00     0.111 A 
ATOM     23  N   UNL A   1      34.004  16.172  25.252  1.00  0.00    -0.265 NA
ENDBRANCH  16  18
ENDBRANCH   8  16
ENDBRANCH   6   7
ENDBRANCH   3   6
ENDBRANCH   1   2
BRANCH   1  24
ATOM     24  C   UNL A   1      38.313  19.706  24.879  1.00  0.00     0.042 C 
BRANCH  24  25
ATOM     25  C   UNL A   1      39.213  19.871  26.095  1.00  0.00     0.118 C 
BRANCH  25  26
ATOM     26  N   UNL A   1      40.466  19.156  25.931  1.00  0.00    -0.352 N 
ATOM     27  C   UNL A   1      41.763  19.601  25.957  1.00  0.00     0.251 C 
ATOM     28  H   UNL A   1      40.368  18.189  25.777  1.00  0.00     0.163 HD
ATOM     29  O   UNL A   1      42.647  18.853  25.532  1.00  0.00    -0.269 OA
BRANCH  27  30
ATOM     30  C   UNL A   1      42.142  20.944  26.471  1.00  0.00     0.039 A 
ATOM     31  C   UNL A   1      42.175  21.144  27.858  1.00  0.00     0.014 A 
ATOM     32  C   UNL A   1      42.360  22.037  25.627  1.00  0.00     0.014 A 
ATOM     33  C   UNL A   1      42.440  22.412  28.390  1.00  0.00     0.010 A 
ATOM     34  C   UNL A   1      42.711  23.283  26.157  1.00  0.00     0.010 A 
ATOM     35  C   UNL A   1      42.724  23.493  27.544  1.00  0.00    -0.014 A 
BRANCH  35  36
ATOM     36  C   UNL A   1      42.968  24.861  28.082  1.00  0.00     0.031 A 
ATOM     37  C   UNL A   1      44.360  25.278  28.489  1.00  0.00     0.074 A 
ATOM     38  C   UNL A   1      41.943  25.720  28.252  1.00  0.00     0.049 A 
ATOM     39  N   UNL A   1      44.761  26.393  29.049  1.00  0.00    -0.248 NA
ATOM     40  C   UNL A   1      45.439  24.304  28.259  1.00  0.00     0.031 C 
ATOM     41  C   UNL A   1      40.542  25.448  27.926  1.00  0.00     0.029 A 
ATOM     42  N   UNL A   1      41.925  27.001  28.750  1.00  0.00    -0.354 N 
ATOM     43  C   UNL A   1      46.125  26.235  29.272  1.00  0.00     0.074 A 
ATOM     44  C   UNL A   1      46.476  24.907  28.820  1.00  0.00     0.031 C 
ATOM     45  C   UNL A   1      39.808  26.539  28.204  1.00  0.00     0.029 A 
ATOM     46  C   UNL A   1      40.676  27.570  28.763  1.00  0.00     0.049 A 
ATOM     47  H   UNL A   1      42.733  27.466  29.066  1.00  0.00     0.167 HD
ATOM     48  C   UNL A   1      47.012  27.119  29.789  1.00  0.00     0.031 A 
ATOM     49  C   UNL A   1      40.270  28.784  29.182  1.00  0.00     0.031 A 
ATOM     50  C   UNL A   1      46.683  28.458  30.198  1.00  0.00     0.049 A 
ATOM     51  C   UNL A   1      41.276  29.753  29.740  1.00  0.00     0.074 A 
ATOM     52  C   UNL A   1      47.530  29.449  30.667  1.00  0.00     0.029 A 
ATOM     53  N   UNL A   1      45.408  28.996  30.179  1.00  0.00    -0.354 N 
ATOM     54  N   UNL A   1      42.569  29.603  29.895  1.00  0.00    -0.248 NA
ATOM     55  C   UNL A   1      40.764  31.062  30.173  1.00  0.00     0.031 C 
ATOM     56  C   UNL A   1      46.758  30.576  30.966  1.00  0.00     0.029 A 
ATOM     57  C   UNL A   1      45.440  30.300  30.643  1.00  0.00     0.049 A 
ATOM     58  H   UNL A   1      44.598  28.522  29.881  1.00  0.00     0.167 HD
ATOM     59  C   UNL A   1      43.028  30.808  30.412  1.00  0.00     0.074 A 
ATOM     60  C   UNL A   1      41.879  31.680  30.536  1.00  0.00     0.031 C 
ATOM     61  C   UNL A   1      44.292  31.160  30.753  1.00  0.00     0.031 A 
BRANCH  48  62
ATOM     62  C   UNL A   1      48.435  26.661  29.948  1.00  0.00    -0.014 A 
ATOM     63  C   UNL A   1      48.865  26.006  31.113  1.00  0.00     0.009 A 
ATOM     64  C   UNL A   1      49.349  26.854  28.900  1.00  0.00     0.009 A 
ATOM     65  C   UNL A   1      50.192  25.588  31.240  1.00  0.00     0.001 A 
ATOM     66  C   UNL A   1      50.668  26.410  29.019  1.00  0.00     0.001 A 
ATOM     67  C   UNL A   1      51.090  25.786  30.192  1.00  0.00     0.000 A 
ENDBRANCH  48  62
BRANCH  49  68
ATOM     68  C   UNL A   1      38.840  29.173  29.070  1.00  0.00    -0.014 A 
ATOM     69  C   UNL A   1      37.973  28.998  30.159  1.00  0.00     0.009 A 
ATOM     70  C   UNL A   1      38.333  29.706  27.875  1.00  0.00     0.009 A 
ATOM     71  C   UNL A   1      36.619  29.323  30.046  1.00  0.00     0.001 A 
ATOM     72  C   UNL A   1      36.985  30.055  27.773  1.00  0.00     0.001 A 
ATOM     73  C   UNL A   1      36.128  29.855  28.854  1.00  0.00     0.000 A 
ENDBRANCH  49  68
BRANCH  61  74
ATOM     74  C   UNL A   1      44.505  32.560  31.250  1.00  0.00    -0.014 A 
ATOM     75  C   UNL A   1      44.705  33.626  30.360  1.00  0.00     0.009 A 
ATOM     76  C   UNL A   1      44.464  32.819  32.629  1.00  0.00     0.009 A 
ATOM     77  C   UNL A   1      44.892  34.923  30.845  1.00  0.00     0.001 A 
ATOM     78  C   UNL A   1      44.628  34.120  33.109  1.00  0.00     0.001 A 
ATOM     79  C   UNL A   1      44.849  35.168  32.217  1.00  0.00     0.000 A 
ENDBRANCH  61  74
ENDBRANCH  35  36
ENDBRANCH  27  30
ENDBRANCH  25  26
ENDBRANCH  24  25
ENDBRANCH   1  24
TORSDOF 13
ENDMDL
MODEL 3
REMARK VINA RESULT:     -11.1      2.444      7.139
REMARK SMILES C[C@H](c1ccncc1)[N@H+]1[C@@H]2CC[C@H]1C[C@H](CC(=O)NCCCNC(=O)c1ccc(-c3c4nc(c(-c5ccccc5)c5ccc([nH]5)c(-c5ccccc5)c5nc(c(-c6ccccc6)c6ccc3[nH]6)C=C5)C=C4)cc1)C2
REMARK SMILES IDX 20 1 19 2 17 3 18 4 16 6 15 7 9 8 10 9 13 10 11 12 74 13
REMARK SMILES IDX 12 14 14 15 2 16 1 17 3 18 4 19 8 20 5 21 7 22 6 23 21 24
REMARK SMILES IDX 22 25 23 26 24 27 25 29 26 30 27 31 73 32 28 33 72 34 29 35
REMARK SMILES IDX 30 36 31 37 66 38 32 39 71 40 65 41 67 42 33 43 70 44 64 45
REMARK SMILES IDX 63 46 34 48 56 49 41 50 55 51 42 52 45 53 54 54 68 55 43 56
REMARK SMILES IDX 44 57 53 59 69 60 46 61 35 62 36 63 40 64 37 65 39 66 38 67
REMARK SMILES IDX 57 68 58 69 62 70 59 71 61 72 60 73 47 74 48 75 52 76 49 77
REMARK SMILES IDX 51 78 50 79
REMARK H PARENT 19 5 9 11 23 28 67 47 45 58
REMARK Flexibility Score: inf
ROOT
ATOM      1  C   UNL A   1      33.419  28.400  24.774  1.00  0.00     0.117 C 
ENDROOT
BRANCH   1   2
ATOM      2  N   UNL A   1      32.767  27.801  23.617  1.00  0.00    -0.356 N 
ATOM      3  C   UNL A   1      32.444  26.510  23.319  1.00  0.00     0.220 C 
ATOM      4  O   UNL A   1      31.921  26.288  22.224  1.00  0.00    -0.275 OA
ATOM      5  H   UNL A   1      32.513  28.450  22.920  1.00  0.00     0.163 HD
BRANCH   3   6
ATOM      6  C   UNL A   1      32.709  25.371  24.288  1.00  0.00     0.104 C 
BRANCH   6   7
ATOM      7  C   UNL A   1      34.152  24.818  24.225  1.00  0.00     0.010 C 
ATOM      8  N   UNL A   1      35.156  22.096  24.918  1.00  0.00    -0.324 N 
ATOM      9  C   UNL A   1      35.247  22.553  23.524  1.00  0.00     0.185 C 
ATOM     10  C   UNL A   1      35.631  23.246  25.673  1.00  0.00     0.185 C 
ATOM     11  H   UNL A   1      35.741  21.295  25.157  1.00  0.00     0.349 HD
ATOM     12  C   UNL A   1      36.688  23.087  23.507  1.00  0.00     0.071 C 
ATOM     13  C   UNL A   1      34.267  23.694  23.167  1.00  0.00     0.069 C 
ATOM     14  C   UNL A   1      36.915  23.614  24.920  1.00  0.00     0.071 C 
ATOM     15  C   UNL A   1      34.625  24.390  25.619  1.00  0.00     0.069 C 
BRANCH   8  16
ATOM     16  C   UNL A   1      34.003  21.269  25.313  1.00  0.00     0.212 C 
ATOM     17  C   UNL A   1      33.737  20.940  26.789  1.00  0.00     0.081 C 
BRANCH  16  18
ATOM     18  C   UNL A   1      33.792  19.957  24.542  1.00  0.00     0.012 A 
ATOM     19  C   UNL A   1      34.618  18.835  24.682  1.00  0.00     0.030 A 
ATOM     20  C   UNL A   1      32.604  19.782  23.815  1.00  0.00     0.030 A 
ATOM     21  C   UNL A   1      34.246  17.633  24.095  1.00  0.00     0.111 A 
ATOM     22  C   UNL A   1      32.306  18.535  23.284  1.00  0.00     0.111 A 
ATOM     23  N   UNL A   1      33.104  17.456  23.404  1.00  0.00    -0.265 NA
ENDBRANCH  16  18
ENDBRANCH   8  16
ENDBRANCH   6   7
ENDBRANCH   3   6
ENDBRANCH   1   2
BRANCH   1  24
ATOM     24  C   UNL A   1      32.530  28.368  26.019  1.00  0.00     0.042 C 
BRANCH  24  25
ATOM     25  C   UNL A   1      33.263  28.603  27.332  1.00  0.00     0.118 C 
BRANCH  25  26
ATOM     26  N   UNL A   1      33.406  30.020  27.616  1.00  0.00    -0.352 N 
ATOM     27  C   UNL A   1      34.442  30.723  28.179  1.00  0.00     0.251 C 
ATOM     28  H   UNL A   1      32.630  30.569  27.361  1.00  0.00     0.163 HD
ATOM     29  O   UNL A   1      34.227  31.877  28.558  1.00  0.00    -0.269 OA
BRANCH  27  30
ATOM     30  C   UNL A   1      35.802  30.149  28.351  1.00  0.00     0.039 A 
ATOM     31  C   UNL A   1      36.150  29.620  29.602  1.00  0.00     0.014 A 
ATOM     32  C   UNL A   1      36.778  30.215  27.352  1.00  0.00     0.014 A 
ATOM     33  C   UNL A   1      37.447  29.149  29.841  1.00  0.00     0.010 A 
ATOM     34  C   UNL A   1      38.046  29.664  27.562  1.00  0.00     0.010 A 
ATOM     35  C   UNL A   1      38.406  29.154  28.818  1.00  0.00    -0.014 A 
BRANCH  35  36
ATOM     36  C   UNL A   1      39.804  28.696  29.058  1.00  0.00     0.031 A 
ATOM     37  C   UNL A   1      40.799  29.618  29.719  1.00  0.00     0.074 A 
ATOM     38  C   UNL A   1      40.201  27.475  28.648  1.00  0.00     0.049 A 
ATOM     39  N   UNL A   1      42.077  29.434  29.944  1.00  0.00    -0.248 NA
ATOM     40  C   UNL A   1      40.298  30.929  30.162  1.00  0.00     0.031 C 
ATOM     41  C   UNL A   1      39.358  26.486  27.976  1.00  0.00     0.029 A 
ATOM     42  N   UNL A   1      41.428  26.861  28.735  1.00  0.00    -0.354 N 
ATOM     43  C   UNL A   1      42.535  30.616  30.516  1.00  0.00     0.074 A 
ATOM     44  C   UNL A   1      41.409  31.522  30.572  1.00  0.00     0.031 C 
ATOM     45  C   UNL A   1      40.082  25.380  27.739  1.00  0.00     0.029 A 
ATOM     46  C   UNL A   1      41.449  25.594  28.205  1.00  0.00     0.049 A 
ATOM     47  H   UNL A   1      42.216  27.289  29.141  1.00  0.00     0.167 HD
ATOM     48  C   UNL A   1      43.775  30.919  30.971  1.00  0.00     0.031 A 
ATOM     49  C   UNL A   1      42.454  24.705  28.101  1.00  0.00     0.031 A 
ATOM     50  C   UNL A   1      44.889  30.009  30.964  1.00  0.00     0.049 A 
ATOM     51  C   UNL A   1      43.818  25.059  28.625  1.00  0.00     0.074 A 
ATOM     52  C   UNL A   1      46.164  30.204  31.469  1.00  0.00     0.029 A 
ATOM     53  N   UNL A   1      44.860  28.732  30.431  1.00  0.00    -0.354 N 
ATOM     54  N   UNL A   1      44.218  26.162  29.208  1.00  0.00    -0.248 NA
ATOM     55  C   UNL A   1      44.867  24.038  28.484  1.00  0.00     0.031 C 
ATOM     56  C   UNL A   1      46.917  29.054  31.208  1.00  0.00     0.029 A 
ATOM     57  C   UNL A   1      46.098  28.131  30.580  1.00  0.00     0.049 A 
ATOM     58  H   UNL A   1      44.075  28.313  30.008  1.00  0.00     0.167 HD
ATOM     59  C   UNL A   1      45.553  25.956  29.531  1.00  0.00     0.074 A 
ATOM     60  C   UNL A   1      45.894  24.620  29.088  1.00  0.00     0.031 C 
ATOM     61  C   UNL A   1      46.420  26.799  30.142  1.00  0.00     0.031 A 
BRANCH  48  62
ATOM     62  C   UNL A   1      43.995  32.302  31.516  1.00  0.00    -0.014 A 
ATOM     63  C   UNL A   1      44.364  33.367  30.678  1.00  0.00     0.009 A 
ATOM     64  C   UNL A   1      43.793  32.552  32.883  1.00  0.00     0.009 A 
ATOM     65  C   UNL A   1      44.563  34.645  31.205  1.00  0.00     0.001 A 
ATOM     66  C   UNL A   1      43.966  33.836  33.402  1.00  0.00     0.001 A 
ATOM     67  C   UNL A   1      44.360  34.879  32.564  1.00  0.00     0.000 A 
ENDBRANCH  48  62
BRANCH  49  68
ATOM     68  C   UNL A   1      42.210  23.371  27.493  1.00  0.00    -0.014 A 
ATOM     69  C   UNL A   1      41.630  22.343  28.251  1.00  0.00     0.009 A 
ATOM     70  C   UNL A   1      42.567  23.114  26.160  1.00  0.00     0.009 A 
ATOM     71  C   UNL A   1      41.437  21.076  27.696  1.00  0.00     0.001 A 
ATOM     72  C   UNL A   1      42.348  21.854  25.600  1.00  0.00     0.001 A 
ATOM     73  C   UNL A   1      41.792  20.834  26.370  1.00  0.00     0.000 A 
ENDBRANCH  49  68
BRANCH  61  74
ATOM     74  C   UNL A   1      47.807  26.287  30.406  1.00  0.00    -0.014 A 
ATOM     75  C   UNL A   1      48.164  25.769  31.661  1.00  0.00     0.009 A 
ATOM     76  C   UNL A   1      48.754  26.287  29.372  1.00  0.00     0.009 A 
ATOM     77  C   UNL A   1      49.457  25.289  31.881  1.00  0.00     0.001 A 
ATOM     78  C   UNL A   1      50.039  25.785  29.589  1.00  0.00     0.001 A 
ATOM     79  C   UNL A   1      50.391  25.294  30.845  1.00  0.00     0.000 A 
ENDBRANCH  61  74
ENDBRANCH  35  36
ENDBRANCH  27  30
ENDBRANCH  25  26
ENDBRANCH  24  25
ENDBRANCH   1  24
TORSDOF 13
ENDMDL
