MODEL 1
REMARK VINA RESULT:     -11.9      0.000      0.000
REMARK SMILES O=C(NCCCNC(=O)c1ccnc(Sc2ccc3nnnn3n2)c1)c1ccc(-c2c3nc(c(-c4ccccc4)c4ccc([nH]4)c(-c4ccccc4)c4nc(c(-c5ccccc5)c5ccc2[nH]5)C=C4)C=C3)cc1
REMARK SMILES IDX 5 1 4 2 3 3 1 4 2 5 26 7 27 8 73 9 28 10 72 11 29 12 30 13
REMARK SMILES IDX 31 14 66 15 32 16 71 17 65 18 67 19 33 20 70 21 64 22 63 23
REMARK SMILES IDX 34 25 56 26 41 27 55 28 42 29 45 30 54 31 68 32 43 33 44 34
REMARK SMILES IDX 53 36 69 37 46 38 35 39 36 40 40 41 37 42 39 43 38 44 57 45
REMARK SMILES IDX 58 46 62 47 59 48 61 49 60 50 47 51 48 52 52 53 49 54 51 55
REMARK SMILES IDX 50 56 6 57 7 58 8 59 9 61 10 62 11 63 25 64 12 65 14 66
REMARK SMILES IDX 13 67 15 68 16 69 17 70 24 71 18 72 23 73 19 74 22 75 20 76
REMARK SMILES IDX 21 77
REMARK H PARENT 3 6 67 24 45 35 7 60
REMARK Flexibility Score: inf
ROOT
ATOM      1  C   UNL A   1      37.717  21.529  25.003  1.00  0.00     0.042 C 
ENDROOT
BRANCH   1   2
ATOM      2  C   UNL A   1      38.847  22.165  25.811  1.00  0.00     0.118 C 
BRANCH   2   3
ATOM      3  N   UNL A   1      39.878  21.208  26.183  1.00  0.00    -0.352 N 
ATOM      4  O   UNL A   1      41.956  20.548  26.788  1.00  0.00    -0.269 OA
ATOM      5  C   UNL A   1      41.152  21.455  26.642  1.00  0.00     0.251 C 
ATOM      6  H   UNL A   1      39.632  20.260  26.094  1.00  0.00     0.163 HD
BRANCH   5   7
ATOM      7  C   UNL A   1      41.545  22.846  26.925  1.00  0.00     0.039 A 
ATOM      8  C   UNL A   1      42.565  23.449  26.185  1.00  0.00     0.014 A 
ATOM      9  C   UNL A   1      40.884  23.541  27.940  1.00  0.00     0.014 A 
ATOM     10  C   UNL A   1      42.986  24.729  26.519  1.00  0.00     0.010 A 
ATOM     11  C   UNL A   1      41.287  24.837  28.253  1.00  0.00     0.010 A 
ATOM     12  C   UNL A   1      42.343  25.429  27.549  1.00  0.00    -0.014 A 
BRANCH  12  13
ATOM     13  C   UNL A   1      42.745  26.827  27.750  1.00  0.00     0.031 A 
ATOM     14  C   UNL A   1      41.634  27.819  27.717  1.00  0.00     0.074 A 
ATOM     15  C   UNL A   1      43.836  27.156  28.467  1.00  0.00     0.049 A 
ATOM     16  N   UNL A   1      40.915  28.121  28.761  1.00  0.00    -0.248 NA
ATOM     17  C   UNL A   1      41.103  28.328  26.454  1.00  0.00     0.031 C 
ATOM     18  C   UNL A   1      44.276  26.440  29.670  1.00  0.00     0.029 A 
ATOM     19  N   UNL A   1      44.581  28.306  28.454  1.00  0.00    -0.354 N 
ATOM     20  C   UNL A   1      39.798  28.786  28.294  1.00  0.00     0.074 A 
ATOM     21  C   UNL A   1      39.970  28.916  26.862  1.00  0.00     0.031 C 
ATOM     22  C   UNL A   1      45.076  27.262  30.383  1.00  0.00     0.029 A 
ATOM     23  C   UNL A   1      45.334  28.471  29.608  1.00  0.00     0.049 A 
ATOM     24  H   UNL A   1      44.582  28.946  27.706  1.00  0.00     0.167 HD
ATOM     25  C   UNL A   1      38.764  29.168  29.086  1.00  0.00     0.031 A 
ATOM     26  C   UNL A   1      45.737  29.675  30.089  1.00  0.00     0.031 A 
ATOM     27  C   UNL A   1      38.895  28.881  30.481  1.00  0.00     0.049 A 
ATOM     28  C   UNL A   1      44.459  30.160  30.728  1.00  0.00     0.074 A 
ATOM     29  C   UNL A   1      38.512  27.879  31.346  1.00  0.00     0.029 A 
ATOM     30  N   UNL A   1      39.651  29.736  31.246  1.00  0.00    -0.354 N 
ATOM     31  N   UNL A   1      43.975  29.788  31.882  1.00  0.00    -0.248 NA
ATOM     32  C   UNL A   1      43.498  30.852  29.863  1.00  0.00     0.031 C 
ATOM     33  C   UNL A   1      39.418  27.959  32.451  1.00  0.00     0.029 A 
ATOM     34  C   UNL A   1      40.333  28.967  32.156  1.00  0.00     0.049 A 
ATOM     35  H   UNL A   1      39.694  30.715  31.159  1.00  0.00     0.167 HD
ATOM     36  C   UNL A   1      42.589  29.907  31.757  1.00  0.00     0.074 A 
ATOM     37  C   UNL A   1      42.366  30.620  30.515  1.00  0.00     0.031 C 
ATOM     38  C   UNL A   1      41.701  29.234  32.547  1.00  0.00     0.031 A 
BRANCH  25  39
ATOM     39  C   UNL A   1      37.608  29.930  28.580  1.00  0.00    -0.014 A 
ATOM     40  C   UNL A   1      37.595  31.322  28.741  1.00  0.00     0.009 A 
ATOM     41  C   UNL A   1      36.479  29.283  28.067  1.00  0.00     0.009 A 
ATOM     42  C   UNL A   1      36.455  32.058  28.418  1.00  0.00     0.001 A 
ATOM     43  C   UNL A   1      35.341  30.025  27.738  1.00  0.00     0.001 A 
ATOM     44  C   UNL A   1      35.327  31.407  27.922  1.00  0.00     0.000 A 
ENDBRANCH  25  39
BRANCH  26  45
ATOM     45  C   UNL A   1      46.530  30.500  29.118  1.00  0.00    -0.014 A 
ATOM     46  C   UNL A   1      47.266  29.822  28.120  1.00  0.00     0.009 A 
ATOM     47  C   UNL A   1      46.594  31.900  29.117  1.00  0.00     0.009 A 
ATOM     48  C   UNL A   1      47.929  30.508  27.100  1.00  0.00     0.001 A 
ATOM     49  C   UNL A   1      47.239  32.590  28.082  1.00  0.00     0.001 A 
ATOM     50  C   UNL A   1      47.890  31.896  27.065  1.00  0.00     0.000 A 
ENDBRANCH  26  45
BRANCH  38  51
ATOM     51  C   UNL A   1      42.284  28.507  33.716  1.00  0.00    -0.014 A 
ATOM     52  C   UNL A   1      42.218  29.063  34.999  1.00  0.00     0.009 A 
ATOM     53  C   UNL A   1      42.866  27.239  33.554  1.00  0.00     0.009 A 
ATOM     54  C   UNL A   1      42.699  28.354  36.101  1.00  0.00     0.001 A 
ATOM     55  C   UNL A   1      43.331  26.523  34.659  1.00  0.00     0.001 A 
ATOM     56  C   UNL A   1      43.243  27.081  35.933  1.00  0.00     0.000 A 
ENDBRANCH  38  51
ENDBRANCH  12  13
ENDBRANCH   5   7
ENDBRANCH   2   3
ENDBRANCH   1   2
BRANCH   1  57
ATOM     57  C   UNL A   1      37.032  22.506  24.049  1.00  0.00     0.118 C 
BRANCH  57  58
ATOM     58  N   UNL A   1      36.617  23.726  24.732  1.00  0.00    -0.352 N 
ATOM     59  C   UNL A   1      35.457  24.047  25.386  1.00  0.00     0.251 C 
ATOM     60  H   UNL A   1      37.288  24.446  24.720  1.00  0.00     0.163 HD
ATOM     61  O   UNL A   1      35.191  25.229  25.591  1.00  0.00    -0.269 OA
BRANCH  59  62
ATOM     62  C   UNL A   1      34.513  23.011  25.850  1.00  0.00     0.044 A 
ATOM     63  C   UNL A   1      34.167  22.898  27.191  1.00  0.00     0.034 A 
ATOM     64  C   UNL A   1      33.883  22.209  24.891  1.00  0.00     0.049 A 
ATOM     65  C   UNL A   1      33.267  21.914  27.533  1.00  0.00     0.113 A 
ATOM     66  C   UNL A   1      32.986  21.244  25.319  1.00  0.00     0.103 A 
ATOM     67  N   UNL A   1      32.700  21.083  26.634  1.00  0.00    -0.249 NA
BRANCH  66  68
ATOM     68  S   UNL A   1      32.120  20.100  24.276  1.00  0.00    -0.048 SA
BRANCH  68  69
ATOM     69  C   UNL A   1      32.911  18.562  24.464  1.00  0.00     0.125 A 
ATOM     70  C   UNL A   1      34.393  18.590  24.285  1.00  0.00     0.042 A 
ATOM     71  N   UNL A   1      32.200  17.539  24.811  1.00  0.00    -0.140 NA
ATOM     72  C   UNL A   1      35.054  17.442  24.490  1.00  0.00     0.056 A 
ATOM     73  N   UNL A   1      32.957  16.436  25.015  1.00  0.00    -0.109 N 
ATOM     74  C   UNL A   1      34.326  16.303  24.887  1.00  0.00     0.200 A 
ATOM     75  N   UNL A   1      32.442  15.268  25.422  1.00  0.00    -0.022 NA
ATOM     76  N   UNL A   1      34.658  15.071  25.201  1.00  0.00    -0.107 NA
ATOM     77  N   UNL A   1      33.478  14.443  25.534  1.00  0.00    -0.022 NA
ENDBRANCH  68  69
ENDBRANCH  66  68
ENDBRANCH  59  62
ENDBRANCH  57  58
ENDBRANCH   1  57
TORSDOF 12
ENDMDL
MODEL 2
REMARK VINA RESULT:     -11.6      4.971      9.136
REMARK SMILES O=C(NCCCNC(=O)c1ccnc(Sc2ccc3nnnn3n2)c1)c1ccc(-c2c3nc(c(-c4ccccc4)c4ccc([nH]4)c(-c4ccccc4)c4nc(c(-c5ccccc5)c5ccc2[nH]5)C=C4)C=C3)cc1
REMARK SMILES IDX 5 1 4 2 3 3 1 4 2 5 26 7 27 8 73 9 28 10 72 11 29 12 30 13
REMARK SMILES IDX 31 14 66 15 32 16 71 17 65 18 67 19 33 20 70 21 64 22 63 23
REMARK SMILES IDX 34 25 56 26 41 27 55 28 42 29 45 30 54 31 68 32 43 33 44 34
REMARK SMILES IDX 53 36 69 37 46 38 35 39 36 40 40 41 37 42 39 43 38 44 57 45
REMARK SMILES IDX 58 46 62 47 59 48 61 49 60 50 47 51 48 52 52 53 49 54 51 55
REMARK SMILES IDX 50 56 6 57 7 58 8 59 9 61 10 62 11 63 25 64 12 65 14 66
REMARK SMILES IDX 13 67 15 68 16 69 17 70 24 71 18 72 23 73 19 74 22 75 20 76
REMARK SMILES IDX 21 77
REMARK H PARENT 3 6 67 24 45 35 7 60
REMARK Flexibility Score: inf
ROOT
ATOM      1  C   UNL A   1      32.884  30.524  26.720  1.00  0.00     0.042 C 
ENDROOT
BRANCH   1   2
ATOM      2  C   UNL A   1      33.995  30.911  27.693  1.00  0.00     0.118 C 
BRANCH   2   3
ATOM      3  N   UNL A   1      33.938  32.312  28.081  1.00  0.00    -0.352 N 
ATOM      4  O   UNL A   1      34.504  34.143  29.285  1.00  0.00    -0.269 OA
ATOM      5  C   UNL A   1      34.755  32.995  28.954  1.00  0.00     0.251 C 
ATOM      6  H   UNL A   1      33.221  32.842  27.665  1.00  0.00     0.163 HD
BRANCH   5   7
ATOM      7  C   UNL A   1      35.928  32.303  29.513  1.00  0.00     0.039 A 
ATOM      8  C   UNL A   1      35.922  31.877  30.843  1.00  0.00     0.014 A 
ATOM      9  C   UNL A   1      37.038  32.085  28.693  1.00  0.00     0.014 A 
ATOM     10  C   UNL A   1      37.065  31.305  31.383  1.00  0.00     0.010 A 
ATOM     11  C   UNL A   1      38.174  31.482  29.228  1.00  0.00     0.010 A 
ATOM     12  C   UNL A   1      38.192  31.100  30.575  1.00  0.00    -0.014 A 
BRANCH  12  13
ATOM     13  C   UNL A   1      39.310  30.360  31.174  1.00  0.00     0.031 A 
ATOM     14  C   UNL A   1      39.504  28.974  30.662  1.00  0.00     0.074 A 
ATOM     15  C   UNL A   1      40.397  30.989  31.660  1.00  0.00     0.049 A 
ATOM     16  N   UNL A   1      40.199  28.698  29.596  1.00  0.00    -0.248 NA
ATOM     17  C   UNL A   1      38.711  27.857  31.170  1.00  0.00     0.031 C 
ATOM     18  C   UNL A   1      40.992  32.188  31.059  1.00  0.00     0.029 A 
ATOM     19  N   UNL A   1      41.328  30.557  32.568  1.00  0.00    -0.354 N 
ATOM     20  C   UNL A   1      39.880  27.402  29.240  1.00  0.00     0.074 A 
ATOM     21  C   UNL A   1      38.976  26.910  30.258  1.00  0.00     0.031 C 
ATOM     22  C   UNL A   1      42.272  32.282  31.477  1.00  0.00     0.029 A 
ATOM     23  C   UNL A   1      42.520  31.264  32.493  1.00  0.00     0.049 A 
ATOM     24  H   UNL A   1      41.168  29.824  33.206  1.00  0.00     0.167 HD
ATOM     25  C   UNL A   1      40.334  26.799  28.112  1.00  0.00     0.031 A 
ATOM     26  C   UNL A   1      43.727  30.767  32.868  1.00  0.00     0.031 A 
ATOM     27  C   UNL A   1      41.219  27.568  27.294  1.00  0.00     0.049 A 
ATOM     28  C   UNL A   1      44.047  29.894  31.680  1.00  0.00     0.074 A 
ATOM     29  C   UNL A   1      41.118  28.391  26.193  1.00  0.00     0.029 A 
ATOM     30  N   UNL A   1      42.542  27.630  27.658  1.00  0.00    -0.354 N 
ATOM     31  N   UNL A   1      44.499  30.291  30.521  1.00  0.00    -0.248 NA
ATOM     32  C   UNL A   1      43.508  28.530  31.685  1.00  0.00     0.031 C 
ATOM     33  C   UNL A   1      42.275  29.233  26.236  1.00  0.00     0.029 A 
ATOM     34  C   UNL A   1      42.974  28.906  27.396  1.00  0.00     0.049 A 
ATOM     35  H   UNL A   1      43.079  26.897  28.036  1.00  0.00     0.167 HD
ATOM     36  C   UNL A   1      44.010  29.364  29.597  1.00  0.00     0.074 A 
ATOM     37  C   UNL A   1      43.459  28.278  30.383  1.00  0.00     0.031 C 
ATOM     38  C   UNL A   1      43.881  29.627  28.263  1.00  0.00     0.031 A 
BRANCH  25  39
ATOM     39  C   UNL A   1      40.031  25.395  27.779  1.00  0.00    -0.014 A 
ATOM     40  C   UNL A   1      40.957  24.403  28.128  1.00  0.00     0.009 A 
ATOM     41  C   UNL A   1      38.911  25.054  27.012  1.00  0.00     0.009 A 
ATOM     42  C   UNL A   1      40.781  23.090  27.695  1.00  0.00     0.001 A 
ATOM     43  C   UNL A   1      38.734  23.735  26.585  1.00  0.00     0.001 A 
ATOM     44  C   UNL A   1      39.673  22.759  26.918  1.00  0.00     0.000 A 
ENDBRANCH  25  39
BRANCH  26  45
ATOM     45  C   UNL A   1      43.783  30.274  34.285  1.00  0.00    -0.014 A 
ATOM     46  C   UNL A   1      44.928  29.551  34.690  1.00  0.00     0.009 A 
ATOM     47  C   UNL A   1      42.786  30.480  35.247  1.00  0.00     0.009 A 
ATOM     48  C   UNL A   1      45.123  29.165  36.018  1.00  0.00     0.001 A 
ATOM     49  C   UNL A   1      42.989  30.113  36.585  1.00  0.00     0.001 A 
ATOM     50  C   UNL A   1      44.163  29.473  36.973  1.00  0.00     0.000 A 
ENDBRANCH  26  45
BRANCH  38  51
ATOM     51  C   UNL A   1      44.491  30.905  27.785  1.00  0.00    -0.014 A 
ATOM     52  C   UNL A   1      43.841  32.125  28.008  1.00  0.00     0.009 A 
ATOM     53  C   UNL A   1      45.743  30.909  27.148  1.00  0.00     0.009 A 
ATOM     54  C   UNL A   1      44.442  33.326  27.625  1.00  0.00     0.001 A 
ATOM     55  C   UNL A   1      46.351  32.111  26.782  1.00  0.00     0.001 A 
ATOM     56  C   UNL A   1      45.701  33.319  27.024  1.00  0.00     0.000 A 
ENDBRANCH  38  51
ENDBRANCH  12  13
ENDBRANCH   5   7
ENDBRANCH   2   3
ENDBRANCH   1   2
BRANCH   1  57
ATOM     57  C   UNL A   1      33.171  29.232  25.957  1.00  0.00     0.118 C 
BRANCH  57  58
ATOM     58  N   UNL A   1      33.449  29.487  24.548  1.00  0.00    -0.352 N 
ATOM     59  C   UNL A   1      33.084  28.808  23.416  1.00  0.00     0.251 C 
ATOM     60  H   UNL A   1      33.995  30.289  24.382  1.00  0.00     0.163 HD
ATOM     61  O   UNL A   1      33.703  29.006  22.373  1.00  0.00    -0.269 OA
BRANCH  59  62
ATOM     62  C   UNL A   1      31.970  27.840  23.414  1.00  0.00     0.044 A 
ATOM     63  C   UNL A   1      32.192  26.482  23.607  1.00  0.00     0.034 A 
ATOM     64  C   UNL A   1      30.662  28.332  23.322  1.00  0.00     0.049 A 
ATOM     65  C   UNL A   1      31.093  25.654  23.605  1.00  0.00     0.113 A 
ATOM     66  C   UNL A   1      29.611  27.431  23.332  1.00  0.00     0.103 A 
ATOM     67  N   UNL A   1      29.829  26.098  23.448  1.00  0.00    -0.249 NA
BRANCH  66  68
ATOM     68  S   UNL A   1      27.892  27.843  23.182  1.00  0.00    -0.048 SA
BRANCH  68  69
ATOM     69  C   UNL A   1      27.824  29.515  22.707  1.00  0.00     0.125 A 
ATOM     70  C   UNL A   1      27.761  30.489  23.837  1.00  0.00     0.042 A 
ATOM     71  N   UNL A   1      27.908  29.805  21.449  1.00  0.00    -0.140 NA
ATOM     72  C   UNL A   1      27.779  31.792  23.521  1.00  0.00     0.056 A 
ATOM     73  N   UNL A   1      27.940  31.141  21.234  1.00  0.00    -0.109 N 
ATOM     74  C   UNL A   1      27.886  32.159  22.165  1.00  0.00     0.200 A 
ATOM     75  N   UNL A   1      28.067  31.675  20.011  1.00  0.00    -0.022 NA
ATOM     76  N   UNL A   1      27.970  33.308  21.535  1.00  0.00    -0.107 NA
ATOM     77  N   UNL A   1      28.086  32.990  20.199  1.00  0.00    -0.022 NA
ENDBRANCH  68  69
ENDBRANCH  66  68
ENDBRANCH  59  62
ENDBRANCH  57  58
ENDBRANCH   1  57
TORSDOF 12
ENDMDL
MODEL 3
REMARK VINA RESULT:     -11.6      2.997      4.765
REMARK SMILES O=C(NCCCNC(=O)c1ccnc(Sc2ccc3nnnn3n2)c1)c1ccc(-c2c3nc(c(-c4ccccc4)c4ccc([nH]4)c(-c4ccccc4)c4nc(c(-c5ccccc5)c5ccc2[nH]5)C=C4)C=C3)cc1
REMARK SMILES IDX 5 1 4 2 3 3 1 4 2 5 26 7 27 8 73 9 28 10 72 11 29 12 30 13
REMARK SMILES IDX 31 14 66 15 32 16 71 17 65 18 67 19 33 20 70 21 64 22 63 23
REMARK SMILES IDX 34 25 56 26 41 27 55 28 42 29 45 30 54 31 68 32 43 33 44 34
REMARK SMILES IDX 53 36 69 37 46 38 35 39 36 40 40 41 37 42 39 43 38 44 57 45
REMARK SMILES IDX 58 46 62 47 59 48 61 49 60 50 47 51 48 52 52 53 49 54 51 55
REMARK SMILES IDX 50 56 6 57 7 58 8 59 9 61 10 62 11 63 25 64 12 65 14 66
REMARK SMILES IDX 13 67 15 68 16 69 17 70 24 71 18 72 23 73 19 74 22 75 20 76
REMARK SMILES IDX 21 77
REMARK H PARENT 3 6 67 24 45 35 7 60
REMARK Flexibility Score: inf
ROOT
ATOM      1  C   UNL A   1      37.217  22.137  24.560  1.00  0.00     0.042 C 
ENDROOT
BRANCH   1   2
ATOM      2  C   UNL A   1      37.977  22.571  25.811  1.00  0.00     0.118 C 
BRANCH   2   3
ATOM      3  N   UNL A   1      38.879  21.543  26.306  1.00  0.00    -0.352 N 
ATOM      4  O   UNL A   1      40.838  20.717  27.079  1.00  0.00    -0.269 OA
ATOM      5  C   UNL A   1      40.144  21.688  26.826  1.00  0.00     0.251 C 
ATOM      6  H   UNL A   1      38.538  20.620  26.263  1.00  0.00     0.163 HD
BRANCH   5   7
ATOM      7  C   UNL A   1      40.667  23.048  27.043  1.00  0.00     0.039 A 
ATOM      8  C   UNL A   1      39.967  23.947  27.852  1.00  0.00     0.014 A 
ATOM      9  C   UNL A   1      41.865  23.417  26.428  1.00  0.00     0.014 A 
ATOM     10  C   UNL A   1      40.423  25.251  27.979  1.00  0.00     0.010 A 
ATOM     11  C   UNL A   1      42.338  24.718  26.582  1.00  0.00     0.010 A 
ATOM     12  C   UNL A   1      41.614  25.638  27.349  1.00  0.00    -0.014 A 
BRANCH  12  13
ATOM     13  C   UNL A   1      42.110  26.988  27.645  1.00  0.00     0.031 A 
ATOM     14  C   UNL A   1      41.065  28.049  27.717  1.00  0.00     0.074 A 
ATOM     15  C   UNL A   1      43.235  27.191  28.357  1.00  0.00     0.049 A 
ATOM     16  N   UNL A   1      40.390  28.314  28.798  1.00  0.00    -0.248 NA
ATOM     17  C   UNL A   1      40.543  28.686  26.509  1.00  0.00     0.031 C 
ATOM     18  C   UNL A   1      43.653  26.358  29.490  1.00  0.00     0.029 A 
ATOM     19  N   UNL A   1      44.053  28.289  28.411  1.00  0.00    -0.354 N 
ATOM     20  C   UNL A   1      39.309  29.083  28.412  1.00  0.00     0.074 A 
ATOM     21  C   UNL A   1      39.459  29.312  26.990  1.00  0.00     0.031 C 
ATOM     22  C   UNL A   1      44.520  27.070  30.242  1.00  0.00     0.029 A 
ATOM     23  C   UNL A   1      44.839  28.316  29.554  1.00  0.00     0.049 A 
ATOM     24  H   UNL A   1      44.080  28.984  27.714  1.00  0.00     0.167 HD
ATOM     25  C   UNL A   1      38.319  29.467  29.258  1.00  0.00     0.031 A 
ATOM     26  C   UNL A   1      45.330  29.452  30.115  1.00  0.00     0.031 A 
ATOM     27  C   UNL A   1      38.461  29.065  30.623  1.00  0.00     0.049 A 
ATOM     28  C   UNL A   1      44.100  29.966  30.821  1.00  0.00     0.074 A 
ATOM     29  C   UNL A   1      38.032  28.026  31.419  1.00  0.00     0.029 A 
ATOM     30  N   UNL A   1      39.286  29.808  31.431  1.00  0.00    -0.354 N 
ATOM     31  N   UNL A   1      43.617  29.537  31.956  1.00  0.00    -0.248 NA
ATOM     32  C   UNL A   1      43.168  30.782  30.037  1.00  0.00     0.031 C 
ATOM     33  C   UNL A   1      38.964  27.962  32.503  1.00  0.00     0.029 A 
ATOM     34  C   UNL A   1      39.936  28.930  32.261  1.00  0.00     0.049 A 
ATOM     35  H   UNL A   1      39.391  30.787  31.417  1.00  0.00     0.167 HD
ATOM     36  C   UNL A   1      42.239  29.753  31.876  1.00  0.00     0.074 A 
ATOM     37  C   UNL A   1      42.037  30.573  30.698  1.00  0.00     0.031 C 
ATOM     38  C   UNL A   1      41.326  29.079  32.637  1.00  0.00     0.031 A 
BRANCH  25  39
ATOM     39  C   UNL A   1      37.205  30.337  28.841  1.00  0.00    -0.014 A 
ATOM     40  C   UNL A   1      36.068  29.751  28.268  1.00  0.00     0.009 A 
ATOM     41  C   UNL A   1      37.314  31.732  28.886  1.00  0.00     0.009 A 
ATOM     42  C   UNL A   1      35.064  30.548  27.721  1.00  0.00     0.001 A 
ATOM     43  C   UNL A   1      36.302  32.527  28.343  1.00  0.00     0.001 A 
ATOM     44  C   UNL A   1      35.185  31.935  27.754  1.00  0.00     0.000 A 
ENDBRANCH  25  39
BRANCH  26  45
ATOM     45  C   UNL A   1      46.154  30.298  29.189  1.00  0.00    -0.014 A 
ATOM     46  C   UNL A   1      46.334  31.660  29.518  1.00  0.00     0.009 A 
ATOM     47  C   UNL A   1      46.770  29.838  28.017  1.00  0.00     0.009 A 
ATOM     48  C   UNL A   1      47.186  32.489  28.785  1.00  0.00     0.001 A 
ATOM     49  C   UNL A   1      47.644  30.661  27.292  1.00  0.00     0.001 A 
ATOM     50  C   UNL A   1      47.865  31.978  27.686  1.00  0.00     0.000 A 
ENDBRANCH  26  45
BRANCH  38  51
ATOM     51  C   UNL A   1      41.885  28.228  33.731  1.00  0.00    -0.014 A 
ATOM     52  C   UNL A   1      41.686  28.579  35.071  1.00  0.00     0.009 A 
ATOM     53  C   UNL A   1      42.578  27.042  33.435  1.00  0.00     0.009 A 
ATOM     54  C   UNL A   1      42.147  27.749  36.095  1.00  0.00     0.001 A 
ATOM     55  C   UNL A   1      43.022  26.204  34.459  1.00  0.00     0.001 A 
ATOM     56  C   UNL A   1      42.802  26.557  35.789  1.00  0.00     0.000 A 
ENDBRANCH  38  51
ENDBRANCH  12  13
ENDBRANCH   5   7
ENDBRANCH   2   3
ENDBRANCH   1   2
BRANCH   1  57
ATOM     57  C   UNL A   1      36.515  20.789  24.715  1.00  0.00     0.118 C 
BRANCH  57  58
ATOM     58  N   UNL A   1      35.477  20.836  25.739  1.00  0.00    -0.352 N 
ATOM     59  C   UNL A   1      34.420  21.687  25.918  1.00  0.00     0.251 C 
ATOM     60  H   UNL A   1      35.550  20.131  26.423  1.00  0.00     0.163 HD
ATOM     61  O   UNL A   1      33.878  21.749  27.019  1.00  0.00    -0.269 OA
BRANCH  59  62
ATOM     62  C   UNL A   1      33.912  22.539  24.824  1.00  0.00     0.044 A 
ATOM     63  C   UNL A   1      33.242  21.994  23.736  1.00  0.00     0.034 A 
ATOM     64  C   UNL A   1      34.023  23.928  24.957  1.00  0.00     0.049 A 
ATOM     65  C   UNL A   1      32.789  22.863  22.770  1.00  0.00     0.113 A 
ATOM     66  C   UNL A   1      33.538  24.734  23.941  1.00  0.00     0.103 A 
ATOM     67  N   UNL A   1      32.947  24.201  22.844  1.00  0.00    -0.249 NA
BRANCH  66  68
ATOM     68  S   UNL A   1      33.619  26.505  23.894  1.00  0.00    -0.048 SA
BRANCH  68  69
ATOM     69  C   UNL A   1      32.020  27.063  23.498  1.00  0.00     0.125 A 
ATOM     70  C   UNL A   1      30.922  26.459  24.310  1.00  0.00     0.042 A 
ATOM     71  N   UNL A   1      31.892  27.991  22.605  1.00  0.00    -0.140 NA
ATOM     72  C   UNL A   1      29.679  26.911  24.089  1.00  0.00     0.056 A 
ATOM     73  N   UNL A   1      30.607  28.394  22.469  1.00  0.00    -0.109 N 
ATOM     74  C   UNL A   1      29.490  27.934  23.139  1.00  0.00     0.200 A 
ATOM     75  N   UNL A   1      30.240  29.376  21.633  1.00  0.00    -0.022 NA
ATOM     76  N   UNL A   1      28.444  28.611  22.723  1.00  0.00    -0.107 NA
ATOM     77  N   UNL A   1      28.927  29.503  21.791  1.00  0.00    -0.022 NA
ENDBRANCH  68  69
ENDBRANCH  66  68
ENDBRANCH  59  62
ENDBRANCH  57  58
ENDBRANCH   1  57
TORSDOF 12
ENDMDL
