MODEL 1
REMARK VINA RESULT:     -10.9      0.000      0.000
REMARK SMILES CCC(CC)(NC(=O)NC[C@@H]1CCCOC1)C(=O)NCCCNC(=O)c1ccc(-c2c3nc(c(-c4ccccc4)c4ccc([nH]4)c(-c4ccccc4)c4nc(c(-c5ccccc5)c5ccc2[nH]5)C=C4)C=C3)cc1
REMARK SMILES IDX 20 1 19 2 17 3 18 4 3 6 2 7 1 8 4 9 5 10 6 11 7 12 8 14 9 15
REMARK SMILES IDX 10 17 11 18 12 19 16 20 13 21 15 22 14 23 21 24 22 25 23 26
REMARK SMILES IDX 24 27 25 29 26 30 27 31 73 32 28 33 72 34 29 35 30 36 31 37
REMARK SMILES IDX 66 38 32 39 71 40 65 41 67 42 33 43 70 44 64 45 63 46 34 48
REMARK SMILES IDX 56 49 41 50 55 51 42 52 45 53 54 54 68 55 43 56 44 57 53 59
REMARK SMILES IDX 69 60 46 61 35 62 36 63 40 64 37 65 39 66 38 67 57 68 58 69
REMARK SMILES IDX 62 70 59 71 61 72 60 73 47 74 48 75 52 76 49 77 51 78 50 79
REMARK H PARENT 19 5 6 13 9 16 23 28 67 47 45 58
REMARK Flexibility Score: inf
ROOT
ATOM      1  C   UNL A   1      35.716  21.256  25.150  1.00  0.00     0.117 C 
ENDROOT
BRANCH   1   2
ATOM      2  N   UNL A   1      35.282  21.595  26.504  1.00  0.00    -0.354 N 
ATOM      3  C   UNL A   1      34.098  22.081  27.024  1.00  0.00     0.245 C 
ATOM      4  O   UNL A   1      33.874  21.801  28.206  1.00  0.00    -0.272 OA
ATOM      5  H   UNL A   1      35.977  21.448  27.186  1.00  0.00     0.163 HD
BRANCH   3   6
ATOM      6  C   UNL A   1      33.013  22.776  26.146  1.00  0.00     0.120 C 
BRANCH   6   7
ATOM      7  C   UNL A   1      32.772  22.297  24.682  1.00  0.00     0.035 C 
ATOM      8  C   UNL A   1      32.212  20.904  24.453  1.00  0.00     0.007 C 
ENDBRANCH   6   7
BRANCH   6   9
ATOM      9  C   UNL A   1      33.532  24.258  26.114  1.00  0.00     0.035 C 
ATOM     10  C   UNL A   1      34.402  24.707  24.952  1.00  0.00     0.007 C 
ENDBRANCH   6   9
BRANCH   6  11
ATOM     11  N   UNL A   1      31.737  22.578  26.851  1.00  0.00    -0.324 N 
ATOM     12  C   UNL A   1      30.547  23.211  26.793  1.00  0.00     0.315 C 
ATOM     13  H   UNL A   1      31.755  21.835  27.496  1.00  0.00     0.166 HD
ATOM     14  O   UNL A   1      29.707  22.884  27.638  1.00  0.00    -0.249 OA
ATOM     15  N   UNL A   1      30.152  24.097  25.862  1.00  0.00    -0.338 N 
ATOM     16  H   UNL A   1      29.170  24.158  25.824  1.00  0.00     0.165 HD
BRANCH  15  17
ATOM     17  C   UNL A   1      30.775  24.998  24.885  1.00  0.00     0.123 C 
BRANCH  17  18
ATOM     18  C   UNL A   1      30.306  26.486  24.859  1.00  0.00     0.034 C 
ATOM     19  C   UNL A   1      29.665  26.952  23.547  1.00  0.00     0.010 C 
ATOM     20  C   UNL A   1      31.459  27.386  25.347  1.00  0.00     0.165 C 
ATOM     21  C   UNL A   1      29.923  28.395  23.109  1.00  0.00     0.029 C 
ATOM     22  O   UNL A   1      31.247  28.764  25.053  1.00  0.00    -0.381 OA
ATOM     23  C   UNL A   1      31.212  28.972  23.646  1.00  0.00     0.160 C 
ENDBRANCH  17  18
ENDBRANCH  15  17
ENDBRANCH   6  11
ENDBRANCH   3   6
ENDBRANCH   1   2
BRANCH   1  24
ATOM     24  C   UNL A   1      37.159  21.487  24.682  1.00  0.00     0.042 C 
BRANCH  24  25
ATOM     25  C   UNL A   1      38.353  21.382  25.627  1.00  0.00     0.118 C 
BRANCH  25  26
ATOM     26  N   UNL A   1      39.221  20.239  25.442  1.00  0.00    -0.352 N 
ATOM     27  C   UNL A   1      40.493  20.031  25.936  1.00  0.00     0.251 C 
ATOM     28  H   UNL A   1      38.854  19.510  24.891  1.00  0.00     0.163 HD
ATOM     29  O   UNL A   1      41.051  18.961  25.752  1.00  0.00    -0.269 OA
BRANCH  27  30
ATOM     30  C   UNL A   1      41.223  21.137  26.602  1.00  0.00     0.039 A 
ATOM     31  C   UNL A   1      41.909  22.035  25.778  1.00  0.00     0.014 A 
ATOM     32  C   UNL A   1      41.204  21.330  27.986  1.00  0.00     0.014 A 
ATOM     33  C   UNL A   1      42.472  23.189  26.323  1.00  0.00     0.010 A 
ATOM     34  C   UNL A   1      41.739  22.502  28.529  1.00  0.00     0.010 A 
ATOM     35  C   UNL A   1      42.334  23.461  27.694  1.00  0.00    -0.014 A 
BRANCH  35  36
ATOM     36  C   UNL A   1      42.671  24.809  28.213  1.00  0.00     0.031 A 
ATOM     37  C   UNL A   1      44.070  25.175  28.604  1.00  0.00     0.074 A 
ATOM     38  C   UNL A   1      41.673  25.704  28.354  1.00  0.00     0.049 A 
ATOM     39  N   UNL A   1      44.524  26.320  29.050  1.00  0.00    -0.248 NA
ATOM     40  C   UNL A   1      45.087  24.121  28.491  1.00  0.00     0.031 C 
ATOM     41  C   UNL A   1      40.265  25.452  28.033  1.00  0.00     0.029 A 
ATOM     42  N   UNL A   1      41.685  27.002  28.797  1.00  0.00    -0.354 N 
ATOM     43  C   UNL A   1      45.882  26.128  29.267  1.00  0.00     0.074 A 
ATOM     44  C   UNL A   1      46.169  24.747  28.938  1.00  0.00     0.031 C 
ATOM     45  C   UNL A   1      39.554  26.566  28.265  1.00  0.00     0.029 A 
ATOM     46  C   UNL A   1      40.446  27.599  28.781  1.00  0.00     0.049 A 
ATOM     47  H   UNL A   1      42.501  27.462  29.097  1.00  0.00     0.167 HD
ATOM     48  C   UNL A   1      46.803  27.024  29.695  1.00  0.00     0.031 A 
ATOM     49  C   UNL A   1      40.068  28.839  29.144  1.00  0.00     0.031 A 
ATOM     50  C   UNL A   1      46.509  28.391  30.043  1.00  0.00     0.049 A 
ATOM     51  C   UNL A   1      41.105  29.801  29.644  1.00  0.00     0.074 A 
ATOM     52  C   UNL A   1      47.382  29.385  30.455  1.00  0.00     0.029 A 
ATOM     53  N   UNL A   1      45.242  28.952  30.033  1.00  0.00    -0.354 N 
ATOM     54  N   UNL A   1      42.397  29.624  29.777  1.00  0.00    -0.248 NA
ATOM     55  C   UNL A   1      40.633  31.136  30.037  1.00  0.00     0.031 C 
ATOM     56  C   UNL A   1      46.635  30.534  30.739  1.00  0.00     0.029 A 
ATOM     57  C   UNL A   1      45.304  30.270  30.459  1.00  0.00     0.049 A 
ATOM     58  H   UNL A   1      44.419  28.485  29.763  1.00  0.00     0.167 HD
ATOM     59  C   UNL A   1      42.896  30.828  30.256  1.00  0.00     0.074 A 
ATOM     60  C   UNL A   1      41.770  31.734  30.368  1.00  0.00     0.031 C 
ATOM     61  C   UNL A   1      44.171  31.153  30.577  1.00  0.00     0.031 A 
BRANCH  48  62
ATOM     62  C   UNL A   1      48.220  26.542  29.830  1.00  0.00    -0.014 A 
ATOM     63  C   UNL A   1      49.136  26.677  28.775  1.00  0.00     0.009 A 
ATOM     64  C   UNL A   1      48.654  25.969  31.036  1.00  0.00     0.009 A 
ATOM     65  C   UNL A   1      50.446  26.214  28.911  1.00  0.00     0.001 A 
ATOM     66  C   UNL A   1      49.971  25.529  31.178  1.00  0.00     0.001 A 
ATOM     67  C   UNL A   1      50.864  25.643  30.113  1.00  0.00     0.000 A 
ENDBRANCH  48  62
BRANCH  49  68
ATOM     68  C   UNL A   1      38.641  29.240  29.040  1.00  0.00    -0.014 A 
ATOM     69  C   UNL A   1      37.794  29.160  30.154  1.00  0.00     0.009 A 
ATOM     70  C   UNL A   1      38.121  29.711  27.824  1.00  0.00     0.009 A 
ATOM     71  C   UNL A   1      36.449  29.523  30.048  1.00  0.00     0.001 A 
ATOM     72  C   UNL A   1      36.784  30.098  27.727  1.00  0.00     0.001 A 
ATOM     73  C   UNL A   1      35.947  29.996  28.837  1.00  0.00     0.000 A 
ENDBRANCH  49  68
BRANCH  61  74
ATOM     74  C   UNL A   1      44.412  32.550  31.070  1.00  0.00    -0.014 A 
ATOM     75  C   UNL A   1      44.369  32.851  32.440  1.00  0.00     0.009 A 
ATOM     76  C   UNL A   1      44.715  33.571  30.156  1.00  0.00     0.009 A 
ATOM     77  C   UNL A   1      44.596  34.155  32.884  1.00  0.00     0.001 A 
ATOM     78  C   UNL A   1      44.967  34.869  30.605  1.00  0.00     0.001 A 
ATOM     79  C   UNL A   1      44.899  35.161  31.966  1.00  0.00     0.000 A 
ENDBRANCH  61  74
ENDBRANCH  35  36
ENDBRANCH  27  30
ENDBRANCH  25  26
ENDBRANCH  24  25
ENDBRANCH   1  24
TORSDOF 15
ENDMDL
MODEL 2
REMARK VINA RESULT:     -10.8      1.544      3.357
REMARK SMILES CCC(CC)(NC(=O)NC[C@@H]1CCCOC1)C(=O)NCCCNC(=O)c1ccc(-c2c3nc(c(-c4ccccc4)c4ccc([nH]4)c(-c4ccccc4)c4nc(c(-c5ccccc5)c5ccc2[nH]5)C=C4)C=C3)cc1
REMARK SMILES IDX 20 1 19 2 17 3 18 4 3 6 2 7 1 8 4 9 5 10 6 11 7 12 8 14 9 15
REMARK SMILES IDX 10 17 11 18 12 19 16 20 13 21 15 22 14 23 21 24 22 25 23 26
REMARK SMILES IDX 24 27 25 29 26 30 27 31 73 32 28 33 72 34 29 35 30 36 31 37
REMARK SMILES IDX 66 38 32 39 71 40 65 41 67 42 33 43 70 44 64 45 63 46 34 48
REMARK SMILES IDX 56 49 41 50 55 51 42 52 45 53 54 54 68 55 43 56 44 57 53 59
REMARK SMILES IDX 69 60 46 61 35 62 36 63 40 64 37 65 39 66 38 67 57 68 58 69
REMARK SMILES IDX 62 70 59 71 61 72 60 73 47 74 48 75 52 76 49 77 51 78 50 79
REMARK H PARENT 19 5 6 13 9 16 23 28 67 47 45 58
REMARK Flexibility Score: inf
ROOT
ATOM      1  C   UNL A   1      36.320  21.122  25.346  1.00  0.00     0.117 C 
ENDROOT
BRANCH   1   2
ATOM      2  N   UNL A   1      35.701  21.791  26.490  1.00  0.00    -0.354 N 
ATOM      3  C   UNL A   1      34.583  22.589  26.627  1.00  0.00     0.245 C 
ATOM      4  O   UNL A   1      34.054  22.587  27.743  1.00  0.00    -0.272 OA
ATOM      5  H   UNL A   1      36.181  21.641  27.336  1.00  0.00     0.163 HD
BRANCH   3   6
ATOM      6  C   UNL A   1      33.903  23.304  25.419  1.00  0.00     0.120 C 
BRANCH   6   7
ATOM      7  C   UNL A   1      34.046  22.715  23.984  1.00  0.00     0.035 C 
ATOM      8  C   UNL A   1      33.827  23.633  22.793  1.00  0.00     0.007 C 
ENDBRANCH   6   7
BRANCH   6   9
ATOM      9  C   UNL A   1      34.593  24.715  25.458  1.00  0.00     0.035 C 
ATOM     10  C   UNL A   1      33.721  25.959  25.503  1.00  0.00     0.007 C 
ENDBRANCH   6   9
BRANCH   6  11
ATOM     11  N   UNL A   1      32.461  23.308  25.712  1.00  0.00    -0.324 N 
ATOM     12  C   UNL A   1      31.533  22.332  25.772  1.00  0.00     0.315 C 
ATOM     13  H   UNL A   1      32.101  24.204  25.902  1.00  0.00     0.166 HD
ATOM     14  O   UNL A   1      30.359  22.694  25.903  1.00  0.00    -0.249 OA
ATOM     15  N   UNL A   1      31.760  21.006  25.789  1.00  0.00    -0.338 N 
ATOM     16  H   UNL A   1      30.995  20.519  26.171  1.00  0.00     0.165 HD
BRANCH  15  17
ATOM     17  C   UNL A   1      32.831  20.082  25.397  1.00  0.00     0.123 C 
BRANCH  17  18
ATOM     18  C   UNL A   1      32.423  18.713  24.770  1.00  0.00     0.034 C 
ATOM     19  C   UNL A   1      32.891  17.471  25.537  1.00  0.00     0.010 C 
ATOM     20  C   UNL A   1      32.807  18.708  23.277  1.00  0.00     0.165 C 
ATOM     21  C   UNL A   1      33.285  16.241  24.717  1.00  0.00     0.029 C 
ATOM     22  O   UNL A   1      32.777  17.404  22.703  1.00  0.00    -0.381 OA
ATOM     23  C   UNL A   1      33.751  16.569  23.317  1.00  0.00     0.160 C 
ENDBRANCH  17  18
ENDBRANCH  15  17
ENDBRANCH   6  11
ENDBRANCH   3   6
ENDBRANCH   1   2
BRANCH   1  24
ATOM     24  C   UNL A   1      37.792  21.349  24.976  1.00  0.00     0.042 C 
BRANCH  24  25
ATOM     25  C   UNL A   1      38.926  21.168  25.982  1.00  0.00     0.118 C 
BRANCH  25  26
ATOM     26  N   UNL A   1      39.847  20.083  25.723  1.00  0.00    -0.352 N 
ATOM     27  C   UNL A   1      41.176  19.972  26.082  1.00  0.00     0.251 C 
ATOM     28  H   UNL A   1      39.477  19.319  25.223  1.00  0.00     0.163 HD
ATOM     29  O   UNL A   1      41.785  18.939  25.855  1.00  0.00    -0.269 OA
BRANCH  27  30
ATOM     30  C   UNL A   1      41.892  21.139  26.652  1.00  0.00     0.039 A 
ATOM     31  C   UNL A   1      42.340  22.113  25.754  1.00  0.00     0.014 A 
ATOM     32  C   UNL A   1      42.083  21.311  28.026  1.00  0.00     0.014 A 
ATOM     33  C   UNL A   1      42.867  23.312  26.233  1.00  0.00     0.010 A 
ATOM     34  C   UNL A   1      42.582  22.526  28.508  1.00  0.00     0.010 A 
ATOM     35  C   UNL A   1      42.932  23.551  27.615  1.00  0.00    -0.014 A 
BRANCH  35  36
ATOM     36  C   UNL A   1      43.215  24.920  28.112  1.00  0.00     0.031 A 
ATOM     37  C   UNL A   1      44.605  25.364  28.446  1.00  0.00     0.074 A 
ATOM     38  C   UNL A   1      42.175  25.761  28.284  1.00  0.00     0.049 A 
ATOM     39  N   UNL A   1      45.013  26.536  28.866  1.00  0.00    -0.248 NA
ATOM     40  C   UNL A   1      45.673  24.366  28.302  1.00  0.00     0.031 C 
ATOM     41  C   UNL A   1      40.772  25.431  28.018  1.00  0.00     0.029 A 
ATOM     42  N   UNL A   1      42.133  27.062  28.716  1.00  0.00    -0.354 N 
ATOM     43  C   UNL A   1      46.386  26.420  29.034  1.00  0.00     0.074 A 
ATOM     44  C   UNL A   1      46.735  25.053  28.703  1.00  0.00     0.031 C 
ATOM     45  C   UNL A   1      40.012  26.507  28.269  1.00  0.00     0.029 A 
ATOM     46  C   UNL A   1      40.865  27.591  28.743  1.00  0.00     0.049 A 
ATOM     47  H   UNL A   1      42.934  27.568  28.982  1.00  0.00     0.167 HD
ATOM     48  C   UNL A   1      47.273  27.369  29.420  1.00  0.00     0.031 A 
ATOM     49  C   UNL A   1      40.434  28.812  29.111  1.00  0.00     0.031 A 
ATOM     50  C   UNL A   1      46.919  28.721  29.768  1.00  0.00     0.049 A 
ATOM     51  C   UNL A   1      41.435  29.834  29.564  1.00  0.00     0.074 A 
ATOM     52  C   UNL A   1      47.751  29.764  30.140  1.00  0.00     0.029 A 
ATOM     53  N   UNL A   1      45.623  29.213  29.803  1.00  0.00    -0.354 N 
ATOM     54  N   UNL A   1      42.739  29.728  29.650  1.00  0.00    -0.248 NA
ATOM     55  C   UNL A   1      40.907  31.144  29.966  1.00  0.00     0.031 C 
ATOM     56  C   UNL A   1      46.954  30.874  30.443  1.00  0.00     0.029 A 
ATOM     57  C   UNL A   1      45.629  30.536  30.216  1.00  0.00     0.049 A 
ATOM     58  H   UNL A   1      44.817  28.699  29.568  1.00  0.00     0.167 HD
ATOM     59  C   UNL A   1      43.189  30.961  30.100  1.00  0.00     0.074 A 
ATOM     60  C   UNL A   1      42.021  31.806  30.249  1.00  0.00     0.031 C 
ATOM     61  C   UNL A   1      44.456  31.357  30.370  1.00  0.00     0.031 A 
BRANCH  48  62
ATOM     62  C   UNL A   1      48.718  26.965  29.505  1.00  0.00    -0.014 A 
ATOM     63  C   UNL A   1      49.252  26.424  30.686  1.00  0.00     0.009 A 
ATOM     64  C   UNL A   1      49.551  27.099  28.384  1.00  0.00     0.009 A 
ATOM     65  C   UNL A   1      50.599  26.063  30.753  1.00  0.00     0.001 A 
ATOM     66  C   UNL A   1      50.892  26.715  28.446  1.00  0.00     0.001 A 
ATOM     67  C   UNL A   1      51.417  26.207  29.633  1.00  0.00     0.000 A 
ENDBRANCH  48  62
BRANCH  49  68
ATOM     68  C   UNL A   1      38.985  29.135  29.058  1.00  0.00    -0.014 A 
ATOM     69  C   UNL A   1      38.171  28.954  30.186  1.00  0.00     0.009 A 
ATOM     70  C   UNL A   1      38.408  29.632  27.878  1.00  0.00     0.009 A 
ATOM     71  C   UNL A   1      36.806  29.243  30.127  1.00  0.00     0.001 A 
ATOM     72  C   UNL A   1      37.049  29.945  27.830  1.00  0.00     0.001 A 
ATOM     73  C   UNL A   1      36.248  29.743  28.952  1.00  0.00     0.000 A 
ENDBRANCH  49  68
BRANCH  61  74
ATOM     74  C   UNL A   1      44.640  32.770  30.844  1.00  0.00    -0.014 A 
ATOM     75  C   UNL A   1      44.635  33.080  32.213  1.00  0.00     0.009 A 
ATOM     76  C   UNL A   1      44.847  33.798  29.911  1.00  0.00     0.009 A 
ATOM     77  C   UNL A   1      44.808  34.399  32.638  1.00  0.00     0.001 A 
ATOM     78  C   UNL A   1      45.045  35.112  30.341  1.00  0.00     0.001 A 
ATOM     79  C   UNL A   1      45.017  35.411  31.702  1.00  0.00     0.000 A 
ENDBRANCH  61  74
ENDBRANCH  35  36
ENDBRANCH  27  30
ENDBRANCH  25  26
ENDBRANCH  24  25
ENDBRANCH   1  24
TORSDOF 15
ENDMDL
MODEL 3
REMARK VINA RESULT:     -10.8      4.803      9.072
REMARK SMILES CCC(CC)(NC(=O)NC[C@@H]1CCCOC1)C(=O)NCCCNC(=O)c1ccc(-c2c3nc(c(-c4ccccc4)c4ccc([nH]4)c(-c4ccccc4)c4nc(c(-c5ccccc5)c5ccc2[nH]5)C=C4)C=C3)cc1
REMARK SMILES IDX 20 1 19 2 17 3 18 4 3 6 2 7 1 8 4 9 5 10 6 11 7 12 8 14 9 15
REMARK SMILES IDX 10 17 11 18 12 19 16 20 13 21 15 22 14 23 21 24 22 25 23 26
REMARK SMILES IDX 24 27 25 29 26 30 27 31 73 32 28 33 72 34 29 35 30 36 31 37
REMARK SMILES IDX 66 38 32 39 71 40 65 41 67 42 33 43 70 44 64 45 63 46 34 48
REMARK SMILES IDX 56 49 41 50 55 51 42 52 45 53 54 54 68 55 43 56 44 57 53 59
REMARK SMILES IDX 69 60 46 61 35 62 36 63 40 64 37 65 39 66 38 67 57 68 58 69
REMARK SMILES IDX 62 70 59 71 61 72 60 73 47 74 48 75 52 76 49 77 51 78 50 79
REMARK H PARENT 19 5 6 13 9 16 23 28 67 47 45 58
REMARK Flexibility Score: inf
ROOT
ATOM      1  C   UNL A   1      32.497  29.947  26.479  1.00  0.00     0.117 C 
ENDROOT
BRANCH   1   2
ATOM      2  N   UNL A   1      33.302  29.692  25.285  1.00  0.00    -0.354 N 
ATOM      3  C   UNL A   1      33.283  28.698  24.326  1.00  0.00     0.245 C 
ATOM      4  O   UNL A   1      33.730  29.011  23.218  1.00  0.00    -0.272 OA
ATOM      5  H   UNL A   1      34.002  30.367  25.135  1.00  0.00     0.163 HD
BRANCH   3   6
ATOM      6  C   UNL A   1      32.576  27.326  24.546  1.00  0.00     0.120 C 
BRANCH   6   7
ATOM      7  C   UNL A   1      31.216  27.263  25.305  1.00  0.00     0.035 C 
ATOM      8  C   UNL A   1      31.014  26.182  26.353  1.00  0.00     0.007 C 
ENDBRANCH   6   7
BRANCH   6   9
ATOM      9  C   UNL A   1      33.655  26.543  25.377  1.00  0.00     0.035 C 
ATOM     10  C   UNL A   1      34.278  25.293  24.780  1.00  0.00     0.007 C 
ENDBRANCH   6   9
BRANCH   6  11
ATOM     11  N   UNL A   1      32.313  26.787  23.203  1.00  0.00    -0.324 N 
ATOM     12  C   UNL A   1      31.459  27.141  22.221  1.00  0.00     0.315 C 
ATOM     13  H   UNL A   1      32.874  26.011  22.974  1.00  0.00     0.166 HD
ATOM     14  O   UNL A   1      31.385  26.378  21.253  1.00  0.00    -0.249 OA
ATOM     15  N   UNL A   1      30.744  28.278  22.149  1.00  0.00    -0.338 N 
ATOM     16  H   UNL A   1      30.473  28.468  21.222  1.00  0.00     0.165 HD
BRANCH  15  17
ATOM     17  C   UNL A   1      30.255  29.314  23.066  1.00  0.00     0.123 C 
BRANCH  17  18
ATOM     18  C   UNL A   1      28.931  30.053  22.696  1.00  0.00     0.034 C 
ATOM     19  C   UNL A   1      28.734  30.347  21.205  1.00  0.00     0.010 C 
ATOM     20  C   UNL A   1      28.773  31.289  23.604  1.00  0.00     0.165 C 
ATOM     21  C   UNL A   1      28.028  31.650  20.829  1.00  0.00     0.029 C 
ATOM     22  O   UNL A   1      27.782  32.197  23.133  1.00  0.00    -0.381 OA
ATOM     23  C   UNL A   1      28.161  32.736  21.872  1.00  0.00     0.160 C 
ENDBRANCH  17  18
ENDBRANCH  15  17
ENDBRANCH   6  11
ENDBRANCH   3   6
ENDBRANCH   1   2
BRANCH   1  24
ATOM     24  C   UNL A   1      32.070  31.365  26.878  1.00  0.00     0.042 C 
BRANCH  24  25
ATOM     25  C   UNL A   1      33.077  32.443  27.274  1.00  0.00     0.118 C 
BRANCH  25  26
ATOM     26  N   UNL A   1      32.530  33.735  27.625  1.00  0.00    -0.352 N 
ATOM     27  C   UNL A   1      33.063  34.702  28.455  1.00  0.00     0.251 C 
ATOM     28  H   UNL A   1      31.661  33.956  27.218  1.00  0.00     0.163 HD
ATOM     29  O   UNL A   1      32.503  35.780  28.572  1.00  0.00    -0.269 OA
BRANCH  27  30
ATOM     30  C   UNL A   1      34.256  34.399  29.280  1.00  0.00     0.039 A 
ATOM     31  C   UNL A   1      34.033  33.868  30.554  1.00  0.00     0.014 A 
ATOM     32  C   UNL A   1      35.562  34.579  28.815  1.00  0.00     0.014 A 
ATOM     33  C   UNL A   1      35.107  33.403  31.313  1.00  0.00     0.010 A 
ATOM     34  C   UNL A   1      36.637  34.084  29.560  1.00  0.00     0.010 A 
ATOM     35  C   UNL A   1      36.410  33.450  30.793  1.00  0.00    -0.014 A 
BRANCH  35  36
ATOM     36  C   UNL A   1      37.498  32.700  31.467  1.00  0.00     0.031 A 
ATOM     37  C   UNL A   1      38.162  31.524  30.820  1.00  0.00     0.074 A 
ATOM     38  C   UNL A   1      37.866  33.089  32.705  1.00  0.00     0.049 A 
ATOM     39  N   UNL A   1      39.144  30.784  31.273  1.00  0.00    -0.248 NA
ATOM     40  C   UNL A   1      37.654  31.118  29.503  1.00  0.00     0.031 C 
ATOM     41  C   UNL A   1      37.272  34.204  33.448  1.00  0.00     0.029 A 
ATOM     42  N   UNL A   1      38.825  32.598  33.554  1.00  0.00    -0.354 N 
ATOM     43  C   UNL A   1      39.376  29.826  30.296  1.00  0.00     0.074 A 
ATOM     44  C   UNL A   1      38.409  30.058  29.242  1.00  0.00     0.031 C 
ATOM     45  C   UNL A   1      37.896  34.328  34.629  1.00  0.00     0.029 A 
ATOM     46  C   UNL A   1      38.909  33.284  34.742  1.00  0.00     0.049 A 
ATOM     47  H   UNL A   1      39.398  31.829  33.333  1.00  0.00     0.167 HD
ATOM     48  C   UNL A   1      40.315  28.849  30.278  1.00  0.00     0.031 A 
ATOM     49  C   UNL A   1      39.710  33.094  35.807  1.00  0.00     0.031 A 
ATOM     50  C   UNL A   1      41.260  28.608  31.337  1.00  0.00     0.049 A 
ATOM     51  C   UNL A   1      40.719  31.984  35.772  1.00  0.00     0.074 A 
ATOM     52  C   UNL A   1      42.271  27.664  31.396  1.00  0.00     0.029 A 
ATOM     53  N   UNL A   1      41.301  29.310  32.533  1.00  0.00    -0.354 N 
ATOM     54  N   UNL A   1      40.973  31.131  34.810  1.00  0.00    -0.248 NA
ATOM     55  C   UNL A   1      41.558  31.816  36.967  1.00  0.00     0.031 C 
ATOM     56  C   UNL A   1      42.893  27.764  32.646  1.00  0.00     0.029 A 
ATOM     57  C   UNL A   1      42.300  28.802  33.347  1.00  0.00     0.049 A 
ATOM     58  H   UNL A   1      40.708  30.060  32.768  1.00  0.00     0.167 HD
ATOM     59  C   UNL A   1      42.008  30.333  35.275  1.00  0.00     0.074 A 
ATOM     60  C   UNL A   1      42.351  30.818  36.597  1.00  0.00     0.031 C 
ATOM     61  C   UNL A   1      42.619  29.289  34.665  1.00  0.00     0.031 A 
BRANCH  48  62
ATOM     62  C   UNL A   1      40.348  27.951  29.073  1.00  0.00    -0.014 A 
ATOM     63  C   UNL A   1      41.098  28.291  27.935  1.00  0.00     0.009 A 
ATOM     64  C   UNL A   1      39.644  26.737  29.084  1.00  0.00     0.009 A 
ATOM     65  C   UNL A   1      41.111  27.452  26.820  1.00  0.00     0.001 A 
ATOM     66  C   UNL A   1      39.678  25.889  27.976  1.00  0.00     0.001 A 
ATOM     67  C   UNL A   1      40.403  26.250  26.842  1.00  0.00     0.000 A 
ENDBRANCH  48  62
BRANCH  49  68
ATOM     68  C   UNL A   1      39.592  33.981  36.993  1.00  0.00    -0.014 A 
ATOM     69  C   UNL A   1      40.267  35.210  37.034  1.00  0.00     0.009 A 
ATOM     70  C   UNL A   1      38.798  33.606  38.088  1.00  0.00     0.009 A 
ATOM     71  C   UNL A   1      40.167  36.034  38.157  1.00  0.00     0.001 A 
ATOM     72  C   UNL A   1      38.679  34.443  39.198  1.00  0.00     0.001 A 
ATOM     73  C   UNL A   1      39.370  35.653  39.235  1.00  0.00     0.000 A 
ENDBRANCH  49  68
BRANCH  61  74
ATOM     74  C   UNL A   1      43.725  28.612  35.421  1.00  0.00    -0.014 A 
ATOM     75  C   UNL A   1      45.053  29.055  35.310  1.00  0.00     0.009 A 
ATOM     76  C   UNL A   1      43.432  27.538  36.275  1.00  0.00     0.009 A 
ATOM     77  C   UNL A   1      46.070  28.415  36.020  1.00  0.00     0.001 A 
ATOM     78  C   UNL A   1      44.449  26.916  37.002  1.00  0.00     0.001 A 
ATOM     79  C   UNL A   1      45.767  27.350  36.868  1.00  0.00     0.000 A 
ENDBRANCH  61  74
ENDBRANCH  35  36
ENDBRANCH  27  30
ENDBRANCH  25  26
ENDBRANCH  24  25
ENDBRANCH   1  24
TORSDOF 15
ENDMDL
