MODEL 1
REMARK VINA RESULT:     -10.1      0.000      0.000
REMARK SMILES Cc1noc(C)c1[C@H](C)NS(=O)(=O)[C@@H](C)C(=O)NCCCNC(=O)c1ccc(-c2c3nc(c(-c4ccccc4)c4ccc([nH]4)c(-c4ccccc4)c4nc(c(-c5ccccc5)c5ccc2[nH]5)C=C4)C=C3)cc1
REMARK SMILES IDX 19 1 18 2 16 3 17 4 14 6 15 7 11 8 12 9 13 10 10 11 8 13
REMARK SMILES IDX 9 14 7 15 1 16 2 17 3 18 4 19 5 20 6 21 20 22 21 23 22 24
REMARK SMILES IDX 23 25 24 27 25 28 26 29 72 30 27 31 71 32 28 33 29 34 30 35
REMARK SMILES IDX 65 36 31 37 70 38 64 39 66 40 32 41 69 42 63 43 62 44 33 46
REMARK SMILES IDX 55 47 40 48 54 49 41 50 44 51 53 52 67 53 42 54 43 55 52 57
REMARK SMILES IDX 68 58 45 59 34 60 35 61 39 62 36 63 38 64 37 65 56 66 57 67
REMARK SMILES IDX 61 68 58 69 60 70 59 71 46 72 47 73 51 74 48 75 50 76 49 77
REMARK H PARENT 18 5 10 12 22 26 66 45 44 56
REMARK Flexibility Score: inf
ROOT
ATOM      1  C   UNL A   1      36.465  20.304  24.670  1.00  0.00     0.117 C 
ENDROOT
BRANCH   1   2
ATOM      2  N   UNL A   1      35.669  20.654  25.831  1.00  0.00    -0.355 N 
ATOM      3  C   UNL A   1      34.671  21.531  26.080  1.00  0.00     0.239 C 
ATOM      4  O   UNL A   1      34.206  21.429  27.223  1.00  0.00    -0.274 OA
ATOM      5  H   UNL A   1      35.915  20.129  26.626  1.00  0.00     0.163 HD
BRANCH   3   6
ATOM      6  C   UNL A   1      34.074  22.510  25.113  1.00  0.00     0.209 C 
ATOM      7  C   UNL A   1      33.262  21.918  23.971  1.00  0.00     0.037 C 
BRANCH   6   8
ATOM      8  S   UNL A   1      35.103  23.910  24.645  1.00  0.00     0.223 S 
ATOM      9  O   UNL A   1      35.015  24.133  23.221  1.00  0.00    -0.212 OA
ATOM     10  O   UNL A   1      36.423  23.663  25.201  1.00  0.00    -0.212 OA
BRANCH   8  11
ATOM     11  N   UNL A   1      34.686  25.314  25.380  1.00  0.00    -0.207 NA
ATOM     12  H   UNL A   1      35.243  25.306  26.234  1.00  0.00     0.141 HD
BRANCH  11  13
ATOM     13  C   UNL A   1      33.403  25.873  25.819  1.00  0.00     0.102 C 
ATOM     14  C   UNL A   1      33.767  27.371  26.005  1.00  0.00     0.031 C 
BRANCH  13  15
ATOM     15  C   UNL A   1      32.203  25.702  24.913  1.00  0.00     0.035 A 
ATOM     16  C   UNL A   1      32.882  26.798  22.566  1.00  0.00     0.071 C 
ATOM     17  C   UNL A   1      32.001  26.125  23.547  1.00  0.00     0.085 A 
ATOM     18  N   UNL A   1      30.820  25.717  23.069  1.00  0.00    -0.085 NA
ATOM     19  O   UNL A   1      30.267  24.934  24.033  1.00  0.00    -0.361 OA
ATOM     20  C   UNL A   1      31.104  24.853  25.094  1.00  0.00     0.138 A 
ATOM     21  C   UNL A   1      30.677  23.835  26.082  1.00  0.00     0.091 C 
ENDBRANCH  13  15
ENDBRANCH  11  13
ENDBRANCH   8  11
ENDBRANCH   6   8
ENDBRANCH   3   6
ENDBRANCH   1   2
BRANCH   1  22
ATOM     22  C   UNL A   1      37.683  19.435  24.991  1.00  0.00     0.042 C 
BRANCH  22  23
ATOM     23  C   UNL A   1      38.888  20.156  25.614  1.00  0.00     0.118 C 
BRANCH  23  24
ATOM     24  N   UNL A   1      40.025  19.269  25.771  1.00  0.00    -0.352 N 
ATOM     25  C   UNL A   1      41.343  19.503  26.059  1.00  0.00     0.251 C 
ATOM     26  H   UNL A   1      39.806  18.318  25.646  1.00  0.00     0.163 HD
ATOM     27  O   UNL A   1      42.136  18.574  25.908  1.00  0.00    -0.269 OA
BRANCH  25  28
ATOM     28  C   UNL A   1      41.866  20.808  26.544  1.00  0.00     0.039 A 
ATOM     29  C   UNL A   1      41.695  21.100  27.905  1.00  0.00     0.014 A 
ATOM     30  C   UNL A   1      42.345  21.808  25.694  1.00  0.00     0.014 A 
ATOM     31  C   UNL A   1      41.996  22.371  28.409  1.00  0.00     0.010 A 
ATOM     32  C   UNL A   1      42.682  23.074  26.208  1.00  0.00     0.010 A 
ATOM     33  C   UNL A   1      42.494  23.378  27.569  1.00  0.00    -0.014 A 
BRANCH  33  34
ATOM     34  C   UNL A   1      42.773  24.741  28.113  1.00  0.00     0.031 A 
ATOM     35  C   UNL A   1      44.174  25.158  28.487  1.00  0.00     0.074 A 
ATOM     36  C   UNL A   1      41.773  25.633  28.257  1.00  0.00     0.049 A 
ATOM     37  N   UNL A   1      44.596  26.307  28.960  1.00  0.00    -0.248 NA
ATOM     38  C   UNL A   1      45.237  24.157  28.315  1.00  0.00     0.031 C 
ATOM     39  C   UNL A   1      40.367  25.392  27.929  1.00  0.00     0.029 A 
ATOM     40  N   UNL A   1      41.789  26.932  28.711  1.00  0.00    -0.354 N 
ATOM     41  C   UNL A   1      45.966  26.165  29.151  1.00  0.00     0.074 A 
ATOM     42  C   UNL A   1      46.299  24.806  28.774  1.00  0.00     0.031 C 
ATOM     43  C   UNL A   1      39.662  26.508  28.172  1.00  0.00     0.029 A 
ATOM     44  C   UNL A   1      40.554  27.536  28.704  1.00  0.00     0.049 A 
ATOM     45  H   UNL A   1      42.608  27.387  29.012  1.00  0.00     0.167 HD
ATOM     46  C   UNL A   1      46.871  27.077  29.585  1.00  0.00     0.031 A 
ATOM     47  C   UNL A   1      40.172  28.771  29.086  1.00  0.00     0.031 A 
ATOM     48  C   UNL A   1      46.566  28.435  29.952  1.00  0.00     0.049 A 
ATOM     49  C   UNL A   1      41.189  29.749  29.608  1.00  0.00     0.074 A 
ATOM     50  C   UNL A   1      47.439  29.432  30.360  1.00  0.00     0.029 A 
ATOM     51  N   UNL A   1      45.298  28.990  29.963  1.00  0.00    -0.354 N 
ATOM     52  N   UNL A   1      42.484  29.606  29.736  1.00  0.00    -0.248 NA
ATOM     53  C   UNL A   1      40.685  31.065  30.034  1.00  0.00     0.031 C 
ATOM     54  C   UNL A   1      46.692  30.575  30.665  1.00  0.00     0.029 A 
ATOM     55  C   UNL A   1      45.361  30.304  30.397  1.00  0.00     0.049 A 
ATOM     56  H   UNL A   1      44.474  28.519  29.701  1.00  0.00     0.167 HD
ATOM     57  C   UNL A   1      42.953  30.819  30.227  1.00  0.00     0.074 A 
ATOM     58  C   UNL A   1      41.806  31.691  30.366  1.00  0.00     0.031 C 
ATOM     59  C   UNL A   1      44.223  31.175  30.533  1.00  0.00     0.031 A 
BRANCH  46  60
ATOM     60  C   UNL A   1      48.303  26.631  29.701  1.00  0.00    -0.014 A 
ATOM     61  C   UNL A   1      49.217  26.844  28.657  1.00  0.00     0.009 A 
ATOM     62  C   UNL A   1      48.757  26.053  30.897  1.00  0.00     0.009 A 
ATOM     63  C   UNL A   1      50.552  26.457  28.799  1.00  0.00     0.001 A 
ATOM     64  C   UNL A   1      50.097  25.691  31.045  1.00  0.00     0.001 A 
ATOM     65  C   UNL A   1      50.991  25.885  29.993  1.00  0.00     0.000 A 
ENDBRANCH  46  60
BRANCH  47  66
ATOM     66  C   UNL A   1      38.743  29.166  28.993  1.00  0.00    -0.014 A 
ATOM     67  C   UNL A   1      37.885  29.006  30.091  1.00  0.00     0.009 A 
ATOM     68  C   UNL A   1      38.227  29.682  27.794  1.00  0.00     0.009 A 
ATOM     69  C   UNL A   1      36.532  29.334  29.984  1.00  0.00     0.001 A 
ATOM     70  C   UNL A   1      36.880  30.035  27.698  1.00  0.00     0.001 A 
ATOM     71  C   UNL A   1      36.031  29.851  28.789  1.00  0.00     0.000 A 
ENDBRANCH  47  66
BRANCH  59  72
ATOM     72  C   UNL A   1      44.456  32.579  31.014  1.00  0.00    -0.014 A 
ATOM     73  C   UNL A   1      44.446  32.893  32.382  1.00  0.00     0.009 A 
ATOM     74  C   UNL A   1      44.732  33.596  30.087  1.00  0.00     0.009 A 
ATOM     75  C   UNL A   1      44.681  34.202  32.810  1.00  0.00     0.001 A 
ATOM     76  C   UNL A   1      44.990  34.899  30.518  1.00  0.00     0.001 A 
ATOM     77  C   UNL A   1      44.957  35.203  31.878  1.00  0.00     0.000 A 
ENDBRANCH  59  72
ENDBRANCH  33  34
ENDBRANCH  25  28
ENDBRANCH  23  24
ENDBRANCH  22  23
ENDBRANCH   1  22
TORSDOF 14
ENDMDL
MODEL 2
REMARK VINA RESULT:     -10.0      2.919      8.065
REMARK SMILES Cc1noc(C)c1[C@H](C)NS(=O)(=O)[C@@H](C)C(=O)NCCCNC(=O)c1ccc(-c2c3nc(c(-c4ccccc4)c4ccc([nH]4)c(-c4ccccc4)c4nc(c(-c5ccccc5)c5ccc2[nH]5)C=C4)C=C3)cc1
REMARK SMILES IDX 19 1 18 2 16 3 17 4 14 6 15 7 11 8 12 9 13 10 10 11 8 13
REMARK SMILES IDX 9 14 7 15 1 16 2 17 3 18 4 19 5 20 6 21 20 22 21 23 22 24
REMARK SMILES IDX 23 25 24 27 25 28 26 29 72 30 27 31 71 32 28 33 29 34 30 35
REMARK SMILES IDX 65 36 31 37 70 38 64 39 66 40 32 41 69 42 63 43 62 44 33 46
REMARK SMILES IDX 55 47 40 48 54 49 41 50 44 51 53 52 67 53 42 54 43 55 52 57
REMARK SMILES IDX 68 58 45 59 34 60 35 61 39 62 36 63 38 64 37 65 56 66 57 67
REMARK SMILES IDX 61 68 58 69 60 70 59 71 46 72 47 73 51 74 48 75 50 76 49 77
REMARK H PARENT 18 5 10 12 22 26 66 45 44 56
REMARK Flexibility Score: inf
ROOT
ATOM      1  C   UNL A   1      31.598  28.012  26.107  1.00  0.00     0.117 C 
ENDROOT
BRANCH   1   2
ATOM      2  N   UNL A   1      31.228  28.653  24.860  1.00  0.00    -0.355 N 
ATOM      3  C   UNL A   1      31.216  28.285  23.559  1.00  0.00     0.239 C 
ATOM      4  O   UNL A   1      30.722  29.141  22.814  1.00  0.00    -0.274 OA
ATOM      5  H   UNL A   1      30.912  29.575  24.992  1.00  0.00     0.163 HD
BRANCH   3   6
ATOM      6  C   UNL A   1      31.664  26.969  22.994  1.00  0.00     0.209 C 
ATOM      7  C   UNL A   1      30.828  25.755  23.372  1.00  0.00     0.037 C 
BRANCH   6   8
ATOM      8  S   UNL A   1      33.438  26.668  22.961  1.00  0.00     0.223 S 
ATOM      9  O   UNL A   1      34.128  27.712  23.682  1.00  0.00    -0.212 OA
ATOM     10  O   UNL A   1      33.801  26.466  21.568  1.00  0.00    -0.212 OA
BRANCH   8  11
ATOM     11  N   UNL A   1      33.881  25.242  23.635  1.00  0.00    -0.207 NA
ATOM     12  H   UNL A   1      32.988  24.789  23.833  1.00  0.00     0.141 HD
BRANCH  11  13
ATOM     13  C   UNL A   1      34.701  24.894  24.800  1.00  0.00     0.102 C 
ATOM     14  C   UNL A   1      33.654  24.962  25.944  1.00  0.00     0.031 C 
BRANCH  13  15
ATOM     15  C   UNL A   1      35.427  23.566  24.790  1.00  0.00     0.035 A 
ATOM     16  C   UNL A   1      37.698  23.952  26.155  1.00  0.00     0.071 C 
ATOM     17  C   UNL A   1      36.707  23.202  25.351  1.00  0.00     0.085 A 
ATOM     18  N   UNL A   1      36.967  21.899  25.193  1.00  0.00    -0.085 NA
ATOM     19  O   UNL A   1      35.851  21.351  24.642  1.00  0.00    -0.361 OA
ATOM     20  C   UNL A   1      34.908  22.305  24.470  1.00  0.00     0.138 A 
ATOM     21  C   UNL A   1      33.589  21.744  24.095  1.00  0.00     0.091 C 
ENDBRANCH  13  15
ENDBRANCH  11  13
ENDBRANCH   8  11
ENDBRANCH   6   8
ENDBRANCH   3   6
ENDBRANCH   1   2
BRANCH   1  22
ATOM     22  C   UNL A   1      32.341  28.929  27.081  1.00  0.00     0.042 C 
BRANCH  22  23
ATOM     23  C   UNL A   1      33.316  29.938  26.456  1.00  0.00     0.118 C 
BRANCH  23  24
ATOM     24  N   UNL A   1      33.405  31.157  27.237  1.00  0.00    -0.352 N 
ATOM     25  C   UNL A   1      34.298  31.581  28.184  1.00  0.00     0.251 C 
ATOM     26  H   UNL A   1      32.685  31.801  27.050  1.00  0.00     0.163 HD
ATOM     27  O   UNL A   1      34.000  32.572  28.850  1.00  0.00    -0.269 OA
BRANCH  25  28
ATOM     28  C   UNL A   1      35.601  30.916  28.451  1.00  0.00     0.039 A 
ATOM     29  C   UNL A   1      35.605  29.860  29.373  1.00  0.00     0.014 A 
ATOM     30  C   UNL A   1      36.823  31.401  27.974  1.00  0.00     0.014 A 
ATOM     31  C   UNL A   1      36.809  29.297  29.814  1.00  0.00     0.010 A 
ATOM     32  C   UNL A   1      38.031  30.810  28.391  1.00  0.00     0.010 A 
ATOM     33  C   UNL A   1      38.040  29.763  29.331  1.00  0.00    -0.014 A 
BRANCH  33  34
ATOM     34  C   UNL A   1      39.317  29.179  29.840  1.00  0.00     0.031 A 
ATOM     35  C   UNL A   1      40.001  29.745  31.060  1.00  0.00     0.074 A 
ATOM     36  C   UNL A   1      39.870  28.114  29.225  1.00  0.00     0.049 A 
ATOM     37  N   UNL A   1      41.107  29.351  31.646  1.00  0.00    -0.248 NA
ATOM     38  C   UNL A   1      39.366  30.906  31.702  1.00  0.00     0.031 C 
ATOM     39  C   UNL A   1      39.328  27.442  28.043  1.00  0.00     0.029 A 
ATOM     40  N   UNL A   1      41.012  27.403  29.517  1.00  0.00    -0.354 N 
ATOM     41  C   UNL A   1      41.305  30.216  32.715  1.00  0.00     0.074 A 
ATOM     42  C   UNL A   1      40.223  31.179  32.677  1.00  0.00     0.031 C 
ATOM     43  C   UNL A   1      40.123  26.407  27.725  1.00  0.00     0.029 A 
ATOM     44  C   UNL A   1      41.249  26.359  28.656  1.00  0.00     0.049 A 
ATOM     45  H   UNL A   1      41.603  27.622  30.272  1.00  0.00     0.167 HD
ATOM     46  C   UNL A   1      42.285  30.211  33.653  1.00  0.00     0.031 A 
ATOM     47  C   UNL A   1      42.256  25.465  28.607  1.00  0.00     0.031 A 
ATOM     48  C   UNL A   1      43.363  29.259  33.719  1.00  0.00     0.049 A 
ATOM     49  C   UNL A   1      43.356  25.509  29.631  1.00  0.00     0.074 A 
ATOM     50  C   UNL A   1      44.370  29.163  34.667  1.00  0.00     0.029 A 
ATOM     51  N   UNL A   1      43.581  28.243  32.805  1.00  0.00    -0.354 N 
ATOM     52  N   UNL A   1      43.498  26.309  30.659  1.00  0.00    -0.248 NA
ATOM     53  C   UNL A   1      44.435  24.518  29.489  1.00  0.00     0.031 C 
ATOM     54  C   UNL A   1      45.225  28.119  34.298  1.00  0.00     0.029 A 
ATOM     55  C   UNL A   1      44.720  27.533  33.150  1.00  0.00     0.049 A 
ATOM     56  H   UNL A   1      43.011  28.052  32.025  1.00  0.00     0.167 HD
ATOM     57  C   UNL A   1      44.661  25.900  31.300  1.00  0.00     0.074 A 
ATOM     58  C   UNL A   1      45.183  24.775  30.553  1.00  0.00     0.031 C 
ATOM     59  C   UNL A   1      45.241  26.413  32.411  1.00  0.00     0.031 A 
BRANCH  46  60
ATOM     60  C   UNL A   1      42.249  31.291  34.700  1.00  0.00    -0.014 A 
ATOM     61  C   UNL A   1      43.048  32.440  34.586  1.00  0.00     0.009 A 
ATOM     62  C   UNL A   1      41.356  31.186  35.777  1.00  0.00     0.009 A 
ATOM     63  C   UNL A   1      42.973  33.449  35.549  1.00  0.00     0.001 A 
ATOM     64  C   UNL A   1      41.265  32.208  36.724  1.00  0.00     0.001 A 
ATOM     65  C   UNL A   1      42.080  33.334  36.614  1.00  0.00     0.000 A 
ENDBRANCH  46  60
BRANCH  47  66
ATOM     66  C   UNL A   1      42.281  24.435  27.537  1.00  0.00    -0.014 A 
ATOM     67  C   UNL A   1      41.622  23.209  27.710  1.00  0.00     0.009 A 
ATOM     68  C   UNL A   1      42.989  24.666  26.346  1.00  0.00     0.009 A 
ATOM     69  C   UNL A   1      41.689  22.225  26.722  1.00  0.00     0.001 A 
ATOM     70  C   UNL A   1      43.031  23.690  25.349  1.00  0.00     0.001 A 
ATOM     71  C   UNL A   1      42.391  22.468  25.541  1.00  0.00     0.000 A 
ENDBRANCH  47  66
BRANCH  59  72
ATOM     72  C   UNL A   1      46.489  25.746  32.917  1.00  0.00    -0.014 A 
ATOM     73  C   UNL A   1      46.431  24.715  33.867  1.00  0.00     0.009 A 
ATOM     74  C   UNL A   1      47.739  26.127  32.404  1.00  0.00     0.009 A 
ATOM     75  C   UNL A   1      47.603  24.097  34.313  1.00  0.00     0.001 A 
ATOM     76  C   UNL A   1      48.906  25.492  32.833  1.00  0.00     0.001 A 
ATOM     77  C   UNL A   1      48.838  24.483  33.792  1.00  0.00     0.000 A 
ENDBRANCH  59  72
ENDBRANCH  33  34
ENDBRANCH  25  28
ENDBRANCH  23  24
ENDBRANCH  22  23
ENDBRANCH   1  22
TORSDOF 14
ENDMDL
MODEL 3
REMARK VINA RESULT:      -9.9      1.778      7.675
REMARK SMILES Cc1noc(C)c1[C@H](C)NS(=O)(=O)[C@@H](C)C(=O)NCCCNC(=O)c1ccc(-c2c3nc(c(-c4ccccc4)c4ccc([nH]4)c(-c4ccccc4)c4nc(c(-c5ccccc5)c5ccc2[nH]5)C=C4)C=C3)cc1
REMARK SMILES IDX 19 1 18 2 16 3 17 4 14 6 15 7 11 8 12 9 13 10 10 11 8 13
REMARK SMILES IDX 9 14 7 15 1 16 2 17 3 18 4 19 5 20 6 21 20 22 21 23 22 24
REMARK SMILES IDX 23 25 24 27 25 28 26 29 72 30 27 31 71 32 28 33 29 34 30 35
REMARK SMILES IDX 65 36 31 37 70 38 64 39 66 40 32 41 69 42 63 43 62 44 33 46
REMARK SMILES IDX 55 47 40 48 54 49 41 50 44 51 53 52 67 53 42 54 43 55 52 57
REMARK SMILES IDX 68 58 45 59 34 60 35 61 39 62 36 63 38 64 37 65 56 66 57 67
REMARK SMILES IDX 61 68 58 69 60 70 59 71 46 72 47 73 51 74 48 75 50 76 49 77
REMARK H PARENT 18 5 10 12 22 26 66 45 44 56
REMARK Flexibility Score: inf
ROOT
ATOM      1  C   UNL A   1      31.439  27.466  25.870  1.00  0.00     0.117 C 
ENDROOT
BRANCH   1   2
ATOM      2  N   UNL A   1      31.545  27.523  24.426  1.00  0.00    -0.355 N 
ATOM      3  C   UNL A   1      31.808  26.627  23.447  1.00  0.00     0.239 C 
ATOM      4  O   UNL A   1      31.704  27.103  22.310  1.00  0.00    -0.274 OA
ATOM      5  H   UNL A   1      31.389  28.428  24.073  1.00  0.00     0.163 HD
BRANCH   3   6
ATOM      6  C   UNL A   1      32.126  25.172  23.625  1.00  0.00     0.209 C 
ATOM      7  C   UNL A   1      30.998  24.294  24.143  1.00  0.00     0.037 C 
BRANCH   6   8
ATOM      8  S   UNL A   1      33.746  24.779  24.304  1.00  0.00     0.223 S 
ATOM      9  O   UNL A   1      34.305  25.943  24.949  1.00  0.00    -0.212 OA
ATOM     10  O   UNL A   1      34.515  24.177  23.228  1.00  0.00    -0.212 OA
BRANCH   8  11
ATOM     11  N   UNL A   1      33.723  23.575  25.416  1.00  0.00    -0.207 NA
ATOM     12  H   UNL A   1      32.935  23.824  26.014  1.00  0.00     0.141 HD
BRANCH  11  13
ATOM     13  C   UNL A   1      34.719  23.067  26.365  1.00  0.00     0.102 C 
ATOM     14  C   UNL A   1      33.812  22.541  27.511  1.00  0.00     0.031 C 
BRANCH  13  15
ATOM     15  C   UNL A   1      35.682  22.002  25.885  1.00  0.00     0.035 A 
ATOM     16  C   UNL A   1      34.179  20.106  24.736  1.00  0.00     0.071 C 
ATOM     17  C   UNL A   1      35.423  20.746  25.220  1.00  0.00     0.085 A 
ATOM     18  N   UNL A   1      36.556  20.115  24.892  1.00  0.00    -0.085 NA
ATOM     19  O   UNL A   1      37.572  20.960  25.213  1.00  0.00    -0.361 OA
ATOM     20  C   UNL A   1      37.069  22.106  25.728  1.00  0.00     0.138 A 
ATOM     21  C   UNL A   1      38.098  23.161  25.884  1.00  0.00     0.091 C 
ENDBRANCH  13  15
ENDBRANCH  11  13
ENDBRANCH   8  11
ENDBRANCH   6   8
ENDBRANCH   3   6
ENDBRANCH   1   2
BRANCH   1  22
ATOM     22  C   UNL A   1      31.757  28.791  26.569  1.00  0.00     0.042 C 
BRANCH  22  23
ATOM     23  C   UNL A   1      33.177  28.935  27.138  1.00  0.00     0.118 C 
BRANCH  23  24
ATOM     24  N   UNL A   1      33.403  30.256  27.691  1.00  0.00    -0.352 N 
ATOM     25  C   UNL A   1      34.470  30.810  28.347  1.00  0.00     0.251 C 
ATOM     26  H   UNL A   1      32.644  30.871  27.573  1.00  0.00     0.163 HD
ATOM     27  O   UNL A   1      34.299  31.893  28.908  1.00  0.00    -0.269 OA
BRANCH  25  28
ATOM     28  C   UNL A   1      35.816  30.182  28.418  1.00  0.00     0.039 A 
ATOM     29  C   UNL A   1      36.228  29.689  29.663  1.00  0.00     0.014 A 
ATOM     30  C   UNL A   1      36.740  30.223  27.369  1.00  0.00     0.014 A 
ATOM     31  C   UNL A   1      37.541  29.244  29.861  1.00  0.00     0.010 A 
ATOM     32  C   UNL A   1      38.049  29.742  27.558  1.00  0.00     0.010 A 
ATOM     33  C   UNL A   1      38.472  29.264  28.812  1.00  0.00    -0.014 A 
BRANCH  33  34
ATOM     34  C   UNL A   1      39.880  28.824  29.047  1.00  0.00     0.031 A 
ATOM     35  C   UNL A   1      40.874  29.727  29.734  1.00  0.00     0.074 A 
ATOM     36  C   UNL A   1      40.279  27.593  28.667  1.00  0.00     0.049 A 
ATOM     37  N   UNL A   1      42.132  29.497  30.031  1.00  0.00    -0.248 NA
ATOM     38  C   UNL A   1      40.400  31.060  30.134  1.00  0.00     0.031 C 
ATOM     39  C   UNL A   1      39.438  26.596  28.004  1.00  0.00     0.029 A 
ATOM     40  N   UNL A   1      41.498  26.968  28.793  1.00  0.00    -0.354 N 
ATOM     41  C   UNL A   1      42.600  30.655  30.641  1.00  0.00     0.074 A 
ATOM     42  C   UNL A   1      41.501  31.599  30.641  1.00  0.00     0.031 C 
ATOM     43  C   UNL A   1      40.158  25.480  27.801  1.00  0.00     0.029 A 
ATOM     44  C   UNL A   1      41.520  25.690  28.287  1.00  0.00     0.049 A 
ATOM     45  H   UNL A   1      42.282  27.395  29.207  1.00  0.00     0.167 HD
ATOM     46  C   UNL A   1      43.823  30.914  31.166  1.00  0.00     0.031 A 
ATOM     47  C   UNL A   1      42.517  24.787  28.211  1.00  0.00     0.031 A 
ATOM     48  C   UNL A   1      44.926  29.990  31.189  1.00  0.00     0.049 A 
ATOM     49  C   UNL A   1      43.878  25.115  28.760  1.00  0.00     0.074 A 
ATOM     50  C   UNL A   1      46.185  30.165  31.744  1.00  0.00     0.029 A 
ATOM     51  N   UNL A   1      44.912  28.722  30.633  1.00  0.00    -0.354 N 
ATOM     52  N   UNL A   1      44.284  26.199  29.373  1.00  0.00    -0.248 NA
ATOM     53  C   UNL A   1      44.920  24.086  28.609  1.00  0.00     0.031 C 
ATOM     54  C   UNL A   1      46.947  29.022  31.481  1.00  0.00     0.029 A 
ATOM     55  C   UNL A   1      46.146  28.116  30.807  1.00  0.00     0.049 A 
ATOM     56  H   UNL A   1      44.139  28.312  30.182  1.00  0.00     0.167 HD
ATOM     57  C   UNL A   1      45.614  25.972  29.705  1.00  0.00     0.074 A 
ATOM     58  C   UNL A   1      45.946  24.643  29.236  1.00  0.00     0.031 C 
ATOM     59  C   UNL A   1      46.479  26.794  30.345  1.00  0.00     0.031 A 
BRANCH  46  60
ATOM     60  C   UNL A   1      44.049  32.277  31.762  1.00  0.00    -0.014 A 
ATOM     61  C   UNL A   1      43.817  32.522  33.125  1.00  0.00     0.009 A 
ATOM     62  C   UNL A   1      44.562  33.310  30.962  1.00  0.00     0.009 A 
ATOM     63  C   UNL A   1      44.068  33.784  33.667  1.00  0.00     0.001 A 
ATOM     64  C   UNL A   1      44.835  34.564  31.513  1.00  0.00     0.001 A 
ATOM     65  C   UNL A   1      44.580  34.802  32.863  1.00  0.00     0.000 A 
ENDBRANCH  46  60
BRANCH  47  66
ATOM     66  C   UNL A   1      42.271  23.463  27.583  1.00  0.00    -0.014 A 
ATOM     67  C   UNL A   1      42.447  23.284  26.203  1.00  0.00     0.009 A 
ATOM     68  C   UNL A   1      41.833  22.379  28.360  1.00  0.00     0.009 A 
ATOM     69  C   UNL A   1      42.168  22.051  25.609  1.00  0.00     0.001 A 
ATOM     70  C   UNL A   1      41.580  21.141  27.768  1.00  0.00     0.001 A 
ATOM     71  C   UNL A   1      41.739  20.980  26.393  1.00  0.00     0.000 A 
ENDBRANCH  47  66
BRANCH  59  72
ATOM     72  C   UNL A   1      47.863  26.275  30.614  1.00  0.00    -0.014 A 
ATOM     73  C   UNL A   1      48.883  26.384  29.656  1.00  0.00     0.009 A 
ATOM     74  C   UNL A   1      48.163  25.705  31.862  1.00  0.00     0.009 A 
ATOM     75  C   UNL A   1      50.167  25.909  29.932  1.00  0.00     0.001 A 
ATOM     76  C   UNL A   1      49.454  25.254  32.144  1.00  0.00     0.001 A 
ATOM     77  C   UNL A   1      50.453  25.349  31.177  1.00  0.00     0.000 A 
ENDBRANCH  59  72
ENDBRANCH  33  34
ENDBRANCH  25  28
ENDBRANCH  23  24
ENDBRANCH  22  23
ENDBRANCH   1  22
TORSDOF 14
ENDMDL
