MODEL 1
REMARK VINA RESULT:     -12.9      0.000      0.000
REMARK SMILES Cc1c(CC(=O)N[C@@H](CCO)C(=O)NCCCNC(=O)c2ccc(-c3c4nc(c(-c5ccccc5)c5ccc([nH]5)c(-c5ccccc5)c5nc(c(-c6ccccc6)c6ccc3[nH]6)C=C5)C=C4)cc2)cc(-c2ccc(S(C)(=O)=O)cc2)n1-c1ccc(F)cc1
REMARK SMILES IDX 12 1 13 2 14 3 8 5 7 6 5 7 6 8 4 10 3 11 1 12 2 13 81 14
REMARK SMILES IDX 69 15 70 16 82 17 83 18 88 19 84 20 87 21 85 22 86 23 71 24
REMARK SMILES IDX 72 25 80 26 73 27 79 28 74 29 75 30 76 31 77 32 78 33 9 34
REMARK SMILES IDX 10 35 11 36 15 38 16 39 17 40 18 41 19 42 20 44 21 45 22 46
REMARK SMILES IDX 68 47 23 48 67 49 24 50 25 51 26 52 61 53 27 54 66 55 60 56
REMARK SMILES IDX 62 57 28 58 65 59 59 60 58 61 29 63 51 64 36 65 50 66 37 67
REMARK SMILES IDX 40 68 49 69 63 70 38 71 39 72 48 74 64 75 41 76 30 77 31 78
REMARK SMILES IDX 35 79 32 80 34 81 33 82 52 83 53 84 57 85 54 86 56 87 55 88
REMARK SMILES IDX 42 89 43 90 47 91 44 92 46 93 45 94
REMARK H PARENT 14 4 7 9 11 37 18 43 62 62 40 73
REMARK Flexibility Score: inf
ROOT
ATOM      1  C   UNL A   1      33.888  20.136  25.360  1.00  0.00     0.242 C 
ATOM      2  O   UNL A   1      33.246  19.091  25.520  1.00  0.00    -0.273 OA
ATOM      3  N   UNL A   1      35.237  19.996  25.312  1.00  0.00    -0.354 N 
ATOM      4  H   UNL A   1      35.533  19.084  25.533  1.00  0.00     0.163 HD
ENDROOT
BRANCH   1   5
ATOM      5  C   UNL A   1      33.136  21.449  25.084  1.00  0.00     0.173 C 
BRANCH   5   6
ATOM      6  N   UNL A   1      32.360  21.426  23.850  1.00  0.00    -0.344 N 
ATOM      7  C   UNL A   1      32.580  22.164  22.717  1.00  0.00     0.225 C 
ATOM      8  O   UNL A   1      31.965  21.843  21.697  1.00  0.00    -0.275 OA
ATOM      9  H   UNL A   1      31.591  20.811  23.829  1.00  0.00     0.164 HD
BRANCH   7  10
ATOM     10  C   UNL A   1      33.569  23.332  22.711  1.00  0.00     0.137 C 
BRANCH  10  11
ATOM     11  C   UNL A   1      32.972  24.612  23.226  1.00  0.00    -0.017 A 
ATOM     12  C   UNL A   1      34.380  24.952  25.370  1.00  0.00     0.065 C 
ATOM     13  C   UNL A   1      33.374  25.347  24.335  1.00  0.00     0.024 A 
ATOM     14  N   UNL A   1      32.602  26.503  24.395  1.00  0.00    -0.314 N 
ATOM     15  C   UNL A   1      31.860  25.298  22.662  1.00  0.00     0.033 A 
ATOM     16  C   UNL A   1      31.671  26.482  23.352  1.00  0.00     0.053 A 
BRANCH  14  17
ATOM     17  C   UNL A   1      32.741  27.552  25.342  1.00  0.00     0.046 A 
ATOM     18  C   UNL A   1      31.846  27.636  26.417  1.00  0.00     0.029 A 
ATOM     19  C   UNL A   1      33.710  28.545  25.139  1.00  0.00     0.029 A 
ATOM     20  C   UNL A   1      31.925  28.715  27.294  1.00  0.00     0.041 A 
ATOM     21  C   UNL A   1      33.775  29.625  26.019  1.00  0.00     0.041 A 
ATOM     22  C   UNL A   1      32.885  29.700  27.085  1.00  0.00     0.123 A 
ATOM     23  F   UNL A   1      32.944  30.745  27.920  1.00  0.00    -0.207 F 
ENDBRANCH  14  17
BRANCH  16  24
ATOM     24  C   UNL A   1      30.739  27.575  23.034  1.00  0.00    -0.001 A 
ATOM     25  C   UNL A   1      31.180  28.731  22.369  1.00  0.00     0.011 A 
ATOM     26  C   UNL A   1      29.397  27.489  23.426  1.00  0.00     0.011 A 
ATOM     27  C   UNL A   1      30.323  29.817  22.175  1.00  0.00     0.021 A 
ATOM     28  C   UNL A   1      28.530  28.568  23.230  1.00  0.00     0.021 A 
ATOM     29  C   UNL A   1      29.007  29.738  22.635  1.00  0.00     0.067 A 
BRANCH  29  30
ATOM     30  S   UNL A   1      27.941  31.147  22.433  1.00  0.00     0.175 S 
ATOM     31  C   UNL A   1      29.014  32.538  22.688  1.00  0.00     0.163 C 
ATOM     32  O   UNL A   1      27.493  31.154  21.067  1.00  0.00    -0.224 OA
ATOM     33  O   UNL A   1      26.986  31.132  23.540  1.00  0.00    -0.224 OA
ENDBRANCH  29  30
ENDBRANCH  16  24
ENDBRANCH  10  11
ENDBRANCH   7  10
ENDBRANCH   5   6
BRANCH   5  34
ATOM     34  C   UNL A   1      32.404  22.071  26.287  1.00  0.00     0.063 C 
BRANCH  34  35
ATOM     35  C   UNL A   1      31.098  22.814  26.054  1.00  0.00     0.158 C 
BRANCH  35  36
ATOM     36  O   UNL A   1      30.564  23.415  27.222  1.00  0.00    -0.396 OA
ATOM     37  H   UNL A   1      29.633  23.643  27.071  1.00  0.00     0.210 HD
ENDBRANCH  35  36
ENDBRANCH  34  35
ENDBRANCH   5  34
ENDBRANCH   1   5
BRANCH   3  38
ATOM     38  C   UNL A   1      36.345  20.890  25.008  1.00  0.00     0.117 C 
BRANCH  38  39
ATOM     39  C   UNL A   1      36.336  22.199  25.808  1.00  0.00     0.042 C 
BRANCH  39  40
ATOM     40  C   UNL A   1      37.638  23.015  25.816  1.00  0.00     0.118 C 
BRANCH  40  41
ATOM     41  N   UNL A   1      38.848  22.230  25.952  1.00  0.00    -0.352 N 
ATOM     42  C   UNL A   1      40.040  22.612  26.546  1.00  0.00     0.251 C 
ATOM     43  H   UNL A   1      38.821  21.318  25.580  1.00  0.00     0.163 HD
ATOM     44  O   UNL A   1      40.940  21.782  26.643  1.00  0.00    -0.269 OA
BRANCH  42  45
ATOM     45  C   UNL A   1      40.281  24.043  26.961  1.00  0.00     0.039 A 
ATOM     46  C   UNL A   1      39.746  24.456  28.166  1.00  0.00     0.014 A 
ATOM     47  C   UNL A   1      40.878  25.041  26.168  1.00  0.00     0.014 A 
ATOM     48  C   UNL A   1      39.867  25.813  28.583  1.00  0.00     0.010 A 
ATOM     49  C   UNL A   1      40.906  26.452  26.561  1.00  0.00     0.010 A 
ATOM     50  C   UNL A   1      40.387  26.906  27.792  1.00  0.00    -0.014 A 
BRANCH  50  51
ATOM     51  C   UNL A   1      39.829  28.395  28.185  1.00  0.00     0.031 A 
ATOM     52  C   UNL A   1      41.103  29.117  28.456  1.00  0.00     0.074 A 
ATOM     53  C   UNL A   1      38.706  29.164  28.511  1.00  0.00     0.049 A 
ATOM     54  N   UNL A   1      41.865  28.640  29.395  1.00  0.00    -0.248 NA
ATOM     55  C   UNL A   1      41.773  30.003  27.505  1.00  0.00     0.031 C 
ATOM     56  C   UNL A   1      37.306  28.730  28.665  1.00  0.00     0.029 A 
ATOM     57  N   UNL A   1      38.540  30.569  28.790  1.00  0.00    -0.354 N 
ATOM     58  C   UNL A   1      43.056  29.312  29.321  1.00  0.00     0.074 A 
ATOM     59  C   UNL A   1      43.010  29.978  28.021  1.00  0.00     0.031 C 
ATOM     60  C   UNL A   1      36.456  29.789  28.834  1.00  0.00     0.029 A 
ATOM     61  C   UNL A   1      37.181  31.060  28.870  1.00  0.00     0.049 A 
ATOM     62  H   UNL A   1      39.313  31.163  28.921  1.00  0.00     0.167 HD
ATOM     63  C   UNL A   1      43.510  29.798  30.512  1.00  0.00     0.031 A 
ATOM     64  C   UNL A   1      36.669  32.354  29.023  1.00  0.00     0.031 A 
ATOM     65  C   UNL A   1      43.126  31.178  30.670  1.00  0.00     0.049 A 
ATOM     66  C   UNL A   1      37.723  33.132  29.679  1.00  0.00     0.074 A 
ATOM     67  C   UNL A   1      43.181  32.257  29.810  1.00  0.00     0.029 A 
ATOM     68  N   UNL A   1      42.143  31.455  31.595  1.00  0.00    -0.354 N 
ATOM     69  N   UNL A   1      37.898  33.068  30.963  1.00  0.00    -0.248 NA
ATOM     70  C   UNL A   1      38.548  34.108  28.980  1.00  0.00     0.031 C 
ATOM     71  C   UNL A   1      41.905  32.850  29.913  1.00  0.00     0.029 A 
ATOM     72  C   UNL A   1      41.314  32.442  31.100  1.00  0.00     0.049 A 
ATOM     73  H   UNL A   1      42.045  31.016  32.472  1.00  0.00     0.167 HD
ATOM     74  C   UNL A   1      39.177  33.504  31.102  1.00  0.00     0.074 A 
ATOM     75  C   UNL A   1      39.403  34.382  29.968  1.00  0.00     0.031 C 
ATOM     76  C   UNL A   1      40.034  32.660  31.729  1.00  0.00     0.031 A 
BRANCH  63  77
ATOM     77  C   UNL A   1      43.490  28.770  31.621  1.00  0.00    -0.014 A 
ATOM     78  C   UNL A   1      42.326  28.611  32.379  1.00  0.00     0.009 A 
ATOM     79  C   UNL A   1      44.654  28.090  32.047  1.00  0.00     0.009 A 
ATOM     80  C   UNL A   1      42.349  27.862  33.563  1.00  0.00     0.001 A 
ATOM     81  C   UNL A   1      44.690  27.388  33.251  1.00  0.00     0.001 A 
ATOM     82  C   UNL A   1      43.536  27.280  34.014  1.00  0.00     0.000 A 
ENDBRANCH  63  77
BRANCH  64  83
ATOM     83  C   UNL A   1      35.397  33.254  28.980  1.00  0.00    -0.014 A 
ATOM     84  C   UNL A   1      34.699  33.561  30.202  1.00  0.00     0.009 A 
ATOM     85  C   UNL A   1      35.118  34.138  27.931  1.00  0.00     0.009 A 
ATOM     86  C   UNL A   1      33.906  34.711  30.401  1.00  0.00     0.001 A 
ATOM     87  C   UNL A   1      34.285  35.282  28.118  1.00  0.00     0.001 A 
ATOM     88  C   UNL A   1      33.715  35.590  29.356  1.00  0.00     0.000 A 
ENDBRANCH  64  83
BRANCH  76  89
ATOM     89  C   UNL A   1      39.502  31.860  32.909  1.00  0.00    -0.014 A 
ATOM     90  C   UNL A   1      38.798  30.637  32.823  1.00  0.00     0.009 A 
ATOM     91  C   UNL A   1      39.680  32.396  34.191  1.00  0.00     0.009 A 
ATOM     92  C   UNL A   1      38.247  30.019  33.953  1.00  0.00     0.001 A 
ATOM     93  C   UNL A   1      39.179  31.753  35.329  1.00  0.00     0.001 A 
ATOM     94  C   UNL A   1      38.445  30.576  35.208  1.00  0.00     0.000 A 
ENDBRANCH  76  89
ENDBRANCH  50  51
ENDBRANCH  42  45
ENDBRANCH  40  41
ENDBRANCH  39  40
ENDBRANCH  38  39
ENDBRANCH   3  38
TORSDOF 19
ENDMDL
MODEL 2
REMARK VINA RESULT:     -11.1      1.672      2.248
REMARK SMILES Cc1c(CC(=O)N[C@@H](CCO)C(=O)NCCCNC(=O)c2ccc(-c3c4nc(c(-c5ccccc5)c5ccc([nH]5)c(-c5ccccc5)c5nc(c(-c6ccccc6)c6ccc3[nH]6)C=C5)C=C4)cc2)cc(-c2ccc(S(C)(=O)=O)cc2)n1-c1ccc(F)cc1
REMARK SMILES IDX 12 1 13 2 14 3 8 5 7 6 5 7 6 8 4 10 3 11 1 12 2 13 81 14
REMARK SMILES IDX 69 15 70 16 82 17 83 18 88 19 84 20 87 21 85 22 86 23 71 24
REMARK SMILES IDX 72 25 80 26 73 27 79 28 74 29 75 30 76 31 77 32 78 33 9 34
REMARK SMILES IDX 10 35 11 36 15 38 16 39 17 40 18 41 19 42 20 44 21 45 22 46
REMARK SMILES IDX 68 47 23 48 67 49 24 50 25 51 26 52 61 53 27 54 66 55 60 56
REMARK SMILES IDX 62 57 28 58 65 59 59 60 58 61 29 63 51 64 36 65 50 66 37 67
REMARK SMILES IDX 40 68 49 69 63 70 38 71 39 72 48 74 64 75 41 76 30 77 31 78
REMARK SMILES IDX 35 79 32 80 34 81 33 82 52 83 53 84 57 85 54 86 56 87 55 88
REMARK SMILES IDX 42 89 43 90 47 91 44 92 46 93 45 94
REMARK H PARENT 14 4 7 9 11 37 18 43 62 62 40 73
REMARK Flexibility Score: inf
ROOT
ATOM      1  C   UNL A   1      34.347  19.204  24.691  1.00  0.00     0.242 C 
ATOM      2  O   UNL A   1      34.764  18.039  24.707  1.00  0.00    -0.273 OA
ATOM      3  N   UNL A   1      35.280  20.165  24.904  1.00  0.00    -0.354 N 
ATOM      4  H   UNL A   1      36.155  19.796  25.164  1.00  0.00     0.163 HD
ENDROOT
BRANCH   1   5
ATOM      5  C   UNL A   1      32.886  19.478  24.294  1.00  0.00     0.173 C 
BRANCH   5   6
ATOM      6  N   UNL A   1      32.140  20.225  25.299  1.00  0.00    -0.344 N 
ATOM      7  C   UNL A   1      31.639  21.496  25.186  1.00  0.00     0.225 C 
ATOM      8  O   UNL A   1      30.839  21.873  26.047  1.00  0.00    -0.275 OA
ATOM      9  H   UNL A   1      31.977  19.765  26.154  1.00  0.00     0.164 HD
BRANCH   7  10
ATOM     10  C   UNL A   1      32.042  22.407  24.025  1.00  0.00     0.137 C 
BRANCH  10  11
ATOM     11  C   UNL A   1      31.743  23.858  24.283  1.00  0.00    -0.017 A 
ATOM     12  C   UNL A   1      33.298  24.300  26.303  1.00  0.00     0.065 C 
ATOM     13  C   UNL A   1      32.341  24.691  25.221  1.00  0.00     0.024 A 
ATOM     14  N   UNL A   1      31.823  25.972  25.059  1.00  0.00    -0.314 N 
ATOM     15  C   UNL A   1      30.765  24.639  23.607  1.00  0.00     0.033 A 
ATOM     16  C   UNL A   1      30.855  25.947  24.051  1.00  0.00     0.053 A 
BRANCH  14  17
ATOM     17  C   UNL A   1      32.219  27.131  25.779  1.00  0.00     0.046 A 
ATOM     18  C   UNL A   1      31.379  27.647  26.774  1.00  0.00     0.029 A 
ATOM     19  C   UNL A   1      33.398  27.798  25.420  1.00  0.00     0.029 A 
ATOM     20  C   UNL A   1      31.724  28.833  27.417  1.00  0.00     0.041 A 
ATOM     21  C   UNL A   1      33.731  28.990  26.065  1.00  0.00     0.041 A 
ATOM     22  C   UNL A   1      32.893  29.495  27.054  1.00  0.00     0.123 A 
ATOM     23  F   UNL A   1      33.211  30.646  27.661  1.00  0.00    -0.207 F 
ENDBRANCH  14  17
BRANCH  16  24
ATOM     24  C   UNL A   1      30.148  27.128  23.533  1.00  0.00    -0.001 A 
ATOM     25  C   UNL A   1      30.855  28.210  22.982  1.00  0.00     0.011 A 
ATOM     26  C   UNL A   1      28.752  27.203  23.616  1.00  0.00     0.011 A 
ATOM     27  C   UNL A   1      30.192  29.379  22.602  1.00  0.00     0.021 A 
ATOM     28  C   UNL A   1      28.079  28.367  23.232  1.00  0.00     0.021 A 
ATOM     29  C   UNL A   1      28.807  29.460  22.757  1.00  0.00     0.067 A 
BRANCH  29  30
ATOM     30  S   UNL A   1      27.981  30.973  22.322  1.00  0.00     0.175 S 
ATOM     31  C   UNL A   1      29.248  32.209  22.456  1.00  0.00     0.163 C 
ATOM     32  O   UNL A   1      27.585  30.866  20.944  1.00  0.00    -0.224 OA
ATOM     33  O   UNL A   1      26.999  31.250  23.370  1.00  0.00    -0.224 OA
ENDBRANCH  29  30
ENDBRANCH  16  24
ENDBRANCH  10  11
ENDBRANCH   7  10
ENDBRANCH   5   6
BRANCH   5  34
ATOM     34  C   UNL A   1      32.661  19.954  22.847  1.00  0.00     0.063 C 
BRANCH  34  35
ATOM     35  C   UNL A   1      32.103  18.976  21.825  1.00  0.00     0.158 C 
BRANCH  35  36
ATOM     36  O   UNL A   1      31.964  17.653  22.315  1.00  0.00    -0.396 OA
ATOM     37  H   UNL A   1      32.569  17.065  21.836  1.00  0.00     0.210 HD
ENDBRANCH  35  36
ENDBRANCH  34  35
ENDBRANCH   5  34
ENDBRANCH   1   5
BRANCH   3  38
ATOM     38  C   UNL A   1      35.280  21.619  24.835  1.00  0.00     0.117 C 
BRANCH  38  39
ATOM     39  C   UNL A   1      36.032  22.304  25.983  1.00  0.00     0.042 C 
BRANCH  39  40
ATOM     40  C   UNL A   1      37.413  22.894  25.654  1.00  0.00     0.118 C 
BRANCH  40  41
ATOM     41  N   UNL A   1      38.517  21.963  25.777  1.00  0.00    -0.352 N 
ATOM     42  C   UNL A   1      39.765  22.203  26.330  1.00  0.00     0.251 C 
ATOM     43  H   UNL A   1      38.363  21.055  25.429  1.00  0.00     0.163 HD
ATOM     44  O   UNL A   1      40.555  21.267  26.423  1.00  0.00    -0.269 OA
BRANCH  42  45
ATOM     45  C   UNL A   1      40.198  23.600  26.703  1.00  0.00     0.039 A 
ATOM     46  C   UNL A   1      40.195  23.931  28.044  1.00  0.00     0.014 A 
ATOM     47  C   UNL A   1      40.466  24.647  25.801  1.00  0.00     0.014 A 
ATOM     48  C   UNL A   1      40.516  25.255  28.462  1.00  0.00     0.010 A 
ATOM     49  C   UNL A   1      40.694  26.027  26.237  1.00  0.00     0.010 A 
ATOM     50  C   UNL A   1      40.718  26.398  27.598  1.00  0.00    -0.014 A 
BRANCH  50  51
ATOM     51  C   UNL A   1      40.410  27.858  28.270  1.00  0.00     0.031 A 
ATOM     52  C   UNL A   1      41.734  28.525  28.128  1.00  0.00     0.074 A 
ATOM     53  C   UNL A   1      39.513  28.622  29.027  1.00  0.00     0.049 A 
ATOM     54  N   UNL A   1      42.750  27.951  28.701  1.00  0.00    -0.248 NA
ATOM     55  C   UNL A   1      42.076  29.475  27.071  1.00  0.00     0.031 C 
ATOM     56  C   UNL A   1      38.234  28.208  29.631  1.00  0.00     0.029 A 
ATOM     57  N   UNL A   1      39.528  30.000  29.449  1.00  0.00    -0.354 N 
ATOM     58  C   UNL A   1      43.874  28.600  28.262  1.00  0.00     0.074 A 
ATOM     59  C   UNL A   1      43.412  29.377  27.115  1.00  0.00     0.031 C 
ATOM     60  C   UNL A   1      37.553  29.268  30.166  1.00  0.00     0.029 A 
ATOM     61  C   UNL A   1      38.310  30.514  30.038  1.00  0.00     0.049 A 
ATOM     62  H   UNL A   1      40.329  30.564  29.342  1.00  0.00     0.167 HD
ATOM     63  C   UNL A   1      44.739  28.969  29.249  1.00  0.00     0.031 A 
ATOM     64  C   UNL A   1      37.952  31.801  30.456  1.00  0.00     0.031 A 
ATOM     65  C   UNL A   1      44.507  30.338  29.634  1.00  0.00     0.049 A 
ATOM     66  C   UNL A   1      39.207  32.495  30.754  1.00  0.00     0.074 A 
ATOM     67  C   UNL A   1      44.314  31.487  28.891  1.00  0.00     0.029 A 
ATOM     68  N   UNL A   1      43.924  30.556  30.864  1.00  0.00    -0.354 N 
ATOM     69  N   UNL A   1      39.816  32.315  31.887  1.00  0.00    -0.248 NA
ATOM     70  C   UNL A   1      39.786  33.509  29.884  1.00  0.00     0.031 C 
ATOM     71  C   UNL A   1      43.188  32.097  29.480  1.00  0.00     0.029 A 
ATOM     72  C   UNL A   1      43.028  31.602  30.766  1.00  0.00     0.049 A 
ATOM     73  H   UNL A   1      44.116  30.045  31.684  1.00  0.00     0.167 HD
ATOM     74  C   UNL A   1      41.083  32.708  31.598  1.00  0.00     0.074 A 
ATOM     75  C   UNL A   1      40.945  33.676  30.525  1.00  0.00     0.031 C 
ATOM     76  C   UNL A   1      42.060  31.793  31.819  1.00  0.00     0.031 A 
BRANCH  63  77
ATOM     77  C   UNL A   1      45.054  27.849  30.216  1.00  0.00    -0.014 A 
ATOM     78  C   UNL A   1      46.024  26.905  29.868  1.00  0.00     0.009 A 
ATOM     79  C   UNL A   1      44.283  27.608  31.376  1.00  0.00     0.009 A 
ATOM     80  C   UNL A   1      46.162  25.725  30.611  1.00  0.00     0.001 A 
ATOM     81  C   UNL A   1      44.384  26.412  32.084  1.00  0.00     0.001 A 
ATOM     82  C   UNL A   1      45.321  25.464  31.696  1.00  0.00     0.000 A 
ENDBRANCH  63  77
BRANCH  64  83
ATOM     83  C   UNL A   1      36.793  32.730  30.930  1.00  0.00    -0.014 A 
ATOM     84  C   UNL A   1      35.459  32.200  31.052  1.00  0.00     0.009 A 
ATOM     85  C   UNL A   1      37.004  33.909  31.653  1.00  0.00     0.009 A 
ATOM     86  C   UNL A   1      34.471  32.718  31.917  1.00  0.00     0.001 A 
ATOM     87  C   UNL A   1      35.993  34.458  32.500  1.00  0.00     0.001 A 
ATOM     88  C   UNL A   1      34.748  33.845  32.663  1.00  0.00     0.000 A 
ENDBRANCH  64  83
BRANCH  76  89
ATOM     89  C   UNL A   1      41.933  30.905  33.049  1.00  0.00    -0.014 A 
ATOM     90  C   UNL A   1      41.374  29.607  33.072  1.00  0.00     0.009 A 
ATOM     91  C   UNL A   1      42.361  31.429  34.276  1.00  0.00     0.009 A 
ATOM     92  C   UNL A   1      41.194  28.899  34.267  1.00  0.00     0.001 A 
ATOM     93  C   UNL A   1      42.234  30.702  35.465  1.00  0.00     0.001 A 
ATOM     94  C   UNL A   1      41.633  29.446  35.464  1.00  0.00     0.000 A 
ENDBRANCH  76  89
ENDBRANCH  50  51
ENDBRANCH  42  45
ENDBRANCH  40  41
ENDBRANCH  39  40
ENDBRANCH  38  39
ENDBRANCH   3  38
TORSDOF 19
ENDMDL
MODEL 3
REMARK VINA RESULT:     -10.8      2.471      4.089
REMARK SMILES Cc1c(CC(=O)N[C@@H](CCO)C(=O)NCCCNC(=O)c2ccc(-c3c4nc(c(-c5ccccc5)c5ccc([nH]5)c(-c5ccccc5)c5nc(c(-c6ccccc6)c6ccc3[nH]6)C=C5)C=C4)cc2)cc(-c2ccc(S(C)(=O)=O)cc2)n1-c1ccc(F)cc1
REMARK SMILES IDX 12 1 13 2 14 3 8 5 7 6 5 7 6 8 4 10 3 11 1 12 2 13 81 14
REMARK SMILES IDX 69 15 70 16 82 17 83 18 88 19 84 20 87 21 85 22 86 23 71 24
REMARK SMILES IDX 72 25 80 26 73 27 79 28 74 29 75 30 76 31 77 32 78 33 9 34
REMARK SMILES IDX 10 35 11 36 15 38 16 39 17 40 18 41 19 42 20 44 21 45 22 46
REMARK SMILES IDX 68 47 23 48 67 49 24 50 25 51 26 52 61 53 27 54 66 55 60 56
REMARK SMILES IDX 62 57 28 58 65 59 59 60 58 61 29 63 51 64 36 65 50 66 37 67
REMARK SMILES IDX 40 68 49 69 63 70 38 71 39 72 48 74 64 75 41 76 30 77 31 78
REMARK SMILES IDX 35 79 32 80 34 81 33 82 52 83 53 84 57 85 54 86 56 87 55 88
REMARK SMILES IDX 42 89 43 90 47 91 44 92 46 93 45 94
REMARK H PARENT 14 4 7 9 11 37 18 43 62 62 40 73
REMARK Flexibility Score: inf
ROOT
ATOM      1  C   UNL A   1      33.170  19.688  25.561  1.00  0.00     0.242 C 
ATOM      2  O   UNL A   1      32.808  18.572  25.955  1.00  0.00    -0.273 OA
ATOM      3  N   UNL A   1      34.510  19.857  25.426  1.00  0.00    -0.354 N 
ATOM      4  H   UNL A   1      35.027  19.098  25.779  1.00  0.00     0.163 HD
ENDROOT
BRANCH   1   5
ATOM      5  C   UNL A   1      32.112  20.713  25.121  1.00  0.00     0.173 C 
BRANCH   5   6
ATOM      6  N   UNL A   1      31.664  21.586  26.200  1.00  0.00    -0.344 N 
ATOM      7  C   UNL A   1      32.033  22.887  26.422  1.00  0.00     0.225 C 
ATOM      8  O   UNL A   1      31.377  23.535  27.242  1.00  0.00    -0.275 OA
ATOM      9  H   UNL A   1      31.024  21.197  26.840  1.00  0.00     0.164 HD
BRANCH   7  10
ATOM     10  C   UNL A   1      33.203  23.520  25.665  1.00  0.00     0.137 C 
BRANCH  10  11
ATOM     11  C   UNL A   1      33.015  24.990  25.412  1.00  0.00    -0.017 A 
ATOM     12  C   UNL A   1      31.526  24.912  23.298  1.00  0.00     0.065 C 
ATOM     13  C   UNL A   1      32.231  25.587  24.433  1.00  0.00     0.024 A 
ATOM     14  N   UNL A   1      32.281  26.966  24.614  1.00  0.00    -0.314 N 
ATOM     15  C   UNL A   1      33.634  26.045  26.140  1.00  0.00     0.033 A 
ATOM     16  C   UNL A   1      33.139  27.253  25.679  1.00  0.00     0.053 A 
BRANCH  14  17
ATOM     17  C   UNL A   1      31.565  27.935  23.861  1.00  0.00     0.046 A 
ATOM     18  C   UNL A   1      30.190  28.100  24.077  1.00  0.00     0.029 A 
ATOM     19  C   UNL A   1      32.221  28.645  22.847  1.00  0.00     0.029 A 
ATOM     20  C   UNL A   1      29.471  28.984  23.278  1.00  0.00     0.041 A 
ATOM     21  C   UNL A   1      31.489  29.523  22.046  1.00  0.00     0.041 A 
ATOM     22  C   UNL A   1      30.125  29.684  22.268  1.00  0.00     0.123 A 
ATOM     23  F   UNL A   1      29.425  30.518  21.489  1.00  0.00    -0.207 F 
ENDBRANCH  14  17
BRANCH  16  24
ATOM     24  C   UNL A   1      33.379  28.596  26.229  1.00  0.00    -0.001 A 
ATOM     25  C   UNL A   1      34.646  28.966  26.709  1.00  0.00     0.011 A 
ATOM     26  C   UNL A   1      32.328  29.519  26.311  1.00  0.00     0.011 A 
ATOM     27  C   UNL A   1      34.842  30.197  27.340  1.00  0.00     0.021 A 
ATOM     28  C   UNL A   1      32.516  30.756  26.935  1.00  0.00     0.021 A 
ATOM     29  C   UNL A   1      33.765  31.074  27.473  1.00  0.00     0.067 A 
BRANCH  29  30
ATOM     30  S   UNL A   1      34.012  32.615  28.326  1.00  0.00     0.175 S 
ATOM     31  C   UNL A   1      35.628  33.138  27.808  1.00  0.00     0.163 C 
ATOM     32  O   UNL A   1      33.041  33.546  27.821  1.00  0.00    -0.224 OA
ATOM     33  O   UNL A   1      34.097  32.312  29.755  1.00  0.00    -0.224 OA
ENDBRANCH  29  30
ENDBRANCH  16  24
ENDBRANCH  10  11
ENDBRANCH   7  10
ENDBRANCH   5   6
BRANCH   5  34
ATOM     34  C   UNL A   1      32.386  21.434  23.789  1.00  0.00     0.063 C 
BRANCH  34  35
ATOM     35  C   UNL A   1      32.218  20.669  22.486  1.00  0.00     0.158 C 
BRANCH  35  36
ATOM     36  O   UNL A   1      31.219  21.202  21.632  1.00  0.00    -0.396 OA
ATOM     37  H   UNL A   1      30.365  20.792  21.839  1.00  0.00     0.210 HD
ENDBRANCH  35  36
ENDBRANCH  34  35
ENDBRANCH   5  34
ENDBRANCH   1   5
BRANCH   3  38
ATOM     38  C   UNL A   1      35.354  20.909  24.878  1.00  0.00     0.117 C 
BRANCH  38  39
ATOM     39  C   UNL A   1      36.058  21.767  25.936  1.00  0.00     0.042 C 
BRANCH  39  40
ATOM     40  C   UNL A   1      37.429  22.350  25.556  1.00  0.00     0.118 C 
BRANCH  40  41
ATOM     41  N   UNL A   1      38.549  21.453  25.758  1.00  0.00    -0.352 N 
ATOM     42  C   UNL A   1      39.756  21.737  26.377  1.00  0.00     0.251 C 
ATOM     43  H   UNL A   1      38.440  20.536  25.416  1.00  0.00     0.163 HD
ATOM     44  O   UNL A   1      40.564  20.825  26.531  1.00  0.00    -0.269 OA
BRANCH  42  45
ATOM     45  C   UNL A   1      40.128  23.151  26.751  1.00  0.00     0.039 A 
ATOM     46  C   UNL A   1      40.580  23.372  28.037  1.00  0.00     0.014 A 
ATOM     47  C   UNL A   1      39.921  24.294  25.956  1.00  0.00     0.014 A 
ATOM     48  C   UNL A   1      40.874  24.692  28.483  1.00  0.00     0.010 A 
ATOM     49  C   UNL A   1      40.129  25.654  26.459  1.00  0.00     0.010 A 
ATOM     50  C   UNL A   1      40.608  25.917  27.759  1.00  0.00    -0.014 A 
BRANCH  50  51
ATOM     51  C   UNL A   1      40.400  27.254  28.680  1.00  0.00     0.031 A 
ATOM     52  C   UNL A   1      41.517  28.112  28.198  1.00  0.00     0.074 A 
ATOM     53  C   UNL A   1      39.743  27.814  29.783  1.00  0.00     0.049 A 
ATOM     54  N   UNL A   1      42.722  27.641  28.324  1.00  0.00    -0.248 NA
ATOM     55  C   UNL A   1      41.373  29.191  27.220  1.00  0.00     0.031 C 
ATOM     56  C   UNL A   1      38.800  27.170  30.715  1.00  0.00     0.029 A 
ATOM     57  N   UNL A   1      39.759  29.137  30.353  1.00  0.00    -0.354 N 
ATOM     58  C   UNL A   1      43.553  28.479  27.627  1.00  0.00     0.074 A 
ATOM     59  C   UNL A   1      42.646  29.280  26.808  1.00  0.00     0.031 C 
ATOM     60  C   UNL A   1      38.238  28.071  31.579  1.00  0.00     0.029 A 
ATOM     61  C   UNL A   1      38.771  29.419  31.372  1.00  0.00     0.049 A 
ATOM     62  H   UNL A   1      40.410  29.816  30.063  1.00  0.00     0.167 HD
ATOM     63  C   UNL A   1      44.661  28.880  28.313  1.00  0.00     0.031 A 
ATOM     64  C   UNL A   1      38.446  30.600  32.049  1.00  0.00     0.031 A 
ATOM     65  C   UNL A   1      44.434  30.163  28.928  1.00  0.00     0.049 A 
ATOM     66  C   UNL A   1      39.648  31.437  32.005  1.00  0.00     0.074 A 
ATOM     67  C   UNL A   1      43.878  31.334  28.447  1.00  0.00     0.029 A 
ATOM     68  N   UNL A   1      44.289  30.187  30.299  1.00  0.00    -0.354 N 
ATOM     69  N   UNL A   1      40.623  31.246  32.840  1.00  0.00    -0.248 NA
ATOM     70  C   UNL A   1      39.783  32.595  31.133  1.00  0.00     0.031 C 
ATOM     71  C   UNL A   1      42.966  31.723  29.449  1.00  0.00     0.029 A 
ATOM     72  C   UNL A   1      43.310  31.099  30.639  1.00  0.00     0.049 A 
ATOM     73  H   UNL A   1      44.803  29.639  30.935  1.00  0.00     0.167 HD
ATOM     74  C   UNL A   1      41.666  31.840  32.203  1.00  0.00     0.074 A 
ATOM     75  C   UNL A   1      41.067  32.869  31.372  1.00  0.00     0.031 C 
ATOM     76  C   UNL A   1      42.750  31.058  31.968  1.00  0.00     0.031 A 
BRANCH  63  77
ATOM     77  C   UNL A   1      45.404  27.736  28.967  1.00  0.00    -0.014 A 
ATOM     78  C   UNL A   1      45.366  27.608  30.358  1.00  0.00     0.009 A 
ATOM     79  C   UNL A   1      46.286  26.895  28.249  1.00  0.00     0.009 A 
ATOM     80  C   UNL A   1      46.237  26.727  31.012  1.00  0.00     0.001 A 
ATOM     81  C   UNL A   1      47.187  26.057  28.903  1.00  0.00     0.001 A 
ATOM     82  C   UNL A   1      47.168  25.978  30.288  1.00  0.00     0.000 A 
ENDBRANCH  63  77
BRANCH  64  83
ATOM     83  C   UNL A   1      37.430  31.309  32.996  1.00  0.00    -0.014 A 
ATOM     84  C   UNL A   1      37.907  31.984  34.176  1.00  0.00     0.009 A 
ATOM     85  C   UNL A   1      36.156  31.718  32.585  1.00  0.00     0.009 A 
ATOM     86  C   UNL A   1      37.240  33.056  34.807  1.00  0.00     0.001 A 
ATOM     87  C   UNL A   1      35.461  32.776  33.246  1.00  0.00     0.001 A 
ATOM     88  C   UNL A   1      36.016  33.468  34.325  1.00  0.00     0.000 A 
ENDBRANCH  64  83
BRANCH  76  89
ATOM     89  C   UNL A   1      43.146  30.057  33.044  1.00  0.00    -0.014 A 
ATOM     90  C   UNL A   1      42.953  28.658  32.977  1.00  0.00     0.009 A 
ATOM     91  C   UNL A   1      43.708  30.559  34.224  1.00  0.00     0.009 A 
ATOM     92  C   UNL A   1      43.247  27.817  34.058  1.00  0.00     0.001 A 
ATOM     93  C   UNL A   1      44.055  29.716  35.286  1.00  0.00     0.001 A 
ATOM     94  C   UNL A   1      43.806  28.348  35.211  1.00  0.00     0.000 A 
ENDBRANCH  76  89
ENDBRANCH  50  51
ENDBRANCH  42  45
ENDBRANCH  40  41
ENDBRANCH  39  40
ENDBRANCH  38  39
ENDBRANCH   3  38
TORSDOF 19
ENDMDL
