MODEL 1
REMARK VINA RESULT:     -11.4      0.000      0.000
REMARK SMILES CC1(C)C(NC(=O)c2cc(F)c(F)cc2C(=O)NCCCNC(=O)c2ccc(-c3c4nc(c(-c5ccccc5)c5ccc([nH]5)c(-c5ccccc5)c5nc(c(-c6ccccc6)c6ccc3[nH]6)C=C5)C=C4)cc2)C1(C)C
REMARK SMILES IDX 20 1 19 2 18 3 16 4 17 5 15 7 8 8 9 9 10 10 14 11 11 12
REMARK SMILES IDX 12 13 13 14 6 15 5 16 7 18 4 19 1 20 2 21 3 22 73 23 74 24
REMARK SMILES IDX 75 25 21 26 22 27 23 28 24 30 25 31 26 32 72 33 27 34 71 35
REMARK SMILES IDX 28 36 29 37 30 38 65 39 31 40 70 41 64 42 66 43 32 44 69 45
REMARK SMILES IDX 63 46 62 47 33 49 55 50 40 51 54 52 41 53 44 54 53 55 67 56
REMARK SMILES IDX 42 57 43 58 52 60 68 61 45 62 34 63 35 64 39 65 36 66 38 67
REMARK SMILES IDX 37 68 56 69 57 70 61 71 58 72 60 73 59 74 46 75 47 76 51 77
REMARK SMILES IDX 48 78 50 79 49 80
REMARK H PARENT 18 6 5 17 22 29 66 48 44 59
REMARK Flexibility Score: inf
ROOT
ATOM      1  C   UNL A   1      37.932  19.904  24.644  1.00  0.00     0.042 C 
ENDROOT
BRANCH   1   2
ATOM      2  C   UNL A   1      36.848  20.965  24.555  1.00  0.00     0.118 C 
BRANCH   2   3
ATOM      3  N   UNL A   1      37.174  22.243  25.145  1.00  0.00    -0.352 N 
ATOM      4  C   UNL A   1      36.420  23.193  25.773  1.00  0.00     0.252 C 
ATOM      5  O   UNL A   1      37.049  24.159  26.220  1.00  0.00    -0.269 OA
ATOM      6  H   UNL A   1      38.129  22.473  25.083  1.00  0.00     0.163 HD
BRANCH   4   7
ATOM      7  C   UNL A   1      34.932  23.226  25.913  1.00  0.00     0.055 A 
ATOM      8  C   UNL A   1      33.955  23.583  24.968  1.00  0.00     0.055 A 
ATOM      9  C   UNL A   1      32.586  23.354  25.224  1.00  0.00     0.057 A 
ATOM     10  C   UNL A   1      32.178  22.859  26.452  1.00  0.00     0.159 A 
ATOM     11  C   UNL A   1      34.475  22.713  27.150  1.00  0.00     0.057 A 
ATOM     12  F   UNL A   1      30.871  22.700  26.696  1.00  0.00    -0.204 F 
ATOM     13  C   UNL A   1      33.118  22.549  27.417  1.00  0.00     0.159 A 
ATOM     14  F   UNL A   1      32.730  22.077  28.608  1.00  0.00    -0.204 F 
BRANCH   8  15
ATOM     15  C   UNL A   1      34.238  24.168  23.652  1.00  0.00     0.252 C 
ATOM     16  N   UNL A   1      34.189  25.547  23.514  1.00  0.00    -0.348 N 
ATOM     17  H   UNL A   1      34.498  25.904  22.650  1.00  0.00     0.164 HD
ATOM     18  O   UNL A   1      34.512  23.430  22.712  1.00  0.00    -0.269 OA
BRANCH  16  19
ATOM     19  C   UNL A   1      33.746  26.522  24.472  1.00  0.00     0.094 C 
ATOM     20  C   UNL A   1      33.783  28.921  25.498  1.00  0.00     0.014 C 
ATOM     21  C   UNL A   1      33.575  28.022  24.288  1.00  0.00    -0.007 C 
ATOM     22  C   UNL A   1      34.012  28.688  23.005  1.00  0.00     0.014 C 
ATOM     23  C   UNL A   1      32.347  27.092  24.319  1.00  0.00    -0.007 C 
ATOM     24  C   UNL A   1      31.480  26.949  25.552  1.00  0.00     0.014 C 
ATOM     25  C   UNL A   1      31.556  26.878  23.046  1.00  0.00     0.014 C 
ENDBRANCH  16  19
ENDBRANCH   8  15
ENDBRANCH   4   7
ENDBRANCH   2   3
ENDBRANCH   1   2
BRANCH   1  26
ATOM     26  C   UNL A   1      38.804  19.976  25.888  1.00  0.00     0.118 C 
BRANCH  26  27
ATOM     27  N   UNL A   1      40.046  19.221  25.798  1.00  0.00    -0.352 N 
ATOM     28  C   UNL A   1      41.357  19.527  26.078  1.00  0.00     0.251 C 
ATOM     29  H   UNL A   1      39.921  18.301  25.469  1.00  0.00     0.163 HD
ATOM     30  O   UNL A   1      42.222  18.687  25.833  1.00  0.00    -0.269 OA
BRANCH  28  31
ATOM     31  C   UNL A   1      41.775  20.847  26.609  1.00  0.00     0.039 A 
ATOM     32  C   UNL A   1      42.204  21.826  25.701  1.00  0.00     0.014 A 
ATOM     33  C   UNL A   1      41.799  21.141  27.968  1.00  0.00     0.014 A 
ATOM     34  C   UNL A   1      42.560  23.103  26.150  1.00  0.00     0.010 A 
ATOM     35  C   UNL A   1      42.031  22.444  28.404  1.00  0.00     0.010 A 
ATOM     36  C   UNL A   1      42.423  23.443  27.504  1.00  0.00    -0.014 A 
BRANCH  36  37
ATOM     37  C   UNL A   1      42.692  24.817  28.007  1.00  0.00     0.031 A 
ATOM     38  C   UNL A   1      44.083  25.209  28.444  1.00  0.00     0.074 A 
ATOM     39  C   UNL A   1      41.673  25.687  28.165  1.00  0.00     0.049 A 
ATOM     40  N   UNL A   1      44.486  26.307  29.035  1.00  0.00    -0.248 NA
ATOM     41  C   UNL A   1      45.155  24.222  28.228  1.00  0.00     0.031 C 
ATOM     42  C   UNL A   1      40.269  25.427  27.836  1.00  0.00     0.029 A 
ATOM     43  N   UNL A   1      41.662  26.970  28.657  1.00  0.00    -0.354 N 
ATOM     44  C   UNL A   1      45.837  26.118  29.304  1.00  0.00     0.074 A 
ATOM     45  C   UNL A   1      46.179  24.789  28.850  1.00  0.00     0.031 C 
ATOM     46  C   UNL A   1      39.541  26.524  28.101  1.00  0.00     0.029 A 
ATOM     47  C   UNL A   1      40.414  27.548  28.663  1.00  0.00     0.049 A 
ATOM     48  H   UNL A   1      42.470  27.432  28.975  1.00  0.00     0.167 HD
ATOM     49  C   UNL A   1      46.722  26.979  29.861  1.00  0.00     0.031 A 
ATOM     50  C   UNL A   1      40.014  28.764  29.082  1.00  0.00     0.031 A 
ATOM     51  C   UNL A   1      46.404  28.325  30.251  1.00  0.00     0.049 A 
ATOM     52  C   UNL A   1      41.028  29.715  29.655  1.00  0.00     0.074 A 
ATOM     53  C   UNL A   1      47.256  29.306  30.728  1.00  0.00     0.029 A 
ATOM     54  N   UNL A   1      45.138  28.884  30.196  1.00  0.00    -0.354 N 
ATOM     55  N   UNL A   1      42.314  29.544  29.832  1.00  0.00    -0.248 NA
ATOM     56  C   UNL A   1      40.531  31.033  30.078  1.00  0.00     0.031 C 
ATOM     57  C   UNL A   1      46.497  30.449  30.999  1.00  0.00     0.029 A 
ATOM     58  C   UNL A   1      45.182  30.191  30.648  1.00  0.00     0.049 A 
ATOM     59  H   UNL A   1      44.328  28.420  29.882  1.00  0.00     0.167 HD
ATOM     60  C   UNL A   1      42.785  30.739  30.356  1.00  0.00     0.074 A 
ATOM     61  C   UNL A   1      41.651  31.633  30.455  1.00  0.00     0.031 C 
ATOM     62  C   UNL A   1      44.046  31.068  30.726  1.00  0.00     0.031 A 
BRANCH  49  63
ATOM     63  C   UNL A   1      48.129  26.497  30.077  1.00  0.00    -0.014 A 
ATOM     64  C   UNL A   1      48.509  25.870  31.274  1.00  0.00     0.009 A 
ATOM     65  C   UNL A   1      49.073  26.618  29.043  1.00  0.00     0.009 A 
ATOM     66  C   UNL A   1      49.814  25.402  31.444  1.00  0.00     0.001 A 
ATOM     67  C   UNL A   1      50.368  26.124  29.206  1.00  0.00     0.001 A 
ATOM     68  C   UNL A   1      50.740  25.524  30.408  1.00  0.00     0.000 A 
ENDBRANCH  49  63
BRANCH  50  69
ATOM     69  C   UNL A   1      38.589  29.170  28.965  1.00  0.00    -0.014 A 
ATOM     70  C   UNL A   1      38.100  29.696  27.759  1.00  0.00     0.009 A 
ATOM     71  C   UNL A   1      37.721  29.068  30.063  1.00  0.00     0.009 A 
ATOM     72  C   UNL A   1      36.781  30.146  27.666  1.00  0.00     0.001 A 
ATOM     73  C   UNL A   1      36.394  29.492  29.957  1.00  0.00     0.001 A 
ATOM     74  C   UNL A   1      35.929  30.042  28.763  1.00  0.00     0.000 A 
ENDBRANCH  50  69
BRANCH  62  75
ATOM     75  C   UNL A   1      44.271  32.465  31.230  1.00  0.00    -0.014 A 
ATOM     76  C   UNL A   1      44.590  33.511  30.351  1.00  0.00     0.009 A 
ATOM     77  C   UNL A   1      44.122  32.742  32.597  1.00  0.00     0.009 A 
ATOM     78  C   UNL A   1      44.787  34.804  30.840  1.00  0.00     0.001 A 
ATOM     79  C   UNL A   1      44.293  34.040  33.079  1.00  0.00     0.001 A 
ATOM     80  C   UNL A   1      44.634  35.067  32.201  1.00  0.00     0.000 A 
ENDBRANCH  62  75
ENDBRANCH  36  37
ENDBRANCH  28  31
ENDBRANCH  26  27
ENDBRANCH   1  26
TORSDOF 12
ENDMDL
MODEL 2
REMARK VINA RESULT:     -11.4      0.717      5.895
REMARK SMILES CC1(C)C(NC(=O)c2cc(F)c(F)cc2C(=O)NCCCNC(=O)c2ccc(-c3c4nc(c(-c5ccccc5)c5ccc([nH]5)c(-c5ccccc5)c5nc(c(-c6ccccc6)c6ccc3[nH]6)C=C5)C=C4)cc2)C1(C)C
REMARK SMILES IDX 20 1 19 2 18 3 16 4 17 5 15 7 8 8 9 9 10 10 14 11 11 12
REMARK SMILES IDX 12 13 13 14 6 15 5 16 7 18 4 19 1 20 2 21 3 22 73 23 74 24
REMARK SMILES IDX 75 25 21 26 22 27 23 28 24 30 25 31 26 32 72 33 27 34 71 35
REMARK SMILES IDX 28 36 29 37 30 38 65 39 31 40 70 41 64 42 66 43 32 44 69 45
REMARK SMILES IDX 63 46 62 47 33 49 55 50 40 51 54 52 41 53 44 54 53 55 67 56
REMARK SMILES IDX 42 57 43 58 52 60 68 61 45 62 34 63 35 64 39 65 36 66 38 67
REMARK SMILES IDX 37 68 56 69 57 70 61 71 58 72 60 73 59 74 46 75 47 76 51 77
REMARK SMILES IDX 48 78 50 79 49 80
REMARK H PARENT 18 6 5 17 22 29 66 48 44 59
REMARK Flexibility Score: inf
ROOT
ATOM      1  C   UNL A   1      37.597  19.771  24.996  1.00  0.00     0.042 C 
ENDROOT
BRANCH   1   2
ATOM      2  C   UNL A   1      36.433  20.743  24.906  1.00  0.00     0.118 C 
BRANCH   2   3
ATOM      3  N   UNL A   1      36.760  22.132  25.133  1.00  0.00    -0.352 N 
ATOM      4  C   UNL A   1      36.031  23.193  25.591  1.00  0.00     0.252 C 
ATOM      5  O   UNL A   1      36.658  24.250  25.723  1.00  0.00    -0.269 OA
ATOM      6  H   UNL A   1      37.693  22.358  24.915  1.00  0.00     0.163 HD
BRANCH   4   7
ATOM      7  C   UNL A   1      34.565  23.231  25.878  1.00  0.00     0.055 A 
ATOM      8  C   UNL A   1      33.506  23.660  25.060  1.00  0.00     0.055 A 
ATOM      9  C   UNL A   1      32.165  23.428  25.434  1.00  0.00     0.057 A 
ATOM     10  C   UNL A   1      31.870  22.856  26.660  1.00  0.00     0.159 A 
ATOM     11  C   UNL A   1      34.222  22.640  27.118  1.00  0.00     0.057 A 
ATOM     12  F   UNL A   1      30.591  22.694  27.021  1.00  0.00    -0.204 F 
ATOM     13  C   UNL A   1      32.895  22.473  27.506  1.00  0.00     0.159 A 
ATOM     14  F   UNL A   1      32.617  21.926  28.696  1.00  0.00    -0.204 F 
BRANCH   8  15
ATOM     15  C   UNL A   1      33.669  24.329  23.764  1.00  0.00     0.252 C 
ATOM     16  N   UNL A   1      33.814  25.708  23.742  1.00  0.00    -0.348 N 
ATOM     17  H   UNL A   1      34.036  26.103  22.868  1.00  0.00     0.164 HD
ATOM     18  O   UNL A   1      33.676  23.658  22.738  1.00  0.00    -0.269 OA
BRANCH  16  19
ATOM     19  C   UNL A   1      33.681  26.634  24.833  1.00  0.00     0.094 C 
ATOM     20  C   UNL A   1      34.038  28.983  25.911  1.00  0.00     0.014 C 
ATOM     21  C   UNL A   1      33.475  28.139  24.778  1.00  0.00    -0.007 C 
ATOM     22  C   UNL A   1      33.516  28.868  23.455  1.00  0.00     0.014 C 
ATOM     23  C   UNL A   1      32.304  27.201  25.127  1.00  0.00    -0.007 C 
ATOM     24  C   UNL A   1      31.840  26.995  26.554  1.00  0.00     0.014 C 
ATOM     25  C   UNL A   1      31.170  27.040  24.137  1.00  0.00     0.014 C 
ENDBRANCH  16  19
ENDBRANCH   8  15
ENDBRANCH   4   7
ENDBRANCH   2   3
ENDBRANCH   1   2
BRANCH   1  26
ATOM     26  C   UNL A   1      38.799  20.274  25.781  1.00  0.00     0.118 C 
BRANCH  26  27
ATOM     27  N   UNL A   1      39.959  19.395  25.738  1.00  0.00    -0.352 N 
ATOM     28  C   UNL A   1      41.283  19.565  26.066  1.00  0.00     0.251 C 
ATOM     29  H   UNL A   1      39.752  18.492  25.404  1.00  0.00     0.163 HD
ATOM     30  O   UNL A   1      42.065  18.639  25.853  1.00  0.00    -0.269 OA
BRANCH  28  31
ATOM     31  C   UNL A   1      41.815  20.837  26.613  1.00  0.00     0.039 A 
ATOM     32  C   UNL A   1      42.254  21.818  25.713  1.00  0.00     0.014 A 
ATOM     33  C   UNL A   1      41.935  21.081  27.977  1.00  0.00     0.014 A 
ATOM     34  C   UNL A   1      42.718  23.054  26.179  1.00  0.00     0.010 A 
ATOM     35  C   UNL A   1      42.276  22.350  28.439  1.00  0.00     0.010 A 
ATOM     36  C   UNL A   1      42.680  23.354  27.549  1.00  0.00    -0.014 A 
BRANCH  36  37
ATOM     37  C   UNL A   1      43.065  24.690  28.079  1.00  0.00     0.031 A 
ATOM     38  C   UNL A   1      42.007  25.725  28.374  1.00  0.00     0.074 A 
ATOM     39  C   UNL A   1      44.368  25.013  28.206  1.00  0.00     0.049 A 
ATOM     40  N   UNL A   1      42.151  26.984  28.708  1.00  0.00    -0.248 NA
ATOM     41  C   UNL A   1      40.601  25.304  28.234  1.00  0.00     0.031 C 
ATOM     42  C   UNL A   1      45.500  24.132  27.906  1.00  0.00     0.029 A 
ATOM     43  N   UNL A   1      44.963  26.183  28.611  1.00  0.00    -0.354 N 
ATOM     44  C   UNL A   1      40.866  27.511  28.766  1.00  0.00     0.074 A 
ATOM     45  C   UNL A   1      39.955  26.450  28.395  1.00  0.00     0.031 C 
ATOM     46  C   UNL A   1      46.647  24.778  28.170  1.00  0.00     0.029 A 
ATOM     47  C   UNL A   1      46.337  26.133  28.611  1.00  0.00     0.049 A 
ATOM     48  H   UNL A   1      44.454  26.983  28.877  1.00  0.00     0.167 HD
ATOM     49  C   UNL A   1      40.472  28.758  29.116  1.00  0.00     0.031 A 
ATOM     50  C   UNL A   1      47.249  27.075  28.923  1.00  0.00     0.031 A 
ATOM     51  C   UNL A   1      41.367  29.796  29.551  1.00  0.00     0.049 A 
ATOM     52  C   UNL A   1      46.781  28.438  29.351  1.00  0.00     0.074 A 
ATOM     53  C   UNL A   1      41.054  31.059  30.024  1.00  0.00     0.029 A 
ATOM     54  N   UNL A   1      42.747  29.686  29.580  1.00  0.00    -0.354 N 
ATOM     55  N   UNL A   1      45.558  28.892  29.471  1.00  0.00    -0.248 NA
ATOM     56  C   UNL A   1      47.824  29.416  29.695  1.00  0.00     0.031 C 
ATOM     57  C   UNL A   1      42.250  31.728  30.303  1.00  0.00     0.029 A 
ATOM     58  C   UNL A   1      43.302  30.865  30.045  1.00  0.00     0.049 A 
ATOM     59  H   UNL A   1      43.257  28.888  29.310  1.00  0.00     0.167 HD
ATOM     60  C   UNL A   1      45.683  30.195  29.933  1.00  0.00     0.074 A 
ATOM     61  C   UNL A   1      47.099  30.454  30.086  1.00  0.00     0.031 C 
ATOM     62  C   UNL A   1      44.711  31.099  30.204  1.00  0.00     0.031 A 
BRANCH  49  63
ATOM     63  C   UNL A   1      39.004  29.075  29.052  1.00  0.00    -0.014 A 
ATOM     64  C   UNL A   1      38.183  28.955  30.183  1.00  0.00     0.009 A 
ATOM     65  C   UNL A   1      38.448  29.559  27.856  1.00  0.00     0.009 A 
ATOM     66  C   UNL A   1      36.827  29.283  30.111  1.00  0.00     0.001 A 
ATOM     67  C   UNL A   1      37.099  29.912  27.795  1.00  0.00     0.001 A 
ATOM     68  C   UNL A   1      36.288  29.767  28.919  1.00  0.00     0.000 A 
ENDBRANCH  49  63
BRANCH  50  69
ATOM     69  C   UNL A   1      48.701  26.767  28.862  1.00  0.00    -0.014 A 
ATOM     70  C   UNL A   1      49.428  27.008  27.686  1.00  0.00     0.009 A 
ATOM     71  C   UNL A   1      49.361  26.199  29.963  1.00  0.00     0.009 A 
ATOM     72  C   UNL A   1      50.776  26.654  27.600  1.00  0.00     0.001 A 
ATOM     73  C   UNL A   1      50.717  25.873  29.883  1.00  0.00     0.001 A 
ATOM     74  C   UNL A   1      51.420  26.089  28.698  1.00  0.00     0.000 A 
ENDBRANCH  50  69
BRANCH  62  75
ATOM     75  C   UNL A   1      45.146  32.435  30.735  1.00  0.00    -0.014 A 
ATOM     76  C   UNL A   1      45.405  33.510  29.871  1.00  0.00     0.009 A 
ATOM     77  C   UNL A   1      45.259  32.627  32.120  1.00  0.00     0.009 A 
ATOM     78  C   UNL A   1      45.801  34.746  30.387  1.00  0.00     0.001 A 
ATOM     79  C   UNL A   1      45.628  33.871  32.633  1.00  0.00     0.001 A 
ATOM     80  C   UNL A   1      45.907  34.926  31.766  1.00  0.00     0.000 A 
ENDBRANCH  62  75
ENDBRANCH  36  37
ENDBRANCH  28  31
ENDBRANCH  26  27
ENDBRANCH   1  26
TORSDOF 12
ENDMDL
MODEL 3
REMARK VINA RESULT:     -11.3      3.428      8.752
REMARK SMILES CC1(C)C(NC(=O)c2cc(F)c(F)cc2C(=O)NCCCNC(=O)c2ccc(-c3c4nc(c(-c5ccccc5)c5ccc([nH]5)c(-c5ccccc5)c5nc(c(-c6ccccc6)c6ccc3[nH]6)C=C5)C=C4)cc2)C1(C)C
REMARK SMILES IDX 20 1 19 2 18 3 16 4 17 5 15 7 8 8 9 9 10 10 14 11 11 12
REMARK SMILES IDX 12 13 13 14 6 15 5 16 7 18 4 19 1 20 2 21 3 22 73 23 74 24
REMARK SMILES IDX 75 25 21 26 22 27 23 28 24 30 25 31 26 32 72 33 27 34 71 35
REMARK SMILES IDX 28 36 29 37 30 38 65 39 31 40 70 41 64 42 66 43 32 44 69 45
REMARK SMILES IDX 63 46 62 47 33 49 55 50 40 51 54 52 41 53 44 54 53 55 67 56
REMARK SMILES IDX 42 57 43 58 52 60 68 61 45 62 34 63 35 64 39 65 36 66 38 67
REMARK SMILES IDX 37 68 56 69 57 70 61 71 58 72 60 73 59 74 46 75 47 76 51 77
REMARK SMILES IDX 48 78 50 79 49 80
REMARK H PARENT 18 6 5 17 22 29 66 48 44 59
REMARK Flexibility Score: inf
ROOT
ATOM      1  C   UNL A   1      31.337  31.919  26.570  1.00  0.00     0.042 C 
ENDROOT
BRANCH   1   2
ATOM      2  C   UNL A   1      31.525  30.457  26.201  1.00  0.00     0.118 C 
BRANCH   2   3
ATOM      3  N   UNL A   1      32.711  29.827  26.733  1.00  0.00    -0.352 N 
ATOM      4  C   UNL A   1      33.523  28.833  26.262  1.00  0.00     0.252 C 
ATOM      5  O   UNL A   1      34.509  28.578  26.963  1.00  0.00    -0.269 OA
ATOM      6  H   UNL A   1      32.990  30.184  27.607  1.00  0.00     0.163 HD
BRANCH   4   7
ATOM      7  C   UNL A   1      33.313  27.987  25.048  1.00  0.00     0.055 A 
ATOM      8  C   UNL A   1      32.570  26.804  24.903  1.00  0.00     0.055 A 
ATOM      9  C   UNL A   1      32.323  26.259  23.625  1.00  0.00     0.057 A 
ATOM     10  C   UNL A   1      32.889  26.833  22.499  1.00  0.00     0.159 A 
ATOM     11  C   UNL A   1      33.866  28.549  23.872  1.00  0.00     0.057 A 
ATOM     12  F   UNL A   1      32.688  26.270  21.301  1.00  0.00    -0.204 F 
ATOM     13  C   UNL A   1      33.669  27.968  22.622  1.00  0.00     0.159 A 
ATOM     14  F   UNL A   1      34.226  28.524  21.539  1.00  0.00    -0.204 F 
BRANCH   8  15
ATOM     15  C   UNL A   1      31.958  26.059  26.010  1.00  0.00     0.252 C 
ATOM     16  N   UNL A   1      32.601  24.924  26.481  1.00  0.00    -0.348 N 
ATOM     17  H   UNL A   1      32.222  24.522  27.296  1.00  0.00     0.164 HD
ATOM     18  O   UNL A   1      30.903  26.456  26.492  1.00  0.00    -0.269 OA
BRANCH  16  19
ATOM     19  C   UNL A   1      33.751  24.259  25.932  1.00  0.00     0.094 C 
ATOM     20  C   UNL A   1      35.916  22.827  26.183  1.00  0.00     0.014 C 
ATOM     21  C   UNL A   1      34.419  22.978  26.403  1.00  0.00    -0.007 C 
ATOM     22  C   UNL A   1      33.963  22.301  27.673  1.00  0.00     0.014 C 
ATOM     23  C   UNL A   1      33.530  22.980  25.145  1.00  0.00    -0.007 C 
ATOM     24  C   UNL A   1      34.117  23.002  23.748  1.00  0.00     0.014 C 
ATOM     25  C   UNL A   1      32.197  22.263  25.185  1.00  0.00     0.014 C 
ENDBRANCH  16  19
ENDBRANCH   8  15
ENDBRANCH   4   7
ENDBRANCH   2   3
ENDBRANCH   1   2
BRANCH   1  26
ATOM     26  C   UNL A   1      32.618  32.673  26.894  1.00  0.00     0.118 C 
BRANCH  26  27
ATOM     27  N   UNL A   1      32.425  33.875  27.691  1.00  0.00    -0.352 N 
ATOM     28  C   UNL A   1      33.163  34.479  28.682  1.00  0.00     0.251 C 
ATOM     29  H   UNL A   1      31.593  34.357  27.476  1.00  0.00     0.163 HD
ATOM     30  O   UNL A   1      32.702  35.477  29.234  1.00  0.00    -0.269 OA
BRANCH  28  31
ATOM     31  C   UNL A   1      34.463  33.941  29.151  1.00  0.00     0.039 A 
ATOM     32  C   UNL A   1      34.471  33.090  30.266  1.00  0.00     0.014 A 
ATOM     33  C   UNL A   1      35.676  34.276  28.558  1.00  0.00     0.014 A 
ATOM     34  C   UNL A   1      35.668  32.519  30.714  1.00  0.00     0.010 A 
ATOM     35  C   UNL A   1      36.846  33.614  28.922  1.00  0.00     0.010 A 
ATOM     36  C   UNL A   1      36.862  32.731  30.010  1.00  0.00    -0.014 A 
BRANCH  36  37
ATOM     37  C   UNL A   1      38.136  32.061  30.390  1.00  0.00     0.031 A 
ATOM     38  C   UNL A   1      39.098  32.738  31.336  1.00  0.00     0.074 A 
ATOM     39  C   UNL A   1      38.478  30.890  29.816  1.00  0.00     0.049 A 
ATOM     40  N   UNL A   1      40.312  32.380  31.678  1.00  0.00    -0.248 NA
ATOM     41  C   UNL A   1      38.658  34.005  31.945  1.00  0.00     0.031 C 
ATOM     42  C   UNL A   1      37.671  30.148  28.843  1.00  0.00     0.029 A 
ATOM     43  N   UNL A   1      39.607  30.121  29.958  1.00  0.00    -0.354 N 
ATOM     44  C   UNL A   1      40.791  33.399  32.494  1.00  0.00     0.074 A 
ATOM     45  C   UNL A   1      39.758  34.407  32.566  1.00  0.00     0.031 C 
ATOM     46  C   UNL A   1      38.313  29.018  28.505  1.00  0.00     0.029 A 
ATOM     47  C   UNL A   1      39.596  28.976  29.196  1.00  0.00     0.049 A 
ATOM     48  H   UNL A   1      40.355  30.365  30.550  1.00  0.00     0.167 HD
ATOM     49  C   UNL A   1      41.977  33.481  33.143  1.00  0.00     0.031 A 
ATOM     50  C   UNL A   1      40.519  28.004  29.062  1.00  0.00     0.031 A 
ATOM     51  C   UNL A   1      42.980  32.452  33.131  1.00  0.00     0.049 A 
ATOM     52  C   UNL A   1      41.807  28.101  29.830  1.00  0.00     0.074 A 
ATOM     53  C   UNL A   1      44.167  32.399  33.840  1.00  0.00     0.029 A 
ATOM     54  N   UNL A   1      42.905  31.289  32.383  1.00  0.00    -0.354 N 
ATOM     55  N   UNL A   1      42.209  29.036  30.655  1.00  0.00    -0.248 NA
ATOM     56  C   UNL A   1      42.765  27.000  29.654  1.00  0.00     0.031 C 
ATOM     57  C   UNL A   1      44.831  31.219  33.490  1.00  0.00     0.029 A 
ATOM     58  C   UNL A   1      44.035  30.519  32.598  1.00  0.00     0.049 A 
ATOM     59  H   UNL A   1      42.160  31.046  31.787  1.00  0.00     0.167 HD
ATOM     60  C   UNL A   1      43.450  28.623  31.118  1.00  0.00     0.074 A 
ATOM     61  C   UNL A   1      43.729  27.345  30.496  1.00  0.00     0.031 C 
ATOM     62  C   UNL A   1      44.288  29.246  31.981  1.00  0.00     0.031 A 
BRANCH  49  63
ATOM     63  C   UNL A   1      42.258  34.728  33.935  1.00  0.00    -0.014 A 
ATOM     64  C   UNL A   1      42.802  35.870  33.326  1.00  0.00     0.009 A 
ATOM     65  C   UNL A   1      41.917  34.780  35.296  1.00  0.00     0.009 A 
ATOM     66  C   UNL A   1      43.029  37.029  34.072  1.00  0.00     0.001 A 
ATOM     67  C   UNL A   1      42.119  35.949  36.032  1.00  0.00     0.001 A 
ATOM     68  C   UNL A   1      42.681  37.069  35.422  1.00  0.00     0.000 A 
ENDBRANCH  49  63
BRANCH  50  69
ATOM     69  C   UNL A   1      40.261  26.838  28.177  1.00  0.00    -0.014 A 
ATOM     70  C   UNL A   1      39.535  25.735  28.653  1.00  0.00     0.009 A 
ATOM     71  C   UNL A   1      40.766  26.805  26.868  1.00  0.00     0.009 A 
ATOM     72  C   UNL A   1      39.352  24.607  27.850  1.00  0.00     0.001 A 
ATOM     73  C   UNL A   1      40.556  25.687  26.057  1.00  0.00     0.001 A 
ATOM     74  C   UNL A   1      39.861  24.584  26.553  1.00  0.00     0.000 A 
ENDBRANCH  50  69
BRANCH  62  75
ATOM     75  C   UNL A   1      45.562  28.535  32.335  1.00  0.00    -0.014 A 
ATOM     76  C   UNL A   1      45.612  27.622  33.399  1.00  0.00     0.009 A 
ATOM     77  C   UNL A   1      46.716  28.754  31.567  1.00  0.00     0.009 A 
ATOM     78  C   UNL A   1      46.806  26.965  33.706  1.00  0.00     0.001 A 
ATOM     79  C   UNL A   1      47.899  28.076  31.859  1.00  0.00     0.001 A 
ATOM     80  C   UNL A   1      47.945  27.190  32.934  1.00  0.00     0.000 A 
ENDBRANCH  62  75
ENDBRANCH  36  37
ENDBRANCH  28  31
ENDBRANCH  26  27
ENDBRANCH   1  26
TORSDOF 12
ENDMDL
