MODEL 1
REMARK VINA RESULT:     -10.8      0.000      0.000
REMARK SMILES O=C(C[C@H](c1ccsc1)n1cccc1)NCCCNC(=O)c1ccc(-c2c3nc(c(-c4ccccc4)c4ccc([nH]4)c(-c4ccccc4)c4nc(c(-c5ccccc5)c5ccc2[nH]5)C=C4)C=C3)cc1
REMARK SMILES IDX 17 1 16 2 15 3 1 4 2 5 3 7 4 8 10 9 11 10 14 11 12 12 13 13
REMARK SMILES IDX 5 14 6 15 9 16 7 17 8 18 18 19 19 20 20 21 21 23 22 24 23 25
REMARK SMILES IDX 69 26 24 27 68 28 25 29 26 30 27 31 62 32 28 33 67 34 61 35
REMARK SMILES IDX 63 36 29 37 66 38 60 39 59 40 30 42 52 43 37 44 51 45 38 46
REMARK SMILES IDX 41 47 50 48 64 49 39 50 40 51 49 53 65 54 42 55 31 56 32 57
REMARK SMILES IDX 36 58 33 59 35 60 34 61 53 62 54 63 58 64 55 65 57 66 56 67
REMARK SMILES IDX 43 68 44 69 48 70 45 71 47 72 46 73
REMARK H PARENT 15 6 19 22 63 41 41 52
REMARK Flexibility Score: inf
ROOT
ATOM      1  C   UNL A   1      33.959  29.314  27.223  1.00  0.00     0.042 C 
ENDROOT
BRANCH   1   2
ATOM      2  C   UNL A   1      33.718  29.172  25.715  1.00  0.00     0.117 C 
BRANCH   2   3
ATOM      3  N   UNL A   1      33.664  27.782  25.289  1.00  0.00    -0.356 N 
ATOM      4  O   UNL A   1      33.974  28.203  23.055  1.00  0.00    -0.275 OA
ATOM      5  C   UNL A   1      33.796  27.405  23.968  1.00  0.00     0.222 C 
ATOM      6  H   UNL A   1      33.529  27.083  25.968  1.00  0.00     0.163 HD
BRANCH   5   7
ATOM      7  C   UNL A   1      33.621  25.925  23.709  1.00  0.00     0.130 C 
BRANCH   7   8
ATOM      8  C   UNL A   1      33.957  25.061  24.926  1.00  0.00     0.127 C 
BRANCH   8   9
ATOM      9  N   UNL A   1      32.792  24.270  25.365  1.00  0.00    -0.346 N 
ATOM     10  C   UNL A   1      31.765  23.816  24.572  1.00  0.00     0.086 A 
ATOM     11  C   UNL A   1      32.552  23.888  26.664  1.00  0.00     0.086 A 
ATOM     12  C   UNL A   1      30.880  23.123  25.367  1.00  0.00     0.019 A 
ATOM     13  C   UNL A   1      31.377  23.169  26.690  1.00  0.00     0.019 A 
ENDBRANCH   8   9
BRANCH   8  14
ATOM     14  C   UNL A   1      35.150  24.143  24.750  1.00  0.00    -0.014 A 
ATOM     15  C   UNL A   1      35.454  23.371  23.575  1.00  0.00     0.017 A 
ATOM     16  C   UNL A   1      36.100  23.910  25.731  1.00  0.00     0.070 A 
ATOM     17  C   UNL A   1      36.579  22.591  23.721  1.00  0.00     0.065 A 
ATOM     18  S   UNL A   1      37.299  22.789  25.255  1.00  0.00    -0.152 S 
ENDBRANCH   8  14
ENDBRANCH   7   8
ENDBRANCH   5   7
ENDBRANCH   2   3
ENDBRANCH   1   2
BRANCH   1  19
ATOM     19  C   UNL A   1      35.439  29.335  27.599  1.00  0.00     0.118 C 
BRANCH  19  20
ATOM     20  N   UNL A   1      35.644  29.667  29.001  1.00  0.00    -0.352 N 
ATOM     21  C   UNL A   1      36.679  29.359  29.851  1.00  0.00     0.251 C 
ATOM     22  H   UNL A   1      34.922  30.200  29.406  1.00  0.00     0.163 HD
ATOM     23  O   UNL A   1      36.487  29.426  31.059  1.00  0.00    -0.269 OA
BRANCH  21  24
ATOM     24  C   UNL A   1      38.014  28.953  29.353  1.00  0.00     0.039 A 
ATOM     25  C   UNL A   1      38.914  28.387  30.271  1.00  0.00     0.014 A 
ATOM     26  C   UNL A   1      38.429  29.215  28.046  1.00  0.00     0.014 A 
ATOM     27  C   UNL A   1      40.199  28.041  29.864  1.00  0.00     0.010 A 
ATOM     28  C   UNL A   1      39.692  28.833  27.621  1.00  0.00     0.010 A 
ATOM     29  C   UNL A   1      40.571  28.244  28.530  1.00  0.00    -0.014 A 
BRANCH  29  30
ATOM     30  C   UNL A   1      41.847  27.699  28.033  1.00  0.00     0.031 A 
ATOM     31  C   UNL A   1      42.891  28.816  27.828  1.00  0.00     0.074 A 
ATOM     32  C   UNL A   1      41.893  26.341  27.866  1.00  0.00     0.049 A 
ATOM     33  N   UNL A   1      43.958  28.834  27.093  1.00  0.00    -0.248 NA
ATOM     34  C   UNL A   1      42.705  30.129  28.516  1.00  0.00     0.031 C 
ATOM     35  C   UNL A   1      40.779  25.413  28.184  1.00  0.00     0.029 A 
ATOM     36  N   UNL A   1      42.851  25.457  27.416  1.00  0.00    -0.354 N 
ATOM     37  C   UNL A   1      44.643  30.047  27.342  1.00  0.00     0.074 A 
ATOM     38  C   UNL A   1      43.780  30.839  28.161  1.00  0.00     0.031 C 
ATOM     39  C   UNL A   1      41.090  24.142  27.846  1.00  0.00     0.029 A 
ATOM     40  C   UNL A   1      42.425  24.108  27.284  1.00  0.00     0.049 A 
ATOM     41  H   UNL A   1      43.769  25.742  27.200  1.00  0.00     0.167 HD
ATOM     42  C   UNL A   1      45.938  30.265  26.961  1.00  0.00     0.031 A 
ATOM     43  C   UNL A   1      43.080  23.051  26.714  1.00  0.00     0.031 A 
ATOM     44  C   UNL A   1      46.412  29.163  26.197  1.00  0.00     0.049 A 
ATOM     45  C   UNL A   1      44.428  23.541  26.407  1.00  0.00     0.074 A 
ATOM     46  C   UNL A   1      46.106  28.714  24.939  1.00  0.00     0.029 A 
ATOM     47  N   UNL A   1      47.015  28.152  26.905  1.00  0.00    -0.354 N 
ATOM     48  N   UNL A   1      45.353  23.758  27.289  1.00  0.00    -0.248 NA
ATOM     49  C   UNL A   1      44.758  23.898  25.022  1.00  0.00     0.031 C 
ATOM     50  C   UNL A   1      46.034  27.316  25.118  1.00  0.00     0.029 A 
ATOM     51  C   UNL A   1      46.546  26.976  26.376  1.00  0.00     0.049 A 
ATOM     52  H   UNL A   1      47.656  28.250  27.645  1.00  0.00     0.167 HD
ATOM     53  C   UNL A   1      46.172  24.641  26.634  1.00  0.00     0.074 A 
ATOM     54  C   UNL A   1      45.967  24.419  25.217  1.00  0.00     0.031 C 
ATOM     55  C   UNL A   1      46.503  25.817  27.231  1.00  0.00     0.031 A 
BRANCH  42  56
ATOM     56  C   UNL A   1      46.959  31.274  27.405  1.00  0.00    -0.014 A 
ATOM     57  C   UNL A   1      47.437  31.170  28.736  1.00  0.00     0.009 A 
ATOM     58  C   UNL A   1      47.195  32.477  26.733  1.00  0.00     0.009 A 
ATOM     59  C   UNL A   1      48.001  32.257  29.406  1.00  0.00     0.001 A 
ATOM     60  C   UNL A   1      47.798  33.558  27.396  1.00  0.00     0.001 A 
ATOM     61  C   UNL A   1      48.163  33.461  28.738  1.00  0.00     0.000 A 
ENDBRANCH  42  56
BRANCH  43  62
ATOM     62  C   UNL A   1      42.784  21.644  26.258  1.00  0.00    -0.014 A 
ATOM     63  C   UNL A   1      43.689  20.750  25.685  1.00  0.00     0.009 A 
ATOM     64  C   UNL A   1      41.483  21.117  26.509  1.00  0.00     0.009 A 
ATOM     65  C   UNL A   1      43.342  19.395  25.480  1.00  0.00     0.001 A 
ATOM     66  C   UNL A   1      41.150  19.769  26.357  1.00  0.00     0.001 A 
ATOM     67  C   UNL A   1      42.094  18.898  25.854  1.00  0.00     0.000 A 
ENDBRANCH  43  62
BRANCH  55  68
ATOM     68  C   UNL A   1      46.351  25.839  28.751  1.00  0.00    -0.014 A 
ATOM     69  C   UNL A   1      45.137  26.241  29.332  1.00  0.00     0.009 A 
ATOM     70  C   UNL A   1      47.422  25.602  29.631  1.00  0.00     0.009 A 
ATOM     71  C   UNL A   1      45.011  26.437  30.716  1.00  0.00     0.001 A 
ATOM     72  C   UNL A   1      47.302  25.790  31.018  1.00  0.00     0.001 A 
ATOM     73  C   UNL A   1      46.094  26.217  31.560  1.00  0.00     0.000 A 
ENDBRANCH  55  68
ENDBRANCH  29  30
ENDBRANCH  21  24
ENDBRANCH  19  20
ENDBRANCH   1  19
TORSDOF 13
ENDMDL
MODEL 2
REMARK VINA RESULT:     -10.8      4.596      9.611
REMARK SMILES O=C(C[C@H](c1ccsc1)n1cccc1)NCCCNC(=O)c1ccc(-c2c3nc(c(-c4ccccc4)c4ccc([nH]4)c(-c4ccccc4)c4nc(c(-c5ccccc5)c5ccc2[nH]5)C=C4)C=C3)cc1
REMARK SMILES IDX 17 1 16 2 15 3 1 4 2 5 3 7 4 8 10 9 11 10 14 11 12 12 13 13
REMARK SMILES IDX 5 14 6 15 9 16 7 17 8 18 18 19 19 20 20 21 21 23 22 24 23 25
REMARK SMILES IDX 69 26 24 27 68 28 25 29 26 30 27 31 62 32 28 33 67 34 61 35
REMARK SMILES IDX 63 36 29 37 66 38 60 39 59 40 30 42 52 43 37 44 51 45 38 46
REMARK SMILES IDX 41 47 50 48 64 49 39 50 40 51 49 53 65 54 42 55 31 56 32 57
REMARK SMILES IDX 36 58 33 59 35 60 34 61 53 62 54 63 58 64 55 65 57 66 56 67
REMARK SMILES IDX 43 68 44 69 48 70 45 71 47 72 46 73
REMARK H PARENT 15 6 19 22 63 41 41 52
REMARK Flexibility Score: inf
ROOT
ATOM      1  C   UNL A   1      37.952  24.086  26.243  1.00  0.00     0.042 C 
ENDROOT
BRANCH   1   2
ATOM      2  C   UNL A   1      37.751  22.831  25.386  1.00  0.00     0.117 C 
BRANCH   2   3
ATOM      3  N   UNL A   1      36.367  22.654  24.974  1.00  0.00    -0.356 N 
ATOM      4  O   UNL A   1      36.711  23.156  22.761  1.00  0.00    -0.275 OA
ATOM      5  C   UNL A   1      35.953  22.838  23.670  1.00  0.00     0.222 C 
ATOM      6  H   UNL A   1      35.701  22.394  25.649  1.00  0.00     0.163 HD
BRANCH   5   7
ATOM      7  C   UNL A   1      34.463  22.700  23.452  1.00  0.00     0.130 C 
BRANCH   7   8
ATOM      8  C   UNL A   1      33.755  21.970  24.596  1.00  0.00     0.127 C 
BRANCH   8   9
ATOM      9  N   UNL A   1      32.517  22.663  24.996  1.00  0.00    -0.346 N 
ATOM     10  C   UNL A   1      32.042  23.849  24.487  1.00  0.00     0.086 A 
ATOM     11  C   UNL A   1      31.655  22.224  25.973  1.00  0.00     0.086 A 
ATOM     12  C   UNL A   1      30.861  24.152  25.128  1.00  0.00     0.019 A 
ATOM     13  C   UNL A   1      30.617  23.125  26.068  1.00  0.00     0.019 A 
ENDBRANCH   8   9
BRANCH   8  14
ATOM     14  C   UNL A   1      33.451  20.510  24.332  1.00  0.00    -0.014 A 
ATOM     15  C   UNL A   1      32.457  20.005  23.422  1.00  0.00     0.017 A 
ATOM     16  C   UNL A   1      34.088  19.457  24.970  1.00  0.00     0.070 A 
ATOM     17  C   UNL A   1      32.373  18.631  23.426  1.00  0.00     0.065 A 
ATOM     18  S   UNL A   1      33.496  17.925  24.500  1.00  0.00    -0.152 S 
ENDBRANCH   8  14
ENDBRANCH   7   8
ENDBRANCH   5   7
ENDBRANCH   2   3
ENDBRANCH   1   2
BRANCH   1  19
ATOM     19  C   UNL A   1      39.276  24.095  27.003  1.00  0.00     0.118 C 
BRANCH  19  20
ATOM     20  N   UNL A   1      40.341  24.732  26.242  1.00  0.00    -0.352 N 
ATOM     21  C   UNL A   1      40.729  26.049  26.176  1.00  0.00     0.251 C 
ATOM     22  H   UNL A   1      40.869  24.118  25.682  1.00  0.00     0.163 HD
ATOM     23  O   UNL A   1      41.400  26.417  25.221  1.00  0.00    -0.269 OA
BRANCH  21  24
ATOM     24  C   UNL A   1      40.364  27.031  27.225  1.00  0.00     0.039 A 
ATOM     25  C   UNL A   1      39.543  26.596  28.277  1.00  0.00     0.014 A 
ATOM     26  C   UNL A   1      40.720  28.379  27.134  1.00  0.00     0.014 A 
ATOM     27  C   UNL A   1      39.128  27.494  29.255  1.00  0.00     0.010 A 
ATOM     28  C   UNL A   1      40.348  29.271  28.128  1.00  0.00     0.010 A 
ATOM     29  C   UNL A   1      39.555  28.824  29.187  1.00  0.00    -0.014 A 
BRANCH  29  30
ATOM     30  C   UNL A   1      39.299  29.737  30.315  1.00  0.00     0.031 A 
ATOM     31  C   UNL A   1      40.142  29.353  31.549  1.00  0.00     0.074 A 
ATOM     32  C   UNL A   1      38.407  30.748  30.077  1.00  0.00     0.049 A 
ATOM     33  N   UNL A   1      39.964  29.637  32.800  1.00  0.00    -0.248 NA
ATOM     34  C   UNL A   1      41.349  28.491  31.372  1.00  0.00     0.031 C 
ATOM     35  C   UNL A   1      37.733  30.991  28.775  1.00  0.00     0.029 A 
ATOM     36  N   UNL A   1      37.884  31.772  30.838  1.00  0.00    -0.354 N 
ATOM     37  C   UNL A   1      41.079  29.153  33.524  1.00  0.00     0.074 A 
ATOM     38  C   UNL A   1      41.856  28.382  32.604  1.00  0.00     0.031 C 
ATOM     39  C   UNL A   1      36.853  32.013  28.864  1.00  0.00     0.029 A 
ATOM     40  C   UNL A   1      36.865  32.539  30.213  1.00  0.00     0.049 A 
ATOM     41  H   UNL A   1      38.196  31.958  31.753  1.00  0.00     0.167 HD
ATOM     42  C   UNL A   1      41.356  29.530  34.808  1.00  0.00     0.031 A 
ATOM     43  C   UNL A   1      36.051  33.494  30.759  1.00  0.00     0.031 A 
ATOM     44  C   UNL A   1      40.311  30.354  35.310  1.00  0.00     0.049 A 
ATOM     45  C   UNL A   1      36.558  33.716  32.117  1.00  0.00     0.074 A 
ATOM     46  C   UNL A   1      39.013  30.087  35.657  1.00  0.00     0.029 A 
ATOM     47  N   UNL A   1      40.457  31.705  35.107  1.00  0.00    -0.354 N 
ATOM     48  N   UNL A   1      37.651  34.353  32.402  1.00  0.00    -0.248 NA
ATOM     49  C   UNL A   1      35.843  33.117  33.251  1.00  0.00     0.031 C 
ATOM     50  C   UNL A   1      38.315  31.190  35.120  1.00  0.00     0.029 A 
ATOM     51  C   UNL A   1      39.228  32.174  34.720  1.00  0.00     0.049 A 
ATOM     52  H   UNL A   1      41.281  32.233  35.219  1.00  0.00     0.167 HD
ATOM     53  C   UNL A   1      37.947  33.868  33.649  1.00  0.00     0.074 A 
ATOM     54  C   UNL A   1      36.695  33.423  34.227  1.00  0.00     0.031 C 
ATOM     55  C   UNL A   1      39.181  33.351  33.891  1.00  0.00     0.031 A 
BRANCH  42  56
ATOM     56  C   UNL A   1      42.612  29.450  35.629  1.00  0.00    -0.014 A 
ATOM     57  C   UNL A   1      43.692  30.286  35.247  1.00  0.00     0.009 A 
ATOM     58  C   UNL A   1      42.900  28.390  36.494  1.00  0.00     0.009 A 
ATOM     59  C   UNL A   1      45.011  29.998  35.600  1.00  0.00     0.001 A 
ATOM     60  C   UNL A   1      44.224  28.123  36.881  1.00  0.00     0.001 A 
ATOM     61  C   UNL A   1      45.278  28.900  36.404  1.00  0.00     0.000 A 
ENDBRANCH  42  56
BRANCH  43  62
ATOM     62  C   UNL A   1      34.800  34.259  30.402  1.00  0.00    -0.014 A 
ATOM     63  C   UNL A   1      34.065  35.088  31.250  1.00  0.00     0.009 A 
ATOM     64  C   UNL A   1      34.353  34.221  29.049  1.00  0.00     0.009 A 
ATOM     65  C   UNL A   1      33.025  35.904  30.747  1.00  0.00     0.001 A 
ATOM     66  C   UNL A   1      33.361  35.060  28.536  1.00  0.00     0.001 A 
ATOM     67  C   UNL A   1      32.704  35.921  29.390  1.00  0.00     0.000 A 
ENDBRANCH  43  62
BRANCH  55  68
ATOM     68  C   UNL A   1      40.275  33.801  32.923  1.00  0.00    -0.014 A 
ATOM     69  C   UNL A   1      40.500  33.087  31.734  1.00  0.00     0.009 A 
ATOM     70  C   UNL A   1      41.182  34.833  33.218  1.00  0.00     0.009 A 
ATOM     71  C   UNL A   1      41.598  33.363  30.905  1.00  0.00     0.001 A 
ATOM     72  C   UNL A   1      42.281  35.119  32.391  1.00  0.00     0.001 A 
ATOM     73  C   UNL A   1      42.492  34.376  31.235  1.00  0.00     0.000 A 
ENDBRANCH  55  68
ENDBRANCH  29  30
ENDBRANCH  21  24
ENDBRANCH  19  20
ENDBRANCH   1  19
TORSDOF 13
ENDMDL
MODEL 3
REMARK VINA RESULT:     -10.6      2.256      6.927
REMARK SMILES O=C(C[C@H](c1ccsc1)n1cccc1)NCCCNC(=O)c1ccc(-c2c3nc(c(-c4ccccc4)c4ccc([nH]4)c(-c4ccccc4)c4nc(c(-c5ccccc5)c5ccc2[nH]5)C=C4)C=C3)cc1
REMARK SMILES IDX 17 1 16 2 15 3 1 4 2 5 3 7 4 8 10 9 11 10 14 11 12 12 13 13
REMARK SMILES IDX 5 14 6 15 9 16 7 17 8 18 18 19 19 20 20 21 21 23 22 24 23 25
REMARK SMILES IDX 69 26 24 27 68 28 25 29 26 30 27 31 62 32 28 33 67 34 61 35
REMARK SMILES IDX 63 36 29 37 66 38 60 39 59 40 30 42 52 43 37 44 51 45 38 46
REMARK SMILES IDX 41 47 50 48 64 49 39 50 40 51 49 53 65 54 42 55 31 56 32 57
REMARK SMILES IDX 36 58 33 59 35 60 34 61 53 62 54 63 58 64 55 65 57 66 56 67
REMARK SMILES IDX 43 68 44 69 48 70 45 71 47 72 46 73
REMARK H PARENT 15 6 19 22 63 41 41 52
REMARK Flexibility Score: inf
ROOT
ATOM      1  C   UNL A   1      33.545  28.445  26.082  1.00  0.00     0.042 C 
ENDROOT
BRANCH   1   2
ATOM      2  C   UNL A   1      32.670  27.256  26.495  1.00  0.00     0.117 C 
BRANCH   2   3
ATOM      3  N   UNL A   1      32.742  26.156  25.545  1.00  0.00    -0.356 N 
ATOM      4  O   UNL A   1      31.690  24.615  26.881  1.00  0.00    -0.275 OA
ATOM      5  C   UNL A   1      32.239  24.902  25.823  1.00  0.00     0.222 C 
ATOM      6  H   UNL A   1      33.165  26.312  24.671  1.00  0.00     0.163 HD
BRANCH   5   7
ATOM      7  C   UNL A   1      32.488  23.865  24.750  1.00  0.00     0.130 C 
BRANCH   7   8
ATOM      8  C   UNL A   1      33.356  22.701  25.232  1.00  0.00     0.127 C 
BRANCH   8   9
ATOM      9  N   UNL A   1      32.951  21.429  24.605  1.00  0.00    -0.346 N 
ATOM     10  C   UNL A   1      32.389  21.273  23.360  1.00  0.00     0.086 A 
ATOM     11  C   UNL A   1      33.060  20.194  25.200  1.00  0.00     0.086 A 
ATOM     12  C   UNL A   1      32.161  19.930  23.155  1.00  0.00     0.019 A 
ATOM     13  C   UNL A   1      32.583  19.249  24.319  1.00  0.00     0.019 A 
ENDBRANCH   8   9
BRANCH   8  14
ATOM     14  C   UNL A   1      34.847  22.898  25.053  1.00  0.00    -0.014 A 
ATOM     15  C   UNL A   1      35.630  22.446  23.934  1.00  0.00     0.017 A 
ATOM     16  C   UNL A   1      35.663  23.527  25.980  1.00  0.00     0.070 A 
ATOM     17  C   UNL A   1      36.971  22.726  24.068  1.00  0.00     0.065 A 
ATOM     18  S   UNL A   1      37.309  23.554  25.522  1.00  0.00    -0.152 S 
ENDBRANCH   8  14
ENDBRANCH   7   8
ENDBRANCH   5   7
ENDBRANCH   2   3
ENDBRANCH   1   2
BRANCH   1  19
ATOM     19  C   UNL A   1      34.812  28.585  26.923  1.00  0.00     0.118 C 
BRANCH  19  20
ATOM     20  N   UNL A   1      35.188  29.977  27.121  1.00  0.00    -0.352 N 
ATOM     21  C   UNL A   1      36.265  30.530  27.772  1.00  0.00     0.251 C 
ATOM     22  H   UNL A   1      34.568  30.630  26.722  1.00  0.00     0.163 HD
ATOM     23  O   UNL A   1      36.202  31.700  28.123  1.00  0.00    -0.269 OA
BRANCH  21  24
ATOM     24  C   UNL A   1      37.496  29.755  28.057  1.00  0.00     0.039 A 
ATOM     25  C   UNL A   1      38.499  29.728  27.074  1.00  0.00     0.014 A 
ATOM     26  C   UNL A   1      37.633  28.977  29.209  1.00  0.00     0.014 A 
ATOM     27  C   UNL A   1      39.649  28.970  27.271  1.00  0.00     0.010 A 
ATOM     28  C   UNL A   1      38.794  28.254  29.433  1.00  0.00     0.010 A 
ATOM     29  C   UNL A   1      39.799  28.255  28.465  1.00  0.00    -0.014 A 
BRANCH  29  30
ATOM     30  C   UNL A   1      41.089  27.617  28.781  1.00  0.00     0.031 A 
ATOM     31  C   UNL A   1      41.102  26.136  28.346  1.00  0.00     0.074 A 
ATOM     32  C   UNL A   1      42.030  28.422  29.364  1.00  0.00     0.049 A 
ATOM     33  N   UNL A   1      41.850  25.157  28.747  1.00  0.00    -0.248 NA
ATOM     34  C   UNL A   1      40.109  25.660  27.337  1.00  0.00     0.031 C 
ATOM     35  C   UNL A   1      41.843  29.868  29.651  1.00  0.00     0.029 A 
ATOM     36  N   UNL A   1      43.315  28.227  29.825  1.00  0.00    -0.354 N 
ATOM     37  C   UNL A   1      41.551  24.023  27.955  1.00  0.00     0.074 A 
ATOM     38  C   UNL A   1      40.412  24.370  27.164  1.00  0.00     0.031 C 
ATOM     39  C   UNL A   1      42.914  30.380  30.296  1.00  0.00     0.029 A 
ATOM     40  C   UNL A   1      43.901  29.337  30.489  1.00  0.00     0.049 A 
ATOM     41  H   UNL A   1      43.793  27.375  29.702  1.00  0.00     0.167 HD
ATOM     42  C   UNL A   1      42.346  22.913  27.912  1.00  0.00     0.031 A 
ATOM     43  C   UNL A   1      45.074  29.398  31.191  1.00  0.00     0.031 A 
ATOM     44  C   UNL A   1      43.408  23.037  28.851  1.00  0.00     0.049 A 
ATOM     45  C   UNL A   1      45.729  28.103  30.978  1.00  0.00     0.074 A 
ATOM     46  C   UNL A   1      43.434  23.015  30.220  1.00  0.00     0.029 A 
ATOM     47  N   UNL A   1      44.561  23.620  28.384  1.00  0.00    -0.354 N 
ATOM     48  N   UNL A   1      46.302  27.738  29.874  1.00  0.00    -0.248 NA
ATOM     49  C   UNL A   1      45.679  27.095  32.045  1.00  0.00     0.031 C 
ATOM     50  C   UNL A   1      44.328  24.063  30.529  1.00  0.00     0.029 A 
ATOM     51  C   UNL A   1      44.984  24.480  29.365  1.00  0.00     0.049 A 
ATOM     52  H   UNL A   1      44.998  23.454  27.518  1.00  0.00     0.167 HD
ATOM     53  C   UNL A   1      46.287  26.372  29.982  1.00  0.00     0.074 A 
ATOM     54  C   UNL A   1      46.230  26.071  31.398  1.00  0.00     0.031 C 
ATOM     55  C   UNL A   1      45.765  25.626  28.973  1.00  0.00     0.031 A 
BRANCH  42  56
ATOM     56  C   UNL A   1      42.440  21.783  26.926  1.00  0.00    -0.014 A 
ATOM     57  C   UNL A   1      41.711  20.603  27.219  1.00  0.00     0.009 A 
ATOM     58  C   UNL A   1      43.443  21.689  25.955  1.00  0.00     0.009 A 
ATOM     59  C   UNL A   1      42.053  19.365  26.671  1.00  0.00     0.001 A 
ATOM     60  C   UNL A   1      43.762  20.450  25.376  1.00  0.00     0.001 A 
ATOM     61  C   UNL A   1      43.097  19.288  25.762  1.00  0.00     0.000 A 
ENDBRANCH  42  56
BRANCH  43  62
ATOM     62  C   UNL A   1      45.783  30.334  32.139  1.00  0.00    -0.014 A 
ATOM     63  C   UNL A   1      46.864  31.160  31.832  1.00  0.00     0.009 A 
ATOM     64  C   UNL A   1      45.262  30.476  33.457  1.00  0.00     0.009 A 
ATOM     65  C   UNL A   1      47.317  32.136  32.750  1.00  0.00     0.001 A 
ATOM     66  C   UNL A   1      45.670  31.471  34.350  1.00  0.00     0.001 A 
ATOM     67  C   UNL A   1      46.695  32.319  33.985  1.00  0.00     0.000 A 
ENDBRANCH  43  62
BRANCH  55  68
ATOM     68  C   UNL A   1      45.698  26.324  27.615  1.00  0.00    -0.014 A 
ATOM     69  C   UNL A   1      44.461  26.760  27.108  1.00  0.00     0.009 A 
ATOM     70  C   UNL A   1      46.807  26.445  26.760  1.00  0.00     0.009 A 
ATOM     71  C   UNL A   1      44.334  27.250  25.800  1.00  0.00     0.001 A 
ATOM     72  C   UNL A   1      46.688  26.940  25.451  1.00  0.00     0.001 A 
ATOM     73  C   UNL A   1      45.445  27.336  24.968  1.00  0.00     0.000 A 
ENDBRANCH  55  68
ENDBRANCH  29  30
ENDBRANCH  21  24
ENDBRANCH  19  20
ENDBRANCH   1  19
TORSDOF 13
ENDMDL
