MODEL 1
REMARK VINA RESULT:     -11.3      0.000      0.000
REMARK SMILES O=C(NCCCNC(=O)[C@@]1([NH2+]C2CC2)CCC[C@@H](Sc2ncn[nH]2)C1)c1ccc(-c2c3nc(c(-c4ccccc4)c4ccc([nH]4)c(-c4ccccc4)c4nc(c(-c5ccccc5)c5ccc2[nH]5)C=C4)C=C3)cc1
REMARK SMILES IDX 5 1 4 2 3 3 1 4 2 5 26 7 27 8 73 9 28 10 72 11 29 12 30 13
REMARK SMILES IDX 31 14 66 15 32 16 71 17 65 18 67 19 33 20 70 21 64 22 63 23
REMARK SMILES IDX 34 25 56 26 41 27 55 28 42 29 45 30 54 31 68 32 43 33 44 34
REMARK SMILES IDX 53 36 69 37 46 38 35 39 36 40 40 41 37 42 39 43 38 44 57 45
REMARK SMILES IDX 58 46 62 47 59 48 61 49 60 50 47 51 48 52 52 53 49 54 51 55
REMARK SMILES IDX 50 56 6 57 7 58 8 59 9 61 10 62 15 63 25 64 16 65 18 66
REMARK SMILES IDX 17 67 11 68 12 71 13 72 14 73 19 74 20 75 21 76 24 77 22 78
REMARK SMILES IDX 23 79
REMARK H PARENT 3 6 67 24 45 35 7 60 11 69 11 70 24 80
REMARK Flexibility Score: inf
ROOT
ATOM      1  C   UNL A   1      31.289  31.681  26.474  1.00  0.00     0.042 C 
ENDROOT
BRANCH   1   2
ATOM      2  C   UNL A   1      32.595  32.301  26.961  1.00  0.00     0.118 C 
BRANCH   2   3
ATOM      3  N   UNL A   1      32.407  33.690  27.366  1.00  0.00    -0.352 N 
ATOM      4  O   UNL A   1      32.527  35.461  28.751  1.00  0.00    -0.269 OA
ATOM      5  C   UNL A   1      33.012  34.387  28.376  1.00  0.00     0.251 C 
ATOM      6  H   UNL A   1      31.751  34.198  26.836  1.00  0.00     0.163 HD
BRANCH   5   7
ATOM      7  C   UNL A   1      34.237  33.876  29.028  1.00  0.00     0.039 A 
ATOM      8  C   UNL A   1      34.161  32.913  30.040  1.00  0.00     0.014 A 
ATOM      9  C   UNL A   1      35.487  34.305  28.570  1.00  0.00     0.014 A 
ATOM     10  C   UNL A   1      35.323  32.463  30.661  1.00  0.00     0.010 A 
ATOM     11  C   UNL A   1      36.656  33.796  29.144  1.00  0.00     0.010 A 
ATOM     12  C   UNL A   1      36.584  32.882  30.206  1.00  0.00    -0.014 A 
BRANCH  12  13
ATOM     13  C   UNL A   1      37.808  32.291  30.802  1.00  0.00     0.031 A 
ATOM     14  C   UNL A   1      38.384  32.813  32.087  1.00  0.00     0.074 A 
ATOM     15  C   UNL A   1      38.397  31.253  30.177  1.00  0.00     0.049 A 
ATOM     16  N   UNL A   1      39.418  32.376  32.762  1.00  0.00    -0.248 NA
ATOM     17  C   UNL A   1      37.721  33.979  32.691  1.00  0.00     0.031 C 
ATOM     18  C   UNL A   1      37.944  30.661  28.915  1.00  0.00     0.029 A 
ATOM     19  N   UNL A   1      39.484  30.494  30.528  1.00  0.00    -0.354 N 
ATOM     20  C   UNL A   1      39.546  33.224  33.854  1.00  0.00     0.074 A 
ATOM     21  C   UNL A   1      38.495  34.214  33.742  1.00  0.00     0.031 C 
ATOM     22  C   UNL A   1      38.709  29.597  28.629  1.00  0.00     0.029 A 
ATOM     23  C   UNL A   1      39.736  29.463  29.656  1.00  0.00     0.049 A 
ATOM     24  H   UNL A   1      40.031  30.671  31.327  1.00  0.00     0.167 HD
ATOM     25  C   UNL A   1      40.454  33.183  34.859  1.00  0.00     0.031 A 
ATOM     26  C   UNL A   1      40.686  28.511  29.677  1.00  0.00     0.031 A 
ATOM     27  C   UNL A   1      41.497  32.197  34.977  1.00  0.00     0.049 A 
ATOM     28  C   UNL A   1      41.683  28.492  30.797  1.00  0.00     0.074 A 
ATOM     29  C   UNL A   1      42.439  32.052  35.981  1.00  0.00     0.029 A 
ATOM     30  N   UNL A   1      41.738  31.190  34.056  1.00  0.00    -0.354 N 
ATOM     31  N   UNL A   1      41.763  29.279  31.841  1.00  0.00    -0.248 NA
ATOM     32  C   UNL A   1      42.718  27.451  30.739  1.00  0.00     0.031 C 
ATOM     33  C   UNL A   1      43.276  30.981  35.646  1.00  0.00     0.029 A 
ATOM     34  C   UNL A   1      42.826  30.432  34.458  1.00  0.00     0.049 A 
ATOM     35  H   UNL A   1      41.214  31.035  33.237  1.00  0.00     0.167 HD
ATOM     36  C   UNL A   1      42.847  28.819  32.576  1.00  0.00     0.074 A 
ATOM     37  C   UNL A   1      43.382  27.674  31.865  1.00  0.00     0.031 C 
ATOM     38  C   UNL A   1      43.352  29.301  33.737  1.00  0.00     0.031 A 
BRANCH  25  39
ATOM     39  C   UNL A   1      40.376  34.262  35.903  1.00  0.00    -0.014 A 
ATOM     40  C   UNL A   1      41.080  35.468  35.763  1.00  0.00     0.009 A 
ATOM     41  C   UNL A   1      39.562  34.076  37.032  1.00  0.00     0.009 A 
ATOM     42  C   UNL A   1      40.996  36.453  36.750  1.00  0.00     0.001 A 
ATOM     43  C   UNL A   1      39.463  35.073  38.006  1.00  0.00     0.001 A 
ATOM     44  C   UNL A   1      40.187  36.255  37.869  1.00  0.00     0.000 A 
ENDBRANCH  25  39
BRANCH  26  45
ATOM     45  C   UNL A   1      40.723  27.485  28.605  1.00  0.00    -0.014 A 
ATOM     46  C   UNL A   1      40.006  26.288  28.746  1.00  0.00     0.009 A 
ATOM     47  C   UNL A   1      41.451  27.710  27.426  1.00  0.00     0.009 A 
ATOM     48  C   UNL A   1      40.028  25.329  27.732  1.00  0.00     0.001 A 
ATOM     49  C   UNL A   1      41.451  26.759  26.405  1.00  0.00     0.001 A 
ATOM     50  C   UNL A   1      40.745  25.567  26.560  1.00  0.00     0.000 A 
ENDBRANCH  26  45
BRANCH  38  51
ATOM     51  C   UNL A   1      44.526  28.572  34.322  1.00  0.00    -0.014 A 
ATOM     52  C   UNL A   1      45.842  28.946  34.011  1.00  0.00     0.009 A 
ATOM     53  C   UNL A   1      44.310  27.506  35.209  1.00  0.00     0.009 A 
ATOM     54  C   UNL A   1      46.921  28.244  34.554  1.00  0.00     0.001 A 
ATOM     55  C   UNL A   1      45.390  26.821  35.767  1.00  0.00     0.001 A 
ATOM     56  C   UNL A   1      46.693  27.185  35.432  1.00  0.00     0.000 A 
ENDBRANCH  38  51
ENDBRANCH  12  13
ENDBRANCH   5   7
ENDBRANCH   2   3
ENDBRANCH   1   2
BRANCH   1  57
ATOM     57  C   UNL A   1      31.428  30.215  26.078  1.00  0.00     0.118 C 
BRANCH  57  58
ATOM     58  N   UNL A   1      32.322  30.031  24.944  1.00  0.00    -0.351 N 
ATOM     59  C   UNL A   1      32.467  29.137  23.931  1.00  0.00     0.281 C 
ATOM     60  H   UNL A   1      33.003  30.741  24.901  1.00  0.00     0.163 HD
ATOM     61  O   UNL A   1      33.506  29.310  23.272  1.00  0.00    -0.268 OA
BRANCH  59  62
ATOM     62  C   UNL A   1      31.459  28.004  23.538  1.00  0.00     0.176 C 
ATOM     63  C   UNL A   1      31.266  26.852  24.540  1.00  0.00     0.079 C 
ATOM     64  C   UNL A   1      30.083  28.773  23.474  1.00  0.00     0.094 C 
ATOM     65  C   UNL A   1      30.078  25.934  24.247  1.00  0.00     0.008 C 
ATOM     66  C   UNL A   1      28.860  27.879  23.220  1.00  0.00     0.061 C 
ATOM     67  C   UNL A   1      28.774  26.725  24.220  1.00  0.00     0.015 C 
BRANCH  62  68
ATOM     68  N   UNL A   1      31.700  27.520  22.154  1.00  0.00    -0.331 N 
ATOM     69  H   UNL A   1      31.857  28.367  21.606  1.00  0.00     0.347 HD
ATOM     70  H   UNL A   1      30.884  26.917  22.052  1.00  0.00     0.347 HD
BRANCH  68  71
ATOM     71  C   UNL A   1      32.730  26.591  21.707  1.00  0.00     0.183 C 
ATOM     72  C   UNL A   1      32.830  25.138  22.032  1.00  0.00     0.071 C 
ATOM     73  C   UNL A   1      32.527  25.578  20.625  1.00  0.00     0.071 C 
ENDBRANCH  68  71
ENDBRANCH  62  68
BRANCH  66  74
ATOM     74  S   UNL A   1      27.277  28.797  23.126  1.00  0.00    -0.083 SA
BRANCH  74  75
ATOM     75  C   UNL A   1      27.714  30.263  22.347  1.00  0.00     0.183 A 
ATOM     76  N   UNL A   1      28.082  30.450  21.105  1.00  0.00    -0.210 NA
ATOM     77  N   UNL A   1      27.664  31.453  23.002  1.00  0.00    -0.254 N 
ATOM     78  C   UNL A   1      28.249  31.805  21.046  1.00  0.00     0.247 A 
ATOM     79  N   UNL A   1      28.029  32.463  22.190  1.00  0.00    -0.162 NA
ATOM     80  H   UNL A   1      27.398  31.563  23.942  1.00  0.00     0.192 HD
ENDBRANCH  74  75
ENDBRANCH  66  74
ENDBRANCH  59  62
ENDBRANCH  57  58
ENDBRANCH   1  57
TORSDOF 14
ENDMDL
MODEL 2
REMARK VINA RESULT:     -11.2      4.494      8.518
REMARK SMILES O=C(NCCCNC(=O)[C@@]1([NH2+]C2CC2)CCC[C@@H](Sc2ncn[nH]2)C1)c1ccc(-c2c3nc(c(-c4ccccc4)c4ccc([nH]4)c(-c4ccccc4)c4nc(c(-c5ccccc5)c5ccc2[nH]5)C=C4)C=C3)cc1
REMARK SMILES IDX 5 1 4 2 3 3 1 4 2 5 26 7 27 8 73 9 28 10 72 11 29 12 30 13
REMARK SMILES IDX 31 14 66 15 32 16 71 17 65 18 67 19 33 20 70 21 64 22 63 23
REMARK SMILES IDX 34 25 56 26 41 27 55 28 42 29 45 30 54 31 68 32 43 33 44 34
REMARK SMILES IDX 53 36 69 37 46 38 35 39 36 40 40 41 37 42 39 43 38 44 57 45
REMARK SMILES IDX 58 46 62 47 59 48 61 49 60 50 47 51 48 52 52 53 49 54 51 55
REMARK SMILES IDX 50 56 6 57 7 58 8 59 9 61 10 62 15 63 25 64 16 65 18 66
REMARK SMILES IDX 17 67 11 68 12 71 13 72 14 73 19 74 20 75 21 76 24 77 22 78
REMARK SMILES IDX 23 79
REMARK H PARENT 3 6 67 24 45 35 7 60 11 69 11 70 24 80
REMARK Flexibility Score: inf
ROOT
ATOM      1  C   UNL A   1      32.366  28.292  27.611  1.00  0.00     0.042 C 
ENDROOT
BRANCH   1   2
ATOM      2  C   UNL A   1      33.694  28.964  27.280  1.00  0.00     0.118 C 
BRANCH   2   3
ATOM      3  N   UNL A   1      33.755  30.318  27.819  1.00  0.00    -0.352 N 
ATOM      4  O   UNL A   1      34.499  31.963  29.165  1.00  0.00    -0.269 OA
ATOM      5  C   UNL A   1      34.741  30.912  28.559  1.00  0.00     0.251 C 
ATOM      6  H   UNL A   1      32.975  30.885  27.621  1.00  0.00     0.163 HD
BRANCH   5   7
ATOM      7  C   UNL A   1      36.091  30.317  28.648  1.00  0.00     0.039 A 
ATOM      8  C   UNL A   1      36.976  30.383  27.567  1.00  0.00     0.014 A 
ATOM      9  C   UNL A   1      36.513  29.754  29.857  1.00  0.00     0.014 A 
ATOM     10  C   UNL A   1      38.234  29.794  27.660  1.00  0.00     0.010 A 
ATOM     11  C   UNL A   1      37.804  29.228  29.973  1.00  0.00     0.010 A 
ATOM     12  C   UNL A   1      38.671  29.230  28.870  1.00  0.00    -0.014 A 
BRANCH  12  13
ATOM     13  C   UNL A   1      40.062  28.723  28.979  1.00  0.00     0.031 A 
ATOM     14  C   UNL A   1      40.416  27.318  28.582  1.00  0.00     0.074 A 
ATOM     15  C   UNL A   1      41.022  29.555  29.427  1.00  0.00     0.049 A 
ATOM     16  N   UNL A   1      41.590  26.738  28.572  1.00  0.00    -0.248 NA
ATOM     17  C   UNL A   1      39.312  26.448  28.149  1.00  0.00     0.031 C 
ATOM     18  C   UNL A   1      40.805  30.939  29.857  1.00  0.00     0.029 A 
ATOM     19  N   UNL A   1      42.373  29.370  29.571  1.00  0.00    -0.354 N 
ATOM     20  C   UNL A   1      41.367  25.432  28.157  1.00  0.00     0.074 A 
ATOM     21  C   UNL A   1      39.941  25.299  27.942  1.00  0.00     0.031 C 
ATOM     22  C   UNL A   1      41.987  31.495  30.159  1.00  0.00     0.029 A 
ATOM     23  C   UNL A   1      43.037  30.495  29.996  1.00  0.00     0.049 A 
ATOM     24  H   UNL A   1      42.824  28.514  29.389  1.00  0.00     0.167 HD
ATOM     25  C   UNL A   1      42.266  24.435  27.969  1.00  0.00     0.031 A 
ATOM     26  C   UNL A   1      44.345  30.705  30.228  1.00  0.00     0.031 A 
ATOM     27  C   UNL A   1      43.684  24.566  28.176  1.00  0.00     0.049 A 
ATOM     28  C   UNL A   1      45.318  29.583  30.020  1.00  0.00     0.074 A 
ATOM     29  C   UNL A   1      44.677  23.622  27.974  1.00  0.00     0.029 A 
ATOM     30  N   UNL A   1      44.312  25.712  28.638  1.00  0.00    -0.354 N 
ATOM     31  N   UNL A   1      45.092  28.367  29.588  1.00  0.00    -0.248 NA
ATOM     32  C   UNL A   1      46.726  29.866  30.329  1.00  0.00     0.031 C 
ATOM     33  C   UNL A   1      45.901  24.186  28.353  1.00  0.00     0.029 A 
ATOM     34  C   UNL A   1      45.676  25.494  28.747  1.00  0.00     0.049 A 
ATOM     35  H   UNL A   1      43.857  26.558  28.856  1.00  0.00     0.167 HD
ATOM     36  C   UNL A   1      46.331  27.743  29.557  1.00  0.00     0.074 A 
ATOM     37  C   UNL A   1      47.305  28.721  29.998  1.00  0.00     0.031 C 
ATOM     38  C   UNL A   1      46.633  26.472  29.194  1.00  0.00     0.031 A 
BRANCH  25  39
ATOM     39  C   UNL A   1      41.731  23.097  27.542  1.00  0.00    -0.014 A 
ATOM     40  C   UNL A   1      41.339  22.856  26.216  1.00  0.00     0.009 A 
ATOM     41  C   UNL A   1      41.643  22.054  28.478  1.00  0.00     0.009 A 
ATOM     42  C   UNL A   1      40.839  21.606  25.844  1.00  0.00     0.001 A 
ATOM     43  C   UNL A   1      41.164  20.799  28.097  1.00  0.00     0.001 A 
ATOM     44  C   UNL A   1      40.753  20.579  26.784  1.00  0.00     0.000 A 
ENDBRANCH  25  39
BRANCH  26  45
ATOM     45  C   UNL A   1      44.808  32.045  30.668  1.00  0.00    -0.014 A 
ATOM     46  C   UNL A   1      44.907  32.347  32.034  1.00  0.00     0.009 A 
ATOM     47  C   UNL A   1      45.180  33.017  29.726  1.00  0.00     0.009 A 
ATOM     48  C   UNL A   1      45.357  33.602  32.448  1.00  0.00     0.001 A 
ATOM     49  C   UNL A   1      45.653  34.261  30.144  1.00  0.00     0.001 A 
ATOM     50  C   UNL A   1      45.736  34.555  31.504  1.00  0.00     0.000 A 
ENDBRANCH  26  45
BRANCH  38  51
ATOM     51  C   UNL A   1      48.081  26.082  29.233  1.00  0.00    -0.014 A 
ATOM     52  C   UNL A   1      48.871  26.104  28.073  1.00  0.00     0.009 A 
ATOM     53  C   UNL A   1      48.666  25.704  30.451  1.00  0.00     0.009 A 
ATOM     54  C   UNL A   1      50.214  25.722  28.128  1.00  0.00     0.001 A 
ATOM     55  C   UNL A   1      50.013  25.346  30.507  1.00  0.00     0.001 A 
ATOM     56  C   UNL A   1      50.783  25.346  29.344  1.00  0.00     0.000 A 
ENDBRANCH  38  51
ENDBRANCH  12  13
ENDBRANCH   5   7
ENDBRANCH   2   3
ENDBRANCH   1   2
BRANCH   1  57
ATOM     57  C   UNL A   1      31.558  27.908  26.376  1.00  0.00     0.118 C 
BRANCH  57  58
ATOM     58  N   UNL A   1      30.836  26.657  26.554  1.00  0.00    -0.351 N 
ATOM     59  C   UNL A   1      30.972  25.368  26.148  1.00  0.00     0.281 C 
ATOM     60  H   UNL A   1      30.036  26.777  27.116  1.00  0.00     0.163 HD
ATOM     61  O   UNL A   1      29.991  24.660  26.430  1.00  0.00    -0.268 OA
BRANCH  59  62
ATOM     62  C   UNL A   1      32.218  24.744  25.431  1.00  0.00     0.176 C 
ATOM     63  C   UNL A   1      33.530  25.547  25.472  1.00  0.00     0.079 C 
ATOM     64  C   UNL A   1      32.474  23.430  26.265  1.00  0.00     0.094 C 
ATOM     65  C   UNL A   1      34.771  24.778  25.014  1.00  0.00     0.008 C 
ATOM     66  C   UNL A   1      33.734  22.650  25.862  1.00  0.00     0.061 C 
ATOM     67  C   UNL A   1      34.984  23.532  25.869  1.00  0.00     0.015 C 
BRANCH  62  68
ATOM     68  N   UNL A   1      31.878  24.277  24.062  1.00  0.00    -0.331 N 
ATOM     69  H   UNL A   1      31.149  23.577  24.200  1.00  0.00     0.347 HD
ATOM     70  H   UNL A   1      32.818  24.065  23.728  1.00  0.00     0.347 HD
BRANCH  68  71
ATOM     71  C   UNL A   1      31.413  25.083  22.941  1.00  0.00     0.183 C 
ATOM     72  C   UNL A   1      31.538  26.563  22.786  1.00  0.00     0.071 C 
ATOM     73  C   UNL A   1      32.313  25.641  21.884  1.00  0.00     0.071 C 
ENDBRANCH  68  71
ENDBRANCH  62  68
BRANCH  66  74
ATOM     74  S   UNL A   1      33.998  21.115  26.828  1.00  0.00    -0.083 SA
BRANCH  74  75
ATOM     75  C   UNL A   1      33.264  19.905  25.858  1.00  0.00     0.183 A 
ATOM     76  N   UNL A   1      33.046  19.913  24.568  1.00  0.00    -0.210 NA
ATOM     77  N   UNL A   1      32.858  18.722  26.391  1.00  0.00    -0.254 N 
ATOM     78  C   UNL A   1      32.492  18.682  24.352  1.00  0.00     0.247 A 
ATOM     79  N   UNL A   1      32.334  17.924  25.442  1.00  0.00    -0.162 NA
ATOM     80  H   UNL A   1      32.937  18.481  27.341  1.00  0.00     0.192 HD
ENDBRANCH  74  75
ENDBRANCH  66  74
ENDBRANCH  59  62
ENDBRANCH  57  58
ENDBRANCH   1  57
TORSDOF 14
ENDMDL
MODEL 3
REMARK VINA RESULT:     -11.2      1.260      6.089
REMARK SMILES O=C(NCCCNC(=O)[C@@]1([NH2+]C2CC2)CCC[C@@H](Sc2ncn[nH]2)C1)c1ccc(-c2c3nc(c(-c4ccccc4)c4ccc([nH]4)c(-c4ccccc4)c4nc(c(-c5ccccc5)c5ccc2[nH]5)C=C4)C=C3)cc1
REMARK SMILES IDX 5 1 4 2 3 3 1 4 2 5 26 7 27 8 73 9 28 10 72 11 29 12 30 13
REMARK SMILES IDX 31 14 66 15 32 16 71 17 65 18 67 19 33 20 70 21 64 22 63 23
REMARK SMILES IDX 34 25 56 26 41 27 55 28 42 29 45 30 54 31 68 32 43 33 44 34
REMARK SMILES IDX 53 36 69 37 46 38 35 39 36 40 40 41 37 42 39 43 38 44 57 45
REMARK SMILES IDX 58 46 62 47 59 48 61 49 60 50 47 51 48 52 52 53 49 54 51 55
REMARK SMILES IDX 50 56 6 57 7 58 8 59 9 61 10 62 15 63 25 64 16 65 18 66
REMARK SMILES IDX 17 67 11 68 12 71 13 72 14 73 19 74 20 75 21 76 24 77 22 78
REMARK SMILES IDX 23 79
REMARK H PARENT 3 6 67 24 45 35 7 60 11 69 11 70 24 80
REMARK Flexibility Score: inf
ROOT
ATOM      1  C   UNL A   1      31.361  31.563  26.448  1.00  0.00     0.042 C 
ENDROOT
BRANCH   1   2
ATOM      2  C   UNL A   1      32.675  32.166  26.931  1.00  0.00     0.118 C 
BRANCH   2   3
ATOM      3  N   UNL A   1      32.485  33.518  27.446  1.00  0.00    -0.352 N 
ATOM      4  O   UNL A   1      32.689  35.200  28.928  1.00  0.00    -0.269 OA
ATOM      5  C   UNL A   1      33.168  34.172  28.434  1.00  0.00     0.251 C 
ATOM      6  H   UNL A   1      31.760  34.031  27.021  1.00  0.00     0.163 HD
BRANCH   5   7
ATOM      7  C   UNL A   1      34.470  33.671  28.923  1.00  0.00     0.039 A 
ATOM      8  C   UNL A   1      34.542  32.845  30.048  1.00  0.00     0.014 A 
ATOM      9  C   UNL A   1      35.631  33.963  28.200  1.00  0.00     0.014 A 
ATOM     10  C   UNL A   1      35.780  32.403  30.510  1.00  0.00     0.010 A 
ATOM     11  C   UNL A   1      36.865  33.458  28.622  1.00  0.00     0.010 A 
ATOM     12  C   UNL A   1      36.952  32.686  29.790  1.00  0.00    -0.014 A 
BRANCH  12  13
ATOM     13  C   UNL A   1      38.241  32.097  30.234  1.00  0.00     0.031 A 
ATOM     14  C   UNL A   1      38.740  30.795  29.676  1.00  0.00     0.074 A 
ATOM     15  C   UNL A   1      38.978  32.763  31.144  1.00  0.00     0.049 A 
ATOM     16  N   UNL A   1      39.865  30.171  29.924  1.00  0.00    -0.248 NA
ATOM     17  C   UNL A   1      37.863  30.096  28.724  1.00  0.00     0.031 C 
ATOM     18  C   UNL A   1      38.598  34.031  31.773  1.00  0.00     0.029 A 
ATOM     19  N   UNL A   1      40.209  32.483  31.679  1.00  0.00    -0.354 N 
ATOM     20  C   UNL A   1      39.823  28.999  29.181  1.00  0.00     0.074 A 
ATOM     21  C   UNL A   1      38.552  28.989  28.487  1.00  0.00     0.031 C 
ATOM     22  C   UNL A   1      39.600  34.448  32.560  1.00  0.00     0.029 A 
ATOM     23  C   UNL A   1      40.668  33.455  32.534  1.00  0.00     0.049 A 
ATOM     24  H   UNL A   1      40.715  31.665  31.470  1.00  0.00     0.167 HD
ATOM     25  C   UNL A   1      40.757  28.022  29.084  1.00  0.00     0.031 A 
ATOM     26  C   UNL A   1      41.820  33.543  33.223  1.00  0.00     0.031 A 
ATOM     27  C   UNL A   1      42.023  28.033  29.768  1.00  0.00     0.049 A 
ATOM     28  C   UNL A   1      42.834  32.445  33.103  1.00  0.00     0.074 A 
ATOM     29  C   UNL A   1      43.050  27.106  29.701  1.00  0.00     0.029 A 
ATOM     30  N   UNL A   1      42.435  29.019  30.651  1.00  0.00    -0.354 N 
ATOM     31  N   UNL A   1      42.792  31.363  32.364  1.00  0.00    -0.248 NA
ATOM     32  C   UNL A   1      44.053  32.582  33.911  1.00  0.00     0.031 C 
ATOM     33  C   UNL A   1      44.066  27.511  30.574  1.00  0.00     0.029 A 
ATOM     34  C   UNL A   1      43.691  28.713  31.150  1.00  0.00     0.049 A 
ATOM     35  H   UNL A   1      41.913  29.819  30.889  1.00  0.00     0.167 HD
ATOM     36  C   UNL A   1      43.987  30.698  32.604  1.00  0.00     0.074 A 
ATOM     37  C   UNL A   1      44.737  31.507  33.545  1.00  0.00     0.031 C 
ATOM     38  C   UNL A   1      44.423  29.522  32.090  1.00  0.00     0.031 A 
BRANCH  25  39
ATOM     39  C   UNL A   1      40.426  26.836  28.222  1.00  0.00    -0.014 A 
ATOM     40  C   UNL A   1      39.630  25.784  28.700  1.00  0.00     0.009 A 
ATOM     41  C   UNL A   1      40.896  26.788  26.900  1.00  0.00     0.009 A 
ATOM     42  C   UNL A   1      39.342  24.689  27.881  1.00  0.00     0.001 A 
ATOM     43  C   UNL A   1      40.586  25.703  26.077  1.00  0.00     0.001 A 
ATOM     44  C   UNL A   1      39.819  24.650  26.571  1.00  0.00     0.000 A 
ENDBRANCH  25  39
BRANCH  26  45
ATOM     45  C   UNL A   1      42.079  34.731  34.074  1.00  0.00    -0.014 A 
ATOM     46  C   UNL A   1      41.725  34.721  35.431  1.00  0.00     0.009 A 
ATOM     47  C   UNL A   1      42.707  35.868  33.541  1.00  0.00     0.009 A 
ATOM     48  C   UNL A   1      41.983  35.832  36.235  1.00  0.00     0.001 A 
ATOM     49  C   UNL A   1      42.984  36.967  34.354  1.00  0.00     0.001 A 
ATOM     50  C   UNL A   1      42.617  36.952  35.698  1.00  0.00     0.000 A 
ENDBRANCH  26  45
BRANCH  38  51
ATOM     51  C   UNL A   1      45.785  29.060  32.515  1.00  0.00    -0.014 A 
ATOM     52  C   UNL A   1      45.950  28.173  33.589  1.00  0.00     0.009 A 
ATOM     53  C   UNL A   1      46.919  29.506  31.817  1.00  0.00     0.009 A 
ATOM     54  C   UNL A   1      47.228  27.766  33.978  1.00  0.00     0.001 A 
ATOM     55  C   UNL A   1      48.193  29.080  32.194  1.00  0.00     0.001 A 
ATOM     56  C   UNL A   1      48.347  28.218  33.279  1.00  0.00     0.000 A 
ENDBRANCH  38  51
ENDBRANCH  12  13
ENDBRANCH   5   7
ENDBRANCH   2   3
ENDBRANCH   1   2
BRANCH   1  57
ATOM     57  C   UNL A   1      31.483  30.100  26.035  1.00  0.00     0.118 C 
BRANCH  57  58
ATOM     58  N   UNL A   1      32.350  29.922  24.879  1.00  0.00    -0.351 N 
ATOM     59  C   UNL A   1      32.472  29.033  23.859  1.00  0.00     0.281 C 
ATOM     60  H   UNL A   1      33.028  30.634  24.822  1.00  0.00     0.163 HD
ATOM     61  O   UNL A   1      33.494  29.211  23.176  1.00  0.00    -0.268 OA
BRANCH  59  62
ATOM     62  C   UNL A   1      31.458  27.899  23.486  1.00  0.00     0.176 C 
ATOM     63  C   UNL A   1      31.279  26.752  24.496  1.00  0.00     0.079 C 
ATOM     64  C   UNL A   1      30.082  28.669  23.438  1.00  0.00     0.094 C 
ATOM     65  C   UNL A   1      30.086  25.834  24.225  1.00  0.00     0.008 C 
ATOM     66  C   UNL A   1      28.854  27.775  23.207  1.00  0.00     0.061 C 
ATOM     67  C   UNL A   1      28.782  26.625  24.214  1.00  0.00     0.015 C 
BRANCH  62  68
ATOM     68  N   UNL A   1      31.678  27.409  22.101  1.00  0.00    -0.331 N 
ATOM     69  H   UNL A   1      31.819  28.253  21.546  1.00  0.00     0.347 HD
ATOM     70  H   UNL A   1      30.865  26.798  22.017  1.00  0.00     0.347 HD
BRANCH  68  71
ATOM     71  C   UNL A   1      32.707  26.485  21.642  1.00  0.00     0.183 C 
ATOM     72  C   UNL A   1      32.728  25.003  21.819  1.00  0.00     0.071 C 
ATOM     73  C   UNL A   1      32.559  25.598  20.447  1.00  0.00     0.071 C 
ENDBRANCH  68  71
ENDBRANCH  62  68
BRANCH  66  74
ATOM     74  S   UNL A   1      27.271  28.694  23.132  1.00  0.00    -0.083 SA
BRANCH  74  75
ATOM     75  C   UNL A   1      27.718  30.199  22.438  1.00  0.00     0.183 A 
ATOM     76  N   UNL A   1      27.954  31.337  23.038  1.00  0.00    -0.210 NA
ATOM     77  N   UNL A   1      27.925  30.327  21.101  1.00  0.00    -0.254 N 
ATOM     78  C   UNL A   1      28.313  32.152  22.001  1.00  0.00     0.247 A 
ATOM     79  N   UNL A   1      28.287  31.585  20.790  1.00  0.00    -0.162 NA
ATOM     80  H   UNL A   1      27.825  29.598  20.448  1.00  0.00     0.192 HD
ENDBRANCH  74  75
ENDBRANCH  66  74
ENDBRANCH  59  62
ENDBRANCH  57  58
ENDBRANCH   1  57
TORSDOF 14
ENDMDL
