MODEL 1
REMARK VINA RESULT:     -10.4      0.000      0.000
REMARK SMILES CC[C@]1(C(=O)NCCCNC(=O)c2ccc(-c3c4nc(c(-c5ccccc5)c5ccc([nH]5)c(-c5ccccc5)c5nc(c(-c6ccccc6)c6ccc3[nH]6)C=C5)C=C4)cc2)CCN(C(=O)[C@]2(C)CCCO2)C1
REMARK SMILES IDX 8 1 7 2 6 3 4 4 5 5 3 7 61 8 72 9 62 10 63 11 2 12 1 13
REMARK SMILES IDX 64 14 65 15 66 16 68 17 71 18 67 19 69 20 70 21 9 22 10 23
REMARK SMILES IDX 11 24 12 26 13 27 14 28 60 29 15 30 59 31 16 32 17 33 18 34
REMARK SMILES IDX 53 35 19 36 58 37 52 38 54 39 20 40 57 41 51 42 50 43 21 45
REMARK SMILES IDX 43 46 28 47 42 48 29 49 32 50 41 51 55 52 30 53 31 54 40 56
REMARK SMILES IDX 56 57 33 58 22 59 23 60 27 61 24 62 26 63 25 64 44 65 45 66
REMARK SMILES IDX 49 67 46 68 48 69 47 70 34 71 35 72 39 73 36 74 38 75 37 76
REMARK H PARENT 6 6 10 25 54 44 32 55
REMARK Flexibility Score: inf
ROOT
ATOM      1  C   UNL A   1      37.400  19.306  25.052  1.00  0.00     0.042 C 
ENDROOT
BRANCH   1   2
ATOM      2  C   UNL A   1      36.213  20.168  24.642  1.00  0.00     0.117 C 
BRANCH   2   3
ATOM      3  N   UNL A   1      35.575  20.811  25.779  1.00  0.00    -0.355 N 
ATOM      4  C   UNL A   1      35.172  22.086  26.029  1.00  0.00     0.228 C 
ATOM      5  O   UNL A   1      34.654  22.243  27.139  1.00  0.00    -0.274 OA
ATOM      6  H   UNL A   1      35.398  20.195  26.525  1.00  0.00     0.163 HD
BRANCH   4   7
ATOM      7  C   UNL A   1      35.374  23.269  25.049  1.00  0.00     0.068 C 
ATOM      8  C   UNL A   1      34.505  23.074  23.785  1.00  0.00     0.040 C 
ATOM      9  C   UNL A   1      34.818  24.585  25.665  1.00  0.00     0.136 C 
ATOM     10  C   UNL A   1      34.056  24.478  23.427  1.00  0.00     0.121 C 
ATOM     11  N   UNL A   1      33.813  25.069  24.718  1.00  0.00    -0.339 N 
BRANCH   7  12
ATOM     12  C   UNL A   1      36.908  23.428  24.724  1.00  0.00     0.015 C 
ATOM     13  C   UNL A   1      37.870  23.712  25.876  1.00  0.00     0.005 C 
ENDBRANCH   7  12
BRANCH  11  14
ATOM     14  C   UNL A   1      32.774  25.894  25.107  1.00  0.00     0.254 C 
ATOM     15  O   UNL A   1      31.658  25.408  25.331  1.00  0.00    -0.272 OA
BRANCH  14  16
ATOM     16  C   UNL A   1      32.987  27.446  25.170  1.00  0.00     0.144 C 
ATOM     17  C   UNL A   1      33.636  27.877  26.496  1.00  0.00     0.048 C 
ATOM     18  O   UNL A   1      31.758  28.182  25.049  1.00  0.00    -0.365 OA
ATOM     19  C   UNL A   1      33.882  27.868  23.986  1.00  0.00     0.053 C 
ATOM     20  C   UNL A   1      32.648  28.816  27.148  1.00  0.00     0.032 C 
ATOM     21  C   UNL A   1      31.754  29.245  26.008  1.00  0.00     0.162 C 
ENDBRANCH  14  16
ENDBRANCH  11  14
ENDBRANCH   4   7
ENDBRANCH   2   3
ENDBRANCH   1   2
BRANCH   1  22
ATOM     22  C   UNL A   1      38.640  20.094  25.447  1.00  0.00     0.118 C 
BRANCH  22  23
ATOM     23  N   UNL A   1      39.805  19.249  25.658  1.00  0.00    -0.352 N 
ATOM     24  C   UNL A   1      41.071  19.570  26.079  1.00  0.00     0.251 C 
ATOM     25  H   UNL A   1      39.663  18.294  25.467  1.00  0.00     0.163 HD
ATOM     26  O   UNL A   1      41.957  18.722  26.032  1.00  0.00    -0.269 OA
BRANCH  24  27
ATOM     27  C   UNL A   1      41.387  20.931  26.568  1.00  0.00     0.039 A 
ATOM     28  C   UNL A   1      41.212  21.208  27.926  1.00  0.00     0.014 A 
ATOM     29  C   UNL A   1      41.822  21.940  25.704  1.00  0.00     0.014 A 
ATOM     30  C   UNL A   1      41.527  22.475  28.423  1.00  0.00     0.010 A 
ATOM     31  C   UNL A   1      42.222  23.172  26.215  1.00  0.00     0.010 A 
ATOM     32  C   UNL A   1      42.069  23.458  27.578  1.00  0.00    -0.014 A 
BRANCH  32  33
ATOM     33  C   UNL A   1      42.473  24.781  28.117  1.00  0.00     0.031 A 
ATOM     34  C   UNL A   1      41.455  25.870  28.322  1.00  0.00     0.074 A 
ATOM     35  C   UNL A   1      43.771  25.015  28.393  1.00  0.00     0.049 A 
ATOM     36  N   UNL A   1      41.624  27.076  28.806  1.00  0.00    -0.248 NA
ATOM     37  C   UNL A   1      40.072  25.581  27.908  1.00  0.00     0.031 C 
ATOM     38  C   UNL A   1      44.866  24.064  28.185  1.00  0.00     0.029 A 
ATOM     39  N   UNL A   1      44.390  26.123  28.914  1.00  0.00    -0.354 N 
ATOM     40  C   UNL A   1      40.378  27.688  28.743  1.00  0.00     0.074 A 
ATOM     41  C   UNL A   1      39.476  26.745  28.121  1.00  0.00     0.031 C 
ATOM     42  C   UNL A   1      46.012  24.613  28.618  1.00  0.00     0.029 A 
ATOM     43  C   UNL A   1      45.742  25.962  29.099  1.00  0.00     0.049 A 
ATOM     44  H   UNL A   1      43.911  26.954  29.136  1.00  0.00     0.167 HD
ATOM     45  C   UNL A   1      40.010  28.915  29.183  1.00  0.00     0.031 A 
ATOM     46  C   UNL A   1      46.661  26.804  29.609  1.00  0.00     0.031 A 
ATOM     47  C   UNL A   1      40.904  29.851  29.811  1.00  0.00     0.049 A 
ATOM     48  C   UNL A   1      46.225  28.154  30.102  1.00  0.00     0.074 A 
ATOM     49  C   UNL A   1      40.617  31.096  30.342  1.00  0.00     0.029 A 
ATOM     50  N   UNL A   1      42.264  29.645  29.989  1.00  0.00    -0.354 N 
ATOM     51  N   UNL A   1      45.027  28.686  30.109  1.00  0.00    -0.248 NA
ATOM     52  C   UNL A   1      47.270  29.012  30.681  1.00  0.00     0.031 C 
ATOM     53  C   UNL A   1      41.811  31.665  30.797  1.00  0.00     0.029 A 
ATOM     54  C   UNL A   1      42.832  30.748  30.605  1.00  0.00     0.049 A 
ATOM     55  H   UNL A   1      42.753  28.834  29.718  1.00  0.00     0.167 HD
ATOM     56  C   UNL A   1      45.166  29.926  30.720  1.00  0.00     0.074 A 
ATOM     57  C   UNL A   1      46.562  30.058  31.084  1.00  0.00     0.031 C 
ATOM     58  C   UNL A   1      44.222  30.867  30.961  1.00  0.00     0.031 A 
BRANCH  45  59
ATOM     59  C   UNL A   1      38.571  29.315  28.996  1.00  0.00    -0.014 A 
ATOM     60  C   UNL A   1      38.103  29.794  27.761  1.00  0.00     0.009 A 
ATOM     61  C   UNL A   1      37.663  29.178  30.058  1.00  0.00     0.009 A 
ATOM     62  C   UNL A   1      36.765  30.166  27.606  1.00  0.00     0.001 A 
ATOM     63  C   UNL A   1      36.320  29.521  29.891  1.00  0.00     0.001 A 
ATOM     64  C   UNL A   1      35.875  30.024  28.669  1.00  0.00     0.000 A 
ENDBRANCH  45  59
BRANCH  46  65
ATOM     65  C   UNL A   1      48.081  26.377  29.716  1.00  0.00    -0.014 A 
ATOM     66  C   UNL A   1      48.966  26.570  28.643  1.00  0.00     0.009 A 
ATOM     67  C   UNL A   1      48.560  25.774  30.889  1.00  0.00     0.009 A 
ATOM     68  C   UNL A   1      50.292  26.142  28.734  1.00  0.00     0.001 A 
ATOM     69  C   UNL A   1      49.894  25.374  30.988  1.00  0.00     0.001 A 
ATOM     70  C   UNL A   1      50.757  25.549  29.906  1.00  0.00     0.000 A 
ENDBRANCH  46  65
BRANCH  58  71
ATOM     71  C   UNL A   1      44.660  32.104  31.692  1.00  0.00    -0.014 A 
ATOM     72  C   UNL A   1      44.617  32.185  33.092  1.00  0.00     0.009 A 
ATOM     73  C   UNL A   1      45.149  33.201  30.963  1.00  0.00     0.009 A 
ATOM     74  C   UNL A   1      45.014  33.354  33.744  1.00  0.00     0.001 A 
ATOM     75  C   UNL A   1      45.575  34.356  31.619  1.00  0.00     0.001 A 
ATOM     76  C   UNL A   1      45.496  34.436  33.008  1.00  0.00     0.000 A 
ENDBRANCH  58  71
ENDBRANCH  32  33
ENDBRANCH  24  27
ENDBRANCH  22  23
ENDBRANCH   1  22
TORSDOF 13
ENDMDL
MODEL 2
REMARK VINA RESULT:     -10.3      3.175      8.732
REMARK SMILES CC[C@]1(C(=O)NCCCNC(=O)c2ccc(-c3c4nc(c(-c5ccccc5)c5ccc([nH]5)c(-c5ccccc5)c5nc(c(-c6ccccc6)c6ccc3[nH]6)C=C5)C=C4)cc2)CCN(C(=O)[C@]2(C)CCCO2)C1
REMARK SMILES IDX 8 1 7 2 6 3 4 4 5 5 3 7 61 8 72 9 62 10 63 11 2 12 1 13
REMARK SMILES IDX 64 14 65 15 66 16 68 17 71 18 67 19 69 20 70 21 9 22 10 23
REMARK SMILES IDX 11 24 12 26 13 27 14 28 60 29 15 30 59 31 16 32 17 33 18 34
REMARK SMILES IDX 53 35 19 36 58 37 52 38 54 39 20 40 57 41 51 42 50 43 21 45
REMARK SMILES IDX 43 46 28 47 42 48 29 49 32 50 41 51 55 52 30 53 31 54 40 56
REMARK SMILES IDX 56 57 33 58 22 59 23 60 27 61 24 62 26 63 25 64 44 65 45 66
REMARK SMILES IDX 49 67 46 68 48 69 47 70 34 71 35 72 39 73 36 74 38 75 37 76
REMARK H PARENT 6 6 10 25 54 44 32 55
REMARK Flexibility Score: inf
ROOT
ATOM      1  C   UNL A   1      31.306  31.976  26.434  1.00  0.00     0.042 C 
ENDROOT
BRANCH   1   2
ATOM      2  C   UNL A   1      31.297  30.480  26.148  1.00  0.00     0.117 C 
BRANCH   2   3
ATOM      3  N   UNL A   1      32.119  30.129  25.002  1.00  0.00    -0.355 N 
ATOM      4  C   UNL A   1      32.821  29.017  24.659  1.00  0.00     0.228 C 
ATOM      5  O   UNL A   1      33.404  29.102  23.574  1.00  0.00    -0.274 OA
ATOM      6  H   UNL A   1      32.180  30.848  24.333  1.00  0.00     0.163 HD
BRANCH   4   7
ATOM      7  C   UNL A   1      32.938  27.755  25.550  1.00  0.00     0.068 C 
ATOM      8  C   UNL A   1      31.559  27.074  25.703  1.00  0.00     0.040 C 
ATOM      9  C   UNL A   1      33.796  26.668  24.841  1.00  0.00     0.136 C 
ATOM     10  C   UNL A   1      31.879  25.591  25.717  1.00  0.00     0.121 C 
ATOM     11  N   UNL A   1      32.934  25.489  24.742  1.00  0.00    -0.339 N 
BRANCH   7  12
ATOM     12  C   UNL A   1      33.591  28.144  26.931  1.00  0.00     0.015 C 
ATOM     13  C   UNL A   1      34.762  29.123  26.932  1.00  0.00     0.005 C 
ENDBRANCH   7  12
BRANCH  11  14
ATOM     14  C   UNL A   1      33.124  24.519  23.775  1.00  0.00     0.254 C 
ATOM     15  O   UNL A   1      32.406  24.511  22.768  1.00  0.00    -0.272 OA
BRANCH  14  16
ATOM     16  C   UNL A   1      34.178  23.381  24.003  1.00  0.00     0.144 C 
ATOM     17  C   UNL A   1      34.783  23.441  25.416  1.00  0.00     0.048 C 
ATOM     18  O   UNL A   1      35.276  23.445  23.077  1.00  0.00    -0.365 OA
ATOM     19  C   UNL A   1      33.486  22.019  23.786  1.00  0.00     0.053 C 
ATOM     20  C   UNL A   1      36.267  23.644  25.216  1.00  0.00     0.032 C 
ATOM     21  C   UNL A   1      36.499  23.218  23.785  1.00  0.00     0.162 C 
ENDBRANCH  14  16
ENDBRANCH  11  14
ENDBRANCH   4   7
ENDBRANCH   2   3
ENDBRANCH   1   2
BRANCH   1  22
ATOM     22  C   UNL A   1      32.550  32.468  27.160  1.00  0.00     0.118 C 
BRANCH  22  23
ATOM     23  N   UNL A   1      32.387  33.798  27.727  1.00  0.00    -0.352 N 
ATOM     24  C   UNL A   1      33.155  34.474  28.642  1.00  0.00     0.251 C 
ATOM     25  H   UNL A   1      31.599  34.291  27.403  1.00  0.00     0.163 HD
ATOM     26  O   UNL A   1      32.745  35.532  29.110  1.00  0.00    -0.269 OA
BRANCH  24  27
ATOM     27  C   UNL A   1      34.458  33.934  29.088  1.00  0.00     0.039 A 
ATOM     28  C   UNL A   1      34.484  33.094  30.204  1.00  0.00     0.014 A 
ATOM     29  C   UNL A   1      35.652  34.267  28.442  1.00  0.00     0.014 A 
ATOM     30  C   UNL A   1      35.694  32.545  30.634  1.00  0.00     0.010 A 
ATOM     31  C   UNL A   1      36.843  33.648  28.814  1.00  0.00     0.010 A 
ATOM     32  C   UNL A   1      36.880  32.789  29.921  1.00  0.00    -0.014 A 
BRANCH  32  33
ATOM     33  C   UNL A   1      38.156  32.150  30.331  1.00  0.00     0.031 A 
ATOM     34  C   UNL A   1      39.033  32.787  31.376  1.00  0.00     0.074 A 
ATOM     35  C   UNL A   1      38.544  31.005  29.736  1.00  0.00     0.049 A 
ATOM     36  N   UNL A   1      40.165  32.356  31.874  1.00  0.00    -0.248 NA
ATOM     37  C   UNL A   1      38.597  34.086  31.914  1.00  0.00     0.031 C 
ATOM     38  C   UNL A   1      37.815  30.316  28.668  1.00  0.00     0.029 A 
ATOM     39  N   UNL A   1      39.645  30.215  29.948  1.00  0.00    -0.354 N 
ATOM     40  C   UNL A   1      40.580  33.334  32.770  1.00  0.00     0.074 A 
ATOM     41  C   UNL A   1      39.611  34.405  32.705  1.00  0.00     0.031 C 
ATOM     42  C   UNL A   1      38.464  29.184  28.353  1.00  0.00     0.029 A 
ATOM     43  C   UNL A   1      39.670  29.085  29.167  1.00  0.00     0.049 A 
ATOM     44  H   UNL A   1      40.351  30.436  30.598  1.00  0.00     0.167 HD
ATOM     45  C   UNL A   1      41.657  33.333  33.592  1.00  0.00     0.031 A 
ATOM     46  C   UNL A   1      40.559  28.075  29.118  1.00  0.00     0.031 A 
ATOM     47  C   UNL A   1      42.617  32.264  33.665  1.00  0.00     0.049 A 
ATOM     48  C   UNL A   1      41.738  28.090  30.048  1.00  0.00     0.074 A 
ATOM     49  C   UNL A   1      43.711  32.142  34.505  1.00  0.00     0.029 A 
ATOM     50  N   UNL A   1      42.599  31.132  32.865  1.00  0.00    -0.354 N 
ATOM     51  N   UNL A   1      42.072  28.984  30.947  1.00  0.00    -0.248 NA
ATOM     52  C   UNL A   1      42.653  26.941  29.971  1.00  0.00     0.031 C 
ATOM     53  C   UNL A   1      44.384  30.960  34.178  1.00  0.00     0.029 A 
ATOM     54  C   UNL A   1      43.674  30.316  33.178  1.00  0.00     0.049 A 
ATOM     55  H   UNL A   1      41.923  30.937  32.176  1.00  0.00     0.167 HD
ATOM     56  C   UNL A   1      43.214  28.492  31.565  1.00  0.00     0.074 A 
ATOM     57  C   UNL A   1      43.505  27.214  30.949  1.00  0.00     0.031 C 
ATOM     58  C   UNL A   1      43.952  29.047  32.556  1.00  0.00     0.031 A 
BRANCH  45  59
ATOM     59  C   UNL A   1      41.853  34.534  34.479  1.00  0.00    -0.014 A 
ATOM     60  C   UNL A   1      42.591  35.647  34.044  1.00  0.00     0.009 A 
ATOM     61  C   UNL A   1      41.264  34.566  35.752  1.00  0.00     0.009 A 
ATOM     62  C   UNL A   1      42.768  36.751  34.882  1.00  0.00     0.001 A 
ATOM     63  C   UNL A   1      41.416  35.684  36.575  1.00  0.00     0.001 A 
ATOM     64  C   UNL A   1      42.176  36.770  36.144  1.00  0.00     0.000 A 
ENDBRANCH  45  59
BRANCH  46  65
ATOM     65  C   UNL A   1      40.345  26.942  28.179  1.00  0.00    -0.014 A 
ATOM     66  C   UNL A   1      39.582  25.829  28.567  1.00  0.00     0.009 A 
ATOM     67  C   UNL A   1      40.904  26.966  26.892  1.00  0.00     0.009 A 
ATOM     68  C   UNL A   1      39.407  24.752  27.695  1.00  0.00     0.001 A 
ATOM     69  C   UNL A   1      40.702  25.901  26.012  1.00  0.00     0.001 A 
ATOM     70  C   UNL A   1      39.963  24.790  26.417  1.00  0.00     0.000 A 
ENDBRANCH  46  65
BRANCH  58  71
ATOM     71  C   UNL A   1      45.122  28.253  33.066  1.00  0.00    -0.014 A 
ATOM     72  C   UNL A   1      44.979  27.319  34.104  1.00  0.00     0.009 A 
ATOM     73  C   UNL A   1      46.384  28.426  32.477  1.00  0.00     0.009 A 
ATOM     74  C   UNL A   1      46.087  26.607  34.570  1.00  0.00     0.001 A 
ATOM     75  C   UNL A   1      47.483  27.690  32.923  1.00  0.00     0.001 A 
ATOM     76  C   UNL A   1      47.336  26.791  33.977  1.00  0.00     0.000 A 
ENDBRANCH  58  71
ENDBRANCH  32  33
ENDBRANCH  24  27
ENDBRANCH  22  23
ENDBRANCH   1  22
TORSDOF 13
ENDMDL
MODEL 3
REMARK VINA RESULT:     -10.3      1.152      6.289
REMARK SMILES CC[C@]1(C(=O)NCCCNC(=O)c2ccc(-c3c4nc(c(-c5ccccc5)c5ccc([nH]5)c(-c5ccccc5)c5nc(c(-c6ccccc6)c6ccc3[nH]6)C=C5)C=C4)cc2)CCN(C(=O)[C@]2(C)CCCO2)C1
REMARK SMILES IDX 8 1 7 2 6 3 4 4 5 5 3 7 61 8 72 9 62 10 63 11 2 12 1 13
REMARK SMILES IDX 64 14 65 15 66 16 68 17 71 18 67 19 69 20 70 21 9 22 10 23
REMARK SMILES IDX 11 24 12 26 13 27 14 28 60 29 15 30 59 31 16 32 17 33 18 34
REMARK SMILES IDX 53 35 19 36 58 37 52 38 54 39 20 40 57 41 51 42 50 43 21 45
REMARK SMILES IDX 43 46 28 47 42 48 29 49 32 50 41 51 55 52 30 53 31 54 40 56
REMARK SMILES IDX 56 57 33 58 22 59 23 60 27 61 24 62 26 63 25 64 44 65 45 66
REMARK SMILES IDX 49 67 46 68 48 69 47 70 34 71 35 72 39 73 36 74 38 75 37 76
REMARK H PARENT 6 6 10 25 54 44 32 55
REMARK Flexibility Score: inf
ROOT
ATOM      1  C   UNL A   1      37.661  19.655  24.991  1.00  0.00     0.042 C 
ENDROOT
BRANCH   1   2
ATOM      2  C   UNL A   1      36.556  20.658  24.685  1.00  0.00     0.117 C 
BRANCH   2   3
ATOM      3  N   UNL A   1      35.771  20.996  25.860  1.00  0.00    -0.355 N 
ATOM      4  C   UNL A   1      34.460  21.296  26.056  1.00  0.00     0.228 C 
ATOM      5  O   UNL A   1      34.165  21.529  27.233  1.00  0.00    -0.274 OA
ATOM      6  H   UNL A   1      36.301  21.010  26.690  1.00  0.00     0.163 HD
BRANCH   4   7
ATOM      7  C   UNL A   1      33.412  21.394  24.919  1.00  0.00     0.068 C 
ATOM      8  C   UNL A   1      32.116  22.058  25.438  1.00  0.00     0.040 C 
ATOM      9  C   UNL A   1      33.899  22.375  23.814  1.00  0.00     0.136 C 
ATOM     10  C   UNL A   1      31.633  22.890  24.264  1.00  0.00     0.121 C 
ATOM     11  N   UNL A   1      32.863  23.403  23.717  1.00  0.00    -0.339 N 
BRANCH   7  12
ATOM     12  C   UNL A   1      33.168  19.964  24.304  1.00  0.00     0.015 C 
ATOM     13  C   UNL A   1      32.657  18.854  25.221  1.00  0.00     0.005 C 
ENDBRANCH   7  12
BRANCH  11  14
ATOM     14  C   UNL A   1      33.130  24.674  23.240  1.00  0.00     0.254 C 
ATOM     15  O   UNL A   1      33.623  24.813  22.114  1.00  0.00    -0.272 OA
BRANCH  14  16
ATOM     16  C   UNL A   1      32.897  25.921  24.162  1.00  0.00     0.144 C 
ATOM     17  C   UNL A   1      33.373  25.662  25.601  1.00  0.00     0.048 C 
ATOM     18  O   UNL A   1      31.513  26.303  24.243  1.00  0.00    -0.365 OA
ATOM     19  C   UNL A   1      33.659  27.123  23.564  1.00  0.00     0.053 C 
ATOM     20  C   UNL A   1      32.148  25.823  26.471  1.00  0.00     0.032 C 
ATOM     21  C   UNL A   1      31.191  26.608  25.604  1.00  0.00     0.162 C 
ENDBRANCH  14  16
ENDBRANCH  11  14
ENDBRANCH   4   7
ENDBRANCH   2   3
ENDBRANCH   1   2
BRANCH   1  22
ATOM     22  C   UNL A   1      38.847  20.239  25.745  1.00  0.00     0.118 C 
BRANCH  22  23
ATOM     23  N   UNL A   1      40.007  19.362  25.743  1.00  0.00    -0.352 N 
ATOM     24  C   UNL A   1      41.319  19.624  26.047  1.00  0.00     0.251 C 
ATOM     25  H   UNL A   1      39.821  18.432  25.479  1.00  0.00     0.163 HD
ATOM     26  O   UNL A   1      42.174  18.773  25.821  1.00  0.00    -0.269 OA
BRANCH  24  27
ATOM     27  C   UNL A   1      41.720  20.927  26.623  1.00  0.00     0.039 A 
ATOM     28  C   UNL A   1      42.135  21.940  25.754  1.00  0.00     0.014 A 
ATOM     29  C   UNL A   1      41.721  21.153  28.002  1.00  0.00     0.014 A 
ATOM     30  C   UNL A   1      42.494  23.190  26.264  1.00  0.00     0.010 A 
ATOM     31  C   UNL A   1      41.990  22.425  28.501  1.00  0.00     0.010 A 
ATOM     32  C   UNL A   1      42.391  23.455  27.640  1.00  0.00    -0.014 A 
BRANCH  32  33
ATOM     33  C   UNL A   1      42.701  24.804  28.177  1.00  0.00     0.031 A 
ATOM     34  C   UNL A   1      44.113  25.181  28.536  1.00  0.00     0.074 A 
ATOM     35  C   UNL A   1      41.700  25.684  28.374  1.00  0.00     0.049 A 
ATOM     36  N   UNL A   1      44.570  26.321  28.992  1.00  0.00    -0.248 NA
ATOM     37  C   UNL A   1      45.142  24.139  28.389  1.00  0.00     0.031 C 
ATOM     38  C   UNL A   1      40.280  25.423  28.122  1.00  0.00     0.029 A 
ATOM     39  N   UNL A   1      41.723  26.979  28.826  1.00  0.00    -0.354 N 
ATOM     40  C   UNL A   1      45.931  26.128  29.196  1.00  0.00     0.074 A 
ATOM     41  C   UNL A   1      46.215  24.748  28.871  1.00  0.00     0.031 C 
ATOM     42  C   UNL A   1      39.577  26.538  28.378  1.00  0.00     0.029 A 
ATOM     43  C   UNL A   1      40.487  27.577  28.845  1.00  0.00     0.049 A 
ATOM     44  H   UNL A   1      42.548  27.437  29.109  1.00  0.00     0.167 HD
ATOM     45  C   UNL A   1      46.866  27.023  29.596  1.00  0.00     0.031 A 
ATOM     46  C   UNL A   1      40.125  28.827  29.191  1.00  0.00     0.031 A 
ATOM     47  C   UNL A   1      46.588  28.399  29.911  1.00  0.00     0.049 A 
ATOM     48  C   UNL A   1      41.182  29.805  29.618  1.00  0.00     0.074 A 
ATOM     49  C   UNL A   1      47.474  29.399  30.270  1.00  0.00     0.029 A 
ATOM     50  N   UNL A   1      45.323  28.967  29.907  1.00  0.00    -0.354 N 
ATOM     51  N   UNL A   1      42.476  29.629  29.728  1.00  0.00    -0.248 NA
ATOM     52  C   UNL A   1      40.728  31.164  29.947  1.00  0.00     0.031 C 
ATOM     53  C   UNL A   1      46.740  30.561  30.532  1.00  0.00     0.029 A 
ATOM     54  C   UNL A   1      45.404  30.300  30.276  1.00  0.00     0.049 A 
ATOM     55  H   UNL A   1      44.491  28.494  29.675  1.00  0.00     0.167 HD
ATOM     56  C   UNL A   1      42.996  30.860  30.107  1.00  0.00     0.074 A 
ATOM     57  C   UNL A   1      41.878  31.777  30.191  1.00  0.00     0.031 C 
ATOM     58  C   UNL A   1      44.283  31.201  30.357  1.00  0.00     0.031 A 
BRANCH  45  59
ATOM     59  C   UNL A   1      48.285  26.534  29.717  1.00  0.00    -0.014 A 
ATOM     60  C   UNL A   1      49.181  26.627  28.639  1.00  0.00     0.009 A 
ATOM     61  C   UNL A   1      48.741  26.007  30.935  1.00  0.00     0.009 A 
ATOM     62  C   UNL A   1      50.494  26.164  28.767  1.00  0.00     0.001 A 
ATOM     63  C   UNL A   1      50.062  25.573  31.069  1.00  0.00     0.001 A 
ATOM     64  C   UNL A   1      50.933  25.642  29.983  1.00  0.00     0.000 A 
ENDBRANCH  45  59
BRANCH  46  65
ATOM     65  C   UNL A   1      38.699  29.238  29.108  1.00  0.00    -0.014 A 
ATOM     66  C   UNL A   1      37.854  29.108  30.222  1.00  0.00     0.009 A 
ATOM     67  C   UNL A   1      38.173  29.761  27.916  1.00  0.00     0.009 A 
ATOM     68  C   UNL A   1      36.507  29.467  30.134  1.00  0.00     0.001 A 
ATOM     69  C   UNL A   1      36.834  30.147  27.841  1.00  0.00     0.001 A 
ATOM     70  C   UNL A   1      35.999  29.990  28.947  1.00  0.00     0.000 A 
ENDBRANCH  46  65
BRANCH  58  71
ATOM     71  C   UNL A   1      44.556  32.637  30.704  1.00  0.00    -0.014 A 
ATOM     72  C   UNL A   1      44.810  33.597  29.712  1.00  0.00     0.009 A 
ATOM     73  C   UNL A   1      44.533  33.040  32.049  1.00  0.00     0.009 A 
ATOM     74  C   UNL A   1      45.078  34.922  30.064  1.00  0.00     0.001 A 
ATOM     75  C   UNL A   1      44.769  34.370  32.396  1.00  0.00     0.001 A 
ATOM     76  C   UNL A   1      45.053  35.308  31.405  1.00  0.00     0.000 A 
ENDBRANCH  58  71
ENDBRANCH  32  33
ENDBRANCH  24  27
ENDBRANCH  22  23
ENDBRANCH   1  22
TORSDOF 13
ENDMDL
