MODEL 1
REMARK VINA RESULT:     -11.0      0.000      0.000
REMARK SMILES CS(=O)(=O)NCCC(=O)N1CCC(Cc2cccc(C(=O)NCCCNC(=O)c3ccc(-c4c5nc(c(-c6ccccc6)c6ccc([nH]6)c(-c6ccccc6)c6nc(c(-c7ccccc7)c7ccc4[nH]7)C=C6)C=C5)cc3)c2)CC1
REMARK SMILES IDX 20 1 21 2 22 3 19 5 15 6 16 7 77 8 17 9 18 10 14 11 13 12
REMARK SMILES IDX 8 13 9 14 10 15 11 16 79 17 12 18 78 19 7 20 6 21 5 22 2 24
REMARK SMILES IDX 1 25 3 26 4 27 23 28 24 29 25 30 26 31 27 32 28 34 29 35
REMARK SMILES IDX 30 36 76 37 31 38 75 39 32 40 33 41 34 42 69 43 35 44 74 45
REMARK SMILES IDX 68 46 70 47 36 48 73 49 67 50 66 51 37 53 59 54 44 55 58 56
REMARK SMILES IDX 45 57 48 58 57 59 71 60 46 61 47 62 56 64 72 65 49 66 38 67
REMARK SMILES IDX 39 68 43 69 40 70 42 71 41 72 60 73 61 74 65 75 62 76 64 77
REMARK SMILES IDX 63 78 50 79 51 80 55 81 52 82 54 83 53 84
REMARK H PARENT 22 4 5 23 26 33 70 52 48 63
REMARK Flexibility Score: inf
ROOT
ATOM      1  C   UNL A   1      41.394  21.241  27.449  1.00  0.00     0.251 C 
ATOM      2  O   UNL A   1      40.834  20.223  27.865  1.00  0.00    -0.269 OA
ATOM      3  N   UNL A   1      42.715  21.105  27.107  1.00  0.00    -0.352 N 
ATOM      4  H   UNL A   1      43.062  20.200  27.282  1.00  0.00     0.163 HD
ENDROOT
BRANCH   1   5
ATOM      5  C   UNL A   1      40.597  22.498  27.321  1.00  0.00     0.040 A 
ATOM      6  C   UNL A   1      38.726  23.845  26.509  1.00  0.00    -0.047 A 
ATOM      7  C   UNL A   1      39.151  24.919  27.296  1.00  0.00     0.004 A 
ATOM      8  C   UNL A   1      39.498  22.669  26.479  1.00  0.00     0.017 A 
ATOM      9  C   UNL A   1      40.298  24.800  28.076  1.00  0.00     0.001 A 
ATOM     10  C   UNL A   1      40.999  23.592  28.105  1.00  0.00     0.014 A 
BRANCH   6  11
ATOM     11  C   UNL A   1      37.461  23.941  25.691  1.00  0.00     0.039 C 
BRANCH  11  12
ATOM     12  C   UNL A   1      36.453  22.800  25.956  1.00  0.00    -0.003 C 
ATOM     13  C   UNL A   1      33.142  21.158  24.263  1.00  0.00     0.223 C 
ATOM     14  O   UNL A   1      32.635  22.196  23.830  1.00  0.00    -0.275 OA
ATOM     15  N   UNL A   1      34.146  21.194  25.211  1.00  0.00    -0.343 N 
ATOM     16  C   UNL A   1      34.039  22.149  26.306  1.00  0.00     0.119 C 
ATOM     17  C   UNL A   1      35.477  20.682  24.946  1.00  0.00     0.119 C 
ATOM     18  C   UNL A   1      35.013  23.313  26.142  1.00  0.00     0.025 C 
ATOM     19  C   UNL A   1      36.500  21.803  24.789  1.00  0.00     0.025 C 
BRANCH  13  20
ATOM     20  C   UNL A   1      32.477  19.815  23.987  1.00  0.00     0.116 C 
BRANCH  20  21
ATOM     21  C   UNL A   1      32.487  18.714  25.033  1.00  0.00     0.108 C 
BRANCH  21  22
ATOM     22  N   UNL A   1      32.436  17.351  24.508  1.00  0.00    -0.215 NA
ATOM     23  H   UNL A   1      31.593  16.937  24.909  1.00  0.00     0.140 HD
BRANCH  22  24
ATOM     24  S   UNL A   1      33.623  16.206  24.698  1.00  0.00     0.208 S 
ATOM     25  C   UNL A   1      32.729  14.826  25.376  1.00  0.00     0.176 C 
ATOM     26  O   UNL A   1      34.581  16.668  25.668  1.00  0.00    -0.213 OA
ATOM     27  O   UNL A   1      34.013  15.859  23.346  1.00  0.00    -0.213 OA
ENDBRANCH  22  24
ENDBRANCH  21  22
ENDBRANCH  20  21
ENDBRANCH  13  20
ENDBRANCH  11  12
ENDBRANCH   6  11
ENDBRANCH   1   5
BRANCH   3  28
ATOM     28  C   UNL A   1      43.718  21.991  26.545  1.00  0.00     0.118 C 
BRANCH  28  29
ATOM     29  C   UNL A   1      43.490  22.209  25.048  1.00  0.00     0.042 C 
BRANCH  29  30
ATOM     30  C   UNL A   1      43.603  23.678  24.634  1.00  0.00     0.118 C 
BRANCH  30  31
ATOM     31  N   UNL A   1      44.977  24.164  24.708  1.00  0.00    -0.352 N 
ATOM     32  C   UNL A   1      45.512  25.265  25.327  1.00  0.00     0.251 C 
ATOM     33  H   UNL A   1      45.634  23.606  24.230  1.00  0.00     0.163 HD
ATOM     34  O   UNL A   1      46.653  25.622  25.050  1.00  0.00    -0.269 OA
BRANCH  32  35
ATOM     35  C   UNL A   1      44.729  26.027  26.320  1.00  0.00     0.039 A 
ATOM     36  C   UNL A   1      44.113  25.338  27.368  1.00  0.00     0.014 A 
ATOM     37  C   UNL A   1      44.566  27.409  26.198  1.00  0.00     0.014 A 
ATOM     38  C   UNL A   1      43.403  26.045  28.340  1.00  0.00     0.010 A 
ATOM     39  C   UNL A   1      43.925  28.121  27.207  1.00  0.00     0.010 A 
ATOM     40  C   UNL A   1      43.348  27.448  28.294  1.00  0.00    -0.014 A 
BRANCH  40  41
ATOM     41  C   UNL A   1      42.740  28.231  29.398  1.00  0.00     0.031 A 
ATOM     42  C   UNL A   1      43.437  28.358  30.723  1.00  0.00     0.074 A 
ATOM     43  C   UNL A   1      41.512  28.757  29.226  1.00  0.00     0.049 A 
ATOM     44  N   UNL A   1      43.020  28.934  31.821  1.00  0.00    -0.248 NA
ATOM     45  C   UNL A   1      44.767  27.736  30.837  1.00  0.00     0.031 C 
ATOM     46  C   UNL A   1      40.716  28.667  27.999  1.00  0.00     0.029 A 
ATOM     47  N   UNL A   1      40.710  29.463  30.087  1.00  0.00    -0.354 N 
ATOM     48  C   UNL A   1      44.025  28.733  32.759  1.00  0.00     0.074 A 
ATOM     49  C   UNL A   1      45.050  27.941  32.116  1.00  0.00     0.031 C 
ATOM     50  C   UNL A   1      39.555  29.315  28.178  1.00  0.00     0.029 A 
ATOM     51  C   UNL A   1      39.499  29.819  29.545  1.00  0.00     0.049 A 
ATOM     52  H   UNL A   1      40.977  29.692  31.007  1.00  0.00     0.167 HD
ATOM     53  C   UNL A   1      44.093  29.181  34.035  1.00  0.00     0.031 A 
ATOM     54  C   UNL A   1      38.451  30.465  30.090  1.00  0.00     0.031 A 
ATOM     55  C   UNL A   1      43.067  29.965  34.671  1.00  0.00     0.049 A 
ATOM     56  C   UNL A   1      38.534  30.912  31.522  1.00  0.00     0.074 A 
ATOM     57  C   UNL A   1      43.068  30.519  35.939  1.00  0.00     0.029 A 
ATOM     58  N   UNL A   1      41.852  30.295  34.091  1.00  0.00    -0.354 N 
ATOM     59  N   UNL A   1      39.527  30.786  32.369  1.00  0.00    -0.248 NA
ATOM     60  C   UNL A   1      37.353  31.589  32.073  1.00  0.00     0.031 C 
ATOM     61  C   UNL A   1      41.826  31.123  36.153  1.00  0.00     0.029 A 
ATOM     62  C   UNL A   1      41.077  31.005  34.993  1.00  0.00     0.049 A 
ATOM     63  H   UNL A   1      41.580  30.058  33.175  1.00  0.00     0.167 HD
ATOM     64  C   UNL A   1      39.098  31.384  33.547  1.00  0.00     0.074 A 
ATOM     65  C   UNL A   1      37.766  31.894  33.295  1.00  0.00     0.031 C 
ATOM     66  C   UNL A   1      39.747  31.495  34.731  1.00  0.00     0.031 A 
BRANCH  53  67
ATOM     67  C   UNL A   1      45.314  28.818  34.837  1.00  0.00    -0.014 A 
ATOM     68  C   UNL A   1      45.390  27.610  35.548  1.00  0.00     0.009 A 
ATOM     69  C   UNL A   1      46.424  29.679  34.847  1.00  0.00     0.009 A 
ATOM     70  C   UNL A   1      46.532  27.291  36.285  1.00  0.00     0.001 A 
ATOM     71  C   UNL A   1      47.577  29.343  35.558  1.00  0.00     0.001 A 
ATOM     72  C   UNL A   1      47.627  28.154  36.284  1.00  0.00     0.000 A 
ENDBRANCH  53  67
BRANCH  54  73
ATOM     73  C   UNL A   1      37.230  30.718  29.281  1.00  0.00    -0.014 A 
ATOM     74  C   UNL A   1      36.303  29.692  29.048  1.00  0.00     0.009 A 
ATOM     75  C   UNL A   1      36.984  31.990  28.736  1.00  0.00     0.009 A 
ATOM     76  C   UNL A   1      35.168  29.926  28.267  1.00  0.00     0.001 A 
ATOM     77  C   UNL A   1      35.833  32.230  27.983  1.00  0.00     0.001 A 
ATOM     78  C   UNL A   1      34.932  31.195  27.741  1.00  0.00     0.000 A 
ENDBRANCH  54  73
BRANCH  66  79
ATOM     79  C   UNL A   1      39.029  32.205  35.844  1.00  0.00    -0.014 A 
ATOM     80  C   UNL A   1      38.156  31.515  36.701  1.00  0.00     0.009 A 
ATOM     81  C   UNL A   1      39.265  33.570  36.069  1.00  0.00     0.009 A 
ATOM     82  C   UNL A   1      37.513  32.187  37.743  1.00  0.00     0.001 A 
ATOM     83  C   UNL A   1      38.646  34.231  37.131  1.00  0.00     0.001 A 
ATOM     84  C   UNL A   1      37.765  33.541  37.962  1.00  0.00     0.000 A 
ENDBRANCH  66  79
ENDBRANCH  40  41
ENDBRANCH  32  35
ENDBRANCH  30  31
ENDBRANCH  29  30
ENDBRANCH  28  29
ENDBRANCH   3  28
TORSDOF 16
ENDMDL
MODEL 2
REMARK VINA RESULT:     -11.0      3.568      9.300
REMARK SMILES CS(=O)(=O)NCCC(=O)N1CCC(Cc2cccc(C(=O)NCCCNC(=O)c3ccc(-c4c5nc(c(-c6ccccc6)c6ccc([nH]6)c(-c6ccccc6)c6nc(c(-c7ccccc7)c7ccc4[nH]7)C=C6)C=C5)cc3)c2)CC1
REMARK SMILES IDX 20 1 21 2 22 3 19 5 15 6 16 7 77 8 17 9 18 10 14 11 13 12
REMARK SMILES IDX 8 13 9 14 10 15 11 16 79 17 12 18 78 19 7 20 6 21 5 22 2 24
REMARK SMILES IDX 1 25 3 26 4 27 23 28 24 29 25 30 26 31 27 32 28 34 29 35
REMARK SMILES IDX 30 36 76 37 31 38 75 39 32 40 33 41 34 42 69 43 35 44 74 45
REMARK SMILES IDX 68 46 70 47 36 48 73 49 67 50 66 51 37 53 59 54 44 55 58 56
REMARK SMILES IDX 45 57 48 58 57 59 71 60 46 61 47 62 56 64 72 65 49 66 38 67
REMARK SMILES IDX 39 68 43 69 40 70 42 71 41 72 60 73 61 74 65 75 62 76 64 77
REMARK SMILES IDX 63 78 50 79 51 80 55 81 52 82 54 83 53 84
REMARK H PARENT 22 4 5 23 26 33 70 52 48 63
REMARK Flexibility Score: inf
ROOT
ATOM      1  C   UNL A   1      30.991  28.709  23.592  1.00  0.00     0.251 C 
ATOM      2  O   UNL A   1      30.613  28.965  22.445  1.00  0.00    -0.269 OA
ATOM      3  N   UNL A   1      31.291  29.788  24.382  1.00  0.00    -0.352 N 
ATOM      4  H   UNL A   1      31.204  30.645  23.905  1.00  0.00     0.163 HD
ENDROOT
BRANCH   1   5
ATOM      5  C   UNL A   1      31.054  27.281  24.025  1.00  0.00     0.040 A 
ATOM      6  C   UNL A   1      32.040  25.046  24.104  1.00  0.00    -0.047 A 
ATOM      7  C   UNL A   1      31.083  24.651  25.042  1.00  0.00     0.004 A 
ATOM      8  C   UNL A   1      31.968  26.338  23.554  1.00  0.00     0.017 A 
ATOM      9  C   UNL A   1      30.105  25.549  25.460  1.00  0.00     0.001 A 
ATOM     10  C   UNL A   1      30.106  26.858  24.972  1.00  0.00     0.014 A 
BRANCH   6  11
ATOM     11  C   UNL A   1      33.134  24.099  23.672  1.00  0.00     0.039 C 
BRANCH  11  12
ATOM     12  C   UNL A   1      34.006  23.574  24.835  1.00  0.00    -0.003 C 
ATOM     13  C   UNL A   1      37.647  21.867  25.430  1.00  0.00     0.223 C 
ATOM     14  O   UNL A   1      37.680  21.170  24.413  1.00  0.00    -0.275 OA
ATOM     15  N   UNL A   1      36.464  22.422  25.879  1.00  0.00    -0.343 N 
ATOM     16  C   UNL A   1      35.251  21.615  25.829  1.00  0.00     0.119 C 
ATOM     17  C   UNL A   1      36.266  23.856  25.962  1.00  0.00     0.119 C 
ATOM     18  C   UNL A   1      34.312  22.070  24.714  1.00  0.00     0.025 C 
ATOM     19  C   UNL A   1      35.320  24.367  24.879  1.00  0.00     0.025 C 
BRANCH  13  20
ATOM     20  C   UNL A   1      38.842  21.889  26.376  1.00  0.00     0.116 C 
BRANCH  20  21
ATOM     21  C   UNL A   1      40.140  21.194  26.005  1.00  0.00     0.108 C 
BRANCH  21  22
ATOM     22  N   UNL A   1      41.204  22.071  25.520  1.00  0.00    -0.215 NA
ATOM     23  H   UNL A   1      41.071  22.123  24.509  1.00  0.00     0.140 HD
BRANCH  22  24
ATOM     24  S   UNL A   1      42.829  21.818  25.740  1.00  0.00     0.208 S 
ATOM     25  C   UNL A   1      43.194  22.838  27.151  1.00  0.00     0.176 C 
ATOM     26  O   UNL A   1      43.549  22.320  24.599  1.00  0.00    -0.213 OA
ATOM     27  O   UNL A   1      42.928  20.434  26.157  1.00  0.00    -0.213 OA
ENDBRANCH  22  24
ENDBRANCH  21  22
ENDBRANCH  20  21
ENDBRANCH  13  20
ENDBRANCH  11  12
ENDBRANCH   6  11
ENDBRANCH   1   5
BRANCH   3  28
ATOM     28  C   UNL A   1      31.709  29.955  25.763  1.00  0.00     0.118 C 
BRANCH  28  29
ATOM     29  C   UNL A   1      31.430  31.374  26.259  1.00  0.00     0.042 C 
BRANCH  29  30
ATOM     30  C   UNL A   1      32.585  31.959  27.076  1.00  0.00     0.118 C 
BRANCH  30  31
ATOM     31  N   UNL A   1      32.389  33.376  27.366  1.00  0.00    -0.352 N 
ATOM     32  C   UNL A   1      33.014  34.207  28.261  1.00  0.00     0.251 C 
ATOM     33  H   UNL A   1      31.687  33.810  26.828  1.00  0.00     0.163 HD
ATOM     34  O   UNL A   1      32.520  35.301  28.518  1.00  0.00    -0.269 OA
BRANCH  32  35
ATOM     35  C   UNL A   1      34.271  33.800  28.919  1.00  0.00     0.039 A 
ATOM     36  C   UNL A   1      34.206  33.005  30.067  1.00  0.00     0.014 A 
ATOM     37  C   UNL A   1      35.508  34.231  28.435  1.00  0.00     0.014 A 
ATOM     38  C   UNL A   1      35.384  32.575  30.680  1.00  0.00     0.010 A 
ATOM     39  C   UNL A   1      36.681  33.740  28.999  1.00  0.00     0.010 A 
ATOM     40  C   UNL A   1      36.631  32.898  30.120  1.00  0.00    -0.014 A 
BRANCH  40  41
ATOM     41  C   UNL A   1      37.889  32.322  30.656  1.00  0.00     0.031 A 
ATOM     42  C   UNL A   1      38.499  31.098  30.033  1.00  0.00     0.074 A 
ATOM     43  C   UNL A   1      38.432  32.860  31.765  1.00  0.00     0.049 A 
ATOM     44  N   UNL A   1      39.546  30.415  30.416  1.00  0.00    -0.248 NA
ATOM     45  C   UNL A   1      37.832  30.559  28.836  1.00  0.00     0.031 C 
ATOM     46  C   UNL A   1      37.909  34.023  32.486  1.00  0.00     0.029 A 
ATOM     47  N   UNL A   1      39.538  32.493  32.490  1.00  0.00    -0.354 N 
ATOM     48  C   UNL A   1      39.657  29.359  29.521  1.00  0.00     0.074 A 
ATOM     49  C   UNL A   1      38.543  29.464  28.604  1.00  0.00     0.031 C 
ATOM     50  C   UNL A   1      38.708  34.290  33.530  1.00  0.00     0.029 A 
ATOM     51  C   UNL A   1      39.765  33.288  33.587  1.00  0.00     0.049 A 
ATOM     52  H   UNL A   1      40.114  31.732  32.247  1.00  0.00     0.167 HD
ATOM     53  C   UNL A   1      40.609  28.397  29.459  1.00  0.00     0.031 A 
ATOM     54  C   UNL A   1      40.708  33.211  34.545  1.00  0.00     0.031 A 
ATOM     55  C   UNL A   1      41.713  28.295  30.377  1.00  0.00     0.049 A 
ATOM     56  C   UNL A   1      41.726  32.107  34.479  1.00  0.00     0.074 A 
ATOM     57  C   UNL A   1      42.764  27.395  30.364  1.00  0.00     0.029 A 
ATOM     58  N   UNL A   1      41.900  29.112  31.481  1.00  0.00    -0.354 N 
ATOM     59  N   UNL A   1      41.866  31.166  33.576  1.00  0.00    -0.248 NA
ATOM     60  C   UNL A   1      42.717  32.057  35.562  1.00  0.00     0.031 C 
ATOM     61  C   UNL A   1      43.548  27.622  31.498  1.00  0.00     0.029 A 
ATOM     62  C   UNL A   1      43.025  28.709  32.181  1.00  0.00     0.049 A 
ATOM     63  H   UNL A   1      41.320  29.868  31.730  1.00  0.00     0.167 HD
ATOM     64  C   UNL A   1      42.969  30.422  33.973  1.00  0.00     0.074 A 
ATOM     65  C   UNL A   1      43.476  31.038  35.182  1.00  0.00     0.031 C 
ATOM     66  C   UNL A   1      43.509  29.325  33.391  1.00  0.00     0.031 A 
BRANCH  53  67
ATOM     67  C   UNL A   1      40.489  27.366  28.369  1.00  0.00    -0.014 A 
ATOM     68  C   UNL A   1      41.064  27.569  27.104  1.00  0.00     0.009 A 
ATOM     69  C   UNL A   1      39.826  26.155  28.624  1.00  0.00     0.009 A 
ATOM     70  C   UNL A   1      40.944  26.600  26.106  1.00  0.00     0.001 A 
ATOM     71  C   UNL A   1      39.735  25.173  27.635  1.00  0.00     0.001 A 
ATOM     72  C   UNL A   1      40.285  25.400  26.375  1.00  0.00     0.000 A 
ENDBRANCH  53  67
BRANCH  54  73
ATOM     73  C   UNL A   1      40.728  34.202  35.652  1.00  0.00    -0.014 A 
ATOM     74  C   UNL A   1      40.038  33.951  36.847  1.00  0.00     0.009 A 
ATOM     75  C   UNL A   1      41.437  35.407  35.521  1.00  0.00     0.009 A 
ATOM     76  C   UNL A   1      40.037  34.894  37.878  1.00  0.00     0.001 A 
ATOM     77  C   UNL A   1      41.462  36.335  36.565  1.00  0.00     0.001 A 
ATOM     78  C   UNL A   1      40.754  36.082  37.738  1.00  0.00     0.000 A 
ENDBRANCH  54  73
BRANCH  66  79
ATOM     79  C   UNL A   1      44.720  28.724  34.049  1.00  0.00    -0.014 A 
ATOM     80  C   UNL A   1      44.591  27.761  35.063  1.00  0.00     0.009 A 
ATOM     81  C   UNL A   1      46.004  29.088  33.616  1.00  0.00     0.009 A 
ATOM     82  C   UNL A   1      45.727  27.198  35.649  1.00  0.00     0.001 A 
ATOM     83  C   UNL A   1      47.136  28.499  34.180  1.00  0.00     0.001 A 
ATOM     84  C   UNL A   1      46.997  27.561  35.202  1.00  0.00     0.000 A 
ENDBRANCH  66  79
ENDBRANCH  40  41
ENDBRANCH  32  35
ENDBRANCH  30  31
ENDBRANCH  29  30
ENDBRANCH  28  29
ENDBRANCH   3  28
TORSDOF 16
ENDMDL
MODEL 3
REMARK VINA RESULT:     -10.9      0.821      5.814
REMARK SMILES CS(=O)(=O)NCCC(=O)N1CCC(Cc2cccc(C(=O)NCCCNC(=O)c3ccc(-c4c5nc(c(-c6ccccc6)c6ccc([nH]6)c(-c6ccccc6)c6nc(c(-c7ccccc7)c7ccc4[nH]7)C=C6)C=C5)cc3)c2)CC1
REMARK SMILES IDX 20 1 21 2 22 3 19 5 15 6 16 7 77 8 17 9 18 10 14 11 13 12
REMARK SMILES IDX 8 13 9 14 10 15 11 16 79 17 12 18 78 19 7 20 6 21 5 22 2 24
REMARK SMILES IDX 1 25 3 26 4 27 23 28 24 29 25 30 26 31 27 32 28 34 29 35
REMARK SMILES IDX 30 36 76 37 31 38 75 39 32 40 33 41 34 42 69 43 35 44 74 45
REMARK SMILES IDX 68 46 70 47 36 48 73 49 67 50 66 51 37 53 59 54 44 55 58 56
REMARK SMILES IDX 45 57 48 58 57 59 71 60 46 61 47 62 56 64 72 65 49 66 38 67
REMARK SMILES IDX 39 68 43 69 40 70 42 71 41 72 60 73 61 74 65 75 62 76 64 77
REMARK SMILES IDX 63 78 50 79 51 80 55 81 52 82 54 83 53 84
REMARK H PARENT 22 4 5 23 26 33 70 52 48 63
REMARK Flexibility Score: inf
ROOT
ATOM      1  C   UNL A   1      41.360  21.181  27.327  1.00  0.00     0.251 C 
ATOM      2  O   UNL A   1      40.802  20.161  27.740  1.00  0.00    -0.269 OA
ATOM      3  N   UNL A   1      42.672  21.041  26.955  1.00  0.00    -0.352 N 
ATOM      4  H   UNL A   1      43.017  20.132  27.110  1.00  0.00     0.163 HD
ENDROOT
BRANCH   1   5
ATOM      5  C   UNL A   1      40.569  22.445  27.234  1.00  0.00     0.040 A 
ATOM      6  C   UNL A   1      38.676  23.808  26.504  1.00  0.00    -0.047 A 
ATOM      7  C   UNL A   1      39.144  24.878  27.271  1.00  0.00     0.004 A 
ATOM      8  C   UNL A   1      39.435  22.626  26.441  1.00  0.00     0.017 A 
ATOM      9  C   UNL A   1      40.323  24.749  28.000  1.00  0.00     0.001 A 
ATOM     10  C   UNL A   1      41.014  23.535  27.999  1.00  0.00     0.014 A 
BRANCH   6  11
ATOM     11  C   UNL A   1      37.377  23.915  25.742  1.00  0.00     0.039 C 
BRANCH  11  12
ATOM     12  C   UNL A   1      36.383  22.767  26.030  1.00  0.00    -0.003 C 
ATOM     13  C   UNL A   1      33.088  21.056  24.375  1.00  0.00     0.223 C 
ATOM     14  O   UNL A   1      32.568  22.080  23.924  1.00  0.00    -0.275 OA
ATOM     15  N   UNL A   1      34.093  21.121  25.321  1.00  0.00    -0.343 N 
ATOM     16  C   UNL A   1      33.977  22.095  26.398  1.00  0.00     0.119 C 
ATOM     17  C   UNL A   1      35.429  20.620  25.062  1.00  0.00     0.119 C 
ATOM     18  C   UNL A   1      34.937  23.267  26.210  1.00  0.00     0.025 C 
ATOM     19  C   UNL A   1      36.439  21.750  24.882  1.00  0.00     0.025 C 
BRANCH  13  20
ATOM     20  C   UNL A   1      32.437  19.700  24.126  1.00  0.00     0.116 C 
BRANCH  20  21
ATOM     21  C   UNL A   1      32.228  18.718  25.265  1.00  0.00     0.108 C 
BRANCH  21  22
ATOM     22  N   UNL A   1      32.128  17.314  24.871  1.00  0.00    -0.215 NA
ATOM     23  H   UNL A   1      31.474  16.893  25.531  1.00  0.00     0.140 HD
BRANCH  22  24
ATOM     24  S   UNL A   1      33.401  16.253  24.775  1.00  0.00     0.208 S 
ATOM     25  C   UNL A   1      34.028  16.545  23.136  1.00  0.00     0.176 C 
ATOM     26  O   UNL A   1      32.906  14.904  24.855  1.00  0.00    -0.213 OA
ATOM     27  O   UNL A   1      34.374  16.766  25.719  1.00  0.00    -0.213 OA
ENDBRANCH  22  24
ENDBRANCH  21  22
ENDBRANCH  20  21
ENDBRANCH  13  20
ENDBRANCH  11  12
ENDBRANCH   6  11
ENDBRANCH   1   5
BRANCH   3  28
ATOM     28  C   UNL A   1      43.669  21.930  26.385  1.00  0.00     0.118 C 
BRANCH  28  29
ATOM     29  C   UNL A   1      43.142  22.620  25.126  1.00  0.00     0.042 C 
BRANCH  29  30
ATOM     30  C   UNL A   1      43.710  24.029  24.935  1.00  0.00     0.118 C 
BRANCH  30  31
ATOM     31  N   UNL A   1      45.087  24.133  25.406  1.00  0.00    -0.352 N 
ATOM     32  C   UNL A   1      45.649  24.916  26.382  1.00  0.00     0.251 C 
ATOM     33  H   UNL A   1      45.723  23.540  24.943  1.00  0.00     0.163 HD
ATOM     34  O   UNL A   1      46.870  25.028  26.441  1.00  0.00    -0.269 OA
BRANCH  32  35
ATOM     35  C   UNL A   1      44.802  25.629  27.359  1.00  0.00     0.039 A 
ATOM     36  C   UNL A   1      44.295  24.924  28.454  1.00  0.00     0.014 A 
ATOM     37  C   UNL A   1      44.473  26.974  27.178  1.00  0.00     0.014 A 
ATOM     38  C   UNL A   1      43.526  25.589  29.411  1.00  0.00     0.010 A 
ATOM     39  C   UNL A   1      43.773  27.654  28.170  1.00  0.00     0.010 A 
ATOM     40  C   UNL A   1      43.303  26.971  29.302  1.00  0.00    -0.014 A 
BRANCH  40  41
ATOM     41  C   UNL A   1      42.630  27.731  30.384  1.00  0.00     0.031 A 
ATOM     42  C   UNL A   1      41.312  28.410  30.139  1.00  0.00     0.074 A 
ATOM     43  C   UNL A   1      43.257  27.877  31.567  1.00  0.00     0.049 A 
ATOM     44  N   UNL A   1      40.621  29.179  30.941  1.00  0.00    -0.248 NA
ATOM     45  C   UNL A   1      40.703  28.220  28.813  1.00  0.00     0.031 C 
ATOM     46  C   UNL A   1      44.559  27.299  31.913  1.00  0.00     0.029 A 
ATOM     47  N   UNL A   1      42.892  28.564  32.697  1.00  0.00    -0.354 N 
ATOM     48  C   UNL A   1      39.505  29.577  30.215  1.00  0.00     0.074 A 
ATOM     49  C   UNL A   1      39.636  29.004  28.892  1.00  0.00     0.031 C 
ATOM     50  C   UNL A   1      44.868  27.633  33.174  1.00  0.00     0.029 A 
ATOM     51  C   UNL A   1      43.818  28.492  33.709  1.00  0.00     0.049 A 
ATOM     52  H   UNL A   1      42.047  29.063  32.775  1.00  0.00     0.167 HD
ATOM     53  C   UNL A   1      38.460  30.338  30.618  1.00  0.00     0.031 A 
ATOM     54  C   UNL A   1      43.832  29.066  34.927  1.00  0.00     0.031 A 
ATOM     55  C   UNL A   1      38.338  30.909  31.933  1.00  0.00     0.049 A 
ATOM     56  C   UNL A   1      42.681  29.942  35.333  1.00  0.00     0.074 A 
ATOM     57  C   UNL A   1      37.290  31.644  32.460  1.00  0.00     0.029 A 
ATOM     58  N   UNL A   1      39.303  30.822  32.925  1.00  0.00    -0.354 N 
ATOM     59  N   UNL A   1      41.594  30.239  34.663  1.00  0.00    -0.248 NA
ATOM     60  C   UNL A   1      42.760  30.562  36.663  1.00  0.00     0.031 C 
ATOM     61  C   UNL A   1      37.651  32.061  33.744  1.00  0.00     0.029 A 
ATOM     62  C   UNL A   1      38.894  31.528  34.045  1.00  0.00     0.049 A 
ATOM     63  H   UNL A   1      40.152  30.331  32.845  1.00  0.00     0.167 HD
ATOM     64  C   UNL A   1      40.851  31.066  35.496  1.00  0.00     0.074 A 
ATOM     65  C   UNL A   1      41.600  31.200  36.728  1.00  0.00     0.031 C 
ATOM     66  C   UNL A   1      39.658  31.663  35.259  1.00  0.00     0.031 A 
BRANCH  53  67
ATOM     67  C   UNL A   1      37.370  30.611  29.617  1.00  0.00    -0.014 A 
ATOM     68  C   UNL A   1      36.328  29.694  29.401  1.00  0.00     0.009 A 
ATOM     69  C   UNL A   1      37.361  31.823  28.908  1.00  0.00     0.009 A 
ATOM     70  C   UNL A   1      35.325  29.967  28.470  1.00  0.00     0.001 A 
ATOM     71  C   UNL A   1      36.339  32.108  28.001  1.00  0.00     0.001 A 
ATOM     72  C   UNL A   1      35.327  31.176  27.775  1.00  0.00     0.000 A 
ENDBRANCH  53  67
BRANCH  54  73
ATOM     73  C   UNL A   1      44.979  28.837  35.845  1.00  0.00    -0.014 A 
ATOM     74  C   UNL A   1      46.041  29.750  35.901  1.00  0.00     0.009 A 
ATOM     75  C   UNL A   1      45.017  27.702  36.672  1.00  0.00     0.009 A 
ATOM     76  C   UNL A   1      47.130  29.520  36.746  1.00  0.00     0.001 A 
ATOM     77  C   UNL A   1      46.090  27.491  37.540  1.00  0.00     0.001 A 
ATOM     78  C   UNL A   1      47.150  28.394  37.569  1.00  0.00     0.000 A 
ENDBRANCH  54  73
BRANCH  66  79
ATOM     79  C   UNL A   1      39.083  32.510  36.359  1.00  0.00    -0.014 A 
ATOM     80  C   UNL A   1      38.169  31.977  37.283  1.00  0.00     0.009 A 
ATOM     81  C   UNL A   1      39.498  33.842  36.505  1.00  0.00     0.009 A 
ATOM     82  C   UNL A   1      37.661  32.773  38.312  1.00  0.00     0.001 A 
ATOM     83  C   UNL A   1      39.014  34.625  37.554  1.00  0.00     0.001 A 
ATOM     84  C   UNL A   1      38.089  34.092  38.452  1.00  0.00     0.000 A 
ENDBRANCH  66  79
ENDBRANCH  40  41
ENDBRANCH  32  35
ENDBRANCH  30  31
ENDBRANCH  29  30
ENDBRANCH  28  29
ENDBRANCH   3  28
TORSDOF 16
ENDMDL
