MODEL 1
REMARK VINA RESULT:     -11.6      0.000      0.000
REMARK SMILES Nc1ncc(C(=O)NCCCNC(=O)c2ccc(-c3c4nc(c(-c5ccccc5)c5ccc([nH]5)c(-c5ccccc5)c5nc(c(-c6ccccc6)c6ccc3[nH]6)C=C5)C=C4)cc2)c(-c2ccccc2)n1
REMARK SMILES IDX 10 1 9 2 8 3 6 4 7 5 5 7 2 8 3 9 70 10 4 11 63 12 1 13 64 16
REMARK SMILES IDX 65 17 69 18 66 19 68 20 67 21 11 22 12 23 13 24 14 26 15 27
REMARK SMILES IDX 16 28 62 29 17 30 61 31 18 32 19 33 20 34 55 35 21 36 60 37
REMARK SMILES IDX 54 38 56 39 22 40 59 41 53 42 52 43 23 45 45 46 30 47 44 48
REMARK SMILES IDX 31 49 34 50 43 51 57 52 32 53 33 54 42 56 58 57 35 58 24 59
REMARK SMILES IDX 25 60 29 61 26 62 28 63 27 64 46 65 47 66 51 67 48 68 50 69
REMARK SMILES IDX 49 70 36 71 37 72 41 73 38 74 40 75 39 76
REMARK H PARENT 8 6 1 14 1 15 12 25 56 44 34 55
REMARK Flexibility Score: inf
ROOT
ATOM      1  C   UNL A   1      32.283  29.077  27.243  1.00  0.00     0.042 C 
ENDROOT
BRANCH   1   2
ATOM      2  C   UNL A   1      32.357  27.666  26.686  1.00  0.00     0.118 C 
BRANCH   2   3
ATOM      3  N   UNL A   1      31.133  26.898  26.697  1.00  0.00    -0.352 N 
ATOM      4  C   UNL A   1      30.520  26.193  25.689  1.00  0.00     0.255 C 
ATOM      5  O   UNL A   1      29.526  25.532  26.005  1.00  0.00    -0.269 OA
ATOM      6  H   UNL A   1      30.665  26.878  27.562  1.00  0.00     0.163 HD
BRANCH   4   7
ATOM      7  C   UNL A   1      30.888  26.235  24.253  1.00  0.00     0.084 A 
ATOM      8  C   UNL A   1      31.814  25.952  21.690  1.00  0.00     0.220 A 
ATOM      9  N   UNL A   1      32.219  25.060  22.589  1.00  0.00    -0.221 NA
ATOM     10  N   UNL A   1      31.004  26.972  21.963  1.00  0.00    -0.212 NA
ATOM     11  C   UNL A   1      31.753  25.228  23.846  1.00  0.00     0.131 A 
ATOM     12  C   UNL A   1      30.555  27.124  23.242  1.00  0.00     0.089 A 
BRANCH   8  13
ATOM     13  N   UNL A   1      32.246  25.812  20.407  1.00  0.00    -0.368 N 
ATOM     14  H   UNL A   1      32.968  26.388  20.065  1.00  0.00     0.159 HD
ATOM     15  H   UNL A   1      31.836  25.136  19.820  1.00  0.00     0.159 HD
ENDBRANCH   8  13
BRANCH  12  16
ATOM     16  C   UNL A   1      29.673  28.293  23.356  1.00  0.00     0.001 A 
ATOM     17  C   UNL A   1      28.310  28.253  23.023  1.00  0.00     0.010 A 
ATOM     18  C   UNL A   1      30.221  29.526  23.777  1.00  0.00     0.010 A 
ATOM     19  C   UNL A   1      27.549  29.429  23.018  1.00  0.00     0.001 A 
ATOM     20  C   UNL A   1      29.467  30.698  23.754  1.00  0.00     0.001 A 
ATOM     21  C   UNL A   1      28.135  30.651  23.356  1.00  0.00     0.000 A 
ENDBRANCH  12  16
ENDBRANCH   4   7
ENDBRANCH   2   3
ENDBRANCH   1   2
BRANCH   1  22
ATOM     22  C   UNL A   1      33.541  29.910  27.023  1.00  0.00     0.118 C 
BRANCH  22  23
ATOM     23  N   UNL A   1      33.747  30.979  27.998  1.00  0.00    -0.352 N 
ATOM     24  C   UNL A   1      34.769  31.315  28.853  1.00  0.00     0.251 C 
ATOM     25  H   UNL A   1      32.982  31.596  28.054  1.00  0.00     0.163 HD
ATOM     26  O   UNL A   1      34.592  32.256  29.630  1.00  0.00    -0.269 OA
BRANCH  24  27
ATOM     27  C   UNL A   1      36.046  30.563  28.922  1.00  0.00     0.039 A 
ATOM     28  C   UNL A   1      36.887  30.563  27.798  1.00  0.00     0.014 A 
ATOM     29  C   UNL A   1      36.431  29.835  30.041  1.00  0.00     0.014 A 
ATOM     30  C   UNL A   1      38.140  29.938  27.847  1.00  0.00     0.010 A 
ATOM     31  C   UNL A   1      37.722  29.320  30.135  1.00  0.00     0.010 A 
ATOM     32  C   UNL A   1      38.599  29.372  29.044  1.00  0.00    -0.014 A 
BRANCH  32  33
ATOM     33  C   UNL A   1      39.982  28.842  29.205  1.00  0.00     0.031 A 
ATOM     34  C   UNL A   1      41.101  29.755  29.638  1.00  0.00     0.074 A 
ATOM     35  C   UNL A   1      40.262  27.574  28.837  1.00  0.00     0.049 A 
ATOM     36  N   UNL A   1      42.394  29.543  29.630  1.00  0.00    -0.248 NA
ATOM     37  C   UNL A   1      40.718  31.100  30.097  1.00  0.00     0.031 C 
ATOM     38  C   UNL A   1      39.288  26.590  28.358  1.00  0.00     0.029 A 
ATOM     39  N   UNL A   1      41.459  26.903  28.785  1.00  0.00    -0.354 N 
ATOM     40  C   UNL A   1      42.974  30.740  30.031  1.00  0.00     0.074 A 
ATOM     41  C   UNL A   1      41.898  31.686  30.233  1.00  0.00     0.031 C 
ATOM     42  C   UNL A   1      39.921  25.437  28.088  1.00  0.00     0.029 A 
ATOM     43  C   UNL A   1      41.349  25.615  28.315  1.00  0.00     0.049 A 
ATOM     44  H   UNL A   1      42.315  27.306  29.059  1.00  0.00     0.167 HD
ATOM     45  C   UNL A   1      44.283  31.027  30.231  1.00  0.00     0.031 A 
ATOM     46  C   UNL A   1      42.293  24.687  28.071  1.00  0.00     0.031 A 
ATOM     47  C   UNL A   1      45.352  30.076  30.076  1.00  0.00     0.049 A 
ATOM     48  C   UNL A   1      43.737  25.023  28.311  1.00  0.00     0.074 A 
ATOM     49  C   UNL A   1      46.701  30.245  30.334  1.00  0.00     0.029 A 
ATOM     50  N   UNL A   1      45.189  28.774  29.631  1.00  0.00    -0.354 N 
ATOM     51  N   UNL A   1      44.264  26.144  28.738  1.00  0.00    -0.248 NA
ATOM     52  C   UNL A   1      44.717  23.962  28.036  1.00  0.00     0.031 C 
ATOM     53  C   UNL A   1      47.361  29.057  30.005  1.00  0.00     0.029 A 
ATOM     54  C   UNL A   1      46.416  28.134  29.589  1.00  0.00     0.049 A 
ATOM     55  H   UNL A   1      44.328  28.364  29.383  1.00  0.00     0.167 HD
ATOM     56  C   UNL A   1      45.632  25.917  28.806  1.00  0.00     0.074 A 
ATOM     57  C   UNL A   1      45.852  24.548  28.392  1.00  0.00     0.031 C 
ATOM     58  C   UNL A   1      46.617  26.770  29.176  1.00  0.00     0.031 A 
BRANCH  45  59
ATOM     59  C   UNL A   1      44.633  32.431  30.641  1.00  0.00    -0.014 A 
ATOM     60  C   UNL A   1      44.707  32.800  31.995  1.00  0.00     0.009 A 
ATOM     61  C   UNL A   1      44.921  33.394  29.661  1.00  0.00     0.009 A 
ATOM     62  C   UNL A   1      45.018  34.112  32.355  1.00  0.00     0.001 A 
ATOM     63  C   UNL A   1      45.263  34.698  30.025  1.00  0.00     0.001 A 
ATOM     64  C   UNL A   1      45.299  35.059  31.371  1.00  0.00     0.000 A 
ENDBRANCH  45  59
BRANCH  46  65
ATOM     65  C   UNL A   1      41.902  23.341  27.574  1.00  0.00    -0.014 A 
ATOM     66  C   UNL A   1      41.540  22.332  28.481  1.00  0.00     0.009 A 
ATOM     67  C   UNL A   1      41.890  23.056  26.200  1.00  0.00     0.009 A 
ATOM     68  C   UNL A   1      41.197  21.058  28.023  1.00  0.00     0.001 A 
ATOM     69  C   UNL A   1      41.519  21.789  25.744  1.00  0.00     0.001 A 
ATOM     70  C   UNL A   1      41.182  20.789  26.655  1.00  0.00     0.000 A 
ENDBRANCH  46  65
BRANCH  58  71
ATOM     71  C   UNL A   1      48.021  26.237  29.181  1.00  0.00    -0.014 A 
ATOM     72  C   UNL A   1      48.807  26.249  28.019  1.00  0.00     0.009 A 
ATOM     73  C   UNL A   1      48.579  25.760  30.378  1.00  0.00     0.009 A 
ATOM     74  C   UNL A   1      50.118  25.770  28.050  1.00  0.00     0.001 A 
ATOM     75  C   UNL A   1      49.898  25.305  30.411  1.00  0.00     0.001 A 
ATOM     76  C   UNL A   1      50.663  25.304  29.247  1.00  0.00     0.000 A 
ENDBRANCH  58  71
ENDBRANCH  32  33
ENDBRANCH  24  27
ENDBRANCH  22  23
ENDBRANCH   1  22
TORSDOF 12
ENDMDL
MODEL 2
REMARK VINA RESULT:     -11.6      3.506      6.816
REMARK SMILES Nc1ncc(C(=O)NCCCNC(=O)c2ccc(-c3c4nc(c(-c5ccccc5)c5ccc([nH]5)c(-c5ccccc5)c5nc(c(-c6ccccc6)c6ccc3[nH]6)C=C5)C=C4)cc2)c(-c2ccccc2)n1
REMARK SMILES IDX 10 1 9 2 8 3 6 4 7 5 5 7 2 8 3 9 70 10 4 11 63 12 1 13 64 16
REMARK SMILES IDX 65 17 69 18 66 19 68 20 67 21 11 22 12 23 13 24 14 26 15 27
REMARK SMILES IDX 16 28 62 29 17 30 61 31 18 32 19 33 20 34 55 35 21 36 60 37
REMARK SMILES IDX 54 38 56 39 22 40 59 41 53 42 52 43 23 45 45 46 30 47 44 48
REMARK SMILES IDX 31 49 34 50 43 51 57 52 32 53 33 54 42 56 58 57 35 58 24 59
REMARK SMILES IDX 25 60 29 61 26 62 28 63 27 64 46 65 47 66 51 67 48 68 50 69
REMARK SMILES IDX 49 70 36 71 37 72 41 73 38 74 40 75 39 76
REMARK H PARENT 8 6 1 14 1 15 12 25 56 44 34 55
REMARK Flexibility Score: inf
ROOT
ATOM      1  C   UNL A   1      31.782  29.386  27.158  1.00  0.00     0.042 C 
ENDROOT
BRANCH   1   2
ATOM      2  C   UNL A   1      32.038  27.962  26.697  1.00  0.00     0.118 C 
BRANCH   2   3
ATOM      3  N   UNL A   1      30.904  27.066  26.697  1.00  0.00    -0.352 N 
ATOM      4  C   UNL A   1      30.401  26.273  25.694  1.00  0.00     0.255 C 
ATOM      5  O   UNL A   1      29.475  25.516  26.001  1.00  0.00    -0.269 OA
ATOM      6  H   UNL A   1      30.416  27.016  27.550  1.00  0.00     0.163 HD
BRANCH   4   7
ATOM      7  C   UNL A   1      30.803  26.320  24.267  1.00  0.00     0.084 A 
ATOM      8  C   UNL A   1      31.813  26.063  21.733  1.00  0.00     0.220 A 
ATOM      9  N   UNL A   1      32.253  25.214  22.656  1.00  0.00    -0.221 NA
ATOM     10  N   UNL A   1      30.930  27.031  21.969  1.00  0.00    -0.212 NA
ATOM     11  C   UNL A   1      31.743  25.368  23.898  1.00  0.00     0.131 A 
ATOM     12  C   UNL A   1      30.438  27.170  23.233  1.00  0.00     0.089 A 
BRANCH   8  13
ATOM     13  N   UNL A   1      32.288  25.935  20.464  1.00  0.00    -0.368 N 
ATOM     14  H   UNL A   1      31.793  25.395  19.805  1.00  0.00     0.159 HD
ATOM     15  H   UNL A   1      33.127  26.381  20.204  1.00  0.00     0.159 HD
ENDBRANCH   8  13
BRANCH  12  16
ATOM     16  C   UNL A   1      29.477  28.279  23.306  1.00  0.00     0.001 A 
ATOM     17  C   UNL A   1      28.093  28.095  23.172  1.00  0.00     0.010 A 
ATOM     18  C   UNL A   1      29.962  29.595  23.476  1.00  0.00     0.010 A 
ATOM     19  C   UNL A   1      27.236  29.202  23.111  1.00  0.00     0.001 A 
ATOM     20  C   UNL A   1      29.111  30.696  23.396  1.00  0.00     0.001 A 
ATOM     21  C   UNL A   1      27.748  30.498  23.195  1.00  0.00     0.000 A 
ENDBRANCH  12  16
ENDBRANCH   4   7
ENDBRANCH   2   3
ENDBRANCH   1   2
BRANCH   1  22
ATOM     22  C   UNL A   1      32.143  30.457  26.133  1.00  0.00     0.118 C 
BRANCH  22  23
ATOM     23  N   UNL A   1      32.077  31.829  26.632  1.00  0.00    -0.352 N 
ATOM     24  C   UNL A   1      32.902  32.610  27.406  1.00  0.00     0.251 C 
ATOM     25  H   UNL A   1      31.260  32.299  26.349  1.00  0.00     0.163 HD
ATOM     26  O   UNL A   1      32.507  33.733  27.727  1.00  0.00    -0.269 OA
BRANCH  24  27
ATOM     27  C   UNL A   1      34.213  32.141  27.919  1.00  0.00     0.039 A 
ATOM     28  C   UNL A   1      35.261  33.069  28.030  1.00  0.00     0.014 A 
ATOM     29  C   UNL A   1      34.456  30.818  28.265  1.00  0.00     0.014 A 
ATOM     30  C   UNL A   1      36.490  32.691  28.586  1.00  0.00     0.010 A 
ATOM     31  C   UNL A   1      35.630  30.470  28.930  1.00  0.00     0.010 A 
ATOM     32  C   UNL A   1      36.660  31.402  29.110  1.00  0.00    -0.014 A 
BRANCH  32  33
ATOM     33  C   UNL A   1      37.879  30.993  29.860  1.00  0.00     0.031 A 
ATOM     34  C   UNL A   1      38.868  30.037  29.240  1.00  0.00     0.074 A 
ATOM     35  C   UNL A   1      38.036  31.370  31.146  1.00  0.00     0.049 A 
ATOM     36  N   UNL A   1      39.865  29.397  29.799  1.00  0.00    -0.248 NA
ATOM     37  C   UNL A   1      38.680  29.724  27.814  1.00  0.00     0.031 C 
ATOM     38  C   UNL A   1      37.138  32.256  31.890  1.00  0.00     0.029 A 
ATOM     39  N   UNL A   1      39.000  31.034  32.065  1.00  0.00    -0.354 N 
ATOM     40  C   UNL A   1      40.387  28.574  28.809  1.00  0.00     0.074 A 
ATOM     41  C   UNL A   1      39.571  28.761  27.629  1.00  0.00     0.031 C 
ATOM     42  C   UNL A   1      37.606  32.414  33.138  1.00  0.00     0.029 A 
ATOM     43  C   UNL A   1      38.801  31.596  33.304  1.00  0.00     0.049 A 
ATOM     44  H   UNL A   1      39.762  30.445  31.856  1.00  0.00     0.167 HD
ATOM     45  C   UNL A   1      41.459  27.747  28.867  1.00  0.00     0.031 A 
ATOM     46  C   UNL A   1      39.488  31.453  34.453  1.00  0.00     0.031 A 
ATOM     47  C   UNL A   1      42.300  27.594  30.023  1.00  0.00     0.049 A 
ATOM     48  C   UNL A   1      40.680  30.540  34.491  1.00  0.00     0.074 A 
ATOM     49  C   UNL A   1      43.456  26.844  30.156  1.00  0.00     0.029 A 
ATOM     50  N   UNL A   1      42.079  28.210  31.245  1.00  0.00    -0.354 N 
ATOM     51  N   UNL A   1      41.188  29.807  33.531  1.00  0.00    -0.248 NA
ATOM     52  C   UNL A   1      41.393  30.437  35.772  1.00  0.00     0.031 C 
ATOM     53  C   UNL A   1      43.912  26.974  31.471  1.00  0.00     0.029 A 
ATOM     54  C   UNL A   1      43.067  27.842  32.143  1.00  0.00     0.049 A 
ATOM     55  H   UNL A   1      41.332  28.819  31.444  1.00  0.00     0.167 HD
ATOM     56  C   UNL A   1      42.294  29.174  34.084  1.00  0.00     0.074 A 
ATOM     57  C   UNL A   1      42.391  29.621  35.457  1.00  0.00     0.031 C 
ATOM     58  C   UNL A   1      43.150  28.298  33.505  1.00  0.00     0.031 A 
BRANCH  45  59
ATOM     59  C   UNL A   1      41.782  26.942  27.638  1.00  0.00    -0.014 A 
ATOM     60  C   UNL A   1      42.617  27.452  26.629  1.00  0.00     0.009 A 
ATOM     61  C   UNL A   1      41.270  25.642  27.499  1.00  0.00     0.009 A 
ATOM     62  C   UNL A   1      42.893  26.695  25.490  1.00  0.00     0.001 A 
ATOM     63  C   UNL A   1      41.574  24.875  26.372  1.00  0.00     0.001 A 
ATOM     64  C   UNL A   1      42.375  25.407  25.363  1.00  0.00     0.000 A 
ENDBRANCH  45  59
BRANCH  46  65
ATOM     65  C   UNL A   1      39.068  32.200  35.668  1.00  0.00    -0.014 A 
ATOM     66  C   UNL A   1      39.549  33.498  35.899  1.00  0.00     0.009 A 
ATOM     67  C   UNL A   1      38.192  31.624  36.601  1.00  0.00     0.009 A 
ATOM     68  C   UNL A   1      39.181  34.196  37.052  1.00  0.00     0.001 A 
ATOM     69  C   UNL A   1      37.802  32.336  37.738  1.00  0.00     0.001 A 
ATOM     70  C   UNL A   1      38.304  33.616  37.967  1.00  0.00     0.000 A 
ENDBRANCH  46  65
BRANCH  58  71
ATOM     71  C   UNL A   1      44.286  27.790  34.346  1.00  0.00    -0.014 A 
ATOM     72  C   UNL A   1      45.504  28.484  34.417  1.00  0.00     0.009 A 
ATOM     73  C   UNL A   1      44.116  26.627  35.114  1.00  0.00     0.009 A 
ATOM     74  C   UNL A   1      46.539  28.007  35.223  1.00  0.00     0.001 A 
ATOM     75  C   UNL A   1      45.144  26.168  35.938  1.00  0.00     0.001 A 
ATOM     76  C   UNL A   1      46.356  26.854  35.986  1.00  0.00     0.000 A 
ENDBRANCH  58  71
ENDBRANCH  32  33
ENDBRANCH  24  27
ENDBRANCH  22  23
ENDBRANCH   1  22
TORSDOF 12
ENDMDL
MODEL 3
REMARK VINA RESULT:     -11.5      4.037      8.618
REMARK SMILES Nc1ncc(C(=O)NCCCNC(=O)c2ccc(-c3c4nc(c(-c5ccccc5)c5ccc([nH]5)c(-c5ccccc5)c5nc(c(-c6ccccc6)c6ccc3[nH]6)C=C5)C=C4)cc2)c(-c2ccccc2)n1
REMARK SMILES IDX 10 1 9 2 8 3 6 4 7 5 5 7 2 8 3 9 70 10 4 11 63 12 1 13 64 16
REMARK SMILES IDX 65 17 69 18 66 19 68 20 67 21 11 22 12 23 13 24 14 26 15 27
REMARK SMILES IDX 16 28 62 29 17 30 61 31 18 32 19 33 20 34 55 35 21 36 60 37
REMARK SMILES IDX 54 38 56 39 22 40 59 41 53 42 52 43 23 45 45 46 30 47 44 48
REMARK SMILES IDX 31 49 34 50 43 51 57 52 32 53 33 54 42 56 58 57 35 58 24 59
REMARK SMILES IDX 25 60 29 61 26 62 28 63 27 64 46 65 47 66 51 67 48 68 50 69
REMARK SMILES IDX 49 70 36 71 37 72 41 73 38 74 40 75 39 76
REMARK H PARENT 8 6 1 14 1 15 12 25 56 44 34 55
REMARK Flexibility Score: inf
ROOT
ATOM      1  C   UNL A   1      37.805  20.026  24.955  1.00  0.00     0.042 C 
ENDROOT
BRANCH   1   2
ATOM      2  C   UNL A   1      36.849  21.199  24.831  1.00  0.00     0.118 C 
BRANCH   2   3
ATOM      3  N   UNL A   1      35.875  21.359  25.886  1.00  0.00    -0.352 N 
ATOM      4  C   UNL A   1      34.517  21.149  25.878  1.00  0.00     0.255 C 
ATOM      5  O   UNL A   1      33.935  21.261  26.962  1.00  0.00    -0.269 OA
ATOM      6  H   UNL A   1      36.243  21.666  26.746  1.00  0.00     0.163 HD
BRANCH   4   7
ATOM      7  C   UNL A   1      33.684  20.900  24.676  1.00  0.00     0.084 A 
ATOM      8  C   UNL A   1      32.138  20.885  22.415  1.00  0.00     0.220 A 
ATOM      9  N   UNL A   1      32.523  22.067  22.884  1.00  0.00    -0.221 NA
ATOM     10  N   UNL A   1      32.444  19.720  22.981  1.00  0.00    -0.212 NA
ATOM     11  C   UNL A   1      33.279  22.045  24.005  1.00  0.00     0.131 A 
ATOM     12  C   UNL A   1      33.201  19.727  24.116  1.00  0.00     0.089 A 
BRANCH   8  13
ATOM     13  N   UNL A   1      31.387  20.858  21.279  1.00  0.00    -0.368 N 
ATOM     14  H   UNL A   1      31.828  20.816  20.399  1.00  0.00     0.159 HD
ATOM     15  H   UNL A   1      30.405  20.883  21.337  1.00  0.00     0.159 HD
ENDBRANCH   8  13
BRANCH  12  16
ATOM     16  C   UNL A   1      33.444  18.359  24.596  1.00  0.00     0.001 A 
ATOM     17  C   UNL A   1      34.604  17.637  24.277  1.00  0.00     0.010 A 
ATOM     18  C   UNL A   1      32.454  17.722  25.377  1.00  0.00     0.010 A 
ATOM     19  C   UNL A   1      34.720  16.290  24.646  1.00  0.00     0.001 A 
ATOM     20  C   UNL A   1      32.563  16.376  25.727  1.00  0.00     0.001 A 
ATOM     21  C   UNL A   1      33.690  15.656  25.343  1.00  0.00     0.000 A 
ENDBRANCH  12  16
ENDBRANCH   4   7
ENDBRANCH   2   3
ENDBRANCH   1   2
BRANCH   1  22
ATOM     22  C   UNL A   1      38.941  20.240  25.951  1.00  0.00     0.118 C 
BRANCH  22  23
ATOM     23  N   UNL A   1      40.035  19.277  25.848  1.00  0.00    -0.352 N 
ATOM     24  C   UNL A   1      41.394  19.344  26.042  1.00  0.00     0.251 C 
ATOM     25  H   UNL A   1      39.731  18.380  25.580  1.00  0.00     0.163 HD
ATOM     26  O   UNL A   1      42.069  18.345  25.784  1.00  0.00    -0.269 OA
BRANCH  24  27
ATOM     27  C   UNL A   1      42.088  20.576  26.491  1.00  0.00     0.039 A 
ATOM     28  C   UNL A   1      42.659  21.416  25.523  1.00  0.00     0.014 A 
ATOM     29  C   UNL A   1      42.222  20.919  27.831  1.00  0.00     0.014 A 
ATOM     30  C   UNL A   1      43.250  22.631  25.894  1.00  0.00     0.010 A 
ATOM     31  C   UNL A   1      42.697  22.178  28.191  1.00  0.00     0.010 A 
ATOM     32  C   UNL A   1      43.208  23.057  27.228  1.00  0.00    -0.014 A 
BRANCH  32  33
ATOM     33  C   UNL A   1      43.670  24.407  27.657  1.00  0.00     0.031 A 
ATOM     34  C   UNL A   1      42.671  25.448  28.094  1.00  0.00     0.074 A 
ATOM     35  C   UNL A   1      44.970  24.744  27.529  1.00  0.00     0.049 A 
ATOM     36  N   UNL A   1      42.845  26.731  28.296  1.00  0.00    -0.248 NA
ATOM     37  C   UNL A   1      41.283  24.995  28.284  1.00  0.00     0.031 C 
ATOM     38  C   UNL A   1      46.042  23.854  27.078  1.00  0.00     0.029 A 
ATOM     39  N   UNL A   1      45.607  25.941  27.746  1.00  0.00    -0.354 N 
ATOM     40  C   UNL A   1      41.585  27.241  28.585  1.00  0.00     0.074 A 
ATOM     41  C   UNL A   1      40.650  26.141  28.490  1.00  0.00     0.031 C 
ATOM     42  C   UNL A   1      47.204  24.525  27.078  1.00  0.00     0.029 A 
ATOM     43  C   UNL A   1      46.954  25.907  27.469  1.00  0.00     0.049 A 
ATOM     44  H   UNL A   1      45.144  26.748  28.070  1.00  0.00     0.167 HD
ATOM     45  C   UNL A   1      41.235  28.507  28.917  1.00  0.00     0.031 A 
ATOM     46  C   UNL A   1      47.881  26.882  27.502  1.00  0.00     0.031 A 
ATOM     47  C   UNL A   1      42.168  29.593  29.058  1.00  0.00     0.049 A 
ATOM     48  C   UNL A   1      47.473  28.276  27.884  1.00  0.00     0.074 A 
ATOM     49  C   UNL A   1      41.924  30.892  29.470  1.00  0.00     0.029 A 
ATOM     50  N   UNL A   1      43.526  29.503  28.800  1.00  0.00    -0.354 N 
ATOM     51  N   UNL A   1      46.286  28.730  28.202  1.00  0.00    -0.248 NA
ATOM     52  C   UNL A   1      48.535  29.292  27.913  1.00  0.00     0.031 C 
ATOM     53  C   UNL A   1      43.129  31.599  29.421  1.00  0.00     0.029 A 
ATOM     54  C   UNL A   1      44.130  30.728  29.025  1.00  0.00     0.049 A 
ATOM     55  H   UNL A   1      43.992  28.689  28.502  1.00  0.00     0.167 HD
ATOM     56  C   UNL A   1      46.461  30.076  28.491  1.00  0.00     0.074 A 
ATOM     57  C   UNL A   1      47.870  30.362  28.326  1.00  0.00     0.031 C 
ATOM     58  C   UNL A   1      45.535  30.995  28.858  1.00  0.00     0.031 A 
BRANCH  45  59
ATOM     59  C   UNL A   1      39.775  28.786  29.150  1.00  0.00    -0.014 A 
ATOM     60  C   UNL A   1      38.948  29.260  28.118  1.00  0.00     0.009 A 
ATOM     61  C   UNL A   1      39.211  28.543  30.412  1.00  0.00     0.009 A 
ATOM     62  C   UNL A   1      37.599  29.527  28.358  1.00  0.00     0.001 A 
ATOM     63  C   UNL A   1      37.853  28.782  30.641  1.00  0.00     0.001 A 
ATOM     64  C   UNL A   1      37.052  29.285  29.618  1.00  0.00     0.000 A 
ENDBRANCH  45  59
BRANCH  46  65
ATOM     65  C   UNL A   1      49.298  26.573  27.169  1.00  0.00    -0.014 A 
ATOM     66  C   UNL A   1      49.772  26.762  25.861  1.00  0.00     0.009 A 
ATOM     67  C   UNL A   1      50.178  26.088  28.148  1.00  0.00     0.009 A 
ATOM     68  C   UNL A   1      51.093  26.449  25.535  1.00  0.00     0.001 A 
ATOM     69  C   UNL A   1      51.507  25.803  27.825  1.00  0.00     0.001 A 
ATOM     70  C   UNL A   1      51.961  25.974  26.518  1.00  0.00     0.000 A 
ENDBRANCH  46  65
BRANCH  58  71
ATOM     71  C   UNL A   1      46.021  32.388  29.138  1.00  0.00    -0.014 A 
ATOM     72  C   UNL A   1      46.045  33.365  28.131  1.00  0.00     0.009 A 
ATOM     73  C   UNL A   1      46.417  32.737  30.439  1.00  0.00     0.009 A 
ATOM     74  C   UNL A   1      46.480  34.660  28.418  1.00  0.00     0.001 A 
ATOM     75  C   UNL A   1      46.826  34.040  30.727  1.00  0.00     0.001 A 
ATOM     76  C   UNL A   1      46.864  34.997  29.715  1.00  0.00     0.000 A 
ENDBRANCH  58  71
ENDBRANCH  32  33
ENDBRANCH  24  27
ENDBRANCH  22  23
ENDBRANCH   1  22
TORSDOF 12
ENDMDL
