MODEL 1
REMARK VINA RESULT:     -10.3      0.000      0.000
REMARK SMILES CC(C)N(CC1CC1)C(=O)N1CC[C@H](C(=O)NCCCNC(=O)c2ccc(-c3c4nc(c(-c5ccccc5)c5ccc([nH]5)c(-c5ccccc5)c5nc(c(-c6ccccc6)c6ccc3[nH]6)C=C5)C=C4)cc2)[C@H]1C
REMARK SMILES IDX 18 1 17 2 15 3 16 4 14 6 11 7 12 8 72 9 13 10 73 11 9 12
REMARK SMILES IDX 10 13 4 14 2 15 1 16 3 17 5 18 6 19 7 20 8 21 19 22 20 23
REMARK SMILES IDX 21 24 22 25 23 27 24 28 25 29 71 30 26 31 70 32 27 33 28 34
REMARK SMILES IDX 29 35 64 36 30 37 69 38 63 39 65 40 31 41 68 42 62 43 61 44
REMARK SMILES IDX 32 46 54 47 39 48 53 49 40 50 43 51 52 52 66 53 41 54 42 55
REMARK SMILES IDX 51 57 67 58 44 59 33 60 34 61 38 62 35 63 37 64 36 65 55 66
REMARK SMILES IDX 56 67 60 68 57 69 59 70 58 71 45 72 46 73 50 74 47 75 49 76
REMARK SMILES IDX 48 77
REMARK H PARENT 17 5 21 26 65 45 43 56
REMARK Flexibility Score: inf
ROOT
ATOM      1  C   UNL A   1      36.085  20.487  25.003  1.00  0.00     0.117 C 
ENDROOT
BRANCH   1   2
ATOM      2  N   UNL A   1      35.643  21.251  26.159  1.00  0.00    -0.356 N 
ATOM      3  C   UNL A   1      34.838  22.357  26.199  1.00  0.00     0.225 C 
ATOM      4  O   UNL A   1      34.663  22.916  27.278  1.00  0.00    -0.275 OA
ATOM      5  H   UNL A   1      35.969  20.930  27.031  1.00  0.00     0.163 HD
BRANCH   3   6
ATOM      6  C   UNL A   1      34.252  22.845  24.887  1.00  0.00     0.102 C 
ATOM      7  N   UNL A   1      32.373  24.265  25.317  1.00  0.00    -0.321 N 
ATOM      8  C   UNL A   1      31.908  22.882  25.257  1.00  0.00     0.122 C 
ATOM      9  C   UNL A   1      33.793  24.325  24.904  1.00  0.00     0.096 C 
ATOM     10  C   UNL A   1      32.968  22.103  24.515  1.00  0.00     0.037 C 
ATOM     11  C   UNL A   1      34.030  24.837  23.471  1.00  0.00     0.032 C 
BRANCH   7  12
ATOM     12  C   UNL A   1      31.656  25.061  26.198  1.00  0.00     0.320 C 
ATOM     13  O   UNL A   1      31.337  24.574  27.291  1.00  0.00    -0.248 OA
BRANCH  12  14
ATOM     14  N   UNL A   1      31.201  26.323  25.857  1.00  0.00    -0.322 N 
BRANCH  14  15
ATOM     15  C   UNL A   1      30.831  26.567  24.435  1.00  0.00     0.080 C 
ATOM     16  C   UNL A   1      29.500  25.903  24.043  1.00  0.00     0.031 C 
ATOM     17  C   UNL A   1      30.864  28.040  24.033  1.00  0.00     0.031 C 
ENDBRANCH  14  15
BRANCH  14  18
ATOM     18  C   UNL A   1      31.293  27.520  26.675  1.00  0.00     0.125 C 
BRANCH  18  19
ATOM     19  C   UNL A   1      32.688  27.886  27.101  1.00  0.00     0.009 C 
ATOM     20  C   UNL A   1      33.852  27.671  26.161  1.00  0.00     0.006 C 
ATOM     21  C   UNL A   1      33.467  29.064  26.554  1.00  0.00     0.006 C 
ENDBRANCH  18  19
ENDBRANCH  14  18
ENDBRANCH  12  14
ENDBRANCH   7  12
ENDBRANCH   3   6
ENDBRANCH   1   2
BRANCH   1  22
ATOM     22  C   UNL A   1      37.503  20.840  24.591  1.00  0.00     0.042 C 
BRANCH  22  23
ATOM     23  C   UNL A   1      38.470  20.904  25.763  1.00  0.00     0.118 C 
BRANCH  23  24
ATOM     24  N   UNL A   1      39.455  19.828  25.733  1.00  0.00    -0.352 N 
ATOM     25  C   UNL A   1      40.802  19.863  25.995  1.00  0.00     0.251 C 
ATOM     26  H   UNL A   1      39.100  18.943  25.488  1.00  0.00     0.163 HD
ATOM     27  O   UNL A   1      41.512  18.899  25.726  1.00  0.00    -0.269 OA
BRANCH  25  28
ATOM     28  C   UNL A   1      41.398  21.079  26.583  1.00  0.00     0.039 A 
ATOM     29  C   UNL A   1      41.926  22.061  25.742  1.00  0.00     0.014 A 
ATOM     30  C   UNL A   1      41.410  21.254  27.968  1.00  0.00     0.014 A 
ATOM     31  C   UNL A   1      42.389  23.260  26.288  1.00  0.00     0.010 A 
ATOM     32  C   UNL A   1      41.780  22.480  28.500  1.00  0.00     0.010 A 
ATOM     33  C   UNL A   1      42.276  23.496  27.667  1.00  0.00    -0.014 A 
BRANCH  33  34
ATOM     34  C   UNL A   1      42.682  24.780  28.289  1.00  0.00     0.031 A 
ATOM     35  C   UNL A   1      41.646  25.844  28.525  1.00  0.00     0.074 A 
ATOM     36  C   UNL A   1      43.982  25.033  28.532  1.00  0.00     0.049 A 
ATOM     37  N   UNL A   1      41.808  27.094  28.874  1.00  0.00    -0.248 NA
ATOM     38  C   UNL A   1      40.242  25.459  28.300  1.00  0.00     0.031 C 
ATOM     39  C   UNL A   1      45.088  24.095  28.323  1.00  0.00     0.029 A 
ATOM     40  N   UNL A   1      44.596  26.172  28.991  1.00  0.00    -0.354 N 
ATOM     41  C   UNL A   1      40.536  27.651  28.874  1.00  0.00     0.074 A 
ATOM     42  C   UNL A   1      39.619  26.618  28.448  1.00  0.00     0.031 C 
ATOM     43  C   UNL A   1      46.241  24.692  28.667  1.00  0.00     0.029 A 
ATOM     44  C   UNL A   1      45.964  26.066  29.071  1.00  0.00     0.049 A 
ATOM     45  H   UNL A   1      44.103  26.987  29.238  1.00  0.00     0.167 HD
ATOM     46  C   UNL A   1      40.162  28.906  29.213  1.00  0.00     0.031 A 
ATOM     47  C   UNL A   1      46.891  26.981  29.412  1.00  0.00     0.031 A 
ATOM     48  C   UNL A   1      41.071  29.923  29.664  1.00  0.00     0.049 A 
ATOM     49  C   UNL A   1      46.452  28.372  29.776  1.00  0.00     0.074 A 
ATOM     50  C   UNL A   1      40.785  31.209  30.086  1.00  0.00     0.029 A 
ATOM     51  N   UNL A   1      42.445  29.763  29.759  1.00  0.00    -0.354 N 
ATOM     52  N   UNL A   1      45.241  28.872  29.812  1.00  0.00    -0.248 NA
ATOM     53  C   UNL A   1      47.508  29.325  30.150  1.00  0.00     0.031 C 
ATOM     54  C   UNL A   1      41.992  31.842  30.399  1.00  0.00     0.029 A 
ATOM     55  C   UNL A   1      43.022  30.933  30.221  1.00  0.00     0.049 A 
ATOM     56  H   UNL A   1      42.936  28.940  29.534  1.00  0.00     0.167 HD
ATOM     57  C   UNL A   1      45.385  30.183  30.247  1.00  0.00     0.074 A 
ATOM     58  C   UNL A   1      46.800  30.401  30.465  1.00  0.00     0.031 C 
ATOM     59  C   UNL A   1      44.430  31.122  30.450  1.00  0.00     0.031 A 
BRANCH  46  60
ATOM     60  C   UNL A   1      38.703  29.247  29.103  1.00  0.00    -0.014 A 
ATOM     61  C   UNL A   1      37.845  29.139  30.209  1.00  0.00     0.009 A 
ATOM     62  C   UNL A   1      38.184  29.709  27.883  1.00  0.00     0.009 A 
ATOM     63  C   UNL A   1      36.489  29.448  30.086  1.00  0.00     0.001 A 
ATOM     64  C   UNL A   1      36.834  30.047  27.771  1.00  0.00     0.001 A 
ATOM     65  C   UNL A   1      35.987  29.907  28.869  1.00  0.00     0.000 A 
ENDBRANCH  46  60
BRANCH  47  66
ATOM     66  C   UNL A   1      48.330  26.612  29.436  1.00  0.00    -0.014 A 
ATOM     67  C   UNL A   1      49.137  26.834  28.309  1.00  0.00     0.009 A 
ATOM     68  C   UNL A   1      48.904  26.025  30.575  1.00  0.00     0.009 A 
ATOM     69  C   UNL A   1      50.482  26.454  28.314  1.00  0.00     0.001 A 
ATOM     70  C   UNL A   1      50.255  25.672  30.587  1.00  0.00     0.001 A 
ATOM     71  C   UNL A   1      51.040  25.878  29.452  1.00  0.00     0.000 A 
ENDBRANCH  47  66
BRANCH  59  72
ATOM     72  C   UNL A   1      44.870  32.453  30.987  1.00  0.00    -0.014 A 
ATOM     73  C   UNL A   1      44.986  32.682  32.365  1.00  0.00     0.009 A 
ATOM     74  C   UNL A   1      45.244  33.468  30.092  1.00  0.00     0.009 A 
ATOM     75  C   UNL A   1      45.451  33.911  32.837  1.00  0.00     0.001 A 
ATOM     76  C   UNL A   1      45.732  34.685  30.565  1.00  0.00     0.001 A 
ATOM     77  C   UNL A   1      45.830  34.908  31.937  1.00  0.00     0.000 A 
ENDBRANCH  59  72
ENDBRANCH  33  34
ENDBRANCH  25  28
ENDBRANCH  23  24
ENDBRANCH  22  23
ENDBRANCH   1  22
TORSDOF 15
ENDMDL
MODEL 2
REMARK VINA RESULT:     -10.2      1.940      7.391
REMARK SMILES CC(C)N(CC1CC1)C(=O)N1CC[C@H](C(=O)NCCCNC(=O)c2ccc(-c3c4nc(c(-c5ccccc5)c5ccc([nH]5)c(-c5ccccc5)c5nc(c(-c6ccccc6)c6ccc3[nH]6)C=C5)C=C4)cc2)[C@H]1C
REMARK SMILES IDX 18 1 17 2 15 3 16 4 14 6 11 7 12 8 72 9 13 10 73 11 9 12
REMARK SMILES IDX 10 13 4 14 2 15 1 16 3 17 5 18 6 19 7 20 8 21 19 22 20 23
REMARK SMILES IDX 21 24 22 25 23 27 24 28 25 29 71 30 26 31 70 32 27 33 28 34
REMARK SMILES IDX 29 35 64 36 30 37 69 38 63 39 65 40 31 41 68 42 62 43 61 44
REMARK SMILES IDX 32 46 54 47 39 48 53 49 40 50 43 51 52 52 66 53 41 54 42 55
REMARK SMILES IDX 51 57 67 58 44 59 33 60 34 61 38 62 35 63 37 64 36 65 55 66
REMARK SMILES IDX 56 67 60 68 57 69 59 70 58 71 45 72 46 73 50 74 47 75 49 76
REMARK SMILES IDX 48 77
REMARK H PARENT 17 5 21 26 65 45 43 56
REMARK Flexibility Score: inf
ROOT
ATOM      1  C   UNL A   1      33.206  29.288  24.878  1.00  0.00     0.117 C 
ENDROOT
BRANCH   1   2
ATOM      2  N   UNL A   1      33.761  29.017  23.562  1.00  0.00    -0.356 N 
ATOM      3  C   UNL A   1      33.396  28.055  22.659  1.00  0.00     0.225 C 
ATOM      4  O   UNL A   1      34.061  27.928  21.635  1.00  0.00    -0.275 OA
ATOM      5  H   UNL A   1      34.499  29.605  23.282  1.00  0.00     0.163 HD
BRANCH   3   6
ATOM      6  C   UNL A   1      32.215  27.171  23.016  1.00  0.00     0.102 C 
ATOM      7  N   UNL A   1      32.937  24.898  23.223  1.00  0.00    -0.321 N 
ATOM      8  C   UNL A   1      32.599  25.154  21.827  1.00  0.00     0.122 C 
ATOM      9  C   UNL A   1      32.536  26.060  24.048  1.00  0.00     0.096 C 
ATOM     10  C   UNL A   1      31.707  26.372  21.815  1.00  0.00     0.037 C 
ATOM     11  C   UNL A   1      31.237  25.868  24.852  1.00  0.00     0.032 C 
BRANCH   7  12
ATOM     12  C   UNL A   1      33.967  23.984  23.394  1.00  0.00     0.320 C 
ATOM     13  O   UNL A   1      34.684  23.730  22.417  1.00  0.00    -0.248 OA
BRANCH  12  14
ATOM     14  N   UNL A   1      34.147  23.279  24.572  1.00  0.00    -0.322 N 
BRANCH  14  15
ATOM     15  C   UNL A   1      33.275  22.097  24.814  1.00  0.00     0.080 C 
ATOM     16  C   UNL A   1      32.065  22.421  25.708  1.00  0.00     0.031 C 
ATOM     17  C   UNL A   1      32.851  21.371  23.538  1.00  0.00     0.031 C 
ENDBRANCH  14  15
BRANCH  14  18
ATOM     18  C   UNL A   1      34.912  23.717  25.727  1.00  0.00     0.125 C 
BRANCH  18  19
ATOM     19  C   UNL A   1      36.206  22.983  25.940  1.00  0.00     0.009 C 
ATOM     20  C   UNL A   1      37.060  22.586  24.758  1.00  0.00     0.006 C 
ATOM     21  C   UNL A   1      37.577  23.593  25.739  1.00  0.00     0.006 C 
ENDBRANCH  18  19
ENDBRANCH  14  18
ENDBRANCH  12  14
ENDBRANCH   7  12
ENDBRANCH   3   6
ENDBRANCH   1   2
BRANCH   1  22
ATOM     22  C   UNL A   1      34.016  28.637  25.986  1.00  0.00     0.042 C 
BRANCH  22  23
ATOM     23  C   UNL A   1      33.467  28.918  27.375  1.00  0.00     0.118 C 
BRANCH  23  24
ATOM     24  N   UNL A   1      33.601  30.320  27.756  1.00  0.00    -0.352 N 
ATOM     25  C   UNL A   1      34.645  30.968  28.368  1.00  0.00     0.251 C 
ATOM     26  H   UNL A   1      32.825  30.887  27.542  1.00  0.00     0.163 HD
ATOM     27  O   UNL A   1      34.503  32.110  28.792  1.00  0.00    -0.269 OA
BRANCH  25  28
ATOM     28  C   UNL A   1      35.937  30.272  28.532  1.00  0.00     0.039 A 
ATOM     29  C   UNL A   1      36.861  30.284  27.485  1.00  0.00     0.014 A 
ATOM     30  C   UNL A   1      36.239  29.630  29.734  1.00  0.00     0.014 A 
ATOM     31  C   UNL A   1      38.126  29.723  27.677  1.00  0.00     0.010 A 
ATOM     32  C   UNL A   1      37.525  29.159  29.956  1.00  0.00     0.010 A 
ATOM     33  C   UNL A   1      38.481  29.198  28.930  1.00  0.00    -0.014 A 
BRANCH  33  34
ATOM     34  C   UNL A   1      39.835  28.659  29.209  1.00  0.00     0.031 A 
ATOM     35  C   UNL A   1      40.878  29.562  29.805  1.00  0.00     0.074 A 
ATOM     36  C   UNL A   1      40.158  27.409  28.826  1.00  0.00     0.049 A 
ATOM     37  N   UNL A   1      42.162  29.359  29.953  1.00  0.00    -0.248 NA
ATOM     38  C   UNL A   1      40.423  30.888  30.259  1.00  0.00     0.031 C 
ATOM     39  C   UNL A   1      39.245  26.441  28.214  1.00  0.00     0.029 A 
ATOM     40  N   UNL A   1      41.358  26.745  28.878  1.00  0.00    -0.354 N 
ATOM     41  C   UNL A   1      42.670  30.539  30.480  1.00  0.00     0.074 A 
ATOM     42  C   UNL A   1      41.567  31.468  30.585  1.00  0.00     0.031 C 
ATOM     43  C   UNL A   1      39.914  25.304  27.963  1.00  0.00     0.029 A 
ATOM     44  C   UNL A   1      41.311  25.479  28.347  1.00  0.00     0.049 A 
ATOM     45  H   UNL A   1      42.176  27.139  29.260  1.00  0.00     0.167 HD
ATOM     46  C   UNL A   1      43.938  30.821  30.858  1.00  0.00     0.031 A 
ATOM     47  C   UNL A   1      42.288  24.569  28.170  1.00  0.00     0.031 A 
ATOM     48  C   UNL A   1      45.027  29.886  30.781  1.00  0.00     0.049 A 
ATOM     49  C   UNL A   1      43.691  24.908  28.590  1.00  0.00     0.074 A 
ATOM     50  C   UNL A   1      46.338  30.054  31.191  1.00  0.00     0.029 A 
ATOM     51  N   UNL A   1      44.928  28.604  30.264  1.00  0.00    -0.354 N 
ATOM     52  N   UNL A   1      44.148  26.013  29.126  1.00  0.00    -0.248 NA
ATOM     53  C   UNL A   1      44.714  23.872  28.383  1.00  0.00     0.031 C 
ATOM     54  C   UNL A   1      47.042  28.886  30.885  1.00  0.00     0.029 A 
ATOM     55  C   UNL A   1      46.158  27.974  30.332  1.00  0.00     0.049 A 
ATOM     56  H   UNL A   1      44.105  28.202  29.903  1.00  0.00     0.167 HD
ATOM     57  C   UNL A   1      45.500  25.792  29.355  1.00  0.00     0.074 A 
ATOM     58  C   UNL A   1      45.790  24.448  28.901  1.00  0.00     0.031 C 
ATOM     59  C   UNL A   1      46.419  26.629  29.893  1.00  0.00     0.031 A 
BRANCH  46  60
ATOM     60  C   UNL A   1      44.213  32.200  31.387  1.00  0.00    -0.014 A 
ATOM     61  C   UNL A   1      44.113  32.487  32.758  1.00  0.00     0.009 A 
ATOM     62  C   UNL A   1      44.606  33.219  30.507  1.00  0.00     0.009 A 
ATOM     63  C   UNL A   1      44.360  33.777  33.231  1.00  0.00     0.001 A 
ATOM     64  C   UNL A   1      44.883  34.501  30.986  1.00  0.00     0.001 A 
ATOM     65  C   UNL A   1      44.749  34.781  32.345  1.00  0.00     0.000 A 
ENDBRANCH  46  60
BRANCH  47  66
ATOM     66  C   UNL A   1      41.975  23.244  27.575  1.00  0.00    -0.014 A 
ATOM     67  C   UNL A   1      41.523  22.192  28.386  1.00  0.00     0.009 A 
ATOM     68  C   UNL A   1      42.137  23.018  26.199  1.00  0.00     0.009 A 
ATOM     69  C   UNL A   1      41.264  20.934  27.837  1.00  0.00     0.001 A 
ATOM     70  C   UNL A   1      41.851  21.766  25.648  1.00  0.00     0.001 A 
ATOM     71  C   UNL A   1      41.424  20.723  26.470  1.00  0.00     0.000 A 
ENDBRANCH  47  66
BRANCH  59  72
ATOM     72  C   UNL A   1      47.812  26.101  30.079  1.00  0.00    -0.014 A 
ATOM     73  C   UNL A   1      48.687  25.950  28.993  1.00  0.00     0.009 A 
ATOM     74  C   UNL A   1      48.276  25.821  31.374  1.00  0.00     0.009 A 
ATOM     75  C   UNL A   1      49.996  25.510  29.201  1.00  0.00     0.001 A 
ATOM     76  C   UNL A   1      49.591  25.406  31.581  1.00  0.00     0.001 A 
ATOM     77  C   UNL A   1      50.448  25.246  30.494  1.00  0.00     0.000 A 
ENDBRANCH  59  72
ENDBRANCH  33  34
ENDBRANCH  25  28
ENDBRANCH  23  24
ENDBRANCH  22  23
ENDBRANCH   1  22
TORSDOF 15
ENDMDL
MODEL 3
REMARK VINA RESULT:     -10.1      1.351      6.201
REMARK SMILES CC(C)N(CC1CC1)C(=O)N1CC[C@H](C(=O)NCCCNC(=O)c2ccc(-c3c4nc(c(-c5ccccc5)c5ccc([nH]5)c(-c5ccccc5)c5nc(c(-c6ccccc6)c6ccc3[nH]6)C=C5)C=C4)cc2)[C@H]1C
REMARK SMILES IDX 18 1 17 2 15 3 16 4 14 6 11 7 12 8 72 9 13 10 73 11 9 12
REMARK SMILES IDX 10 13 4 14 2 15 1 16 3 17 5 18 6 19 7 20 8 21 19 22 20 23
REMARK SMILES IDX 21 24 22 25 23 27 24 28 25 29 71 30 26 31 70 32 27 33 28 34
REMARK SMILES IDX 29 35 64 36 30 37 69 38 63 39 65 40 31 41 68 42 62 43 61 44
REMARK SMILES IDX 32 46 54 47 39 48 53 49 40 50 43 51 52 52 66 53 41 54 42 55
REMARK SMILES IDX 51 57 67 58 44 59 33 60 34 61 38 62 35 63 37 64 36 65 55 66
REMARK SMILES IDX 56 67 60 68 57 69 59 70 58 71 45 72 46 73 50 74 47 75 49 76
REMARK SMILES IDX 48 77
REMARK H PARENT 17 5 21 26 65 45 43 56
REMARK Flexibility Score: inf
ROOT
ATOM      1  C   UNL A   1      36.772  20.734  25.025  1.00  0.00     0.117 C 
ENDROOT
BRANCH   1   2
ATOM      2  N   UNL A   1      36.969  21.837  24.099  1.00  0.00    -0.356 N 
ATOM      3  C   UNL A   1      36.028  22.603  23.464  1.00  0.00     0.225 C 
ATOM      4  O   UNL A   1      36.404  23.428  22.637  1.00  0.00    -0.275 OA
ATOM      5  H   UNL A   1      37.906  22.063  23.899  1.00  0.00     0.163 HD
BRANCH   3   6
ATOM      6  C   UNL A   1      34.570  22.339  23.796  1.00  0.00     0.102 C 
ATOM      7  N   UNL A   1      33.279  24.315  23.394  1.00  0.00    -0.321 N 
ATOM      8  C   UNL A   1      33.802  24.368  24.756  1.00  0.00     0.122 C 
ATOM      9  C   UNL A   1      33.564  22.985  22.810  1.00  0.00     0.096 C 
ATOM     10  C   UNL A   1      34.163  22.952  25.136  1.00  0.00     0.037 C 
ATOM     11  C   UNL A   1      32.363  22.022  22.772  1.00  0.00     0.032 C 
BRANCH   7  12
ATOM     12  C   UNL A   1      33.155  25.557  22.790  1.00  0.00     0.320 C 
ATOM     13  O   UNL A   1      33.871  25.798  21.809  1.00  0.00    -0.248 OA
BRANCH  12  14
ATOM     14  N   UNL A   1      32.348  26.556  23.304  1.00  0.00    -0.322 N 
BRANCH  14  15
ATOM     15  C   UNL A   1      30.912  26.562  22.909  1.00  0.00     0.080 C 
ATOM     16  C   UNL A   1      30.051  25.628  23.776  1.00  0.00     0.031 C 
ATOM     17  C   UNL A   1      30.304  27.960  22.815  1.00  0.00     0.031 C 
ENDBRANCH  14  15
BRANCH  14  18
ATOM     18  C   UNL A   1      32.797  27.762  23.979  1.00  0.00     0.125 C 
BRANCH  18  19
ATOM     19  C   UNL A   1      32.857  27.660  25.478  1.00  0.00     0.009 C 
ATOM     20  C   UNL A   1      33.762  28.579  26.267  1.00  0.00     0.006 C 
ATOM     21  C   UNL A   1      32.276  28.687  26.428  1.00  0.00     0.006 C 
ENDBRANCH  18  19
ENDBRANCH  14  18
ENDBRANCH  12  14
ENDBRANCH   7  12
ENDBRANCH   3   6
ENDBRANCH   1   2
BRANCH   1  22
ATOM     22  C   UNL A   1      37.950  19.776  25.034  1.00  0.00     0.042 C 
BRANCH  22  23
ATOM     23  C   UNL A   1      39.128  20.282  25.851  1.00  0.00     0.118 C 
BRANCH  23  24
ATOM     24  N   UNL A   1      40.244  19.341  25.864  1.00  0.00    -0.352 N 
ATOM     25  C   UNL A   1      41.581  19.566  26.078  1.00  0.00     0.251 C 
ATOM     26  H   UNL A   1      40.000  18.402  25.693  1.00  0.00     0.163 HD
ATOM     27  O   UNL A   1      42.403  18.684  25.854  1.00  0.00    -0.269 OA
BRANCH  25  28
ATOM     28  C   UNL A   1      42.028  20.889  26.560  1.00  0.00     0.039 A 
ATOM     29  C   UNL A   1      42.496  21.832  25.642  1.00  0.00     0.014 A 
ATOM     30  C   UNL A   1      41.959  21.199  27.920  1.00  0.00     0.014 A 
ATOM     31  C   UNL A   1      42.814  23.119  26.080  1.00  0.00     0.010 A 
ATOM     32  C   UNL A   1      42.183  22.503  28.337  1.00  0.00     0.010 A 
ATOM     33  C   UNL A   1      42.616  23.476  27.423  1.00  0.00    -0.014 A 
BRANCH  33  34
ATOM     34  C   UNL A   1      42.866  24.850  27.924  1.00  0.00     0.031 A 
ATOM     35  C   UNL A   1      44.244  25.224  28.391  1.00  0.00     0.074 A 
ATOM     36  C   UNL A   1      41.843  25.715  28.066  1.00  0.00     0.049 A 
ATOM     37  N   UNL A   1      44.639  26.292  29.035  1.00  0.00    -0.248 NA
ATOM     38  C   UNL A   1      45.316  24.247  28.133  1.00  0.00     0.031 C 
ATOM     39  C   UNL A   1      40.453  25.466  27.675  1.00  0.00     0.029 A 
ATOM     40  N   UNL A   1      41.814  26.978  28.602  1.00  0.00    -0.354 N 
ATOM     41  C   UNL A   1      45.990  26.099  29.290  1.00  0.00     0.074 A 
ATOM     42  C   UNL A   1      46.339  24.794  28.773  1.00  0.00     0.031 C 
ATOM     43  C   UNL A   1      39.713  26.547  27.970  1.00  0.00     0.029 A 
ATOM     44  C   UNL A   1      40.562  27.543  28.616  1.00  0.00     0.049 A 
ATOM     45  H   UNL A   1      42.616  27.436  28.945  1.00  0.00     0.167 HD
ATOM     46  C   UNL A   1      46.868  26.937  29.888  1.00  0.00     0.031 A 
ATOM     47  C   UNL A   1      40.141  28.722  29.112  1.00  0.00     0.031 A 
ATOM     48  C   UNL A   1      46.527  28.245  30.375  1.00  0.00     0.049 A 
ATOM     49  C   UNL A   1      41.133  29.634  29.780  1.00  0.00     0.074 A 
ATOM     50  C   UNL A   1      47.354  29.195  30.945  1.00  0.00     0.029 A 
ATOM     51  N   UNL A   1      45.252  28.789  30.341  1.00  0.00    -0.354 N 
ATOM     52  N   UNL A   1      42.417  29.454  29.976  1.00  0.00    -0.248 NA
ATOM     53  C   UNL A   1      40.619  30.912  30.293  1.00  0.00     0.031 C 
ATOM     54  C   UNL A   1      46.573  30.300  31.294  1.00  0.00     0.029 A 
ATOM     55  C   UNL A   1      45.269  30.058  30.894  1.00  0.00     0.049 A 
ATOM     56  H   UNL A   1      44.455  28.340  29.978  1.00  0.00     0.167 HD
ATOM     57  C   UNL A   1      42.869  30.610  30.600  1.00  0.00     0.074 A 
ATOM     58  C   UNL A   1      41.725  31.485  30.747  1.00  0.00     0.031 C 
ATOM     59  C   UNL A   1      44.122  30.919  31.012  1.00  0.00     0.031 A 
BRANCH  46  60
ATOM     60  C   UNL A   1      48.282  26.458  30.050  1.00  0.00    -0.014 A 
ATOM     61  C   UNL A   1      49.258  26.728  29.077  1.00  0.00     0.009 A 
ATOM     62  C   UNL A   1      48.652  25.752  31.205  1.00  0.00     0.009 A 
ATOM     63  C   UNL A   1      50.565  26.265  29.238  1.00  0.00     0.001 A 
ATOM     64  C   UNL A   1      49.968  25.317  31.378  1.00  0.00     0.001 A 
ATOM     65  C   UNL A   1      50.919  25.565  30.390  1.00  0.00     0.000 A 
ENDBRANCH  46  60
BRANCH  47  66
ATOM     66  C   UNL A   1      38.714  29.117  28.989  1.00  0.00    -0.014 A 
ATOM     67  C   UNL A   1      38.223  29.634  27.780  1.00  0.00     0.009 A 
ATOM     68  C   UNL A   1      37.837  28.992  30.078  1.00  0.00     0.009 A 
ATOM     69  C   UNL A   1      36.892  30.042  27.672  1.00  0.00     0.001 A 
ATOM     70  C   UNL A   1      36.499  29.375  29.959  1.00  0.00     0.001 A 
ATOM     71  C   UNL A   1      36.031  29.909  28.758  1.00  0.00     0.000 A 
ENDBRANCH  47  66
BRANCH  59  72
ATOM     72  C   UNL A   1      44.339  32.279  31.609  1.00  0.00    -0.014 A 
ATOM     73  C   UNL A   1      44.643  33.388  30.806  1.00  0.00     0.009 A 
ATOM     74  C   UNL A   1      44.162  32.462  32.989  1.00  0.00     0.009 A 
ATOM     75  C   UNL A   1      44.785  34.654  31.380  1.00  0.00     0.001 A 
ATOM     76  C   UNL A   1      44.279  33.731  33.556  1.00  0.00     0.001 A 
ATOM     77  C   UNL A   1      44.596  34.824  32.752  1.00  0.00     0.000 A 
ENDBRANCH  59  72
ENDBRANCH  33  34
ENDBRANCH  25  28
ENDBRANCH  23  24
ENDBRANCH  22  23
ENDBRANCH   1  22
TORSDOF 15
ENDMDL
