MODEL 1
REMARK VINA RESULT:     -12.3      0.000      0.000
REMARK SMILES O=C(NCCCNC(=O)[C@@H](Cc1ccc(O)cc1)Nc1c2ccccc2nc2ccccc12)c1ccc(-c2c3nc(c(-c4ccccc4)c4ccc([nH]4)c(-c4ccccc4)c4nc(c(-c5ccccc5)c5ccc2[nH]5)C=C4)C=C3)cc1
REMARK SMILES IDX 5 1 4 2 3 3 1 4 2 5 34 7 35 8 81 9 36 10 80 11 37 12 38 13
REMARK SMILES IDX 39 14 74 15 40 16 79 17 73 18 75 19 41 20 78 21 72 22 71 23
REMARK SMILES IDX 42 25 64 26 49 27 63 28 50 29 53 30 62 31 76 32 51 33 52 34
REMARK SMILES IDX 61 36 77 37 54 38 43 39 44 40 48 41 45 42 47 43 46 44 65 45
REMARK SMILES IDX 66 46 70 47 67 48 69 49 68 50 55 51 56 52 60 53 57 54 59 55
REMARK SMILES IDX 58 56 6 57 7 58 8 59 9 61 10 62 11 63 12 64 13 65 18 66
REMARK SMILES IDX 14 67 17 68 15 69 16 70 19 72 20 74 21 75 33 76 22 77 26 78
REMARK SMILES IDX 28 79 32 80 23 81 25 82 27 83 29 84 31 85 24 86 30 87
REMARK H PARENT 3 6 75 24 53 35 7 60 16 71 19 73
REMARK Flexibility Score: inf
ROOT
ATOM      1  C   UNL A   1      35.444  23.712  24.880  1.00  0.00     0.042 C 
ENDROOT
BRANCH   1   2
ATOM      2  C   UNL A   1      36.261  23.648  26.165  1.00  0.00     0.118 C 
BRANCH   2   3
ATOM      3  N   UNL A   1      37.370  22.718  26.065  1.00  0.00    -0.352 N 
ATOM      4  O   UNL A   1      39.414  21.885  25.858  1.00  0.00    -0.269 OA
ATOM      5  C   UNL A   1      38.728  22.846  26.215  1.00  0.00     0.251 C 
ATOM      6  H   UNL A   1      37.089  21.800  25.843  1.00  0.00     0.163 HD
BRANCH   5   7
ATOM      7  C   UNL A   1      39.426  24.047  26.768  1.00  0.00     0.039 A 
ATOM      8  C   UNL A   1      40.081  25.010  25.999  1.00  0.00     0.014 A 
ATOM      9  C   UNL A   1      39.271  24.300  28.143  1.00  0.00     0.014 A 
ATOM     10  C   UNL A   1      40.602  26.171  26.592  1.00  0.00     0.010 A 
ATOM     11  C   UNL A   1      39.727  25.492  28.725  1.00  0.00     0.010 A 
ATOM     12  C   UNL A   1      40.393  26.449  27.952  1.00  0.00    -0.014 A 
BRANCH  12  13
ATOM     13  C   UNL A   1      40.763  27.780  28.513  1.00  0.00     0.031 A 
ATOM     14  C   UNL A   1      39.745  28.872  28.702  1.00  0.00     0.074 A 
ATOM     15  C   UNL A   1      42.050  28.020  28.845  1.00  0.00     0.049 A 
ATOM     16  N   UNL A   1      39.914  30.077  29.193  1.00  0.00    -0.248 NA
ATOM     17  C   UNL A   1      38.368  28.585  28.277  1.00  0.00     0.031 C 
ATOM     18  C   UNL A   1      43.155  27.073  28.682  1.00  0.00     0.029 A 
ATOM     19  N   UNL A   1      42.645  29.127  29.399  1.00  0.00    -0.354 N 
ATOM     20  C   UNL A   1      38.673  30.696  29.122  1.00  0.00     0.074 A 
ATOM     21  C   UNL A   1      37.765  29.742  28.518  1.00  0.00     0.031 C 
ATOM     22  C   UNL A   1      44.278  27.618  29.172  1.00  0.00     0.029 A 
ATOM     23  C   UNL A   1      43.988  28.969  29.640  1.00  0.00     0.049 A 
ATOM     24  H   UNL A   1      42.155  29.956  29.604  1.00  0.00     0.167 HD
ATOM     25  C   UNL A   1      38.316  31.939  29.530  1.00  0.00     0.031 A 
ATOM     26  C   UNL A   1      44.894  29.808  30.175  1.00  0.00     0.031 A 
ATOM     27  C   UNL A   1      39.203  32.895  30.140  1.00  0.00     0.049 A 
ATOM     28  C   UNL A   1      44.473  31.181  30.612  1.00  0.00     0.074 A 
ATOM     29  C   UNL A   1      38.906  34.159  30.627  1.00  0.00     0.029 A 
ATOM     30  N   UNL A   1      40.558  32.700  30.346  1.00  0.00    -0.354 N 
ATOM     31  N   UNL A   1      43.283  31.726  30.582  1.00  0.00    -0.248 NA
ATOM     32  C   UNL A   1      45.525  32.053  31.158  1.00  0.00     0.031 C 
ATOM     33  C   UNL A   1      40.090  34.742  31.092  1.00  0.00     0.029 A 
ATOM     34  C   UNL A   1      41.115  33.826  30.934  1.00  0.00     0.049 A 
ATOM     35  H   UNL A   1      41.054  31.882  30.112  1.00  0.00     0.167 HD
ATOM     36  C   UNL A   1      43.438  32.998  31.116  1.00  0.00     0.074 A 
ATOM     37  C   UNL A   1      44.833  33.138  31.479  1.00  0.00     0.031 C 
ATOM     38  C   UNL A   1      42.503  33.963  31.286  1.00  0.00     0.031 A 
BRANCH  25  39
ATOM     39  C   UNL A   1      36.885  32.350  29.320  1.00  0.00    -0.014 A 
ATOM     40  C   UNL A   1      35.915  32.119  30.308  1.00  0.00     0.009 A 
ATOM     41  C   UNL A   1      36.518  33.030  28.149  1.00  0.00     0.009 A 
ATOM     42  C   UNL A   1      34.596  32.536  30.112  1.00  0.00     0.001 A 
ATOM     43  C   UNL A   1      35.204  33.464  27.966  1.00  0.00     0.001 A 
ATOM     44  C   UNL A   1      34.243  33.212  28.944  1.00  0.00     0.000 A 
ENDBRANCH  25  39
BRANCH  26  45
ATOM     45  C   UNL A   1      46.303  29.369  30.339  1.00  0.00    -0.014 A 
ATOM     46  C   UNL A   1      46.714  28.735  31.521  1.00  0.00     0.009 A 
ATOM     47  C   UNL A   1      47.240  29.580  29.317  1.00  0.00     0.009 A 
ATOM     48  C   UNL A   1      48.041  28.333  31.682  1.00  0.00     0.001 A 
ATOM     49  C   UNL A   1      48.561  29.156  29.471  1.00  0.00     0.001 A 
ATOM     50  C   UNL A   1      48.962  28.540  30.656  1.00  0.00     0.000 A 
ENDBRANCH  26  45
BRANCH  38  51
ATOM     51  C   UNL A   1      42.957  35.251  31.911  1.00  0.00    -0.014 A 
ATOM     52  C   UNL A   1      42.788  35.489  33.284  1.00  0.00     0.009 A 
ATOM     53  C   UNL A   1      43.581  36.228  31.121  1.00  0.00     0.009 A 
ATOM     54  C   UNL A   1      43.210  36.694  33.848  1.00  0.00     0.001 A 
ATOM     55  C   UNL A   1      44.021  37.423  31.692  1.00  0.00     0.001 A 
ATOM     56  C   UNL A   1      43.828  37.659  33.053  1.00  0.00     0.000 A 
ENDBRANCH  38  51
ENDBRANCH  12  13
ENDBRANCH   5   7
ENDBRANCH   2   3
ENDBRANCH   1   2
BRANCH   1  57
ATOM     57  C   UNL A   1      34.392  24.820  24.869  1.00  0.00     0.117 C 
BRANCH  57  58
ATOM     58  N   UNL A   1      34.343  25.485  23.578  1.00  0.00    -0.354 N 
ATOM     59  C   UNL A   1      33.318  25.866  22.770  1.00  0.00     0.242 C 
ATOM     60  H   UNL A   1      35.232  25.703  23.216  1.00  0.00     0.163 HD
ATOM     61  O   UNL A   1      33.647  26.207  21.625  1.00  0.00    -0.273 OA
BRANCH  59  62
ATOM     62  C   UNL A   1      31.822  25.881  23.172  1.00  0.00     0.173 C 
BRANCH  62  63
ATOM     63  C   UNL A   1      31.081  24.551  22.883  1.00  0.00     0.070 C 
BRANCH  63  64
ATOM     64  C   UNL A   1      31.447  23.267  23.596  1.00  0.00    -0.045 A 
ATOM     65  C   UNL A   1      32.180  22.247  22.971  1.00  0.00     0.007 A 
ATOM     66  C   UNL A   1      31.128  23.115  24.957  1.00  0.00     0.007 A 
ATOM     67  C   UNL A   1      32.480  21.061  23.649  1.00  0.00     0.046 A 
ATOM     68  C   UNL A   1      31.436  21.936  25.640  1.00  0.00     0.046 A 
ATOM     69  C   UNL A   1      32.088  20.908  24.974  1.00  0.00     0.115 A 
BRANCH  69  70
ATOM     70  O   UNL A   1      32.323  19.754  25.661  1.00  0.00    -0.508 OA
ATOM     71  H   UNL A   1      31.939  18.950  25.370  1.00  0.00     0.293 HD
ENDBRANCH  69  70
ENDBRANCH  63  64
ENDBRANCH  62  63
BRANCH  62  72
ATOM     72  N   UNL A   1      31.577  26.436  24.518  1.00  0.00    -0.372 N 
ATOM     73  H   UNL A   1      31.495  25.825  25.287  1.00  0.00     0.161 HD
BRANCH  72  74
ATOM     74  C   UNL A   1      31.459  27.829  24.725  1.00  0.00     0.054 A 
ATOM     75  C   UNL A   1      30.436  28.599  24.091  1.00  0.00     0.024 A 
ATOM     76  C   UNL A   1      32.398  28.498  25.570  1.00  0.00     0.024 A 
ATOM     77  C   UNL A   1      29.408  28.072  23.268  1.00  0.00     0.012 A 
ATOM     78  C   UNL A   1      30.416  29.987  24.337  1.00  0.00     0.073 A 
ATOM     79  C   UNL A   1      32.232  29.885  25.756  1.00  0.00     0.073 A 
ATOM     80  C   UNL A   1      33.485  27.870  26.232  1.00  0.00     0.012 A 
ATOM     81  C   UNL A   1      28.451  28.885  22.658  1.00  0.00     0.001 A 
ATOM     82  C   UNL A   1      29.450  30.781  23.730  1.00  0.00     0.029 A 
ATOM     83  N   UNL A   1      31.278  30.600  25.151  1.00  0.00    -0.248 NA
ATOM     84  C   UNL A   1      33.089  30.573  26.603  1.00  0.00     0.029 A 
ATOM     85  C   UNL A   1      34.344  28.583  27.072  1.00  0.00     0.001 A 
ATOM     86  C   UNL A   1      28.478  30.250  22.885  1.00  0.00     0.002 A 
ATOM     87  C   UNL A   1      34.138  29.938  27.267  1.00  0.00     0.002 A 
ENDBRANCH  72  74
ENDBRANCH  62  72
ENDBRANCH  59  62
ENDBRANCH  57  58
ENDBRANCH   1  57
TORSDOF 15
ENDMDL
MODEL 2
REMARK VINA RESULT:     -12.3      2.373      7.956
REMARK SMILES O=C(NCCCNC(=O)[C@@H](Cc1ccc(O)cc1)Nc1c2ccccc2nc2ccccc12)c1ccc(-c2c3nc(c(-c4ccccc4)c4ccc([nH]4)c(-c4ccccc4)c4nc(c(-c5ccccc5)c5ccc2[nH]5)C=C4)C=C3)cc1
REMARK SMILES IDX 5 1 4 2 3 3 1 4 2 5 34 7 35 8 81 9 36 10 80 11 37 12 38 13
REMARK SMILES IDX 39 14 74 15 40 16 79 17 73 18 75 19 41 20 78 21 72 22 71 23
REMARK SMILES IDX 42 25 64 26 49 27 63 28 50 29 53 30 62 31 76 32 51 33 52 34
REMARK SMILES IDX 61 36 77 37 54 38 43 39 44 40 48 41 45 42 47 43 46 44 65 45
REMARK SMILES IDX 66 46 70 47 67 48 69 49 68 50 55 51 56 52 60 53 57 54 59 55
REMARK SMILES IDX 58 56 6 57 7 58 8 59 9 61 10 62 11 63 12 64 13 65 18 66
REMARK SMILES IDX 14 67 17 68 15 69 16 70 19 72 20 74 21 75 33 76 22 77 26 78
REMARK SMILES IDX 28 79 32 80 23 81 25 82 27 83 29 84 31 85 24 86 30 87
REMARK H PARENT 3 6 75 24 53 35 7 60 16 71 19 73
REMARK Flexibility Score: inf
ROOT
ATOM      1  C   UNL A   1      33.629  27.603  25.396  1.00  0.00     0.042 C 
ENDROOT
BRANCH   1   2
ATOM      2  C   UNL A   1      33.781  27.934  26.875  1.00  0.00     0.118 C 
BRANCH   2   3
ATOM      3  N   UNL A   1      33.608  29.350  27.141  1.00  0.00    -0.352 N 
ATOM      4  O   UNL A   1      33.819  31.373  28.022  1.00  0.00    -0.269 OA
ATOM      5  C   UNL A   1      34.361  30.287  27.804  1.00  0.00     0.251 C 
ATOM      6  H   UNL A   1      32.773  29.717  26.768  1.00  0.00     0.163 HD
BRANCH   5   7
ATOM      7  C   UNL A   1      35.766  30.090  28.274  1.00  0.00     0.039 A 
ATOM      8  C   UNL A   1      36.123  29.620  29.538  1.00  0.00     0.014 A 
ATOM      9  C   UNL A   1      36.788  30.239  27.317  1.00  0.00     0.014 A 
ATOM     10  C   UNL A   1      37.463  29.346  29.852  1.00  0.00     0.010 A 
ATOM     11  C   UNL A   1      38.117  29.897  27.606  1.00  0.00     0.010 A 
ATOM     12  C   UNL A   1      38.471  29.437  28.879  1.00  0.00    -0.014 A 
BRANCH  12  13
ATOM     13  C   UNL A   1      39.846  28.938  29.169  1.00  0.00     0.031 A 
ATOM     14  C   UNL A   1      40.301  27.570  28.735  1.00  0.00     0.074 A 
ATOM     15  C   UNL A   1      40.701  29.725  29.856  1.00  0.00     0.049 A 
ATOM     16  N   UNL A   1      41.472  27.003  28.902  1.00  0.00    -0.248 NA
ATOM     17  C   UNL A   1      39.320  26.728  28.038  1.00  0.00     0.031 C 
ATOM     18  C   UNL A   1      40.389  31.058  30.377  1.00  0.00     0.029 A 
ATOM     19  N   UNL A   1      42.009  29.526  30.225  1.00  0.00    -0.354 N 
ATOM     20  C   UNL A   1      41.365  25.735  28.347  1.00  0.00     0.074 A 
ATOM     21  C   UNL A   1      40.006  25.606  27.859  1.00  0.00     0.031 C 
ATOM     22  C   UNL A   1      41.487  31.576  30.948  1.00  0.00     0.029 A 
ATOM     23  C   UNL A   1      42.567  30.597  30.880  1.00  0.00     0.049 A 
ATOM     24  H   UNL A   1      42.501  28.694  30.037  1.00  0.00     0.167 HD
ATOM     25  C   UNL A   1      42.310  24.768  28.241  1.00  0.00     0.031 A 
ATOM     26  C   UNL A   1      43.804  30.782  31.376  1.00  0.00     0.031 A 
ATOM     27  C   UNL A   1      43.666  24.884  28.712  1.00  0.00     0.049 A 
ATOM     28  C   UNL A   1      44.828  29.692  31.252  1.00  0.00     0.074 A 
ATOM     29  C   UNL A   1      44.699  23.965  28.598  1.00  0.00     0.029 A 
ATOM     30  N   UNL A   1      44.181  25.977  29.387  1.00  0.00    -0.354 N 
ATOM     31  N   UNL A   1      44.719  28.521  30.678  1.00  0.00    -0.248 NA
ATOM     32  C   UNL A   1      46.149  29.954  31.846  1.00  0.00     0.031 C 
ATOM     33  C   UNL A   1      45.827  24.489  29.238  1.00  0.00     0.029 A 
ATOM     34  C   UNL A   1      45.509  25.750  29.714  1.00  0.00     0.049 A 
ATOM     35  H   UNL A   1      43.678  26.796  29.602  1.00  0.00     0.167 HD
ATOM     36  C   UNL A   1      45.957  27.911  30.828  1.00  0.00     0.074 A 
ATOM     37  C   UNL A   1      46.808  28.848  31.531  1.00  0.00     0.031 C 
ATOM     38  C   UNL A   1      46.348  26.680  30.419  1.00  0.00     0.031 A 
BRANCH  25  39
ATOM     39  C   UNL A   1      41.905  23.475  27.590  1.00  0.00    -0.014 A 
ATOM     40  C   UNL A   1      42.222  23.212  26.248  1.00  0.00     0.009 A 
ATOM     41  C   UNL A   1      41.254  22.487  28.343  1.00  0.00     0.009 A 
ATOM     42  C   UNL A   1      41.868  21.993  25.666  1.00  0.00     0.001 A 
ATOM     43  C   UNL A   1      40.921  21.260  27.764  1.00  0.00     0.001 A 
ATOM     44  C   UNL A   1      41.222  21.017  26.426  1.00  0.00     0.000 A 
ENDBRANCH  25  39
BRANCH  26  45
ATOM     45  C   UNL A   1      44.152  32.067  32.036  1.00  0.00    -0.014 A 
ATOM     46  C   UNL A   1      44.682  33.127  31.285  1.00  0.00     0.009 A 
ATOM     47  C   UNL A   1      43.956  32.237  33.414  1.00  0.00     0.009 A 
ATOM     48  C   UNL A   1      45.022  34.330  31.906  1.00  0.00     0.001 A 
ATOM     49  C   UNL A   1      44.275  33.449  34.028  1.00  0.00     0.001 A 
ATOM     50  C   UNL A   1      44.814  34.491  33.275  1.00  0.00     0.000 A 
ENDBRANCH  26  45
BRANCH  38  51
ATOM     51  C   UNL A   1      47.769  26.285  30.707  1.00  0.00    -0.014 A 
ATOM     52  C   UNL A   1      48.124  25.699  31.932  1.00  0.00     0.009 A 
ATOM     53  C   UNL A   1      48.759  26.482  29.733  1.00  0.00     0.009 A 
ATOM     54  C   UNL A   1      49.449  25.343  32.185  1.00  0.00     0.001 A 
ATOM     55  C   UNL A   1      50.080  26.107  29.982  1.00  0.00     0.001 A 
ATOM     56  C   UNL A   1      50.426  25.545  31.210  1.00  0.00     0.000 A 
ENDBRANCH  38  51
ENDBRANCH  12  13
ENDBRANCH   5   7
ENDBRANCH   2   3
ENDBRANCH   1   2
BRANCH   1  57
ATOM     57  C   UNL A   1      33.707  26.108  25.084  1.00  0.00     0.117 C 
BRANCH  57  58
ATOM     58  N   UNL A   1      33.123  25.318  26.153  1.00  0.00    -0.354 N 
ATOM     59  C   UNL A   1      32.348  24.200  26.162  1.00  0.00     0.242 C 
ATOM     60  H   UNL A   1      33.330  25.660  27.053  1.00  0.00     0.163 HD
ATOM     61  O   UNL A   1      31.835  23.922  27.256  1.00  0.00    -0.273 OA
BRANCH  59  62
ATOM     62  C   UNL A   1      32.063  23.301  24.934  1.00  0.00     0.173 C 
BRANCH  62  63
ATOM     63  C   UNL A   1      30.805  23.716  24.130  1.00  0.00     0.070 C 
BRANCH  63  64
ATOM     64  C   UNL A   1      30.656  25.106  23.550  1.00  0.00    -0.045 A 
ATOM     65  C   UNL A   1      29.816  26.070  24.127  1.00  0.00     0.007 A 
ATOM     66  C   UNL A   1      31.447  25.487  22.452  1.00  0.00     0.007 A 
ATOM     67  C   UNL A   1      29.681  27.338  23.552  1.00  0.00     0.046 A 
ATOM     68  C   UNL A   1      31.322  26.757  21.883  1.00  0.00     0.046 A 
ATOM     69  C   UNL A   1      30.421  27.664  22.422  1.00  0.00     0.115 A 
BRANCH  69  70
ATOM     70  O   UNL A   1      30.291  28.873  21.805  1.00  0.00    -0.508 OA
ATOM     71  H   UNL A   1      29.537  29.050  21.278  1.00  0.00     0.293 HD
ENDBRANCH  69  70
ENDBRANCH  63  64
ENDBRANCH  62  63
BRANCH  62  72
ATOM     72  N   UNL A   1      33.257  23.036  24.106  1.00  0.00    -0.372 N 
ATOM     73  H   UNL A   1      33.434  23.599  23.317  1.00  0.00     0.161 HD
BRANCH  72  74
ATOM     74  C   UNL A   1      34.151  21.988  24.424  1.00  0.00     0.054 A 
ATOM     75  C   UNL A   1      33.779  20.615  24.290  1.00  0.00     0.024 A 
ATOM     76  C   UNL A   1      35.455  22.302  24.917  1.00  0.00     0.024 A 
ATOM     77  C   UNL A   1      32.544  20.150  23.770  1.00  0.00     0.012 A 
ATOM     78  C   UNL A   1      34.730  19.642  24.659  1.00  0.00     0.073 A 
ATOM     79  C   UNL A   1      36.316  21.224  25.209  1.00  0.00     0.073 A 
ATOM     80  C   UNL A   1      35.947  23.615  25.138  1.00  0.00     0.012 A 
ATOM     81  C   UNL A   1      32.234  18.792  23.689  1.00  0.00     0.001 A 
ATOM     82  C   UNL A   1      34.409  18.293  24.562  1.00  0.00     0.029 A 
ATOM     83  N   UNL A   1      35.957  19.943  25.090  1.00  0.00    -0.248 NA
ATOM     84  C   UNL A   1      37.609  21.476  25.647  1.00  0.00     0.029 A 
ATOM     85  C   UNL A   1      37.247  23.847  25.590  1.00  0.00     0.001 A 
ATOM     86  C   UNL A   1      33.170  17.858  24.095  1.00  0.00     0.002 A 
ATOM     87  C   UNL A   1      38.086  22.772  25.835  1.00  0.00     0.002 A 
ENDBRANCH  72  74
ENDBRANCH  62  72
ENDBRANCH  59  62
ENDBRANCH  57  58
ENDBRANCH   1  57
TORSDOF 15
ENDMDL
MODEL 3
REMARK VINA RESULT:     -12.3      2.374      8.082
REMARK SMILES O=C(NCCCNC(=O)[C@@H](Cc1ccc(O)cc1)Nc1c2ccccc2nc2ccccc12)c1ccc(-c2c3nc(c(-c4ccccc4)c4ccc([nH]4)c(-c4ccccc4)c4nc(c(-c5ccccc5)c5ccc2[nH]5)C=C4)C=C3)cc1
REMARK SMILES IDX 5 1 4 2 3 3 1 4 2 5 34 7 35 8 81 9 36 10 80 11 37 12 38 13
REMARK SMILES IDX 39 14 74 15 40 16 79 17 73 18 75 19 41 20 78 21 72 22 71 23
REMARK SMILES IDX 42 25 64 26 49 27 63 28 50 29 53 30 62 31 76 32 51 33 52 34
REMARK SMILES IDX 61 36 77 37 54 38 43 39 44 40 48 41 45 42 47 43 46 44 65 45
REMARK SMILES IDX 66 46 70 47 67 48 69 49 68 50 55 51 56 52 60 53 57 54 59 55
REMARK SMILES IDX 58 56 6 57 7 58 8 59 9 61 10 62 11 63 12 64 13 65 18 66
REMARK SMILES IDX 14 67 17 68 15 69 16 70 19 72 20 74 21 75 33 76 22 77 26 78
REMARK SMILES IDX 28 79 32 80 23 81 25 82 27 83 29 84 31 85 24 86 30 87
REMARK H PARENT 3 6 75 24 53 35 7 60 16 71 19 73
REMARK Flexibility Score: inf
ROOT
ATOM      1  C   UNL A   1      33.447  27.560  25.509  1.00  0.00     0.042 C 
ENDROOT
BRANCH   1   2
ATOM      2  C   UNL A   1      33.693  27.990  26.949  1.00  0.00     0.118 C 
BRANCH   2   3
ATOM      3  N   UNL A   1      33.541  29.423  27.128  1.00  0.00    -0.352 N 
ATOM      4  O   UNL A   1      33.778  31.491  27.887  1.00  0.00    -0.269 OA
ATOM      5  C   UNL A   1      34.303  30.385  27.742  1.00  0.00     0.251 C 
ATOM      6  H   UNL A   1      32.717  29.780  26.723  1.00  0.00     0.163 HD
BRANCH   5   7
ATOM      7  C   UNL A   1      35.699  30.193  28.240  1.00  0.00     0.039 A 
ATOM      8  C   UNL A   1      36.032  29.688  29.497  1.00  0.00     0.014 A 
ATOM      9  C   UNL A   1      36.741  30.388  27.315  1.00  0.00     0.014 A 
ATOM     10  C   UNL A   1      37.369  29.423  29.835  1.00  0.00     0.010 A 
ATOM     11  C   UNL A   1      38.068  30.056  27.625  1.00  0.00     0.010 A 
ATOM     12  C   UNL A   1      38.398  29.561  28.891  1.00  0.00    -0.014 A 
BRANCH  12  13
ATOM     13  C   UNL A   1      39.773  29.072  29.199  1.00  0.00     0.031 A 
ATOM     14  C   UNL A   1      40.763  29.915  29.957  1.00  0.00     0.074 A 
ATOM     15  C   UNL A   1      40.148  27.848  28.771  1.00  0.00     0.049 A 
ATOM     16  N   UNL A   1      41.990  29.620  30.313  1.00  0.00    -0.248 NA
ATOM     17  C   UNL A   1      40.329  31.261  30.356  1.00  0.00     0.031 C 
ATOM     18  C   UNL A   1      39.311  26.933  27.990  1.00  0.00     0.029 A 
ATOM     19  N   UNL A   1      41.322  27.156  28.940  1.00  0.00    -0.354 N 
ATOM     20  C   UNL A   1      42.481  30.745  30.963  1.00  0.00     0.074 A 
ATOM     21  C   UNL A   1      41.427  31.738  30.930  1.00  0.00     0.031 C 
ATOM     22  C   UNL A   1      39.977  25.785  27.796  1.00  0.00     0.029 A 
ATOM     23  C   UNL A   1      41.304  25.896  28.392  1.00  0.00     0.049 A 
ATOM     24  H   UNL A   1      42.104  27.528  29.411  1.00  0.00     0.167 HD
ATOM     25  C   UNL A   1      43.692  30.934  31.543  1.00  0.00     0.031 A 
ATOM     26  C   UNL A   1      42.243  24.932  28.364  1.00  0.00     0.031 A 
ATOM     27  C   UNL A   1      44.746  29.954  31.592  1.00  0.00     0.049 A 
ATOM     28  C   UNL A   1      43.577  25.170  29.008  1.00  0.00     0.074 A 
ATOM     29  C   UNL A   1      45.986  30.053  32.205  1.00  0.00     0.029 A 
ATOM     30  N   UNL A   1      44.692  28.701  31.007  1.00  0.00    -0.354 N 
ATOM     31  N   UNL A   1      44.001  26.224  29.660  1.00  0.00    -0.248 NA
ATOM     32  C   UNL A   1      44.563  24.083  28.910  1.00  0.00     0.031 C 
ATOM     33  C   UNL A   1      46.696  28.872  31.957  1.00  0.00     0.029 A 
ATOM     34  C   UNL A   1      45.882  28.023  31.226  1.00  0.00     0.049 A 
ATOM     35  H   UNL A   1      43.922  28.342  30.509  1.00  0.00     0.167 HD
ATOM     36  C   UNL A   1      45.294  25.923  30.063  1.00  0.00     0.074 A 
ATOM     37  C   UNL A   1      45.581  24.582  29.598  1.00  0.00     0.031 C 
ATOM     38  C   UNL A   1      46.166  26.695  30.755  1.00  0.00     0.031 A 
BRANCH  25  39
ATOM     39  C   UNL A   1      43.954  32.272  32.174  1.00  0.00    -0.014 A 
ATOM     40  C   UNL A   1      43.643  32.509  33.523  1.00  0.00     0.009 A 
ATOM     41  C   UNL A   1      44.572  33.288  31.430  1.00  0.00     0.009 A 
ATOM     42  C   UNL A   1      43.922  33.747  34.104  1.00  0.00     0.001 A 
ATOM     43  C   UNL A   1      44.870  34.518  32.020  1.00  0.00     0.001 A 
ATOM     44  C   UNL A   1      44.539  34.749  33.354  1.00  0.00     0.000 A 
ENDBRANCH  25  39
BRANCH  26  45
ATOM     45  C   UNL A   1      41.950  23.633  27.706  1.00  0.00    -0.014 A 
ATOM     46  C   UNL A   1      42.276  23.434  26.357  1.00  0.00     0.009 A 
ATOM     47  C   UNL A   1      41.344  22.591  28.424  1.00  0.00     0.009 A 
ATOM     48  C   UNL A   1      41.988  22.218  25.733  1.00  0.00     0.001 A 
ATOM     49  C   UNL A   1      41.079  21.368  27.803  1.00  0.00     0.001 A 
ATOM     50  C   UNL A   1      41.395  21.186  26.458  1.00  0.00     0.000 A 
ENDBRANCH  26  45
BRANCH  38  51
ATOM     51  C   UNL A   1      47.508  26.097  31.068  1.00  0.00    -0.014 A 
ATOM     52  C   UNL A   1      48.527  26.062  30.104  1.00  0.00     0.009 A 
ATOM     53  C   UNL A   1      47.762  25.583  32.348  1.00  0.00     0.009 A 
ATOM     54  C   UNL A   1      49.766  25.497  30.409  1.00  0.00     0.001 A 
ATOM     55  C   UNL A   1      49.009  25.039  32.657  1.00  0.00     0.001 A 
ATOM     56  C   UNL A   1      50.008  24.988  31.685  1.00  0.00     0.000 A 
ENDBRANCH  38  51
ENDBRANCH  12  13
ENDBRANCH   5   7
ENDBRANCH   2   3
ENDBRANCH   1   2
BRANCH   1  57
ATOM     57  C   UNL A   1      33.700  26.074  25.253  1.00  0.00     0.117 C 
BRANCH  57  58
ATOM     58  N   UNL A   1      33.086  25.253  26.282  1.00  0.00    -0.354 N 
ATOM     59  C   UNL A   1      32.312  24.135  26.236  1.00  0.00     0.242 C 
ATOM     60  H   UNL A   1      33.266  25.569  27.197  1.00  0.00     0.163 HD
ATOM     61  O   UNL A   1      31.768  23.825  27.305  1.00  0.00    -0.273 OA
BRANCH  59  62
ATOM     62  C   UNL A   1      32.064  23.272  24.974  1.00  0.00     0.173 C 
BRANCH  62  63
ATOM     63  C   UNL A   1      30.812  23.690  24.163  1.00  0.00     0.070 C 
BRANCH  63  64
ATOM     64  C   UNL A   1      30.671  25.079  23.579  1.00  0.00    -0.045 A 
ATOM     65  C   UNL A   1      29.834  26.049  24.149  1.00  0.00     0.007 A 
ATOM     66  C   UNL A   1      31.469  25.454  22.483  1.00  0.00     0.007 A 
ATOM     67  C   UNL A   1      29.707  27.316  23.571  1.00  0.00     0.046 A 
ATOM     68  C   UNL A   1      31.351  26.722  21.910  1.00  0.00     0.046 A 
ATOM     69  C   UNL A   1      30.453  27.636  22.443  1.00  0.00     0.115 A 
BRANCH  69  70
ATOM     70  O   UNL A   1      30.330  28.843  21.822  1.00  0.00    -0.508 OA
ATOM     71  H   UNL A   1      29.617  28.996  21.234  1.00  0.00     0.293 HD
ENDBRANCH  69  70
ENDBRANCH  63  64
ENDBRANCH  62  63
BRANCH  62  72
ATOM     72  N   UNL A   1      33.276  23.056  24.158  1.00  0.00    -0.372 N 
ATOM     73  H   UNL A   1      33.441  23.631  23.375  1.00  0.00     0.161 HD
BRANCH  72  74
ATOM     74  C   UNL A   1      34.205  22.040  24.480  1.00  0.00     0.054 A 
ATOM     75  C   UNL A   1      35.518  22.345  24.953  1.00  0.00     0.024 A 
ATOM     76  C   UNL A   1      33.837  20.670  24.308  1.00  0.00     0.024 A 
ATOM     77  C   UNL A   1      36.009  23.649  25.219  1.00  0.00     0.012 A 
ATOM     78  C   UNL A   1      36.382  21.264  25.222  1.00  0.00     0.073 A 
ATOM     79  C   UNL A   1      34.792  19.692  24.655  1.00  0.00     0.073 A 
ATOM     80  C   UNL A   1      32.585  20.220  23.813  1.00  0.00     0.012 A 
ATOM     81  C   UNL A   1      37.313  23.879  25.657  1.00  0.00     0.001 A 
ATOM     82  C   UNL A   1      37.676  21.510  25.668  1.00  0.00     0.029 A 
ATOM     83  N   UNL A   1      36.022  19.986  25.087  1.00  0.00    -0.248 NA
ATOM     84  C   UNL A   1      34.468  18.347  24.550  1.00  0.00     0.029 A 
ATOM     85  C   UNL A   1      32.283  18.862  23.704  1.00  0.00     0.001 A 
ATOM     86  C   UNL A   1      38.154  22.802  25.875  1.00  0.00     0.002 A 
ATOM     87  C   UNL A   1      33.225  17.921  24.086  1.00  0.00     0.002 A 
ENDBRANCH  72  74
ENDBRANCH  62  72
ENDBRANCH  59  62
ENDBRANCH  57  58
ENDBRANCH   1  57
TORSDOF 15
ENDMDL
