MODEL 1
REMARK VINA RESULT:     -12.5      0.000      0.000
REMARK SMILES CCc1ccnc(C(=O)c2[nH]c3ccc(OC(F)(F)F)cc3c2CC(=O)NCCCNC(=O)c2ccc(-c3c4nc(c(-c5ccccc5)c5ccc([nH]5)c(-c5ccccc5)c5nc(c(-c6ccccc6)c6ccc3[nH]6)C=C5)C=C4)cc2)c1
REMARK SMILES IDX 28 1 27 2 25 3 26 4 24 6 23 7 10 8 11 9 12 10 22 12 13 13
REMARK SMILES IDX 21 14 14 15 15 16 8 17 9 18 7 19 3 20 4 21 82 22 5 23 6 24
REMARK SMILES IDX 2 25 1 26 16 27 17 28 18 29 19 30 20 31 29 32 30 33 31 34
REMARK SMILES IDX 32 35 33 37 34 38 35 39 81 40 36 41 80 42 37 43 38 44 39 45
REMARK SMILES IDX 74 46 40 47 79 48 73 49 75 50 41 51 78 52 72 53 71 54 42 56
REMARK SMILES IDX 64 57 49 58 63 59 50 60 53 61 62 62 76 63 51 64 52 65 61 67
REMARK SMILES IDX 77 68 54 69 43 70 44 71 48 72 45 73 47 74 46 75 65 76 66 77
REMARK SMILES IDX 70 78 67 79 69 80 68 81 55 82 56 83 60 84 57 85 59 86 58 87
REMARK H PARENT 27 5 11 11 31 36 75 55 53 66
REMARK Flexibility Score: inf
ROOT
ATOM      1  C   UNL A   1      31.738  27.069  26.420  1.00  0.00     0.117 C 
ENDROOT
BRANCH   1   2
ATOM      2  N   UNL A   1      31.085  25.844  26.844  1.00  0.00    -0.356 N 
ATOM      3  C   UNL A   1      31.470  24.546  26.673  1.00  0.00     0.224 C 
ATOM      4  O   UNL A   1      30.808  23.660  27.218  1.00  0.00    -0.275 OA
ATOM      5  H   UNL A   1      30.236  25.969  27.327  1.00  0.00     0.163 HD
BRANCH   3   6
ATOM      6  C   UNL A   1      32.731  24.207  25.898  1.00  0.00     0.138 C 
BRANCH   6   7
ATOM      7  C   UNL A   1      32.487  23.601  24.546  1.00  0.00    -0.002 A 
ATOM      8  C   UNL A   1      32.295  24.262  23.337  1.00  0.00     0.093 A 
ATOM      9  N   UNL A   1      32.158  23.308  22.357  1.00  0.00    -0.352 N 
ATOM     10  C   UNL A   1      32.183  22.047  22.900  1.00  0.00     0.046 A 
ATOM     11  H   UNL A   1      32.054  23.501  21.397  1.00  0.00     0.167 HD
ATOM     12  C   UNL A   1      32.381  22.194  24.269  1.00  0.00     0.008 A 
ATOM     13  C   UNL A   1      32.062  20.801  22.280  1.00  0.00     0.030 A 
ATOM     14  C   UNL A   1      32.463  21.027  25.057  1.00  0.00     0.057 A 
ATOM     15  C   UNL A   1      32.152  19.659  23.086  1.00  0.00     0.049 A 
ATOM     16  C   UNL A   1      32.354  19.761  24.461  1.00  0.00     0.130 A 
BRANCH   8  17
ATOM     17  C   UNL A   1      32.311  25.682  23.029  1.00  0.00     0.227 C 
ATOM     18  O   UNL A   1      33.337  26.218  22.623  1.00  0.00    -0.285 OA
BRANCH  17  19
ATOM     19  C   UNL A   1      31.007  26.442  23.116  1.00  0.00     0.113 A 
ATOM     20  C   UNL A   1      29.680  28.456  22.874  1.00  0.00    -0.044 A 
ATOM     21  C   UNL A   1      28.611  27.749  23.429  1.00  0.00     0.024 A 
ATOM     22  C   UNL A   1      30.892  27.771  22.697  1.00  0.00     0.036 A 
ATOM     23  C   UNL A   1      28.803  26.428  23.808  1.00  0.00     0.112 A 
ATOM     24  N   UNL A   1      29.972  25.769  23.680  1.00  0.00    -0.253 NA
BRANCH  20  25
ATOM     25  C   UNL A   1      29.591  29.900  22.432  1.00  0.00     0.032 C 
ATOM     26  C   UNL A   1      28.980  30.878  23.431  1.00  0.00     0.009 C 
ENDBRANCH  20  25
ENDBRANCH  17  19
ENDBRANCH   8  17
BRANCH  16  27
ATOM     27  O   UNL A   1      32.469  18.721  25.342  1.00  0.00    -0.406 OA
BRANCH  27  28
ATOM     28  C   UNL A   1      33.291  17.628  24.973  1.00  0.00     0.573 C 
ATOM     29  F   UNL A   1      32.719  16.898  23.991  1.00  0.00    -0.132 F 
ATOM     30  F   UNL A   1      34.510  18.047  24.572  1.00  0.00    -0.132 F 
ATOM     31  F   UNL A   1      33.457  16.827  26.050  1.00  0.00    -0.132 F 
ENDBRANCH  27  28
ENDBRANCH  16  27
ENDBRANCH   6   7
ENDBRANCH   3   6
ENDBRANCH   1   2
BRANCH   1  32
ATOM     32  C   UNL A   1      32.501  27.777  27.538  1.00  0.00     0.042 C 
BRANCH  32  33
ATOM     33  C   UNL A   1      33.694  28.612  27.078  1.00  0.00     0.118 C 
BRANCH  33  34
ATOM     34  N   UNL A   1      33.612  29.996  27.520  1.00  0.00    -0.352 N 
ATOM     35  C   UNL A   1      34.515  30.761  28.215  1.00  0.00     0.251 C 
ATOM     36  H   UNL A   1      32.775  30.457  27.284  1.00  0.00     0.163 HD
ATOM     37  O   UNL A   1      34.174  31.866  28.629  1.00  0.00    -0.269 OA
BRANCH  35  38
ATOM     38  C   UNL A   1      35.889  30.280  28.489  1.00  0.00     0.039 A 
ATOM     39  C   UNL A   1      36.827  30.331  27.450  1.00  0.00     0.014 A 
ATOM     40  C   UNL A   1      36.242  29.704  29.714  1.00  0.00     0.014 A 
ATOM     41  C   UNL A   1      38.124  29.849  27.649  1.00  0.00     0.010 A 
ATOM     42  C   UNL A   1      37.547  29.247  29.923  1.00  0.00     0.010 A 
ATOM     43  C   UNL A   1      38.495  29.314  28.891  1.00  0.00    -0.014 A 
BRANCH  43  44
ATOM     44  C   UNL A   1      39.868  28.802  29.115  1.00  0.00     0.031 A 
ATOM     45  C   UNL A   1      40.916  29.684  29.730  1.00  0.00     0.074 A 
ATOM     46  C   UNL A   1      40.188  27.551  28.735  1.00  0.00     0.049 A 
ATOM     47  N   UNL A   1      42.193  29.451  29.897  1.00  0.00    -0.248 NA
ATOM     48  C   UNL A   1      40.471  31.003  30.208  1.00  0.00     0.031 C 
ATOM     49  C   UNL A   1      39.276  26.591  28.115  1.00  0.00     0.029 A 
ATOM     50  N   UNL A   1      41.384  26.880  28.812  1.00  0.00    -0.354 N 
ATOM     51  C   UNL A   1      42.715  30.608  30.460  1.00  0.00     0.074 A 
ATOM     52  C   UNL A   1      41.613  31.533  30.627  1.00  0.00     0.031 C 
ATOM     53  C   UNL A   1      39.944  25.450  27.872  1.00  0.00     0.029 A 
ATOM     54  C   UNL A   1      41.330  25.607  28.305  1.00  0.00     0.049 A 
ATOM     55  H   UNL A   1      42.200  27.276  29.194  1.00  0.00     0.167 HD
ATOM     56  C   UNL A   1      43.998  30.883  30.795  1.00  0.00     0.031 A 
ATOM     57  C   UNL A   1      42.291  24.673  28.192  1.00  0.00     0.031 A 
ATOM     58  C   UNL A   1      45.097  29.966  30.672  1.00  0.00     0.049 A 
ATOM     59  C   UNL A   1      43.688  24.973  28.648  1.00  0.00     0.074 A 
ATOM     60  C   UNL A   1      46.431  30.168  30.983  1.00  0.00     0.029 A 
ATOM     61  N   UNL A   1      44.984  28.664  30.216  1.00  0.00    -0.354 N 
ATOM     62  N   UNL A   1      44.170  26.084  29.142  1.00  0.00    -0.248 NA
ATOM     63  C   UNL A   1      44.671  23.886  28.525  1.00  0.00     0.031 C 
ATOM     64  C   UNL A   1      47.126  28.979  30.724  1.00  0.00     0.029 A 
ATOM     65  C   UNL A   1      46.220  28.043  30.252  1.00  0.00     0.049 A 
ATOM     66  H   UNL A   1      44.147  28.241  29.913  1.00  0.00     0.167 HD
ATOM     67  C   UNL A   1      45.515  25.838  29.378  1.00  0.00     0.074 A 
ATOM     68  C   UNL A   1      45.770  24.467  28.986  1.00  0.00     0.031 C 
ATOM     69  C   UNL A   1      46.456  26.680  29.866  1.00  0.00     0.031 A 
BRANCH  56  70
ATOM     70  C   UNL A   1      44.277  32.259  31.316  1.00  0.00    -0.014 A 
ATOM     71  C   UNL A   1      44.548  33.316  30.435  1.00  0.00     0.009 A 
ATOM     72  C   UNL A   1      44.255  32.498  32.699  1.00  0.00     0.009 A 
ATOM     73  C   UNL A   1      44.808  34.593  30.937  1.00  0.00     0.001 A 
ATOM     74  C   UNL A   1      44.513  33.776  33.195  1.00  0.00     0.001 A 
ATOM     75  C   UNL A   1      44.791  34.821  32.314  1.00  0.00     0.000 A 
ENDBRANCH  56  70
BRANCH  57  76
ATOM     76  C   UNL A   1      41.966  23.356  27.600  1.00  0.00    -0.014 A 
ATOM     77  C   UNL A   1      41.413  22.343  28.396  1.00  0.00     0.009 A 
ATOM     78  C   UNL A   1      42.209  23.113  26.241  1.00  0.00     0.009 A 
ATOM     79  C   UNL A   1      41.114  21.098  27.839  1.00  0.00     0.001 A 
ATOM     80  C   UNL A   1      41.907  21.869  25.687  1.00  0.00     0.001 A 
ATOM     81  C   UNL A   1      41.361  20.863  26.486  1.00  0.00     0.000 A 
ENDBRANCH  57  76
BRANCH  69  82
ATOM     82  C   UNL A   1      47.845  26.137  29.994  1.00  0.00    -0.014 A 
ATOM     83  C   UNL A   1      48.642  25.959  28.855  1.00  0.00     0.009 A 
ATOM     84  C   UNL A   1      48.365  25.817  31.257  1.00  0.00     0.009 A 
ATOM     85  C   UNL A   1      49.939  25.457  28.975  1.00  0.00     0.001 A 
ATOM     86  C   UNL A   1      49.663  25.314  31.374  1.00  0.00     0.001 A 
ATOM     87  C   UNL A   1      50.446  25.132  30.234  1.00  0.00     0.000 A 
ENDBRANCH  69  82
ENDBRANCH  43  44
ENDBRANCH  35  38
ENDBRANCH  33  34
ENDBRANCH  32  33
ENDBRANCH   1  32
TORSDOF 16
ENDMDL
MODEL 2
REMARK VINA RESULT:     -12.4      2.897      6.097
REMARK SMILES CCc1ccnc(C(=O)c2[nH]c3ccc(OC(F)(F)F)cc3c2CC(=O)NCCCNC(=O)c2ccc(-c3c4nc(c(-c5ccccc5)c5ccc([nH]5)c(-c5ccccc5)c5nc(c(-c6ccccc6)c6ccc3[nH]6)C=C5)C=C4)cc2)c1
REMARK SMILES IDX 28 1 27 2 25 3 26 4 24 6 23 7 10 8 11 9 12 10 22 12 13 13
REMARK SMILES IDX 21 14 14 15 15 16 8 17 9 18 7 19 3 20 4 21 82 22 5 23 6 24
REMARK SMILES IDX 2 25 1 26 16 27 17 28 18 29 19 30 20 31 29 32 30 33 31 34
REMARK SMILES IDX 32 35 33 37 34 38 35 39 81 40 36 41 80 42 37 43 38 44 39 45
REMARK SMILES IDX 74 46 40 47 79 48 73 49 75 50 41 51 78 52 72 53 71 54 42 56
REMARK SMILES IDX 64 57 49 58 63 59 50 60 53 61 62 62 76 63 51 64 52 65 61 67
REMARK SMILES IDX 77 68 54 69 43 70 44 71 48 72 45 73 47 74 46 75 65 76 66 77
REMARK SMILES IDX 70 78 67 79 69 80 68 81 55 82 56 83 60 84 57 85 59 86 58 87
REMARK H PARENT 27 5 11 11 31 36 75 55 53 66
REMARK Flexibility Score: inf
ROOT
ATOM      1  C   UNL A   1      32.485  26.910  26.424  1.00  0.00     0.117 C 
ENDROOT
BRANCH   1   2
ATOM      2  N   UNL A   1      31.596  25.827  26.799  1.00  0.00    -0.356 N 
ATOM      3  C   UNL A   1      31.737  24.481  26.621  1.00  0.00     0.224 C 
ATOM      4  O   UNL A   1      30.897  23.731  27.124  1.00  0.00    -0.275 OA
ATOM      5  H   UNL A   1      30.765  26.105  27.249  1.00  0.00     0.163 HD
BRANCH   3   6
ATOM      6  C   UNL A   1      32.944  23.918  25.893  1.00  0.00     0.138 C 
BRANCH   6   7
ATOM      7  C   UNL A   1      32.642  23.339  24.541  1.00  0.00    -0.002 A 
ATOM      8  C   UNL A   1      32.438  24.024  23.347  1.00  0.00     0.093 A 
ATOM      9  N   UNL A   1      32.241  23.088  22.358  1.00  0.00    -0.352 N 
ATOM     10  C   UNL A   1      32.240  21.820  22.883  1.00  0.00     0.046 A 
ATOM     11  H   UNL A   1      32.117  23.299  21.405  1.00  0.00     0.167 HD
ATOM     12  C   UNL A   1      32.482  21.941  24.248  1.00  0.00     0.008 A 
ATOM     13  C   UNL A   1      32.060  20.587  22.251  1.00  0.00     0.030 A 
ATOM     14  C   UNL A   1      32.547  20.761  25.018  1.00  0.00     0.057 A 
ATOM     15  C   UNL A   1      32.135  19.431  23.039  1.00  0.00     0.049 A 
ATOM     16  C   UNL A   1      32.379  19.507  24.409  1.00  0.00     0.130 A 
BRANCH   8  17
ATOM     17  C   UNL A   1      32.493  25.447  23.058  1.00  0.00     0.227 C 
ATOM     18  O   UNL A   1      33.537  25.964  22.677  1.00  0.00    -0.285 OA
BRANCH  17  19
ATOM     19  C   UNL A   1      31.205  26.236  23.132  1.00  0.00     0.113 A 
ATOM     20  C   UNL A   1      29.906  28.254  22.792  1.00  0.00    -0.044 A 
ATOM     21  C   UNL A   1      28.843  27.607  23.426  1.00  0.00     0.024 A 
ATOM     22  C   UNL A   1      31.100  27.535  22.625  1.00  0.00     0.036 A 
ATOM     23  C   UNL A   1      29.024  26.311  23.890  1.00  0.00     0.112 A 
ATOM     24  N   UNL A   1      30.177  25.623  23.772  1.00  0.00    -0.253 NA
BRANCH  20  25
ATOM     25  C   UNL A   1      29.828  29.666  22.254  1.00  0.00     0.032 C 
ATOM     26  C   UNL A   1      29.175  30.702  23.164  1.00  0.00     0.009 C 
ENDBRANCH  20  25
ENDBRANCH  17  19
ENDBRANCH   8  17
BRANCH  16  27
ATOM     27  O   UNL A   1      32.484  18.452  25.272  1.00  0.00    -0.406 OA
BRANCH  27  28
ATOM     28  C   UNL A   1      33.399  17.419  24.948  1.00  0.00     0.573 C 
ATOM     29  F   UNL A   1      34.578  17.927  24.529  1.00  0.00    -0.132 F 
ATOM     30  F   UNL A   1      33.607  16.603  26.003  1.00  0.00    -0.132 F 
ATOM     31  F   UNL A   1      32.879  16.680  23.943  1.00  0.00    -0.132 F 
ENDBRANCH  27  28
ENDBRANCH  16  27
ENDBRANCH   6   7
ENDBRANCH   3   6
ENDBRANCH   1   2
BRANCH   1  32
ATOM     32  C   UNL A   1      31.768  28.236  26.178  1.00  0.00     0.042 C 
BRANCH  32  33
ATOM     33  C   UNL A   1      32.629  29.332  25.554  1.00  0.00     0.118 C 
BRANCH  33  34
ATOM     34  N   UNL A   1      32.172  30.669  25.900  1.00  0.00    -0.352 N 
ATOM     35  C   UNL A   1      32.662  31.568  26.814  1.00  0.00     0.251 C 
ATOM     36  H   UNL A   1      31.384  30.979  25.398  1.00  0.00     0.163 HD
ATOM     37  O   UNL A   1      32.021  32.585  27.061  1.00  0.00    -0.269 OA
BRANCH  35  38
ATOM     38  C   UNL A   1      33.944  31.333  27.519  1.00  0.00     0.039 A 
ATOM     39  C   UNL A   1      34.238  30.029  27.940  1.00  0.00     0.014 A 
ATOM     40  C   UNL A   1      34.812  32.379  27.846  1.00  0.00     0.014 A 
ATOM     41  C   UNL A   1      35.415  29.767  28.647  1.00  0.00     0.010 A 
ATOM     42  C   UNL A   1      36.003  32.113  28.529  1.00  0.00     0.010 A 
ATOM     43  C   UNL A   1      36.311  30.806  28.936  1.00  0.00    -0.014 A 
BRANCH  43  44
ATOM     44  C   UNL A   1      37.565  30.541  29.682  1.00  0.00     0.031 A 
ATOM     45  C   UNL A   1      38.689  29.788  29.031  1.00  0.00     0.074 A 
ATOM     46  C   UNL A   1      37.683  30.945  30.960  1.00  0.00     0.049 A 
ATOM     47  N   UNL A   1      39.809  29.363  29.560  1.00  0.00    -0.248 NA
ATOM     48  C   UNL A   1      38.528  29.461  27.606  1.00  0.00     0.031 C 
ATOM     49  C   UNL A   1      36.667  31.674  31.719  1.00  0.00     0.029 A 
ATOM     50  N   UNL A   1      38.720  30.789  31.846  1.00  0.00    -0.354 N 
ATOM     51  C   UNL A   1      40.468  28.682  28.546  1.00  0.00     0.074 A 
ATOM     52  C   UNL A   1      39.634  28.770  27.365  1.00  0.00     0.031 C 
ATOM     53  C   UNL A   1      37.134  31.907  32.958  1.00  0.00     0.029 A 
ATOM     54  C   UNL A   1      38.470  31.331  33.081  1.00  0.00     0.049 A 
ATOM     55  H   UNL A   1      39.560  30.331  31.617  1.00  0.00     0.167 HD
ATOM     56  C   UNL A   1      41.653  28.030  28.595  1.00  0.00     0.031 A 
ATOM     57  C   UNL A   1      39.228  31.353  34.192  1.00  0.00     0.031 A 
ATOM     58  C   UNL A   1      42.512  27.964  29.745  1.00  0.00     0.049 A 
ATOM     59  C   UNL A   1      40.576  30.696  34.196  1.00  0.00     0.074 A 
ATOM     60  C   UNL A   1      43.728  27.318  29.881  1.00  0.00     0.029 A 
ATOM     61  N   UNL A   1      42.250  28.585  30.954  1.00  0.00    -0.354 N 
ATOM     62  N   UNL A   1      41.166  30.024  33.239  1.00  0.00    -0.248 NA
ATOM     63  C   UNL A   1      41.358  30.798  35.437  1.00  0.00     0.031 C 
ATOM     64  C   UNL A   1      44.210  27.558  31.175  1.00  0.00     0.029 A 
ATOM     65  C   UNL A   1      43.289  28.352  31.839  1.00  0.00     0.049 A 
ATOM     66  H   UNL A   1      41.445  29.115  31.156  1.00  0.00     0.167 HD
ATOM     67  C   UNL A   1      42.381  29.613  33.765  1.00  0.00     0.074 A 
ATOM     68  C   UNL A   1      42.452  30.121  35.119  1.00  0.00     0.031 C 
ATOM     69  C   UNL A   1      43.348  28.868  33.178  1.00  0.00     0.031 A 
BRANCH  56  70
ATOM     70  C   UNL A   1      42.079  27.314  27.351  1.00  0.00    -0.014 A 
ATOM     71  C   UNL A   1      42.839  27.970  26.372  1.00  0.00     0.009 A 
ATOM     72  C   UNL A   1      41.727  25.967  27.167  1.00  0.00     0.009 A 
ATOM     73  C   UNL A   1      43.227  27.289  25.216  1.00  0.00     0.001 A 
ATOM     74  C   UNL A   1      42.120  25.290  26.012  1.00  0.00     0.001 A 
ATOM     75  C   UNL A   1      42.867  25.953  25.037  1.00  0.00     0.000 A 
ENDBRANCH  56  70
BRANCH  57  76
ATOM     76  C   UNL A   1      38.718  32.017  35.412  1.00  0.00    -0.014 A 
ATOM     77  C   UNL A   1      38.827  33.407  35.557  1.00  0.00     0.009 A 
ATOM     78  C   UNL A   1      38.124  31.259  36.431  1.00  0.00     0.009 A 
ATOM     79  C   UNL A   1      38.352  34.030  36.713  1.00  0.00     0.001 A 
ATOM     80  C   UNL A   1      37.648  31.886  37.584  1.00  0.00     0.001 A 
ATOM     81  C   UNL A   1      37.764  33.269  37.724  1.00  0.00     0.000 A 
ENDBRANCH  57  76
BRANCH  69  82
ATOM     82  C   UNL A   1      44.557  28.559  34.004  1.00  0.00    -0.014 A 
ATOM     83  C   UNL A   1      44.592  27.405  34.799  1.00  0.00     0.009 A 
ATOM     84  C   UNL A   1      45.669  29.412  33.978  1.00  0.00     0.009 A 
ATOM     85  C   UNL A   1      45.721  27.114  35.567  1.00  0.00     0.001 A 
ATOM     86  C   UNL A   1      46.797  29.120  34.747  1.00  0.00     0.001 A 
ATOM     87  C   UNL A   1      46.821  27.973  35.542  1.00  0.00     0.000 A 
ENDBRANCH  69  82
ENDBRANCH  43  44
ENDBRANCH  35  38
ENDBRANCH  33  34
ENDBRANCH  32  33
ENDBRANCH   1  32
TORSDOF 16
ENDMDL
MODEL 3
REMARK VINA RESULT:     -12.1      2.753      6.771
REMARK SMILES CCc1ccnc(C(=O)c2[nH]c3ccc(OC(F)(F)F)cc3c2CC(=O)NCCCNC(=O)c2ccc(-c3c4nc(c(-c5ccccc5)c5ccc([nH]5)c(-c5ccccc5)c5nc(c(-c6ccccc6)c6ccc3[nH]6)C=C5)C=C4)cc2)c1
REMARK SMILES IDX 28 1 27 2 25 3 26 4 24 6 23 7 10 8 11 9 12 10 22 12 13 13
REMARK SMILES IDX 21 14 14 15 15 16 8 17 9 18 7 19 3 20 4 21 82 22 5 23 6 24
REMARK SMILES IDX 2 25 1 26 16 27 17 28 18 29 19 30 20 31 29 32 30 33 31 34
REMARK SMILES IDX 32 35 33 37 34 38 35 39 81 40 36 41 80 42 37 43 38 44 39 45
REMARK SMILES IDX 74 46 40 47 79 48 73 49 75 50 41 51 78 52 72 53 71 54 42 56
REMARK SMILES IDX 64 57 49 58 63 59 50 60 53 61 62 62 76 63 51 64 52 65 61 67
REMARK SMILES IDX 77 68 54 69 43 70 44 71 48 72 45 73 47 74 46 75 65 76 66 77
REMARK SMILES IDX 70 78 67 79 69 80 68 81 55 82 56 83 60 84 57 85 59 86 58 87
REMARK H PARENT 27 5 11 11 31 36 75 55 53 66
REMARK Flexibility Score: inf
ROOT
ATOM      1  C   UNL A   1      32.582  29.819  27.252  1.00  0.00     0.117 C 
ENDROOT
BRANCH   1   2
ATOM      2  N   UNL A   1      31.784  28.612  27.358  1.00  0.00    -0.356 N 
ATOM      3  C   UNL A   1      32.034  27.357  26.884  1.00  0.00     0.224 C 
ATOM      4  O   UNL A   1      31.257  26.448  27.190  1.00  0.00    -0.275 OA
ATOM      5  H   UNL A   1      30.933  28.715  27.844  1.00  0.00     0.163 HD
BRANCH   3   6
ATOM      6  C   UNL A   1      33.283  27.069  26.071  1.00  0.00     0.138 C 
BRANCH   6   7
ATOM      7  C   UNL A   1      33.018  26.585  24.674  1.00  0.00    -0.002 A 
ATOM      8  C   UNL A   1      32.385  27.268  23.641  1.00  0.00     0.093 A 
ATOM      9  N   UNL A   1      32.409  26.459  22.529  1.00  0.00    -0.352 N 
ATOM     10  C   UNL A   1      32.975  25.244  22.826  1.00  0.00     0.046 A 
ATOM     11  H   UNL A   1      32.067  26.715  21.642  1.00  0.00     0.167 HD
ATOM     12  C   UNL A   1      33.362  25.287  24.162  1.00  0.00     0.008 A 
ATOM     13  C   UNL A   1      33.184  24.128  22.011  1.00  0.00     0.030 A 
ATOM     14  C   UNL A   1      33.992  24.149  24.707  1.00  0.00     0.057 A 
ATOM     15  C   UNL A   1      33.817  23.014  22.577  1.00  0.00     0.049 A 
ATOM     16  C   UNL A   1      34.224  23.017  23.910  1.00  0.00     0.130 A 
BRANCH   8  17
ATOM     17  C   UNL A   1      31.845  28.616  23.597  1.00  0.00     0.227 C 
ATOM     18  O   UNL A   1      32.594  29.587  23.626  1.00  0.00    -0.285 OA
BRANCH  17  19
ATOM     19  C   UNL A   1      30.354  28.778  23.400  1.00  0.00     0.113 A 
ATOM     20  C   UNL A   1      28.349  30.130  23.233  1.00  0.00    -0.044 A 
ATOM     21  C   UNL A   1      27.624  28.940  23.154  1.00  0.00     0.024 A 
ATOM     22  C   UNL A   1      29.746  30.036  23.335  1.00  0.00     0.036 A 
ATOM     23  C   UNL A   1      28.304  27.731  23.213  1.00  0.00     0.112 A 
ATOM     24  N   UNL A   1      29.640  27.625  23.350  1.00  0.00    -0.253 NA
BRANCH  20  25
ATOM     25  C   UNL A   1      27.716  31.504  23.187  1.00  0.00     0.032 C 
ATOM     26  C   UNL A   1      28.669  32.684  23.023  1.00  0.00     0.009 C 
ENDBRANCH  20  25
ENDBRANCH  17  19
ENDBRANCH   8  17
BRANCH  16  27
ATOM     27  O   UNL A   1      34.857  21.997  24.565  1.00  0.00    -0.406 OA
BRANCH  27  28
ATOM     28  C   UNL A   1      36.274  21.983  24.556  1.00  0.00     0.573 C 
ATOM     29  F   UNL A   1      36.748  20.719  24.536  1.00  0.00    -0.132 F 
ATOM     30  F   UNL A   1      36.762  22.664  23.497  1.00  0.00    -0.132 F 
ATOM     31  F   UNL A   1      36.721  22.582  25.682  1.00  0.00    -0.132 F 
ENDBRANCH  27  28
ENDBRANCH  16  27
ENDBRANCH   6   7
ENDBRANCH   3   6
ENDBRANCH   1   2
BRANCH   1  32
ATOM     32  C   UNL A   1      31.753  31.089  27.073  1.00  0.00     0.042 C 
BRANCH  32  33
ATOM     33  C   UNL A   1      32.525  32.296  26.545  1.00  0.00     0.118 C 
BRANCH  33  34
ATOM     34  N   UNL A   1      32.289  33.499  27.328  1.00  0.00    -0.352 N 
ATOM     35  C   UNL A   1      33.019  34.053  28.349  1.00  0.00     0.251 C 
ATOM     36  H   UNL A   1      31.473  33.996  27.087  1.00  0.00     0.163 HD
ATOM     37  O   UNL A   1      32.549  34.993  28.985  1.00  0.00    -0.269 OA
BRANCH  35  38
ATOM     38  C   UNL A   1      34.360  33.534  28.711  1.00  0.00     0.039 A 
ATOM     39  C   UNL A   1      34.467  32.709  29.837  1.00  0.00     0.014 A 
ATOM     40  C   UNL A   1      35.513  33.915  28.017  1.00  0.00     0.014 A 
ATOM     41  C   UNL A   1      35.717  32.231  30.242  1.00  0.00     0.010 A 
ATOM     42  C   UNL A   1      36.760  33.415  28.405  1.00  0.00     0.010 A 
ATOM     43  C   UNL A   1      36.871  32.572  29.521  1.00  0.00    -0.014 A 
BRANCH  43  44
ATOM     44  C   UNL A   1      38.201  32.069  29.938  1.00  0.00     0.031 A 
ATOM     45  C   UNL A   1      38.719  30.764  29.406  1.00  0.00     0.074 A 
ATOM     46  C   UNL A   1      38.934  32.767  30.824  1.00  0.00     0.049 A 
ATOM     47  N   UNL A   1      39.802  30.110  29.743  1.00  0.00    -0.248 NA
ATOM     48  C   UNL A   1      37.909  30.104  28.371  1.00  0.00     0.031 C 
ATOM     49  C   UNL A   1      38.549  34.041  31.431  1.00  0.00     0.029 A 
ATOM     50  N   UNL A   1      40.162  32.489  31.373  1.00  0.00    -0.354 N 
ATOM     51  C   UNL A   1      39.784  28.942  28.994  1.00  0.00     0.074 A 
ATOM     52  C   UNL A   1      38.595  28.987  28.168  1.00  0.00     0.031 C 
ATOM     53  C   UNL A   1      39.525  34.439  32.265  1.00  0.00     0.029 A 
ATOM     54  C   UNL A   1      40.592  33.441  32.261  1.00  0.00     0.049 A 
ATOM     55  H   UNL A   1      40.682  31.684  31.150  1.00  0.00     0.167 HD
ATOM     56  C   UNL A   1      40.668  27.917  29.001  1.00  0.00     0.031 A 
ATOM     57  C   UNL A   1      41.715  33.500  32.999  1.00  0.00     0.031 A 
ATOM     58  C   UNL A   1      41.872  27.872  29.784  1.00  0.00     0.049 A 
ATOM     59  C   UNL A   1      42.722  32.391  32.926  1.00  0.00     0.074 A 
ATOM     60  C   UNL A   1      42.821  26.866  29.855  1.00  0.00     0.029 A 
ATOM     61  N   UNL A   1      42.302  28.888  30.619  1.00  0.00    -0.354 N 
ATOM     62  N   UNL A   1      42.669  31.277  32.241  1.00  0.00    -0.248 NA
ATOM     63  C   UNL A   1      43.940  32.549  33.734  1.00  0.00     0.031 C 
ATOM     64  C   UNL A   1      43.835  27.281  30.729  1.00  0.00     0.029 A 
ATOM     65  C   UNL A   1      43.510  28.543  31.199  1.00  0.00     0.049 A 
ATOM     66  H   UNL A   1      41.820  29.733  30.778  1.00  0.00     0.167 HD
ATOM     67  C   UNL A   1      43.838  30.595  32.543  1.00  0.00     0.074 A 
ATOM     68  C   UNL A   1      44.588  31.425  33.463  1.00  0.00     0.031 C 
ATOM     69  C   UNL A   1      44.246  29.380  32.105  1.00  0.00     0.031 A 
BRANCH  56  70
ATOM     70  C   UNL A   1      40.343  26.741  28.133  1.00  0.00    -0.014 A 
ATOM     71  C   UNL A   1      39.519  25.709  28.606  1.00  0.00     0.009 A 
ATOM     72  C   UNL A   1      40.855  26.675  26.828  1.00  0.00     0.009 A 
ATOM     73  C   UNL A   1      39.226  24.618  27.785  1.00  0.00     0.001 A 
ATOM     74  C   UNL A   1      40.557  25.585  26.011  1.00  0.00     0.001 A 
ATOM     75  C   UNL A   1      39.745  24.556  26.491  1.00  0.00     0.000 A 
ENDBRANCH  56  70
BRANCH  57  76
ATOM     76  C   UNL A   1      41.944  34.657  33.893  1.00  0.00    -0.014 A 
ATOM     77  C   UNL A   1      41.519  34.611  35.229  1.00  0.00     0.009 A 
ATOM     78  C   UNL A   1      42.585  35.806  33.410  1.00  0.00     0.009 A 
ATOM     79  C   UNL A   1      41.728  35.707  36.068  1.00  0.00     0.001 A 
ATOM     80  C   UNL A   1      42.795  36.898  34.253  1.00  0.00     0.001 A 
ATOM     81  C   UNL A   1      42.365  36.848  35.580  1.00  0.00     0.000 A 
ENDBRANCH  57  76
BRANCH  69  82
ATOM     82  C   UNL A   1      45.560  28.883  32.622  1.00  0.00    -0.014 A 
ATOM     83  C   UNL A   1      45.613  28.124  33.800  1.00  0.00     0.009 A 
ATOM     84  C   UNL A   1      46.745  29.158  31.925  1.00  0.00     0.009 A 
ATOM     85  C   UNL A   1      46.837  27.656  34.280  1.00  0.00     0.001 A 
ATOM     86  C   UNL A   1      47.968  28.690  32.408  1.00  0.00     0.001 A 
ATOM     87  C   UNL A   1      48.013  27.942  33.585  1.00  0.00     0.000 A 
ENDBRANCH  69  82
ENDBRANCH  43  44
ENDBRANCH  35  38
ENDBRANCH  33  34
ENDBRANCH  32  33
ENDBRANCH   1  32
TORSDOF 16
ENDMDL
