MODEL 1
REMARK VINA RESULT:     -12.6      0.000      0.000
REMARK SMILES O=C(NCCCNC(=O)[C@@H]1C[C@@H]1C(=O)N1CCN(c2ncc(C(F)(F)F)cc2Cl)CC1)c1ccc(-c2c3nc(c(-c4ccccc4)c4ccc([nH]4)c(-c4ccccc4)c4nc(c(-c5ccccc5)c5ccc2[nH]5)C=C4)C=C3)cc1
REMARK SMILES IDX 5 1 4 2 3 3 1 4 2 5 32 7 33 8 79 9 34 10 78 11 35 12 36 13
REMARK SMILES IDX 37 14 72 15 38 16 77 17 71 18 73 19 39 20 76 21 70 22 69 23
REMARK SMILES IDX 40 25 62 26 47 27 61 28 48 29 51 30 60 31 74 32 49 33 50 34
REMARK SMILES IDX 59 36 75 37 52 38 41 39 42 40 46 41 43 42 45 43 44 44 63 45
REMARK SMILES IDX 64 46 68 47 65 48 67 49 66 50 53 51 54 52 58 53 55 54 57 55
REMARK SMILES IDX 56 56 6 57 7 58 8 59 9 61 10 62 11 63 12 64 13 65 14 66
REMARK SMILES IDX 15 67 16 68 31 69 17 70 30 71 18 72 19 73 20 74 28 75 21 76
REMARK SMILES IDX 27 77 29 78 22 79 23 80 24 81 25 82 26 83
REMARK H PARENT 3 6 73 24 51 35 7 60
REMARK Flexibility Score: inf
ROOT
ATOM      1  C   UNL A   1      37.768  19.821  24.672  1.00  0.00     0.042 C 
ENDROOT
BRANCH   1   2
ATOM      2  C   UNL A   1      38.775  20.199  25.755  1.00  0.00     0.118 C 
BRANCH   2   3
ATOM      3  N   UNL A   1      39.906  19.283  25.818  1.00  0.00    -0.352 N 
ATOM      4  O   UNL A   1      42.050  18.619  25.943  1.00  0.00    -0.269 OA
ATOM      5  C   UNL A   1      41.226  19.512  26.120  1.00  0.00     0.251 C 
ATOM      6  H   UNL A   1      39.689  18.345  25.609  1.00  0.00     0.163 HD
BRANCH   5   7
ATOM      7  C   UNL A   1      41.669  20.825  26.634  1.00  0.00     0.039 A 
ATOM      8  C   UNL A   1      41.560  21.153  27.987  1.00  0.00     0.014 A 
ATOM      9  C   UNL A   1      42.252  21.731  25.742  1.00  0.00     0.014 A 
ATOM     10  C   UNL A   1      41.907  22.430  28.424  1.00  0.00     0.010 A 
ATOM     11  C   UNL A   1      42.670  22.984  26.195  1.00  0.00     0.010 A 
ATOM     12  C   UNL A   1      42.470  23.356  27.534  1.00  0.00    -0.014 A 
BRANCH  12  13
ATOM     13  C   UNL A   1      42.880  24.701  28.012  1.00  0.00     0.031 A 
ATOM     14  C   UNL A   1      41.853  25.760  28.298  1.00  0.00     0.074 A 
ATOM     15  C   UNL A   1      44.189  24.974  28.171  1.00  0.00     0.049 A 
ATOM     16  N   UNL A   1      42.031  27.004  28.668  1.00  0.00    -0.248 NA
ATOM     17  C   UNL A   1      40.442  25.375  28.140  1.00  0.00     0.031 C 
ATOM     18  C   UNL A   1      45.284  24.031  27.932  1.00  0.00     0.029 A 
ATOM     19  N   UNL A   1      44.820  26.125  28.567  1.00  0.00    -0.354 N 
ATOM     20  C   UNL A   1      40.759  27.556  28.765  1.00  0.00     0.074 A 
ATOM     21  C   UNL A   1      39.821  26.519  28.389  1.00  0.00     0.031 C 
ATOM     22  C   UNL A   1      46.449  24.636  28.206  1.00  0.00     0.029 A 
ATOM     23  C   UNL A   1      46.189  26.021  28.579  1.00  0.00     0.049 A 
ATOM     24  H   UNL A   1      44.338  26.946  28.819  1.00  0.00     0.167 HD
ATOM     25  C   UNL A   1      40.406  28.811  29.135  1.00  0.00     0.031 A 
ATOM     26  C   UNL A   1      47.135  26.944  28.833  1.00  0.00     0.031 A 
ATOM     27  C   UNL A   1      41.342  29.842  29.499  1.00  0.00     0.049 A 
ATOM     28  C   UNL A   1      46.722  28.343  29.190  1.00  0.00     0.074 A 
ATOM     29  C   UNL A   1      41.080  31.136  29.919  1.00  0.00     0.029 A 
ATOM     30  N   UNL A   1      42.722  29.702  29.477  1.00  0.00    -0.354 N 
ATOM     31  N   UNL A   1      45.515  28.841  29.310  1.00  0.00    -0.248 NA
ATOM     32  C   UNL A   1      47.801  29.304  29.452  1.00  0.00     0.031 C 
ATOM     33  C   UNL A   1      42.301  31.795  30.092  1.00  0.00     0.029 A 
ATOM     34  C   UNL A   1      43.324  30.893  29.847  1.00  0.00     0.049 A 
ATOM     35  H   UNL A   1      43.201  28.878  29.234  1.00  0.00     0.167 HD
ATOM     36  C   UNL A   1      45.689  30.164  29.690  1.00  0.00     0.074 A 
ATOM     37  C   UNL A   1      47.116  30.390  29.788  1.00  0.00     0.031 C 
ATOM     38  C   UNL A   1      44.746  31.106  29.941  1.00  0.00     0.031 A 
BRANCH  25  39
ATOM     39  C   UNL A   1      38.938  29.148  29.124  1.00  0.00    -0.014 A 
ATOM     40  C   UNL A   1      38.143  29.004  30.272  1.00  0.00     0.009 A 
ATOM     41  C   UNL A   1      38.348  29.639  27.949  1.00  0.00     0.009 A 
ATOM     42  C   UNL A   1      36.779  29.302  30.230  1.00  0.00     0.001 A 
ATOM     43  C   UNL A   1      36.991  29.966  27.918  1.00  0.00     0.001 A 
ATOM     44  C   UNL A   1      36.205  29.785  29.054  1.00  0.00     0.000 A 
ENDBRANCH  25  39
BRANCH  26  45
ATOM     45  C   UNL A   1      48.568  26.565  28.744  1.00  0.00    -0.014 A 
ATOM     46  C   UNL A   1      49.232  26.013  29.849  1.00  0.00     0.009 A 
ATOM     47  C   UNL A   1      49.271  26.724  27.538  1.00  0.00     0.009 A 
ATOM     48  C   UNL A   1      50.575  25.641  29.752  1.00  0.00     0.001 A 
ATOM     49  C   UNL A   1      50.604  26.324  27.436  1.00  0.00     0.001 A 
ATOM     50  C   UNL A   1      51.257  25.790  28.545  1.00  0.00     0.000 A 
ENDBRANCH  26  45
BRANCH  38  51
ATOM     51  C   UNL A   1      45.224  32.458  30.394  1.00  0.00    -0.014 A 
ATOM     52  C   UNL A   1      45.318  33.539  29.506  1.00  0.00     0.009 A 
ATOM     53  C   UNL A   1      45.537  32.660  31.748  1.00  0.00     0.009 A 
ATOM     54  C   UNL A   1      45.740  34.790  29.961  1.00  0.00     0.001 A 
ATOM     55  C   UNL A   1      45.930  33.917  32.205  1.00  0.00     0.001 A 
ATOM     56  C   UNL A   1      46.040  34.980  31.310  1.00  0.00     0.000 A 
ENDBRANCH  38  51
ENDBRANCH  12  13
ENDBRANCH   5   7
ENDBRANCH   2   3
ENDBRANCH   1   2
BRANCH   1  57
ATOM     57  C   UNL A   1      36.327  20.188  25.009  1.00  0.00     0.117 C 
BRANCH  57  58
ATOM     58  N   UNL A   1      36.231  21.470  25.681  1.00  0.00    -0.356 N 
ATOM     59  C   UNL A   1      35.128  22.251  25.890  1.00  0.00     0.223 C 
ATOM     60  H   UNL A   1      37.076  21.826  26.038  1.00  0.00     0.163 HD
ATOM     61  O   UNL A   1      35.199  23.264  26.577  1.00  0.00    -0.275 OA
BRANCH  59  62
ATOM     62  C   UNL A   1      33.816  21.780  25.399  1.00  0.00     0.091 C 
ATOM     63  C   UNL A   1      33.596  21.178  24.036  1.00  0.00     0.028 C 
ATOM     64  C   UNL A   1      33.057  22.559  24.344  1.00  0.00     0.092 C 
BRANCH  64  65
ATOM     65  C   UNL A   1      33.632  23.671  23.527  1.00  0.00     0.226 C 
ATOM     66  O   UNL A   1      34.385  23.407  22.594  1.00  0.00    -0.275 OA
ATOM     67  N   UNL A   1      33.130  24.942  23.742  1.00  0.00    -0.339 N 
ATOM     68  C   UNL A   1      33.138  25.900  22.629  1.00  0.00     0.141 C 
ATOM     69  C   UNL A   1      32.527  25.454  24.985  1.00  0.00     0.141 C 
ATOM     70  C   UNL A   1      31.706  26.413  22.351  1.00  0.00     0.139 C 
ATOM     71  C   UNL A   1      31.116  26.028  24.737  1.00  0.00     0.139 C 
ATOM     72  N   UNL A   1      31.167  26.951  23.601  1.00  0.00    -0.352 N 
BRANCH  72  73
ATOM     73  C   UNL A   1      30.427  28.108  23.577  1.00  0.00     0.147 A 
ATOM     74  N   UNL A   1      29.242  28.078  22.920  1.00  0.00    -0.237 NA
ATOM     75  C   UNL A   1      30.902  29.306  24.139  1.00  0.00     0.084 A 
ATOM     76  C   UNL A   1      28.516  29.220  22.838  1.00  0.00     0.126 A 
ATOM     77  C   UNL A   1      30.146  30.471  24.024  1.00  0.00     0.039 A 
ATOM     78  Cl  UNL A   1      32.457  29.439  24.887  1.00  0.00    -0.080 Cl
ATOM     79  C   UNL A   1      28.921  30.438  23.360  1.00  0.00     0.075 A 
BRANCH  79  80
ATOM     80  C   UNL A   1      28.062  31.651  23.197  1.00  0.00     0.417 C 
ATOM     81  F   UNL A   1      26.934  31.601  23.955  1.00  0.00    -0.166 F 
ATOM     82  F   UNL A   1      28.705  32.795  23.556  1.00  0.00    -0.166 F 
ATOM     83  F   UNL A   1      27.642  31.846  21.915  1.00  0.00    -0.166 F 
ENDBRANCH  79  80
ENDBRANCH  72  73
ENDBRANCH  64  65
ENDBRANCH  59  62
ENDBRANCH  57  58
ENDBRANCH   1  57
TORSDOF 13
ENDMDL
MODEL 2
REMARK VINA RESULT:     -12.6      5.284     10.000
REMARK SMILES O=C(NCCCNC(=O)[C@@H]1C[C@@H]1C(=O)N1CCN(c2ncc(C(F)(F)F)cc2Cl)CC1)c1ccc(-c2c3nc(c(-c4ccccc4)c4ccc([nH]4)c(-c4ccccc4)c4nc(c(-c5ccccc5)c5ccc2[nH]5)C=C4)C=C3)cc1
REMARK SMILES IDX 5 1 4 2 3 3 1 4 2 5 32 7 33 8 79 9 34 10 78 11 35 12 36 13
REMARK SMILES IDX 37 14 72 15 38 16 77 17 71 18 73 19 39 20 76 21 70 22 69 23
REMARK SMILES IDX 40 25 62 26 47 27 61 28 48 29 51 30 60 31 74 32 49 33 50 34
REMARK SMILES IDX 59 36 75 37 52 38 41 39 42 40 46 41 43 42 45 43 44 44 63 45
REMARK SMILES IDX 64 46 68 47 65 48 67 49 66 50 53 51 54 52 58 53 55 54 57 55
REMARK SMILES IDX 56 56 6 57 7 58 8 59 9 61 10 62 11 63 12 64 13 65 14 66
REMARK SMILES IDX 15 67 16 68 31 69 17 70 30 71 18 72 19 73 20 74 28 75 21 76
REMARK SMILES IDX 27 77 29 78 22 79 23 80 24 81 25 82 26 83
REMARK H PARENT 3 6 73 24 51 35 7 60
REMARK Flexibility Score: inf
ROOT
ATOM      1  C   UNL A   1      31.272  31.907  26.629  1.00  0.00     0.042 C 
ENDROOT
BRANCH   1   2
ATOM      2  C   UNL A   1      32.576  32.510  27.145  1.00  0.00     0.118 C 
BRANCH   2   3
ATOM      3  N   UNL A   1      32.400  33.849  27.691  1.00  0.00    -0.352 N 
ATOM      4  O   UNL A   1      32.703  35.596  29.072  1.00  0.00    -0.269 OA
ATOM      5  C   UNL A   1      33.132  34.536  28.628  1.00  0.00     0.251 C 
ATOM      6  H   UNL A   1      31.629  34.344  27.328  1.00  0.00     0.163 HD
BRANCH   5   7
ATOM      7  C   UNL A   1      34.418  34.003  29.124  1.00  0.00     0.039 A 
ATOM      8  C   UNL A   1      35.627  34.302  28.489  1.00  0.00     0.014 A 
ATOM      9  C   UNL A   1      34.417  33.222  30.284  1.00  0.00     0.014 A 
ATOM     10  C   UNL A   1      36.809  33.714  28.930  1.00  0.00     0.010 A 
ATOM     11  C   UNL A   1      35.615  32.693  30.771  1.00  0.00     0.010 A 
ATOM     12  C   UNL A   1      36.817  32.908  30.078  1.00  0.00    -0.014 A 
BRANCH  12  13
ATOM     13  C   UNL A   1      38.087  32.319  30.572  1.00  0.00     0.031 A 
ATOM     14  C   UNL A   1      38.625  31.048  29.979  1.00  0.00     0.074 A 
ATOM     15  C   UNL A   1      38.749  32.925  31.576  1.00  0.00     0.049 A 
ATOM     16  N   UNL A   1      39.687  30.362  30.321  1.00  0.00    -0.248 NA
ATOM     17  C   UNL A   1      37.869  30.466  28.859  1.00  0.00     0.031 C 
ATOM     18  C   UNL A   1      38.335  34.166  32.234  1.00  0.00     0.029 A 
ATOM     19  N   UNL A   1      39.909  32.577  32.220  1.00  0.00    -0.354 N 
ATOM     20  C   UNL A   1      39.714  29.257  29.478  1.00  0.00     0.074 A 
ATOM     21  C   UNL A   1      38.547  29.352  28.625  1.00  0.00     0.031 C 
ATOM     22  C   UNL A   1      39.237  34.485  33.174  1.00  0.00     0.029 A 
ATOM     23  C   UNL A   1      40.256  33.444  33.226  1.00  0.00     0.049 A 
ATOM     24  H   UNL A   1      40.440  31.782  31.984  1.00  0.00     0.167 HD
ATOM     25  C   UNL A   1      40.627  28.258  29.418  1.00  0.00     0.031 A 
ATOM     26  C   UNL A   1      41.266  33.396  34.115  1.00  0.00     0.031 A 
ATOM     27  C   UNL A   1      41.781  28.162  30.273  1.00  0.00     0.049 A 
ATOM     28  C   UNL A   1      42.236  32.251  34.064  1.00  0.00     0.074 A 
ATOM     29  C   UNL A   1      42.781  27.204  30.269  1.00  0.00     0.029 A 
ATOM     30  N   UNL A   1      42.084  29.051  31.294  1.00  0.00    -0.354 N 
ATOM     31  N   UNL A   1      42.268  31.232  33.239  1.00  0.00    -0.248 NA
ATOM     32  C   UNL A   1      43.314  32.253  35.062  1.00  0.00     0.031 C 
ATOM     33  C   UNL A   1      43.656  27.480  31.325  1.00  0.00     0.029 A 
ATOM     34  C   UNL A   1      43.239  28.648  31.945  1.00  0.00     0.049 A 
ATOM     35  H   UNL A   1      41.557  29.849  31.523  1.00  0.00     0.167 HD
ATOM     36  C   UNL A   1      43.382  30.488  33.599  1.00  0.00     0.074 A 
ATOM     37  C   UNL A   1      44.005  31.176  34.712  1.00  0.00     0.031 C 
ATOM     38  C   UNL A   1      43.850  29.340  33.051  1.00  0.00     0.031 A 
BRANCH  25  39
ATOM     39  C   UNL A   1      40.389  27.163  28.413  1.00  0.00    -0.014 A 
ATOM     40  C   UNL A   1      39.613  26.036  28.725  1.00  0.00     0.009 A 
ATOM     41  C   UNL A   1      40.933  27.273  27.124  1.00  0.00     0.009 A 
ATOM     42  C   UNL A   1      39.425  25.022  27.782  1.00  0.00     0.001 A 
ATOM     43  C   UNL A   1      40.718  26.274  26.173  1.00  0.00     0.001 A 
ATOM     44  C   UNL A   1      39.975  25.143  26.506  1.00  0.00     0.000 A 
ENDBRANCH  25  39
BRANCH  26  45
ATOM     45  C   UNL A   1      41.394  34.467  35.135  1.00  0.00    -0.014 A 
ATOM     46  C   UNL A   1      40.761  34.348  36.381  1.00  0.00     0.009 A 
ATOM     47  C   UNL A   1      42.180  35.603  34.876  1.00  0.00     0.009 A 
ATOM     48  C   UNL A   1      40.901  35.352  37.342  1.00  0.00     0.001 A 
ATOM     49  C   UNL A   1      42.342  36.589  35.850  1.00  0.00     0.001 A 
ATOM     50  C   UNL A   1      41.696  36.466  37.079  1.00  0.00     0.000 A 
ENDBRANCH  26  45
BRANCH  38  51
ATOM     51  C   UNL A   1      45.126  28.776  33.613  1.00  0.00    -0.014 A 
ATOM     52  C   UNL A   1      45.117  27.828  34.646  1.00  0.00     0.009 A 
ATOM     53  C   UNL A   1      46.355  29.167  33.058  1.00  0.00     0.009 A 
ATOM     54  C   UNL A   1      46.316  27.302  35.131  1.00  0.00     0.001 A 
ATOM     55  C   UNL A   1      47.550  28.618  33.524  1.00  0.00     0.001 A 
ATOM     56  C   UNL A   1      47.530  27.693  34.566  1.00  0.00     0.000 A 
ENDBRANCH  38  51
ENDBRANCH  12  13
ENDBRANCH   5   7
ENDBRANCH   2   3
ENDBRANCH   1   2
BRANCH   1  57
ATOM     57  C   UNL A   1      31.466  30.726  25.684  1.00  0.00     0.117 C 
BRANCH  57  58
ATOM     58  N   UNL A   1      32.583  29.887  26.076  1.00  0.00    -0.356 N 
ATOM     59  C   UNL A   1      32.954  28.665  25.588  1.00  0.00     0.223 C 
ATOM     60  H   UNL A   1      33.154  30.249  26.792  1.00  0.00     0.163 HD
ATOM     61  O   UNL A   1      33.995  28.134  25.956  1.00  0.00    -0.275 OA
BRANCH  59  62
ATOM     62  C   UNL A   1      32.159  28.060  24.499  1.00  0.00     0.091 C 
ATOM     63  C   UNL A   1      30.692  27.735  24.611  1.00  0.00     0.028 C 
ATOM     64  C   UNL A   1      31.710  26.615  24.577  1.00  0.00     0.092 C 
BRANCH  64  65
ATOM     65  C   UNL A   1      31.775  25.767  25.807  1.00  0.00     0.226 C 
ATOM     66  O   UNL A   1      31.096  26.070  26.784  1.00  0.00    -0.275 OA
ATOM     67  N   UNL A   1      32.454  24.566  25.714  1.00  0.00    -0.339 N 
ATOM     68  C   UNL A   1      32.038  23.454  26.581  1.00  0.00     0.141 C 
ATOM     69  C   UNL A   1      33.554  24.242  24.789  1.00  0.00     0.141 C 
ATOM     70  C   UNL A   1      31.667  22.219  25.727  1.00  0.00     0.139 C 
ATOM     71  C   UNL A   1      33.244  22.979  23.959  1.00  0.00     0.139 C 
ATOM     72  N   UNL A   1      32.805  21.910  24.859  1.00  0.00    -0.352 N 
BRANCH  72  73
ATOM     73  C   UNL A   1      33.164  20.600  24.654  1.00  0.00     0.147 A 
ATOM     74  N   UNL A   1      32.180  19.728  24.322  1.00  0.00    -0.237 NA
ATOM     75  C   UNL A   1      34.480  20.150  24.853  1.00  0.00     0.084 A 
ATOM     76  C   UNL A   1      32.500  18.419  24.164  1.00  0.00     0.126 A 
ATOM     77  C   UNL A   1      34.779  18.797  24.703  1.00  0.00     0.039 A 
ATOM     78  Cl  UNL A   1      35.755  21.190  25.392  1.00  0.00    -0.080 Cl
ATOM     79  C   UNL A   1      33.771  17.902  24.349  1.00  0.00     0.075 A 
BRANCH  79  80
ATOM     80  C   UNL A   1      34.022  16.437  24.177  1.00  0.00     0.417 C 
ATOM     81  F   UNL A   1      34.301  16.102  22.888  1.00  0.00    -0.166 F 
ATOM     82  F   UNL A   1      35.077  16.000  24.916  1.00  0.00    -0.166 F 
ATOM     83  F   UNL A   1      32.963  15.662  24.543  1.00  0.00    -0.166 F 
ENDBRANCH  79  80
ENDBRANCH  72  73
ENDBRANCH  64  65
ENDBRANCH  59  62
ENDBRANCH  57  58
ENDBRANCH   1  57
TORSDOF 13
ENDMDL
MODEL 3
REMARK VINA RESULT:     -12.5      0.943      5.863
REMARK SMILES O=C(NCCCNC(=O)[C@@H]1C[C@@H]1C(=O)N1CCN(c2ncc(C(F)(F)F)cc2Cl)CC1)c1ccc(-c2c3nc(c(-c4ccccc4)c4ccc([nH]4)c(-c4ccccc4)c4nc(c(-c5ccccc5)c5ccc2[nH]5)C=C4)C=C3)cc1
REMARK SMILES IDX 5 1 4 2 3 3 1 4 2 5 32 7 33 8 79 9 34 10 78 11 35 12 36 13
REMARK SMILES IDX 37 14 72 15 38 16 77 17 71 18 73 19 39 20 76 21 70 22 69 23
REMARK SMILES IDX 40 25 62 26 47 27 61 28 48 29 51 30 60 31 74 32 49 33 50 34
REMARK SMILES IDX 59 36 75 37 52 38 41 39 42 40 46 41 43 42 45 43 44 44 63 45
REMARK SMILES IDX 64 46 68 47 65 48 67 49 66 50 53 51 54 52 58 53 55 54 57 55
REMARK SMILES IDX 56 56 6 57 7 58 8 59 9 61 10 62 11 63 12 64 13 65 14 66
REMARK SMILES IDX 15 67 16 68 31 69 17 70 30 71 18 72 19 73 20 74 28 75 21 76
REMARK SMILES IDX 27 77 29 78 22 79 23 80 24 81 25 82 26 83
REMARK H PARENT 3 6 73 24 51 35 7 60
REMARK Flexibility Score: inf
ROOT
ATOM      1  C   UNL A   1      37.433  19.473  25.000  1.00  0.00     0.042 C 
ENDROOT
BRANCH   1   2
ATOM      2  C   UNL A   1      38.659  20.182  25.569  1.00  0.00     0.118 C 
BRANCH   2   3
ATOM      3  N   UNL A   1      39.814  19.301  25.691  1.00  0.00    -0.352 N 
ATOM      4  O   UNL A   1      41.967  18.704  25.934  1.00  0.00    -0.269 OA
ATOM      5  C   UNL A   1      41.106  19.569  26.068  1.00  0.00     0.251 C 
ATOM      6  H   UNL A   1      39.638  18.358  25.466  1.00  0.00     0.163 HD
BRANCH   5   7
ATOM      7  C   UNL A   1      41.478  20.892  26.613  1.00  0.00     0.039 A 
ATOM      8  C   UNL A   1      41.367  21.178  27.976  1.00  0.00     0.014 A 
ATOM      9  C   UNL A   1      41.996  21.854  25.740  1.00  0.00     0.014 A 
ATOM     10  C   UNL A   1      41.643  22.461  28.444  1.00  0.00     0.010 A 
ATOM     11  C   UNL A   1      42.345  23.118  26.223  1.00  0.00     0.010 A 
ATOM     12  C   UNL A   1      42.141  23.442  27.573  1.00  0.00    -0.014 A 
BRANCH  12  13
ATOM     13  C   UNL A   1      42.476  24.795  28.082  1.00  0.00     0.031 A 
ATOM     14  C   UNL A   1      43.882  25.135  28.491  1.00  0.00     0.074 A 
ATOM     15  C   UNL A   1      41.502  25.719  28.193  1.00  0.00     0.049 A 
ATOM     16  N   UNL A   1      44.345  26.246  29.008  1.00  0.00    -0.248 NA
ATOM     17  C   UNL A   1      44.899  24.089  28.303  1.00  0.00     0.031 C 
ATOM     18  C   UNL A   1      40.100  25.516  27.825  1.00  0.00     0.029 A 
ATOM     19  N   UNL A   1      41.544  27.010  28.652  1.00  0.00    -0.354 N 
ATOM     20  C   UNL A   1      45.700  26.025  29.229  1.00  0.00     0.074 A 
ATOM     21  C   UNL A   1      45.977  24.666  28.813  1.00  0.00     0.031 C 
ATOM     22  C   UNL A   1      39.419  26.649  28.053  1.00  0.00     0.029 A 
ATOM     23  C   UNL A   1      40.321  27.634  28.639  1.00  0.00     0.049 A 
ATOM     24  H   UNL A   1      42.370  27.448  28.961  1.00  0.00     0.167 HD
ATOM     25  C   UNL A   1      46.627  26.877  29.728  1.00  0.00     0.031 A 
ATOM     26  C   UNL A   1      39.954  28.854  29.075  1.00  0.00     0.031 A 
ATOM     27  C   UNL A   1      46.347  28.225  30.149  1.00  0.00     0.049 A 
ATOM     28  C   UNL A   1      40.989  29.762  29.674  1.00  0.00     0.074 A 
ATOM     29  C   UNL A   1      47.225  29.176  30.640  1.00  0.00     0.029 A 
ATOM     30  N   UNL A   1      45.089  28.811  30.139  1.00  0.00    -0.354 N 
ATOM     31  N   UNL A   1      42.272  29.551  29.845  1.00  0.00    -0.248 NA
ATOM     32  C   UNL A   1      40.526  31.078  30.135  1.00  0.00     0.031 C 
ATOM     33  C   UNL A   1      46.490  30.316  30.983  1.00  0.00     0.029 A 
ATOM     34  C   UNL A   1      45.164  30.100  30.641  1.00  0.00     0.049 A 
ATOM     35  H   UNL A   1      44.266  28.375  29.822  1.00  0.00     0.167 HD
ATOM     36  C   UNL A   1      42.775  30.717  30.406  1.00  0.00     0.074 A 
ATOM     37  C   UNL A   1      41.661  31.634  30.539  1.00  0.00     0.031 C 
ATOM     38  C   UNL A   1      44.049  31.003  30.770  1.00  0.00     0.031 A 
BRANCH  25  39
ATOM     39  C   UNL A   1      48.031  26.357  29.885  1.00  0.00    -0.014 A 
ATOM     40  C   UNL A   1      48.974  26.463  28.850  1.00  0.00     0.009 A 
ATOM     41  C   UNL A   1      48.422  25.770  31.098  1.00  0.00     0.009 A 
ATOM     42  C   UNL A   1      50.265  25.952  29.012  1.00  0.00     0.001 A 
ATOM     43  C   UNL A   1      49.722  25.288  31.269  1.00  0.00     0.001 A 
ATOM     44  C   UNL A   1      50.637  25.368  30.223  1.00  0.00     0.000 A 
ENDBRANCH  25  39
BRANCH  26  45
ATOM     45  C   UNL A   1      38.534  29.272  28.967  1.00  0.00    -0.014 A 
ATOM     46  C   UNL A   1      37.669  29.159  30.065  1.00  0.00     0.009 A 
ATOM     47  C   UNL A   1      38.044  29.819  27.768  1.00  0.00     0.009 A 
ATOM     48  C   UNL A   1      36.339  29.572  29.961  1.00  0.00     0.001 A 
ATOM     49  C   UNL A   1      36.722  30.258  27.678  1.00  0.00     0.001 A 
ATOM     50  C   UNL A   1      35.869  30.127  28.772  1.00  0.00     0.000 A 
ENDBRANCH  26  45
BRANCH  38  51
ATOM     51  C   UNL A   1      44.321  32.381  31.306  1.00  0.00    -0.014 A 
ATOM     52  C   UNL A   1      44.639  33.450  30.454  1.00  0.00     0.009 A 
ATOM     53  C   UNL A   1      44.207  32.620  32.684  1.00  0.00     0.009 A 
ATOM     54  C   UNL A   1      44.861  34.725  30.976  1.00  0.00     0.001 A 
ATOM     55  C   UNL A   1      44.401  33.902  33.200  1.00  0.00     0.001 A 
ATOM     56  C   UNL A   1      44.737  34.951  32.348  1.00  0.00     0.000 A 
ENDBRANCH  38  51
ENDBRANCH  12  13
ENDBRANCH   5   7
ENDBRANCH   2   3
ENDBRANCH   1   2
BRANCH   1  57
ATOM     57  C   UNL A   1      36.301  20.414  24.603  1.00  0.00     0.117 C 
BRANCH  57  58
ATOM     58  N   UNL A   1      35.520  20.846  25.747  1.00  0.00    -0.356 N 
ATOM     59  C   UNL A   1      35.293  22.114  26.204  1.00  0.00     0.223 C 
ATOM     60  H   UNL A   1      35.093  20.125  26.265  1.00  0.00     0.163 HD
ATOM     61  O   UNL A   1      34.514  22.316  27.128  1.00  0.00    -0.275 OA
BRANCH  59  62
ATOM     62  C   UNL A   1      35.886  23.254  25.473  1.00  0.00     0.091 C 
ATOM     63  C   UNL A   1      35.353  24.661  25.535  1.00  0.00     0.028 C 
ATOM     64  C   UNL A   1      35.188  23.850  24.268  1.00  0.00     0.092 C 
BRANCH  64  65
ATOM     65  C   UNL A   1      33.777  23.559  23.870  1.00  0.00     0.226 C 
ATOM     66  O   UNL A   1      33.279  22.476  24.163  1.00  0.00    -0.275 OA
ATOM     67  N   UNL A   1      33.033  24.606  23.356  1.00  0.00    -0.339 N 
ATOM     68  C   UNL A   1      31.577  24.597  23.551  1.00  0.00     0.141 C 
ATOM     69  C   UNL A   1      33.549  25.793  22.651  1.00  0.00     0.141 C 
ATOM     70  C   UNL A   1      31.125  25.885  24.278  1.00  0.00     0.139 C 
ATOM     71  C   UNL A   1      33.070  27.101  23.316  1.00  0.00     0.139 C 
ATOM     72  N   UNL A   1      31.621  27.033  23.518  1.00  0.00    -0.352 N 
BRANCH  72  73
ATOM     73  C   UNL A   1      30.816  28.133  23.351  1.00  0.00     0.147 A 
ATOM     74  N   UNL A   1      30.078  28.201  22.216  1.00  0.00    -0.237 NA
ATOM     75  C   UNL A   1      30.807  29.194  24.274  1.00  0.00     0.084 A 
ATOM     76  C   UNL A   1      29.314  29.301  22.004  1.00  0.00     0.126 A 
ATOM     77  C   UNL A   1      30.028  30.322  24.022  1.00  0.00     0.039 A 
ATOM     78  Cl  UNL A   1      31.815  29.222  25.680  1.00  0.00    -0.080 Cl
ATOM     79  C   UNL A   1      29.258  30.386  22.863  1.00  0.00     0.075 A 
BRANCH  79  80
ATOM     80  C   UNL A   1      28.405  31.569  22.530  1.00  0.00     0.417 C 
ATOM     81  F   UNL A   1      29.112  32.730  22.492  1.00  0.00    -0.166 F 
ATOM     82  F   UNL A   1      27.807  31.453  21.313  1.00  0.00    -0.166 F 
ATOM     83  F   UNL A   1      27.397  31.775  23.423  1.00  0.00    -0.166 F 
ENDBRANCH  79  80
ENDBRANCH  72  73
ENDBRANCH  64  65
ENDBRANCH  59  62
ENDBRANCH  57  58
ENDBRANCH   1  57
TORSDOF 13
ENDMDL
