MODEL 1
REMARK VINA RESULT:     -13.1      0.000      0.000
REMARK SMILES Cc1ccc(C(=O)NCCCNC(=O)c2ccc(-c3c4nc(c(-c5ccccc5)c5ccc([nH]5)c(-c5ccccc5)c5nc(c(-c6ccccc6)c6ccc3[nH]6)C=C5)C=C4)cc2)cc1N1C(=O)/C(=C\c2nc3ccccc3n2C)SC1=S
REMARK SMILES IDX 10 1 9 2 8 3 6 4 7 5 5 7 1 8 2 9 3 10 64 11 4 12 63 13 65 14
REMARK SMILES IDX 66 15 81 16 67 17 68 18 80 19 82 20 69 21 70 22 71 23 78 24
REMARK SMILES IDX 72 25 77 26 79 27 73 28 76 29 74 30 75 31 11 32 12 33 13 34
REMARK SMILES IDX 14 36 15 37 16 38 62 39 17 40 61 41 18 42 19 43 20 44 55 45
REMARK SMILES IDX 21 46 60 47 54 48 56 49 22 50 59 51 53 52 52 53 23 55 45 56
REMARK SMILES IDX 30 57 44 58 31 59 34 60 43 61 57 62 32 63 33 64 42 66 58 67
REMARK SMILES IDX 35 68 24 69 25 70 29 71 26 72 28 73 27 74 46 75 47 76 51 77
REMARK SMILES IDX 48 78 50 79 49 80 36 81 37 82 41 83 38 84 40 85 39 86
REMARK H PARENT 8 6 12 35 56 54 34 65
REMARK Flexibility Score: inf
ROOT
ATOM      1  C   UNL A   1      32.181  33.569  27.482  1.00  0.00     0.042 C 
ENDROOT
BRANCH   1   2
ATOM      2  C   UNL A   1      32.140  32.118  26.993  1.00  0.00     0.118 C 
BRANCH   2   3
ATOM      3  N   UNL A   1      33.391  31.407  27.245  1.00  0.00    -0.352 N 
ATOM      4  C   UNL A   1      33.758  30.086  27.091  1.00  0.00     0.251 C 
ATOM      5  O   UNL A   1      34.951  29.808  27.225  1.00  0.00    -0.269 OA
ATOM      6  H   UNL A   1      34.111  31.981  27.593  1.00  0.00     0.163 HD
BRANCH   4   7
ATOM      7  C   UNL A   1      32.807  28.979  26.761  1.00  0.00     0.041 A 
ATOM      8  C   UNL A   1      30.100  25.653  26.038  1.00  0.00     0.046 C 
ATOM      9  C   UNL A   1      31.010  26.837  26.207  1.00  0.00    -0.027 A 
ATOM     10  C   UNL A   1      31.104  27.407  27.493  1.00  0.00     0.006 A 
ATOM     11  C   UNL A   1      31.798  27.379  25.181  1.00  0.00     0.054 A 
ATOM     12  C   UNL A   1      32.002  28.449  27.771  1.00  0.00     0.014 A 
ATOM     13  C   UNL A   1      32.639  28.461  25.484  1.00  0.00     0.041 A 
BRANCH  11  14
ATOM     14  N   UNL A   1      31.916  26.803  23.877  1.00  0.00    -0.261 N 
ATOM     15  C   UNL A   1      33.021  26.001  23.595  1.00  0.00     0.270 C 
ATOM     16  C   UNL A   1      31.156  27.152  22.775  1.00  0.00     0.152 C 
ATOM     17  O   UNL A   1      34.083  25.975  24.207  1.00  0.00    -0.268 OA
ATOM     18  C   UNL A   1      32.838  25.320  22.283  1.00  0.00     0.084 C 
ATOM     19  S   UNL A   1      31.657  26.180  21.374  1.00  0.00    -0.054 SA
ATOM     20  S   UNL A   1      30.016  28.365  22.618  1.00  0.00    -0.051 S 
ATOM     21  C   UNL A   1      33.463  24.201  21.880  1.00  0.00     0.068 C 
BRANCH  21  22
ATOM     22  C   UNL A   1      34.223  23.441  22.810  1.00  0.00     0.134 A 
ATOM     23  N   UNL A   1      35.524  23.512  23.018  1.00  0.00    -0.229 NA
ATOM     24  N   UNL A   1      33.666  22.465  23.612  1.00  0.00    -0.328 N 
ATOM     25  C   UNL A   1      35.844  22.409  23.760  1.00  0.00     0.089 A 
ATOM     26  C   UNL A   1      34.698  21.715  24.139  1.00  0.00     0.068 A 
ATOM     27  C   UNL A   1      32.261  22.232  23.843  1.00  0.00     0.152 C 
ATOM     28  C   UNL A   1      37.108  21.926  24.125  1.00  0.00     0.030 A 
ATOM     29  C   UNL A   1      34.757  20.528  24.880  1.00  0.00     0.028 A 
ATOM     30  C   UNL A   1      37.188  20.734  24.851  1.00  0.00     0.002 A 
ATOM     31  C   UNL A   1      36.030  20.048  25.219  1.00  0.00     0.002 A 
ENDBRANCH  21  22
ENDBRANCH  11  14
ENDBRANCH   4   7
ENDBRANCH   2   3
ENDBRANCH   1   2
BRANCH   1  32
ATOM     32  C   UNL A   1      33.529  34.007  28.016  1.00  0.00     0.118 C 
BRANCH  32  33
ATOM     33  N   UNL A   1      33.580  34.178  29.466  1.00  0.00    -0.352 N 
ATOM     34  C   UNL A   1      34.386  33.492  30.364  1.00  0.00     0.251 C 
ATOM     35  H   UNL A   1      32.977  34.856  29.848  1.00  0.00     0.163 HD
ATOM     36  O   UNL A   1      34.365  33.733  31.555  1.00  0.00    -0.269 OA
BRANCH  34  37
ATOM     37  C   UNL A   1      35.373  32.543  29.794  1.00  0.00     0.039 A 
ATOM     38  C   UNL A   1      35.605  31.364  30.504  1.00  0.00     0.014 A 
ATOM     39  C   UNL A   1      36.259  32.975  28.808  1.00  0.00     0.014 A 
ATOM     40  C   UNL A   1      36.854  30.762  30.412  1.00  0.00     0.010 A 
ATOM     41  C   UNL A   1      37.530  32.433  28.783  1.00  0.00     0.010 A 
ATOM     42  C   UNL A   1      37.847  31.375  29.640  1.00  0.00    -0.014 A 
BRANCH  42  43
ATOM     43  C   UNL A   1      39.253  31.013  29.764  1.00  0.00     0.031 A 
ATOM     44  C   UNL A   1      39.749  29.793  29.106  1.00  0.00     0.074 A 
ATOM     45  C   UNL A   1      40.098  31.723  30.546  1.00  0.00     0.049 A 
ATOM     46  N   UNL A   1      40.586  28.968  29.643  1.00  0.00    -0.248 NA
ATOM     47  C   UNL A   1      39.278  29.385  27.790  1.00  0.00     0.031 C 
ATOM     48  C   UNL A   1      41.538  31.523  30.683  1.00  0.00     0.029 A 
ATOM     49  N   UNL A   1      39.780  32.618  31.565  1.00  0.00    -0.354 N 
ATOM     50  C   UNL A   1      40.983  28.102  28.652  1.00  0.00     0.074 A 
ATOM     51  C   UNL A   1      40.071  28.337  27.553  1.00  0.00     0.031 C 
ATOM     52  C   UNL A   1      41.920  31.992  31.883  1.00  0.00     0.029 A 
ATOM     53  C   UNL A   1      40.723  32.422  32.587  1.00  0.00     0.049 A 
ATOM     54  H   UNL A   1      39.037  33.265  31.570  1.00  0.00     0.167 HD
ATOM     55  C   UNL A   1      42.139  27.392  28.783  1.00  0.00     0.031 A 
ATOM     56  C   UNL A   1      40.399  32.118  33.876  1.00  0.00     0.031 A 
ATOM     57  C   UNL A   1      42.821  27.671  30.044  1.00  0.00     0.049 A 
ATOM     58  C   UNL A   1      41.013  30.821  34.354  1.00  0.00     0.074 A 
ATOM     59  C   UNL A   1      43.887  28.498  30.359  1.00  0.00     0.029 A 
ATOM     60  N   UNL A   1      42.245  27.292  31.250  1.00  0.00    -0.354 N 
ATOM     61  N   UNL A   1      41.568  29.948  33.562  1.00  0.00    -0.248 NA
ATOM     62  C   UNL A   1      40.964  30.363  35.741  1.00  0.00     0.031 C 
ATOM     63  C   UNL A   1      43.916  28.662  31.765  1.00  0.00     0.029 A 
ATOM     64  C   UNL A   1      42.881  27.921  32.304  1.00  0.00     0.049 A 
ATOM     65  H   UNL A   1      41.491  26.666  31.341  1.00  0.00     0.167 HD
ATOM     66  C   UNL A   1      41.900  28.828  34.278  1.00  0.00     0.074 A 
ATOM     67  C   UNL A   1      41.525  29.145  35.643  1.00  0.00     0.031 C 
ATOM     68  C   UNL A   1      42.427  27.724  33.674  1.00  0.00     0.031 A 
BRANCH  55  69
ATOM     69  C   UNL A   1      42.808  26.711  27.612  1.00  0.00    -0.014 A 
ATOM     70  C   UNL A   1      42.504  25.369  27.318  1.00  0.00     0.009 A 
ATOM     71  C   UNL A   1      43.780  27.316  26.798  1.00  0.00     0.009 A 
ATOM     72  C   UNL A   1      43.213  24.640  26.355  1.00  0.00     0.001 A 
ATOM     73  C   UNL A   1      44.526  26.582  25.864  1.00  0.00     0.001 A 
ATOM     74  C   UNL A   1      44.252  25.238  25.654  1.00  0.00     0.000 A 
ENDBRANCH  55  69
BRANCH  56  75
ATOM     75  C   UNL A   1      39.059  32.606  34.293  1.00  0.00    -0.014 A 
ATOM     76  C   UNL A   1      38.900  33.985  34.527  1.00  0.00     0.009 A 
ATOM     77  C   UNL A   1      37.918  31.822  34.065  1.00  0.00     0.009 A 
ATOM     78  C   UNL A   1      37.644  34.587  34.406  1.00  0.00     0.001 A 
ATOM     79  C   UNL A   1      36.664  32.430  33.952  1.00  0.00     0.001 A 
ATOM     80  C   UNL A   1      36.534  33.814  34.082  1.00  0.00     0.000 A 
ENDBRANCH  56  75
BRANCH  68  81
ATOM     81  C   UNL A   1      42.639  26.380  34.322  1.00  0.00    -0.014 A 
ATOM     82  C   UNL A   1      41.694  25.737  35.135  1.00  0.00     0.009 A 
ATOM     83  C   UNL A   1      43.807  25.649  34.009  1.00  0.00     0.009 A 
ATOM     84  C   UNL A   1      41.929  24.455  35.652  1.00  0.00     0.001 A 
ATOM     85  C   UNL A   1      44.026  24.355  34.487  1.00  0.00     0.001 A 
ATOM     86  C   UNL A   1      43.090  23.763  35.323  1.00  0.00     0.000 A 
ENDBRANCH  68  81
ENDBRANCH  42  43
ENDBRANCH  34  37
ENDBRANCH  32  33
ENDBRANCH   1  32
TORSDOF 12
ENDMDL
MODEL 2
REMARK VINA RESULT:     -13.1      1.482      2.056
REMARK SMILES Cc1ccc(C(=O)NCCCNC(=O)c2ccc(-c3c4nc(c(-c5ccccc5)c5ccc([nH]5)c(-c5ccccc5)c5nc(c(-c6ccccc6)c6ccc3[nH]6)C=C5)C=C4)cc2)cc1N1C(=O)/C(=C\c2nc3ccccc3n2C)SC1=S
REMARK SMILES IDX 10 1 9 2 8 3 6 4 7 5 5 7 1 8 2 9 3 10 64 11 4 12 63 13 65 14
REMARK SMILES IDX 66 15 81 16 67 17 68 18 80 19 82 20 69 21 70 22 71 23 78 24
REMARK SMILES IDX 72 25 77 26 79 27 73 28 76 29 74 30 75 31 11 32 12 33 13 34
REMARK SMILES IDX 14 36 15 37 16 38 62 39 17 40 61 41 18 42 19 43 20 44 55 45
REMARK SMILES IDX 21 46 60 47 54 48 56 49 22 50 59 51 53 52 52 53 23 55 45 56
REMARK SMILES IDX 30 57 44 58 31 59 34 60 43 61 57 62 32 63 33 64 42 66 58 67
REMARK SMILES IDX 35 68 24 69 25 70 29 71 26 72 28 73 27 74 46 75 47 76 51 77
REMARK SMILES IDX 48 78 50 79 49 80 36 81 37 82 41 83 38 84 40 85 39 86
REMARK H PARENT 8 6 12 35 56 54 34 65
REMARK Flexibility Score: inf
ROOT
ATOM      1  C   UNL A   1      34.733  31.753  29.241  1.00  0.00     0.042 C 
ENDROOT
BRANCH   1   2
ATOM      2  C   UNL A   1      34.460  31.087  27.889  1.00  0.00     0.118 C 
BRANCH   2   3
ATOM      3  N   UNL A   1      33.319  31.678  27.195  1.00  0.00    -0.352 N 
ATOM      4  C   UNL A   1      32.157  31.136  26.684  1.00  0.00     0.251 C 
ATOM      5  O   UNL A   1      31.286  31.918  26.299  1.00  0.00    -0.269 OA
ATOM      6  H   UNL A   1      33.393  32.651  27.065  1.00  0.00     0.163 HD
BRANCH   4   7
ATOM      7  C   UNL A   1      31.885  29.668  26.583  1.00  0.00     0.041 A 
ATOM      8  C   UNL A   1      31.258  25.366  26.495  1.00  0.00     0.046 C 
ATOM      9  C   UNL A   1      31.418  26.859  26.456  1.00  0.00    -0.027 A 
ATOM     10  C   UNL A   1      31.498  27.538  27.688  1.00  0.00     0.006 A 
ATOM     11  C   UNL A   1      31.531  27.608  25.276  1.00  0.00     0.054 A 
ATOM     12  C   UNL A   1      31.747  28.917  27.752  1.00  0.00     0.014 A 
ATOM     13  C   UNL A   1      31.719  28.996  25.380  1.00  0.00     0.041 A 
BRANCH  11  14
ATOM     14  N   UNL A   1      31.622  27.032  23.969  1.00  0.00    -0.261 N 
ATOM     15  C   UNL A   1      32.744  26.271  23.648  1.00  0.00     0.270 C 
ATOM     16  C   UNL A   1      30.807  27.347  22.896  1.00  0.00     0.152 C 
ATOM     17  O   UNL A   1      33.829  26.288  24.219  1.00  0.00    -0.268 OA
ATOM     18  C   UNL A   1      32.538  25.578  22.346  1.00  0.00     0.084 C 
ATOM     19  S   UNL A   1      31.291  26.388  21.480  1.00  0.00    -0.054 SA
ATOM     20  S   UNL A   1      29.617  28.516  22.779  1.00  0.00    -0.051 S 
ATOM     21  C   UNL A   1      33.189  24.482  21.923  1.00  0.00     0.068 C 
BRANCH  21  22
ATOM     22  C   UNL A   1      34.012  23.754  22.825  1.00  0.00     0.134 A 
ATOM     23  N   UNL A   1      35.318  23.863  22.972  1.00  0.00    -0.229 NA
ATOM     24  N   UNL A   1      33.519  22.774  23.664  1.00  0.00    -0.328 N 
ATOM     25  C   UNL A   1      35.703  22.780  23.711  1.00  0.00     0.089 A 
ATOM     26  C   UNL A   1      34.596  22.060  24.151  1.00  0.00     0.068 A 
ATOM     27  C   UNL A   1      32.134  22.506  23.963  1.00  0.00     0.152 C 
ATOM     28  C   UNL A   1      36.995  22.336  24.023  1.00  0.00     0.030 A 
ATOM     29  C   UNL A   1      34.721  20.884  24.903  1.00  0.00     0.028 A 
ATOM     30  C   UNL A   1      37.142  21.156  24.758  1.00  0.00     0.002 A 
ATOM     31  C   UNL A   1      36.021  20.443  25.187  1.00  0.00     0.002 A 
ENDBRANCH  21  22
ENDBRANCH  11  14
ENDBRANCH   4   7
ENDBRANCH   2   3
ENDBRANCH   1   2
BRANCH   1  32
ATOM     32  C   UNL A   1      34.742  33.267  29.198  1.00  0.00     0.118 C 
BRANCH  32  33
ATOM     33  N   UNL A   1      33.796  33.906  30.108  1.00  0.00    -0.352 N 
ATOM     34  C   UNL A   1      33.984  34.184  31.455  1.00  0.00     0.251 C 
ATOM     35  H   UNL A   1      32.928  34.169  29.724  1.00  0.00     0.163 HD
ATOM     36  O   UNL A   1      33.132  34.744  32.117  1.00  0.00    -0.269 OA
BRANCH  34  37
ATOM     37  C   UNL A   1      35.321  33.889  32.024  1.00  0.00     0.039 A 
ATOM     38  C   UNL A   1      36.360  34.761  31.692  1.00  0.00     0.014 A 
ATOM     39  C   UNL A   1      35.583  32.628  32.559  1.00  0.00     0.014 A 
ATOM     40  C   UNL A   1      37.659  34.269  31.649  1.00  0.00     0.010 A 
ATOM     41  C   UNL A   1      36.858  32.111  32.428  1.00  0.00     0.010 A 
ATOM     42  C   UNL A   1      37.878  32.911  31.902  1.00  0.00    -0.014 A 
BRANCH  42  43
ATOM     43  C   UNL A   1      39.127  32.251  31.544  1.00  0.00     0.031 A 
ATOM     44  C   UNL A   1      39.093  31.040  30.708  1.00  0.00     0.074 A 
ATOM     45  C   UNL A   1      40.313  32.670  32.039  1.00  0.00     0.049 A 
ATOM     46  N   UNL A   1      39.834  30.000  30.907  1.00  0.00    -0.248 NA
ATOM     47  C   UNL A   1      38.158  30.897  29.601  1.00  0.00     0.031 C 
ATOM     48  C   UNL A   1      41.636  32.158  31.690  1.00  0.00     0.029 A 
ATOM     49  N   UNL A   1      40.546  33.486  33.144  1.00  0.00    -0.354 N 
ATOM     50  C   UNL A   1      39.690  29.193  29.803  1.00  0.00     0.074 A 
ATOM     51  C   UNL A   1      38.568  29.741  29.073  1.00  0.00     0.031 C 
ATOM     52  C   UNL A   1      42.468  32.392  32.719  1.00  0.00     0.029 A 
ATOM     53  C   UNL A   1      41.682  32.977  33.793  1.00  0.00     0.049 A 
ATOM     54  H   UNL A   1      40.015  34.269  33.419  1.00  0.00     0.167 HD
ATOM     55  C   UNL A   1      40.628  28.245  29.518  1.00  0.00     0.031 A 
ATOM     56  C   UNL A   1      41.708  32.599  35.102  1.00  0.00     0.031 A 
ATOM     57  C   UNL A   1      41.710  28.224  30.499  1.00  0.00     0.049 A 
ATOM     58  C   UNL A   1      42.114  31.155  35.297  1.00  0.00     0.074 A 
ATOM     59  C   UNL A   1      42.986  28.767  30.486  1.00  0.00     0.029 A 
ATOM     60  N   UNL A   1      41.460  27.836  31.809  1.00  0.00    -0.354 N 
ATOM     61  N   UNL A   1      42.175  30.284  34.329  1.00  0.00    -0.248 NA
ATOM     62  C   UNL A   1      42.386  30.557  36.603  1.00  0.00     0.031 C 
ATOM     63  C   UNL A   1      43.483  28.754  31.811  1.00  0.00     0.029 A 
ATOM     64  C   UNL A   1      42.519  28.189  32.625  1.00  0.00     0.049 A 
ATOM     65  H   UNL A   1      40.645  27.376  32.114  1.00  0.00     0.167 HD
ATOM     66  C   UNL A   1      42.436  29.043  34.849  1.00  0.00     0.074 A 
ATOM     67  C   UNL A   1      42.585  29.269  36.274  1.00  0.00     0.031 C 
ATOM     68  C   UNL A   1      42.475  27.932  34.058  1.00  0.00     0.031 A 
BRANCH  55  69
ATOM     69  C   UNL A   1      40.724  27.581  28.165  1.00  0.00    -0.014 A 
ATOM     70  C   UNL A   1      40.128  26.323  27.961  1.00  0.00     0.009 A 
ATOM     71  C   UNL A   1      41.428  28.115  27.073  1.00  0.00     0.009 A 
ATOM     72  C   UNL A   1      40.326  25.589  26.784  1.00  0.00     0.001 A 
ATOM     73  C   UNL A   1      41.670  27.369  25.911  1.00  0.00     0.001 A 
ATOM     74  C   UNL A   1      41.131  26.097  25.773  1.00  0.00     0.000 A 
ENDBRANCH  55  69
BRANCH  56  75
ATOM     75  C   UNL A   1      40.716  33.305  35.954  1.00  0.00    -0.014 A 
ATOM     76  C   UNL A   1      39.483  32.671  36.199  1.00  0.00     0.009 A 
ATOM     77  C   UNL A   1      41.126  34.339  36.809  1.00  0.00     0.009 A 
ATOM     78  C   UNL A   1      38.741  32.975  37.343  1.00  0.00     0.001 A 
ATOM     79  C   UNL A   1      40.376  34.642  37.949  1.00  0.00     0.001 A 
ATOM     80  C   UNL A   1      39.208  33.934  38.237  1.00  0.00     0.000 A 
ENDBRANCH  56  75
BRANCH  68  81
ATOM     81  C   UNL A   1      42.551  26.507  34.542  1.00  0.00    -0.014 A 
ATOM     82  C   UNL A   1      41.548  25.871  35.286  1.00  0.00     0.009 A 
ATOM     83  C   UNL A   1      43.640  25.705  34.131  1.00  0.00     0.009 A 
ATOM     84  C   UNL A   1      41.654  24.519  35.647  1.00  0.00     0.001 A 
ATOM     85  C   UNL A   1      43.728  24.348  34.451  1.00  0.00     0.001 A 
ATOM     86  C   UNL A   1      42.738  23.758  35.224  1.00  0.00     0.000 A 
ENDBRANCH  68  81
ENDBRANCH  42  43
ENDBRANCH  34  37
ENDBRANCH  32  33
ENDBRANCH   1  32
TORSDOF 12
ENDMDL
MODEL 3
REMARK VINA RESULT:     -12.7      3.243      9.271
REMARK SMILES Cc1ccc(C(=O)NCCCNC(=O)c2ccc(-c3c4nc(c(-c5ccccc5)c5ccc([nH]5)c(-c5ccccc5)c5nc(c(-c6ccccc6)c6ccc3[nH]6)C=C5)C=C4)cc2)cc1N1C(=O)/C(=C\c2nc3ccccc3n2C)SC1=S
REMARK SMILES IDX 10 1 9 2 8 3 6 4 7 5 5 7 1 8 2 9 3 10 64 11 4 12 63 13 65 14
REMARK SMILES IDX 66 15 81 16 67 17 68 18 80 19 82 20 69 21 70 22 71 23 78 24
REMARK SMILES IDX 72 25 77 26 79 27 73 28 76 29 74 30 75 31 11 32 12 33 13 34
REMARK SMILES IDX 14 36 15 37 16 38 62 39 17 40 61 41 18 42 19 43 20 44 55 45
REMARK SMILES IDX 21 46 60 47 54 48 56 49 22 50 59 51 53 52 52 53 23 55 45 56
REMARK SMILES IDX 30 57 44 58 31 59 34 60 43 61 57 62 32 63 33 64 42 66 58 67
REMARK SMILES IDX 35 68 24 69 25 70 29 71 26 72 28 73 27 74 46 75 47 76 51 77
REMARK SMILES IDX 48 78 50 79 49 80 36 81 37 82 41 83 38 84 40 85 39 86
REMARK H PARENT 8 6 12 35 56 54 34 65
REMARK Flexibility Score: inf
ROOT
ATOM      1  C   UNL A   1      39.623  23.919  26.514  1.00  0.00     0.042 C 
ENDROOT
BRANCH   1   2
ATOM      2  C   UNL A   1      38.119  24.018  26.237  1.00  0.00     0.118 C 
BRANCH   2   3
ATOM      3  N   UNL A   1      37.764  23.550  24.900  1.00  0.00    -0.352 N 
ATOM      4  C   UNL A   1      36.550  23.371  24.268  1.00  0.00     0.251 C 
ATOM      5  O   UNL A   1      36.569  23.122  23.061  1.00  0.00    -0.269 OA
ATOM      6  H   UNL A   1      38.541  23.316  24.341  1.00  0.00     0.163 HD
BRANCH   4   7
ATOM      7  C   UNL A   1      35.222  23.470  24.950  1.00  0.00     0.041 A 
ATOM      8  C   UNL A   1      31.334  23.497  26.897  1.00  0.00     0.046 C 
ATOM      9  C   UNL A   1      32.683  23.577  26.240  1.00  0.00    -0.027 A 
ATOM     10  C   UNL A   1      33.583  22.516  26.469  1.00  0.00     0.006 A 
ATOM     11  C   UNL A   1      33.083  24.615  25.385  1.00  0.00     0.054 A 
ATOM     12  C   UNL A   1      34.825  22.454  25.820  1.00  0.00     0.014 A 
ATOM     13  C   UNL A   1      34.359  24.547  24.802  1.00  0.00     0.041 A 
BRANCH  11  14
ATOM     14  N   UNL A   1      32.218  25.666  24.946  1.00  0.00    -0.261 N 
ATOM     15  C   UNL A   1      32.235  26.879  25.631  1.00  0.00     0.270 C 
ATOM     16  C   UNL A   1      31.183  25.525  24.039  1.00  0.00     0.152 C 
ATOM     17  O   UNL A   1      32.655  27.074  26.766  1.00  0.00    -0.268 OA
ATOM     18  C   UNL A   1      31.450  27.901  24.884  1.00  0.00     0.084 C 
ATOM     19  S   UNL A   1      30.382  27.094  23.802  1.00  0.00    -0.054 SA
ATOM     20  S   UNL A   1      30.590  24.139  23.317  1.00  0.00    -0.051 S 
ATOM     21  C   UNL A   1      31.571  29.233  25.004  1.00  0.00     0.068 C 
BRANCH  21  22
ATOM     22  C   UNL A   1      32.657  29.782  25.737  1.00  0.00     0.134 A 
ATOM     23  N   UNL A   1      33.894  29.326  25.785  1.00  0.00    -0.229 NA
ATOM     24  N   UNL A   1      32.526  30.887  26.555  1.00  0.00    -0.328 N 
ATOM     25  C   UNL A   1      34.492  29.975  26.829  1.00  0.00     0.089 A 
ATOM     26  C   UNL A   1      33.653  30.956  27.351  1.00  0.00     0.068 A 
ATOM     27  C   UNL A   1      31.408  31.798  26.609  1.00  0.00     0.152 C 
ATOM     28  C   UNL A   1      35.751  29.754  27.403  1.00  0.00     0.030 A 
ATOM     29  C   UNL A   1      34.019  31.743  28.450  1.00  0.00     0.028 A 
ATOM     30  C   UNL A   1      36.128  30.516  28.512  1.00  0.00     0.002 A 
ATOM     31  C   UNL A   1      35.273  31.493  29.026  1.00  0.00     0.002 A 
ENDBRANCH  21  22
ENDBRANCH  11  14
ENDBRANCH   4   7
ENDBRANCH   2   3
ENDBRANCH   1   2
BRANCH   1  32
ATOM     32  C   UNL A   1      40.043  22.643  27.214  1.00  0.00     0.118 C 
BRANCH  32  33
ATOM     33  N   UNL A   1      40.681  21.657  26.345  1.00  0.00    -0.352 N 
ATOM     34  C   UNL A   1      42.022  21.586  25.998  1.00  0.00     0.251 C 
ATOM     35  H   UNL A   1      40.093  20.964  25.965  1.00  0.00     0.163 HD
ATOM     36  O   UNL A   1      42.452  20.703  25.283  1.00  0.00    -0.269 OA
BRANCH  34  37
ATOM     37  C   UNL A   1      42.938  22.559  26.644  1.00  0.00     0.039 A 
ATOM     38  C   UNL A   1      43.219  22.365  27.997  1.00  0.00     0.014 A 
ATOM     39  C   UNL A   1      43.205  23.777  26.020  1.00  0.00     0.014 A 
ATOM     40  C   UNL A   1      43.519  23.471  28.783  1.00  0.00     0.010 A 
ATOM     41  C   UNL A   1      43.412  24.889  26.814  1.00  0.00     0.010 A 
ATOM     42  C   UNL A   1      43.494  24.743  28.202  1.00  0.00    -0.014 A 
BRANCH  42  43
ATOM     43  C   UNL A   1      43.452  25.958  29.006  1.00  0.00     0.031 A 
ATOM     44  C   UNL A   1      42.199  26.724  29.095  1.00  0.00     0.074 A 
ATOM     45  C   UNL A   1      44.563  26.451  29.597  1.00  0.00     0.049 A 
ATOM     46  N   UNL A   1      42.133  28.014  29.059  1.00  0.00    -0.248 NA
ATOM     47  C   UNL A   1      40.901  26.068  29.177  1.00  0.00     0.031 C 
ATOM     48  C   UNL A   1      44.638  27.599  30.497  1.00  0.00     0.029 A 
ATOM     49  N   UNL A   1      45.895  26.157  29.311  1.00  0.00    -0.354 N 
ATOM     50  C   UNL A   1      40.847  28.357  29.405  1.00  0.00     0.074 A 
ATOM     51  C   UNL A   1      40.099  27.119  29.369  1.00  0.00     0.031 C 
ATOM     52  C   UNL A   1      45.879  28.109  30.435  1.00  0.00     0.029 A 
ATOM     53  C   UNL A   1      46.610  27.359  29.425  1.00  0.00     0.049 A 
ATOM     54  H   UNL A   1      46.264  25.275  29.073  1.00  0.00     0.167 HD
ATOM     55  C   UNL A   1      40.568  29.614  29.852  1.00  0.00     0.031 A 
ATOM     56  C   UNL A   1      47.372  27.891  28.428  1.00  0.00     0.031 A 
ATOM     57  C   UNL A   1      41.754  30.465  29.890  1.00  0.00     0.049 A 
ATOM     58  C   UNL A   1      46.942  29.285  28.029  1.00  0.00     0.074 A 
ATOM     59  C   UNL A   1      42.601  30.831  30.924  1.00  0.00     0.029 A 
ATOM     60  N   UNL A   1      42.388  30.835  28.710  1.00  0.00    -0.354 N 
ATOM     61  N   UNL A   1      45.813  29.826  28.393  1.00  0.00    -0.248 NA
ATOM     62  C   UNL A   1      47.698  30.137  27.112  1.00  0.00     0.031 C 
ATOM     63  C   UNL A   1      43.779  31.375  30.357  1.00  0.00     0.029 A 
ATOM     64  C   UNL A   1      43.640  31.356  28.981  1.00  0.00     0.049 A 
ATOM     65  H   UNL A   1      42.001  30.739  27.810  1.00  0.00     0.167 HD
ATOM     66  C   UNL A   1      45.659  31.030  27.758  1.00  0.00     0.074 A 
ATOM     67  C   UNL A   1      46.876  31.194  26.986  1.00  0.00     0.031 C 
ATOM     68  C   UNL A   1      44.523  31.773  27.901  1.00  0.00     0.031 A 
BRANCH  55  69
ATOM     69  C   UNL A   1      39.283  29.950  30.574  1.00  0.00    -0.014 A 
ATOM     70  C   UNL A   1      38.955  31.296  30.822  1.00  0.00     0.009 A 
ATOM     71  C   UNL A   1      38.387  28.994  31.078  1.00  0.00     0.009 A 
ATOM     72  C   UNL A   1      37.868  31.659  31.628  1.00  0.00     0.001 A 
ATOM     73  C   UNL A   1      37.325  29.345  31.923  1.00  0.00     0.001 A 
ATOM     74  C   UNL A   1      37.075  30.680  32.211  1.00  0.00     0.000 A 
ENDBRANCH  55  69
BRANCH  56  75
ATOM     75  C   UNL A   1      47.912  26.885  27.478  1.00  0.00    -0.014 A 
ATOM     76  C   UNL A   1      47.044  26.365  26.499  1.00  0.00     0.009 A 
ATOM     77  C   UNL A   1      49.296  26.763  27.287  1.00  0.00     0.009 A 
ATOM     78  C   UNL A   1      47.547  25.854  25.300  1.00  0.00     0.001 A 
ATOM     79  C   UNL A   1      49.794  26.245  26.087  1.00  0.00     0.001 A 
ATOM     80  C   UNL A   1      48.921  25.830  25.080  1.00  0.00     0.000 A 
ENDBRANCH  56  75
BRANCH  68  81
ATOM     81  C   UNL A   1      44.164  32.999  27.102  1.00  0.00    -0.014 A 
ATOM     82  C   UNL A   1      44.110  33.041  25.702  1.00  0.00     0.009 A 
ATOM     83  C   UNL A   1      43.735  34.158  27.788  1.00  0.00     0.009 A 
ATOM     84  C   UNL A   1      43.702  34.199  25.022  1.00  0.00     0.001 A 
ATOM     85  C   UNL A   1      43.287  35.298  27.116  1.00  0.00     0.001 A 
ATOM     86  C   UNL A   1      43.284  35.322  25.728  1.00  0.00     0.000 A 
ENDBRANCH  68  81
ENDBRANCH  42  43
ENDBRANCH  34  37
ENDBRANCH  32  33
ENDBRANCH   1  32
TORSDOF 12
ENDMDL
