MODEL 1
REMARK VINA RESULT:      -9.9      0.000      0.000
REMARK SMILES O=C(C[C@@H]1CN(C(=O)C[NH2+]CC2CC2)CCO1)NCCCNC(=O)c1ccc(-c2c3nc(c(-c4ccccc4)c4ccc([nH]4)c(-c4ccccc4)c4nc(c(-c5ccccc5)c5ccc2[nH]5)C=C4)C=C3)cc1
REMARK SMILES IDX 1 1 2 2 18 3 3 5 4 6 5 7 17 8 6 9 16 10 15 11 7 12 8 13 9 14
REMARK SMILES IDX 10 15 11 18 12 19 13 20 14 21 19 22 20 23 21 24 22 25 23 26
REMARK SMILES IDX 24 28 25 29 26 30 72 31 27 32 71 33 28 34 29 35 30 36 65 37
REMARK SMILES IDX 31 38 70 39 64 40 66 41 32 42 69 43 63 44 62 45 33 47 55 48
REMARK SMILES IDX 40 49 54 50 41 51 44 52 53 53 67 54 42 55 43 56 52 58 68 59
REMARK SMILES IDX 45 60 34 61 35 62 39 63 36 64 38 65 37 66 56 67 57 68 61 69
REMARK SMILES IDX 58 70 60 71 59 72 46 73 47 74 51 75 48 76 50 77 49 78
REMARK H PARENT 18 4 10 16 10 17 22 27 66 46 44 57
REMARK Flexibility Score: inf
ROOT
ATOM      1  O   UNL A   1      30.650  26.435  26.877  1.00  0.00    -0.275 OA
ATOM      2  C   UNL A   1      31.251  26.855  25.896  1.00  0.00     0.222 C 
ATOM      3  N   UNL A   1      31.945  28.051  25.880  1.00  0.00    -0.356 N 
ATOM      4  H   UNL A   1      32.483  28.286  25.090  1.00  0.00     0.163 HD
ENDROOT
BRANCH   2   5
ATOM      5  C   UNL A   1      31.257  26.130  24.567  1.00  0.00     0.133 C 
BRANCH   5   6
ATOM      6  C   UNL A   1      32.382  25.095  24.443  1.00  0.00     0.147 C 
ATOM      7  C   UNL A   1      32.016  23.685  24.951  1.00  0.00     0.152 C 
ATOM      8  O   UNL A   1      33.558  25.587  25.118  1.00  0.00    -0.374 OA
ATOM      9  N   UNL A   1      33.160  22.776  24.833  1.00  0.00    -0.333 N 
ATOM     10  C   UNL A   1      34.679  24.713  24.905  1.00  0.00     0.182 C 
ATOM     11  C   UNL A   1      34.392  23.301  25.421  1.00  0.00     0.148 C 
BRANCH   9  12
ATOM     12  C   UNL A   1      33.106  21.457  24.410  1.00  0.00     0.277 C 
ATOM     13  O   UNL A   1      32.631  21.139  23.317  1.00  0.00    -0.268 OA
BRANCH  12  14
ATOM     14  C   UNL A   1      33.635  20.369  25.355  1.00  0.00     0.362 C 
BRANCH  14  15
ATOM     15  N   UNL A   1      32.569  19.405  25.643  1.00  0.00    -0.338 N 
ATOM     16  H   UNL A   1      31.778  19.603  25.029  1.00  0.00     0.346 HD
ATOM     17  H   UNL A   1      32.324  19.508  26.628  1.00  0.00     0.346 HD
BRANCH  15  18
ATOM     18  C   UNL A   1      32.975  18.023  25.441  1.00  0.00     0.264 C 
BRANCH  18  19
ATOM     19  C   UNL A   1      33.809  17.809  24.223  1.00  0.00     0.044 C 
ATOM     20  C   UNL A   1      33.916  16.416  23.649  1.00  0.00     0.010 C 
ATOM     21  C   UNL A   1      33.217  17.494  22.871  1.00  0.00     0.010 C 
ENDBRANCH  18  19
ENDBRANCH  15  18
ENDBRANCH  14  15
ENDBRANCH  12  14
ENDBRANCH   9  12
ENDBRANCH   5   6
ENDBRANCH   2   5
BRANCH   3  22
ATOM     22  C   UNL A   1      31.896  28.969  27.003  1.00  0.00     0.117 C 
BRANCH  22  23
ATOM     23  C   UNL A   1      31.877  30.436  26.583  1.00  0.00     0.042 C 
BRANCH  23  24
ATOM     24  C   UNL A   1      32.956  31.313  27.213  1.00  0.00     0.118 C 
BRANCH  24  25
ATOM     25  N   UNL A   1      32.520  32.674  27.485  1.00  0.00    -0.352 N 
ATOM     26  C   UNL A   1      33.146  33.691  28.168  1.00  0.00     0.251 C 
ATOM     27  H   UNL A   1      31.634  32.904  27.123  1.00  0.00     0.163 HD
ATOM     28  O   UNL A   1      32.563  34.761  28.326  1.00  0.00    -0.269 OA
BRANCH  26  29
ATOM     29  C   UNL A   1      34.480  33.503  28.776  1.00  0.00     0.039 A 
ATOM     30  C   UNL A   1      34.533  32.905  30.041  1.00  0.00     0.014 A 
ATOM     31  C   UNL A   1      35.664  33.861  28.126  1.00  0.00     0.014 A 
ATOM     32  C   UNL A   1      35.763  32.544  30.590  1.00  0.00     0.010 A 
ATOM     33  C   UNL A   1      36.890  33.448  28.645  1.00  0.00     0.010 A 
ATOM     34  C   UNL A   1      36.942  32.747  29.859  1.00  0.00    -0.014 A 
BRANCH  34  35
ATOM     35  C   UNL A   1      38.210  32.112  30.292  1.00  0.00     0.031 A 
ATOM     36  C   UNL A   1      39.137  32.795  31.248  1.00  0.00     0.074 A 
ATOM     37  C   UNL A   1      38.548  30.925  29.748  1.00  0.00     0.049 A 
ATOM     38  N   UNL A   1      40.299  32.392  31.694  1.00  0.00    -0.248 NA
ATOM     39  C   UNL A   1      38.714  34.108  31.758  1.00  0.00     0.031 C 
ATOM     40  C   UNL A   1      37.745  30.182  28.772  1.00  0.00     0.029 A 
ATOM     41  N   UNL A   1      39.656  30.139  29.932  1.00  0.00    -0.354 N 
ATOM     42  C   UNL A   1      40.751  33.401  32.533  1.00  0.00     0.074 A 
ATOM     43  C   UNL A   1      39.755  34.451  32.506  1.00  0.00     0.031 C 
ATOM     44  C   UNL A   1      38.375  29.037  28.464  1.00  0.00     0.029 A 
ATOM     45  C   UNL A   1      39.639  28.984  29.187  1.00  0.00     0.049 A 
ATOM     46  H   UNL A   1      40.392  30.378  30.541  1.00  0.00     0.167 HD
ATOM     47  C   UNL A   1      41.889  33.441  33.266  1.00  0.00     0.031 A 
ATOM     48  C   UNL A   1      40.544  27.994  29.090  1.00  0.00     0.031 A 
ATOM     49  C   UNL A   1      42.881  32.398  33.286  1.00  0.00     0.049 A 
ATOM     50  C   UNL A   1      41.807  28.076  29.896  1.00  0.00     0.074 A 
ATOM     51  C   UNL A   1      44.042  32.326  34.037  1.00  0.00     0.029 A 
ATOM     52  N   UNL A   1      42.832  31.249  32.513  1.00  0.00    -0.354 N 
ATOM     53  N   UNL A   1      42.189  29.008  30.734  1.00  0.00    -0.248 NA
ATOM     54  C   UNL A   1      42.761  26.970  29.742  1.00  0.00     0.031 C 
ATOM     55  C   UNL A   1      44.719  31.152  33.683  1.00  0.00     0.029 A 
ATOM     56  C   UNL A   1      43.957  30.474  32.746  1.00  0.00     0.049 A 
ATOM     57  H   UNL A   1      42.106  31.017  31.889  1.00  0.00     0.167 HD
ATOM     58  C   UNL A   1      43.421  28.593  31.221  1.00  0.00     0.074 A 
ATOM     59  C   UNL A   1      43.712  27.318  30.598  1.00  0.00     0.031 C 
ATOM     60  C   UNL A   1      44.237  29.216  32.106  1.00  0.00     0.031 A 
BRANCH  47  61
ATOM     61  C   UNL A   1      42.126  34.667  34.100  1.00  0.00    -0.014 A 
ATOM     62  C   UNL A   1      41.738  34.711  35.449  1.00  0.00     0.009 A 
ATOM     63  C   UNL A   1      42.772  35.780  33.541  1.00  0.00     0.009 A 
ATOM     64  C   UNL A   1      41.963  35.858  36.212  1.00  0.00     0.001 A 
ATOM     65  C   UNL A   1      43.016  36.918  34.313  1.00  0.00     0.001 A 
ATOM     66  C   UNL A   1      42.604  36.959  35.644  1.00  0.00     0.000 A 
ENDBRANCH  47  61
BRANCH  48  67
ATOM     67  C   UNL A   1      40.285  26.837  28.197  1.00  0.00    -0.014 A 
ATOM     68  C   UNL A   1      40.809  26.814  26.896  1.00  0.00     0.009 A 
ATOM     69  C   UNL A   1      39.521  25.748  28.643  1.00  0.00     0.009 A 
ATOM     70  C   UNL A   1      40.554  25.730  26.051  1.00  0.00     0.001 A 
ATOM     71  C   UNL A   1      39.289  24.656  27.805  1.00  0.00     0.001 A 
ATOM     72  C   UNL A   1      39.799  24.651  26.507  1.00  0.00     0.000 A 
ENDBRANCH  48  67
BRANCH  60  73
ATOM     73  C   UNL A   1      45.517  28.514  32.454  1.00  0.00    -0.014 A 
ATOM     74  C   UNL A   1      46.682  28.723  31.701  1.00  0.00     0.009 A 
ATOM     75  C   UNL A   1      45.564  27.657  33.563  1.00  0.00     0.009 A 
ATOM     76  C   UNL A   1      47.866  28.061  32.036  1.00  0.00     0.001 A 
ATOM     77  C   UNL A   1      46.754  27.016  33.910  1.00  0.00     0.001 A 
ATOM     78  C   UNL A   1      47.901  27.212  33.142  1.00  0.00     0.000 A 
ENDBRANCH  60  73
ENDBRANCH  34  35
ENDBRANCH  26  29
ENDBRANCH  24  25
ENDBRANCH  23  24
ENDBRANCH  22  23
ENDBRANCH   3  22
TORSDOF 16
ENDMDL
MODEL 2
REMARK VINA RESULT:      -9.9      5.268     11.501
REMARK SMILES O=C(C[C@@H]1CN(C(=O)C[NH2+]CC2CC2)CCO1)NCCCNC(=O)c1ccc(-c2c3nc(c(-c4ccccc4)c4ccc([nH]4)c(-c4ccccc4)c4nc(c(-c5ccccc5)c5ccc2[nH]5)C=C4)C=C3)cc1
REMARK SMILES IDX 1 1 2 2 18 3 3 5 4 6 5 7 17 8 6 9 16 10 15 11 7 12 8 13 9 14
REMARK SMILES IDX 10 15 11 18 12 19 13 20 14 21 19 22 20 23 21 24 22 25 23 26
REMARK SMILES IDX 24 28 25 29 26 30 72 31 27 32 71 33 28 34 29 35 30 36 65 37
REMARK SMILES IDX 31 38 70 39 64 40 66 41 32 42 69 43 63 44 62 45 33 47 55 48
REMARK SMILES IDX 40 49 54 50 41 51 44 52 53 53 67 54 42 55 43 56 52 58 68 59
REMARK SMILES IDX 45 60 34 61 35 62 39 63 36 64 38 65 37 66 56 67 57 68 61 69
REMARK SMILES IDX 58 70 60 71 59 72 46 73 47 74 51 75 48 76 50 77 49 78
REMARK H PARENT 18 4 10 16 10 17 22 27 66 46 44 57
REMARK Flexibility Score: inf
ROOT
ATOM      1  O   UNL A   1      46.024  22.173  26.302  1.00  0.00    -0.275 OA
ATOM      2  C   UNL A   1      46.004  22.199  25.078  1.00  0.00     0.222 C 
ATOM      3  N   UNL A   1      45.751  21.087  24.294  1.00  0.00    -0.356 N 
ATOM      4  H   UNL A   1      45.657  21.196  23.321  1.00  0.00     0.163 HD
ENDROOT
BRANCH   2   5
ATOM      5  C   UNL A   1      46.308  23.450  24.280  1.00  0.00     0.133 C 
BRANCH   5   6
ATOM      6  C   UNL A   1      46.644  24.663  25.156  1.00  0.00     0.147 C 
ATOM      7  C   UNL A   1      45.895  25.957  24.774  1.00  0.00     0.152 C 
ATOM      8  O   UNL A   1      48.070  24.880  25.143  1.00  0.00    -0.374 OA
ATOM      9  N   UNL A   1      46.308  27.070  25.633  1.00  0.00    -0.333 N 
ATOM     10  C   UNL A   1      48.442  25.920  26.064  1.00  0.00     0.182 C 
ATOM     11  C   UNL A   1      47.758  27.244  25.717  1.00  0.00     0.148 C 
BRANCH   9  12
ATOM     12  C   UNL A   1      45.467  28.031  26.174  1.00  0.00     0.277 C 
ATOM     13  O   UNL A   1      44.241  27.894  26.189  1.00  0.00    -0.268 OA
BRANCH  12  14
ATOM     14  C   UNL A   1      46.096  29.309  26.745  1.00  0.00     0.362 C 
BRANCH  14  15
ATOM     15  N   UNL A   1      45.398  30.483  26.212  1.00  0.00    -0.338 N 
ATOM     16  H   UNL A   1      44.793  30.182  25.448  1.00  0.00     0.346 HD
ATOM     17  H   UNL A   1      46.110  31.144  25.900  1.00  0.00     0.346 HD
BRANCH  15  18
ATOM     18  C   UNL A   1      44.582  31.165  27.205  1.00  0.00     0.264 C 
BRANCH  18  19
ATOM     19  C   UNL A   1      44.033  32.473  26.742  1.00  0.00     0.044 C 
ATOM     20  C   UNL A   1      44.767  33.741  27.111  1.00  0.00     0.010 C 
ATOM     21  C   UNL A   1      44.699  33.306  25.675  1.00  0.00     0.010 C 
ENDBRANCH  18  19
ENDBRANCH  15  18
ENDBRANCH  14  15
ENDBRANCH  12  14
ENDBRANCH   9  12
ENDBRANCH   5   6
ENDBRANCH   2   5
BRANCH   3  22
ATOM     22  C   UNL A   1      45.620  19.765  24.877  1.00  0.00     0.117 C 
BRANCH  22  23
ATOM     23  C   UNL A   1      44.250  19.136  24.645  1.00  0.00     0.042 C 
BRANCH  23  24
ATOM     24  C   UNL A   1      43.483  18.749  25.907  1.00  0.00     0.118 C 
BRANCH  24  25
ATOM     25  N   UNL A   1      42.056  19.021  25.833  1.00  0.00    -0.352 N 
ATOM     26  C   UNL A   1      41.341  20.141  26.190  1.00  0.00     0.251 C 
ATOM     27  H   UNL A   1      41.514  18.284  25.469  1.00  0.00     0.163 HD
ATOM     28  O   UNL A   1      40.117  20.134  26.089  1.00  0.00    -0.269 OA
BRANCH  26  29
ATOM     29  C   UNL A   1      42.010  21.333  26.756  1.00  0.00     0.039 A 
ATOM     30  C   UNL A   1      42.382  22.346  25.865  1.00  0.00     0.014 A 
ATOM     31  C   UNL A   1      42.241  21.490  28.125  1.00  0.00     0.014 A 
ATOM     32  C   UNL A   1      42.857  23.563  26.353  1.00  0.00     0.010 A 
ATOM     33  C   UNL A   1      42.657  22.725  28.618  1.00  0.00     0.010 A 
ATOM     34  C   UNL A   1      42.926  23.784  27.736  1.00  0.00    -0.014 A 
BRANCH  34  35
ATOM     35  C   UNL A   1      43.143  25.150  28.266  1.00  0.00     0.031 A 
ATOM     36  C   UNL A   1      44.492  25.596  28.740  1.00  0.00     0.074 A 
ATOM     37  C   UNL A   1      42.078  25.969  28.379  1.00  0.00     0.049 A 
ATOM     38  N   UNL A   1      44.839  26.743  29.266  1.00  0.00    -0.248 NA
ATOM     39  C   UNL A   1      45.590  24.625  28.625  1.00  0.00     0.031 C 
ATOM     40  C   UNL A   1      40.706  25.631  27.989  1.00  0.00     0.029 A 
ATOM     41  N   UNL A   1      41.979  27.249  28.859  1.00  0.00    -0.354 N 
ATOM     42  C   UNL A   1      46.192  26.633  29.551  1.00  0.00     0.074 A 
ATOM     43  C   UNL A   1      46.596  25.295  29.171  1.00  0.00     0.031 C 
ATOM     44  C   UNL A   1      39.909  26.686  28.222  1.00  0.00     0.029 A 
ATOM     45  C   UNL A   1      40.703  27.757  28.811  1.00  0.00     0.049 A 
ATOM     46  H   UNL A   1      42.750  27.758  29.203  1.00  0.00     0.167 HD
ATOM     47  C   UNL A   1      47.023  27.567  30.070  1.00  0.00     0.031 A 
ATOM     48  C   UNL A   1      40.222  28.950  29.205  1.00  0.00     0.031 A 
ATOM     49  C   UNL A   1      46.618  28.895  30.451  1.00  0.00     0.049 A 
ATOM     50  C   UNL A   1      41.161  29.957  29.799  1.00  0.00     0.074 A 
ATOM     51  C   UNL A   1      47.399  29.929  30.939  1.00  0.00     0.029 A 
ATOM     52  N   UNL A   1      45.316  29.368  30.396  1.00  0.00    -0.354 N 
ATOM     53  N   UNL A   1      42.452  29.859  30.001  1.00  0.00    -0.248 NA
ATOM     54  C   UNL A   1      40.577  31.238  30.218  1.00  0.00     0.031 C 
ATOM     55  C   UNL A   1      46.560  31.014  31.221  1.00  0.00     0.029 A 
ATOM     56  C   UNL A   1      45.266  30.670  30.867  1.00  0.00     0.049 A 
ATOM     57  H   UNL A   1      44.541  28.855  30.069  1.00  0.00     0.167 HD
ATOM     58  C   UNL A   1      42.839  31.072  30.555  1.00  0.00     0.074 A 
ATOM     59  C   UNL A   1      41.648  31.893  30.640  1.00  0.00     0.031 C 
ATOM     60  C   UNL A   1      44.071  31.467  30.958  1.00  0.00     0.031 A 
BRANCH  47  61
ATOM     61  C   UNL A   1      48.459  27.176  30.268  1.00  0.00    -0.014 A 
ATOM     62  C   UNL A   1      48.879  26.533  31.443  1.00  0.00     0.009 A 
ATOM     63  C   UNL A   1      49.398  27.424  29.256  1.00  0.00     0.009 A 
ATOM     64  C   UNL A   1      50.218  26.176  31.614  1.00  0.00     0.001 A 
ATOM     65  C   UNL A   1      50.733  27.046  29.419  1.00  0.00     0.001 A 
ATOM     66  C   UNL A   1      51.143  26.430  30.601  1.00  0.00     0.000 A 
ENDBRANCH  47  61
BRANCH  48  67
ATOM     67  C   UNL A   1      38.778  29.256  29.044  1.00  0.00    -0.014 A 
ATOM     68  C   UNL A   1      37.897  29.108  30.126  1.00  0.00     0.009 A 
ATOM     69  C   UNL A   1      38.277  29.707  27.814  1.00  0.00     0.009 A 
ATOM     70  C   UNL A   1      36.537  29.385  29.971  1.00  0.00     0.001 A 
ATOM     71  C   UNL A   1      36.920  30.006  27.669  1.00  0.00     0.001 A 
ATOM     72  C   UNL A   1      36.050  29.838  28.746  1.00  0.00     0.000 A 
ENDBRANCH  48  67
BRANCH  60  73
ATOM     73  C   UNL A   1      44.186  32.854  31.518  1.00  0.00    -0.014 A 
ATOM     74  C   UNL A   1      44.450  33.951  30.683  1.00  0.00     0.009 A 
ATOM     75  C   UNL A   1      44.003  33.070  32.892  1.00  0.00     0.009 A 
ATOM     76  C   UNL A   1      44.556  35.236  31.220  1.00  0.00     0.001 A 
ATOM     77  C   UNL A   1      44.087  34.358  33.421  1.00  0.00     0.001 A 
ATOM     78  C   UNL A   1      44.370  35.438  32.587  1.00  0.00     0.000 A 
ENDBRANCH  60  73
ENDBRANCH  34  35
ENDBRANCH  26  29
ENDBRANCH  24  25
ENDBRANCH  23  24
ENDBRANCH  22  23
ENDBRANCH   3  22
TORSDOF 16
ENDMDL
MODEL 3
REMARK VINA RESULT:      -9.9      3.236      8.959
REMARK SMILES O=C(C[C@@H]1CN(C(=O)C[NH2+]CC2CC2)CCO1)NCCCNC(=O)c1ccc(-c2c3nc(c(-c4ccccc4)c4ccc([nH]4)c(-c4ccccc4)c4nc(c(-c5ccccc5)c5ccc2[nH]5)C=C4)C=C3)cc1
REMARK SMILES IDX 1 1 2 2 18 3 3 5 4 6 5 7 17 8 6 9 16 10 15 11 7 12 8 13 9 14
REMARK SMILES IDX 10 15 11 18 12 19 13 20 14 21 19 22 20 23 21 24 22 25 23 26
REMARK SMILES IDX 24 28 25 29 26 30 72 31 27 32 71 33 28 34 29 35 30 36 65 37
REMARK SMILES IDX 31 38 70 39 64 40 66 41 32 42 69 43 63 44 62 45 33 47 55 48
REMARK SMILES IDX 40 49 54 50 41 51 44 52 53 53 67 54 42 55 43 56 52 58 68 59
REMARK SMILES IDX 45 60 34 61 35 62 39 63 36 64 38 65 37 66 56 67 57 68 61 69
REMARK SMILES IDX 58 70 60 71 59 72 46 73 47 74 51 75 48 76 50 77 49 78
REMARK H PARENT 18 4 10 16 10 17 22 27 66 46 44 57
REMARK Flexibility Score: inf
ROOT
ATOM      1  O   UNL A   1      33.403  20.966  25.940  1.00  0.00    -0.275 OA
ATOM      2  C   UNL A   1      33.790  21.623  24.980  1.00  0.00     0.222 C 
ATOM      3  N   UNL A   1      35.125  21.807  24.669  1.00  0.00    -0.356 N 
ATOM      4  H   UNL A   1      35.365  22.266  23.833  1.00  0.00     0.163 HD
ENDROOT
BRANCH   2   5
ATOM      5  C   UNL A   1      32.841  22.354  24.054  1.00  0.00     0.133 C 
BRANCH   5   6
ATOM      6  C   UNL A   1      32.818  23.871  24.279  1.00  0.00     0.147 C 
ATOM      7  C   UNL A   1      33.450  24.698  23.140  1.00  0.00     0.152 C 
ATOM      8  O   UNL A   1      33.453  24.174  25.538  1.00  0.00    -0.374 OA
ATOM      9  N   UNL A   1      33.421  26.128  23.460  1.00  0.00    -0.333 N 
ATOM     10  C   UNL A   1      33.327  25.571  25.856  1.00  0.00     0.182 C 
ATOM     11  C   UNL A   1      33.967  26.449  24.778  1.00  0.00     0.148 C 
BRANCH   9  12
ATOM     12  C   UNL A   1      33.119  27.150  22.572  1.00  0.00     0.277 C 
ATOM     13  O   UNL A   1      33.916  27.525  21.709  1.00  0.00    -0.268 OA
BRANCH  12  14
ATOM     14  C   UNL A   1      31.755  27.844  22.701  1.00  0.00     0.362 C 
BRANCH  14  15
ATOM     15  N   UNL A   1      31.930  29.168  23.306  1.00  0.00    -0.338 N 
ATOM     16  H   UNL A   1      31.477  29.860  22.709  1.00  0.00     0.346 HD
ATOM     17  H   UNL A   1      32.933  29.332  23.391  1.00  0.00     0.346 HD
BRANCH  15  18
ATOM     18  C   UNL A   1      31.362  29.268  24.641  1.00  0.00     0.264 C 
BRANCH  18  19
ATOM     19  C   UNL A   1      32.332  29.725  25.679  1.00  0.00     0.044 C 
ATOM     20  C   UNL A   1      31.923  30.834  26.619  1.00  0.00     0.010 C 
ATOM     21  C   UNL A   1      32.147  29.447  27.150  1.00  0.00     0.010 C 
ENDBRANCH  18  19
ENDBRANCH  15  18
ENDBRANCH  14  15
ENDBRANCH  12  14
ENDBRANCH   9  12
ENDBRANCH   5   6
ENDBRANCH   2   5
BRANCH   3  22
ATOM     22  C   UNL A   1      36.179  21.336  25.548  1.00  0.00     0.117 C 
BRANCH  22  23
ATOM     23  C   UNL A   1      37.516  21.147  24.840  1.00  0.00     0.042 C 
BRANCH  23  24
ATOM     24  C   UNL A   1      38.753  21.282  25.725  1.00  0.00     0.118 C 
BRANCH  24  25
ATOM     25  N   UNL A   1      39.641  20.131  25.670  1.00  0.00    -0.352 N 
ATOM     26  C   UNL A   1      40.953  19.997  26.061  1.00  0.00     0.251 C 
ATOM     27  H   UNL A   1      39.238  19.316  25.292  1.00  0.00     0.163 HD
ATOM     28  O   UNL A   1      41.534  18.932  25.871  1.00  0.00    -0.269 OA
BRANCH  26  29
ATOM     29  C   UNL A   1      41.702  21.131  26.644  1.00  0.00     0.039 A 
ATOM     30  C   UNL A   1      42.227  22.079  25.758  1.00  0.00     0.014 A 
ATOM     31  C   UNL A   1      41.865  21.301  28.021  1.00  0.00     0.014 A 
ATOM     32  C   UNL A   1      42.791  23.256  26.251  1.00  0.00     0.010 A 
ATOM     33  C   UNL A   1      42.372  22.501  28.514  1.00  0.00     0.010 A 
ATOM     34  C   UNL A   1      42.798  23.505  27.630  1.00  0.00    -0.014 A 
BRANCH  34  35
ATOM     35  C   UNL A   1      43.119  24.857  28.146  1.00  0.00     0.031 A 
ATOM     36  C   UNL A   1      42.050  25.882  28.360  1.00  0.00     0.074 A 
ATOM     37  C   UNL A   1      44.413  25.170  28.355  1.00  0.00     0.049 A 
ATOM     38  N   UNL A   1      42.170  27.120  28.767  1.00  0.00    -0.248 NA
ATOM     39  C   UNL A   1      40.669  25.474  28.064  1.00  0.00     0.031 C 
ATOM     40  C   UNL A   1      45.548  24.266  28.141  1.00  0.00     0.029 A 
ATOM     41  N   UNL A   1      44.995  26.334  28.787  1.00  0.00    -0.354 N 
ATOM     42  C   UNL A   1      40.884  27.642  28.772  1.00  0.00     0.074 A 
ATOM     43  C   UNL A   1      40.003  26.598  28.293  1.00  0.00     0.031 C 
ATOM     44  C   UNL A   1      46.684  24.902  28.467  1.00  0.00     0.029 A 
ATOM     45  C   UNL A   1      46.364  26.264  28.873  1.00  0.00     0.049 A 
ATOM     46  H   UNL A   1      44.480  27.142  29.014  1.00  0.00     0.167 HD
ATOM     47  C   UNL A   1      40.477  28.876  29.151  1.00  0.00     0.031 A 
ATOM     48  C   UNL A   1      47.265  27.196  29.233  1.00  0.00     0.031 A 
ATOM     49  C   UNL A   1      41.356  29.914  29.622  1.00  0.00     0.049 A 
ATOM     50  C   UNL A   1      46.787  28.562  29.626  1.00  0.00     0.074 A 
ATOM     51  C   UNL A   1      41.030  31.180  30.078  1.00  0.00     0.029 A 
ATOM     52  N   UNL A   1      42.736  29.809  29.687  1.00  0.00    -0.354 N 
ATOM     53  N   UNL A   1      45.560  29.018  29.687  1.00  0.00    -0.248 NA
ATOM     54  C   UNL A   1      47.818  29.540  30.001  1.00  0.00     0.031 C 
ATOM     55  C   UNL A   1      42.219  31.857  30.377  1.00  0.00     0.029 A 
ATOM     56  C   UNL A   1      43.280  30.996  30.149  1.00  0.00     0.049 A 
ATOM     57  H   UNL A   1      43.255  29.008  29.442  1.00  0.00     0.167 HD
ATOM     58  C   UNL A   1      45.669  30.332  30.123  1.00  0.00     0.074 A 
ATOM     59  C   UNL A   1      47.080  30.591  30.328  1.00  0.00     0.031 C 
ATOM     60  C   UNL A   1      44.686  31.241  30.333  1.00  0.00     0.031 A 
BRANCH  47  61
ATOM     61  C   UNL A   1      39.008  29.173  29.060  1.00  0.00    -0.014 A 
ATOM     62  C   UNL A   1      38.164  29.006  30.170  1.00  0.00     0.009 A 
ATOM     63  C   UNL A   1      38.464  29.654  27.859  1.00  0.00     0.009 A 
ATOM     64  C   UNL A   1      36.800  29.284  30.069  1.00  0.00     0.001 A 
ATOM     65  C   UNL A   1      37.103  29.953  27.767  1.00  0.00     0.001 A 
ATOM     66  C   UNL A   1      36.271  29.760  28.870  1.00  0.00     0.000 A 
ENDBRANCH  47  61
BRANCH  48  67
ATOM     67  C   UNL A   1      48.712  26.864  29.241  1.00  0.00    -0.014 A 
ATOM     68  C   UNL A   1      49.497  27.085  28.100  1.00  0.00     0.009 A 
ATOM     69  C   UNL A   1      49.316  26.333  30.392  1.00  0.00     0.009 A 
ATOM     70  C   UNL A   1      50.856  26.761  28.104  1.00  0.00     0.001 A 
ATOM     71  C   UNL A   1      50.680  26.033  30.400  1.00  0.00     0.001 A 
ATOM     72  C   UNL A   1      51.447  26.240  29.254  1.00  0.00     0.000 A 
ENDBRANCH  48  67
BRANCH  60  73
ATOM     73  C   UNL A   1      45.111  32.596  30.818  1.00  0.00    -0.014 A 
ATOM     74  C   UNL A   1      45.350  33.644  29.916  1.00  0.00     0.009 A 
ATOM     75  C   UNL A   1      45.248  32.833  32.194  1.00  0.00     0.009 A 
ATOM     76  C   UNL A   1      45.746  34.899  30.383  1.00  0.00     0.001 A 
ATOM     77  C   UNL A   1      45.621  34.095  32.659  1.00  0.00     0.001 A 
ATOM     78  C   UNL A   1      45.877  35.124  31.754  1.00  0.00     0.000 A 
ENDBRANCH  60  73
ENDBRANCH  34  35
ENDBRANCH  26  29
ENDBRANCH  24  25
ENDBRANCH  23  24
ENDBRANCH  22  23
ENDBRANCH   3  22
TORSDOF 16
ENDMDL
