MODEL 1
REMARK VINA RESULT:      -8.1      0.000      0.000
REMARK SMILES O=C(CCCC[C@@H]1CCSS1)NCCCNC(=O)c1ccc(-c2c3nc(c(-c4ccccc4)c4ccc([nH]4)c(-c4ccccc4)c4nc(c(-c5ccccc5)c5ccc2[nH]5)C=C4)C=C3)cc1
REMARK SMILES IDX 13 1 12 2 1 3 2 4 3 6 4 7 5 8 6 9 7 10 8 11 11 12 9 13 10 14
REMARK SMILES IDX 14 15 15 16 16 17 17 18 18 20 19 21 20 22 66 23 21 24 65 25
REMARK SMILES IDX 22 26 23 27 24 28 59 29 25 30 64 31 58 32 60 33 26 34 63 35
REMARK SMILES IDX 57 36 56 37 27 39 49 40 34 41 48 42 35 43 38 44 47 45 61 46
REMARK SMILES IDX 36 47 37 48 46 50 62 51 39 52 28 53 29 54 33 55 30 56 32 57
REMARK SMILES IDX 31 58 50 59 51 60 55 61 52 62 54 63 53 64 40 65 41 66 45 67
REMARK SMILES IDX 42 68 44 69 43 70
REMARK H PARENT 12 5 16 19 60 38 38 49
REMARK Flexibility Score: inf
ROOT
ATOM      1  C   UNL A   1      34.411  35.304  33.602  1.00  0.00     0.117 C 
ENDROOT
BRANCH   1   2
ATOM      2  N   UNL A   1      35.083  34.070  33.956  1.00  0.00    -0.356 N 
ATOM      3  O   UNL A   1      37.198  34.953  34.056  1.00  0.00    -0.275 OA
ATOM      4  C   UNL A   1      36.428  34.013  34.224  1.00  0.00     0.219 C 
ATOM      5  H   UNL A   1      34.554  33.241  34.006  1.00  0.00     0.163 HD
BRANCH   4   6
ATOM      6  C   UNL A   1      36.901  32.675  34.753  1.00  0.00     0.100 C 
BRANCH   6   7
ATOM      7  C   UNL A   1      37.422  31.748  33.648  1.00  0.00     0.010 C 
BRANCH   7   8
ATOM      8  C   UNL A   1      38.132  30.451  34.078  1.00  0.00     0.002 C 
BRANCH   8   9
ATOM      9  C   UNL A   1      39.008  29.737  33.038  1.00  0.00     0.015 C 
BRANCH   9  10
ATOM     10  C   UNL A   1      40.454  29.424  33.455  1.00  0.00     0.059 C 
ATOM     11  C   UNL A   1      40.844  27.946  33.496  1.00  0.00     0.027 C 
ATOM     12  S   UNL A   1      40.750  30.094  35.131  1.00  0.00    -0.091 SA
ATOM     13  C   UNL A   1      42.171  27.765  34.225  1.00  0.00     0.083 C 
ATOM     14  S   UNL A   1      41.974  28.599  35.813  1.00  0.00    -0.094 SA
ENDBRANCH   9  10
ENDBRANCH   8   9
ENDBRANCH   7   8
ENDBRANCH   6   7
ENDBRANCH   4   6
ENDBRANCH   1   2
BRANCH   1  15
ATOM     15  C   UNL A   1      33.371  35.111  32.508  1.00  0.00     0.042 C 
BRANCH  15  16
ATOM     16  C   UNL A   1      33.668  35.843  31.204  1.00  0.00     0.118 C 
BRANCH  16  17
ATOM     17  N   UNL A   1      32.904  35.347  30.067  1.00  0.00    -0.352 N 
ATOM     18  C   UNL A   1      33.260  34.422  29.113  1.00  0.00     0.251 C 
ATOM     19  H   UNL A   1      32.001  35.729  29.968  1.00  0.00     0.163 HD
ATOM     20  O   UNL A   1      32.527  34.203  28.157  1.00  0.00    -0.269 OA
BRANCH  18  21
ATOM     21  C   UNL A   1      34.556  33.717  29.226  1.00  0.00     0.039 A 
ATOM     22  C   UNL A   1      35.604  34.089  28.380  1.00  0.00     0.014 A 
ATOM     23  C   UNL A   1      34.745  32.721  30.187  1.00  0.00     0.014 A 
ATOM     24  C   UNL A   1      36.871  33.530  28.561  1.00  0.00     0.010 A 
ATOM     25  C   UNL A   1      36.023  32.215  30.411  1.00  0.00     0.010 A 
ATOM     26  C   UNL A   1      37.102  32.626  29.611  1.00  0.00    -0.014 A 
BRANCH  26  27
ATOM     27  C   UNL A   1      38.462  32.117  29.920  1.00  0.00     0.031 A 
ATOM     28  C   UNL A   1      38.904  30.780  29.394  1.00  0.00     0.074 A 
ATOM     29  C   UNL A   1      39.261  32.806  30.758  1.00  0.00     0.049 A 
ATOM     30  N   UNL A   1      39.988  30.101  29.672  1.00  0.00    -0.248 NA
ATOM     31  C   UNL A   1      37.995  30.107  28.452  1.00  0.00     0.031 C 
ATOM     32  C   UNL A   1      38.944  34.102  31.362  1.00  0.00     0.029 A 
ATOM     33  N   UNL A   1      40.500  32.500  31.265  1.00  0.00    -0.354 N 
ATOM     34  C   UNL A   1      39.878  28.911  28.963  1.00  0.00     0.074 A 
ATOM     35  C   UNL A   1      38.609  28.947  28.269  1.00  0.00     0.031 C 
ATOM     36  C   UNL A   1      39.965  34.484  32.146  1.00  0.00     0.029 A 
ATOM     37  C   UNL A   1      40.986  33.442  32.139  1.00  0.00     0.049 A 
ATOM     38  H   UNL A   1      40.992  31.682  31.025  1.00  0.00     0.167 HD
ATOM     39  C   UNL A   1      40.760  27.887  28.885  1.00  0.00     0.031 A 
ATOM     40  C   UNL A   1      42.117  33.458  32.868  1.00  0.00     0.031 A 
ATOM     41  C   UNL A   1      42.030  27.855  29.560  1.00  0.00     0.049 A 
ATOM     42  C   UNL A   1      43.071  32.300  32.780  1.00  0.00     0.074 A 
ATOM     43  C   UNL A   1      43.013  26.883  29.499  1.00  0.00     0.029 A 
ATOM     44  N   UNL A   1      42.491  28.840  30.419  1.00  0.00    -0.354 N 
ATOM     45  N   UNL A   1      42.976  31.206  32.066  1.00  0.00    -0.248 NA
ATOM     46  C   UNL A   1      44.291  32.383  33.596  1.00  0.00     0.031 C 
ATOM     47  C   UNL A   1      44.054  27.261  30.354  1.00  0.00     0.029 A 
ATOM     48  C   UNL A   1      43.738  28.491  30.909  1.00  0.00     0.049 A 
ATOM     49  H   UNL A   1      42.005  29.665  30.647  1.00  0.00     0.167 HD
ATOM     50  C   UNL A   1      44.135  30.486  32.321  1.00  0.00     0.074 A 
ATOM     51  C   UNL A   1      44.922  31.269  33.251  1.00  0.00     0.031 C 
ATOM     52  C   UNL A   1      44.515  29.284  31.824  1.00  0.00     0.031 A 
BRANCH  39  53
ATOM     53  C   UNL A   1      40.372  26.704  28.043  1.00  0.00    -0.014 A 
ATOM     54  C   UNL A   1      40.779  26.600  26.705  1.00  0.00     0.009 A 
ATOM     55  C   UNL A   1      39.622  25.662  28.610  1.00  0.00     0.009 A 
ATOM     56  C   UNL A   1      40.411  25.493  25.939  1.00  0.00     0.001 A 
ATOM     57  C   UNL A   1      39.279  24.544  27.849  1.00  0.00     0.001 A 
ATOM     58  C   UNL A   1      39.665  24.464  26.512  1.00  0.00     0.000 A 
ENDBRANCH  39  53
BRANCH  40  59
ATOM     59  C   UNL A   1      42.416  34.617  33.750  1.00  0.00    -0.014 A 
ATOM     60  C   UNL A   1      43.135  35.716  33.255  1.00  0.00     0.009 A 
ATOM     61  C   UNL A   1      41.990  34.629  35.087  1.00  0.00     0.009 A 
ATOM     62  C   UNL A   1      43.441  36.794  34.089  1.00  0.00     0.001 A 
ATOM     63  C   UNL A   1      42.275  35.721  35.910  1.00  0.00     0.001 A 
ATOM     64  C   UNL A   1      43.007  36.798  35.413  1.00  0.00     0.000 A 
ENDBRANCH  40  59
BRANCH  52  65
ATOM     65  C   UNL A   1      45.861  28.761  32.233  1.00  0.00    -0.014 A 
ATOM     66  C   UNL A   1      47.018  29.074  31.504  1.00  0.00     0.009 A 
ATOM     67  C   UNL A   1      45.977  27.993  33.402  1.00  0.00     0.009 A 
ATOM     68  C   UNL A   1      48.264  28.608  31.929  1.00  0.00     0.001 A 
ATOM     69  C   UNL A   1      47.226  27.549  33.837  1.00  0.00     0.001 A 
ATOM     70  C   UNL A   1      48.368  27.852  33.097  1.00  0.00     0.000 A 
ENDBRANCH  52  65
ENDBRANCH  26  27
ENDBRANCH  18  21
ENDBRANCH  16  17
ENDBRANCH  15  16
ENDBRANCH   1  15
TORSDOF 14
ENDMDL
MODEL 2
REMARK VINA RESULT:      -8.1      4.954      7.016
REMARK SMILES O=C(CCCC[C@@H]1CCSS1)NCCCNC(=O)c1ccc(-c2c3nc(c(-c4ccccc4)c4ccc([nH]4)c(-c4ccccc4)c4nc(c(-c5ccccc5)c5ccc2[nH]5)C=C4)C=C3)cc1
REMARK SMILES IDX 13 1 12 2 1 3 2 4 3 6 4 7 5 8 6 9 7 10 8 11 11 12 9 13 10 14
REMARK SMILES IDX 14 15 15 16 16 17 17 18 18 20 19 21 20 22 66 23 21 24 65 25
REMARK SMILES IDX 22 26 23 27 24 28 59 29 25 30 64 31 58 32 60 33 26 34 63 35
REMARK SMILES IDX 57 36 56 37 27 39 49 40 34 41 48 42 35 43 38 44 47 45 61 46
REMARK SMILES IDX 36 47 37 48 46 50 62 51 39 52 28 53 29 54 33 55 30 56 32 57
REMARK SMILES IDX 31 58 50 59 51 60 55 61 52 62 54 63 53 64 40 65 41 66 45 67
REMARK SMILES IDX 42 68 44 69 43 70
REMARK H PARENT 12 5 16 19 60 38 38 49
REMARK Flexibility Score: inf
ROOT
ATOM      1  C   UNL A   1      32.386  29.701  25.142  1.00  0.00     0.117 C 
ENDROOT
BRANCH   1   2
ATOM      2  N   UNL A   1      31.445  28.741  24.600  1.00  0.00    -0.356 N 
ATOM      3  O   UNL A   1      32.169  26.951  25.840  1.00  0.00    -0.275 OA
ATOM      4  C   UNL A   1      31.370  27.446  25.052  1.00  0.00     0.219 C 
ATOM      5  H   UNL A   1      30.837  29.028  23.882  1.00  0.00     0.163 HD
BRANCH   4   6
ATOM      6  C   UNL A   1      30.204  26.659  24.492  1.00  0.00     0.100 C 
BRANCH   6   7
ATOM      7  C   UNL A   1      29.417  27.434  23.428  1.00  0.00     0.010 C 
BRANCH   7   8
ATOM      8  C   UNL A   1      27.888  27.516  23.589  1.00  0.00     0.002 C 
BRANCH   8   9
ATOM      9  C   UNL A   1      27.192  28.813  23.151  1.00  0.00     0.015 C 
BRANCH   9  10
ATOM     10  C   UNL A   1      28.094  30.039  22.934  1.00  0.00     0.059 C 
ATOM     11  C   UNL A   1      27.691  31.318  23.670  1.00  0.00     0.027 C 
ATOM     12  S   UNL A   1      28.127  30.446  21.151  1.00  0.00    -0.091 SA
ATOM     13  C   UNL A   1      28.461  32.514  23.120  1.00  0.00     0.083 C 
ATOM     14  S   UNL A   1      28.197  32.486  21.336  1.00  0.00    -0.094 SA
ENDBRANCH   9  10
ENDBRANCH   8   9
ENDBRANCH   7   8
ENDBRANCH   6   7
ENDBRANCH   4   6
ENDBRANCH   1   2
BRANCH   1  15
ATOM     15  C   UNL A   1      31.820  30.471  26.326  1.00  0.00     0.042 C 
BRANCH  15  16
ATOM     16  C   UNL A   1      32.844  31.280  27.114  1.00  0.00     0.118 C 
BRANCH  16  17
ATOM     17  N   UNL A   1      32.418  32.643  27.402  1.00  0.00    -0.352 N 
ATOM     18  C   UNL A   1      33.049  33.617  28.139  1.00  0.00     0.251 C 
ATOM     19  H   UNL A   1      31.552  32.904  27.011  1.00  0.00     0.163 HD
ATOM     20  O   UNL A   1      32.489  34.681  28.370  1.00  0.00    -0.269 OA
BRANCH  18  21
ATOM     21  C   UNL A   1      34.399  33.361  28.688  1.00  0.00     0.039 A 
ATOM     22  C   UNL A   1      34.517  32.665  29.895  1.00  0.00     0.014 A 
ATOM     23  C   UNL A   1      35.541  33.770  27.995  1.00  0.00     0.014 A 
ATOM     24  C   UNL A   1      35.782  32.296  30.360  1.00  0.00     0.010 A 
ATOM     25  C   UNL A   1      36.795  33.343  28.424  1.00  0.00     0.010 A 
ATOM     26  C   UNL A   1      36.927  32.588  29.601  1.00  0.00    -0.014 A 
BRANCH  26  27
ATOM     27  C   UNL A   1      38.271  32.094  29.992  1.00  0.00     0.031 A 
ATOM     28  C   UNL A   1      38.766  30.770  29.482  1.00  0.00     0.074 A 
ATOM     29  C   UNL A   1      39.003  32.785  30.888  1.00  0.00     0.049 A 
ATOM     30  N   UNL A   1      39.840  30.103  29.823  1.00  0.00    -0.248 NA
ATOM     31  C   UNL A   1      37.932  30.096  28.475  1.00  0.00     0.031 C 
ATOM     32  C   UNL A   1      38.628  34.069  31.485  1.00  0.00     0.029 A 
ATOM     33  N   UNL A   1      40.211  32.490  31.472  1.00  0.00    -0.354 N 
ATOM     34  C   UNL A   1      39.795  28.921  29.095  1.00  0.00     0.074 A 
ATOM     35  C   UNL A   1      38.573  28.947  28.320  1.00  0.00     0.031 C 
ATOM     36  C   UNL A   1      39.590  34.456  32.338  1.00  0.00     0.029 A 
ATOM     37  C   UNL A   1      40.625  33.428  32.386  1.00  0.00     0.049 A 
ATOM     38  H   UNL A   1      40.730  31.683  31.256  1.00  0.00     0.167 HD
ATOM     39  C   UNL A   1      40.695  27.910  29.064  1.00  0.00     0.031 A 
ATOM     40  C   UNL A   1      41.705  33.452  33.189  1.00  0.00     0.031 A 
ATOM     41  C   UNL A   1      41.918  27.888  29.820  1.00  0.00     0.049 A 
ATOM     42  C   UNL A   1      42.680  32.308  33.151  1.00  0.00     0.074 A 
ATOM     43  C   UNL A   1      42.918  26.931  29.813  1.00  0.00     0.029 A 
ATOM     44  N   UNL A   1      42.308  28.869  30.718  1.00  0.00    -0.354 N 
ATOM     45  N   UNL A   1      42.648  31.222  32.420  1.00  0.00    -0.248 NA
ATOM     46  C   UNL A   1      43.843  32.399  34.046  1.00  0.00     0.031 C 
ATOM     47  C   UNL A   1      43.895  27.313  30.739  1.00  0.00     0.029 A 
ATOM     48  C   UNL A   1      43.525  28.532  31.285  1.00  0.00     0.049 A 
ATOM     49  H   UNL A   1      41.795  29.684  30.923  1.00  0.00     0.167 HD
ATOM     50  C   UNL A   1      43.799  30.515  32.742  1.00  0.00     0.074 A 
ATOM     51  C   UNL A   1      44.512  31.298  33.730  1.00  0.00     0.031 C 
ATOM     52  C   UNL A   1      44.229  29.326  32.257  1.00  0.00     0.031 A 
BRANCH  39  53
ATOM     53  C   UNL A   1      40.381  26.732  28.186  1.00  0.00    -0.014 A 
ATOM     54  C   UNL A   1      39.523  25.710  28.620  1.00  0.00     0.009 A 
ATOM     55  C   UNL A   1      40.921  26.664  26.892  1.00  0.00     0.009 A 
ATOM     56  C   UNL A   1      39.241  24.625  27.789  1.00  0.00     0.001 A 
ATOM     57  C   UNL A   1      40.615  25.591  26.054  1.00  0.00     0.001 A 
ATOM     58  C   UNL A   1      39.784  24.567  26.507  1.00  0.00     0.000 A 
ENDBRANCH  39  53
BRANCH  40  59
ATOM     59  C   UNL A   1      41.929  34.604  34.101  1.00  0.00    -0.014 A 
ATOM     60  C   UNL A   1      41.485  34.551  35.431  1.00  0.00     0.009 A 
ATOM     61  C   UNL A   1      42.583  35.760  33.648  1.00  0.00     0.009 A 
ATOM     62  C   UNL A   1      41.670  35.642  36.282  1.00  0.00     0.001 A 
ATOM     63  C   UNL A   1      42.790  36.839  34.510  1.00  0.00     0.001 A 
ATOM     64  C   UNL A   1      42.326  36.783  35.823  1.00  0.00     0.000 A 
ENDBRANCH  40  59
BRANCH  52  65
ATOM     65  C   UNL A   1      45.553  28.816  32.748  1.00  0.00    -0.014 A 
ATOM     66  C   UNL A   1      45.642  27.975  33.867  1.00  0.00     0.009 A 
ATOM     67  C   UNL A   1      46.722  29.135  32.039  1.00  0.00     0.009 A 
ATOM     68  C   UNL A   1      46.882  27.481  34.279  1.00  0.00     0.001 A 
ATOM     69  C   UNL A   1      47.955  28.622  32.439  1.00  0.00     0.001 A 
ATOM     70  C   UNL A   1      48.035  27.800  33.561  1.00  0.00     0.000 A 
ENDBRANCH  52  65
ENDBRANCH  26  27
ENDBRANCH  18  21
ENDBRANCH  16  17
ENDBRANCH  15  16
ENDBRANCH   1  15
TORSDOF 14
ENDMDL
MODEL 3
REMARK VINA RESULT:      -7.9      5.994     11.099
REMARK SMILES O=C(CCCC[C@@H]1CCSS1)NCCCNC(=O)c1ccc(-c2c3nc(c(-c4ccccc4)c4ccc([nH]4)c(-c4ccccc4)c4nc(c(-c5ccccc5)c5ccc2[nH]5)C=C4)C=C3)cc1
REMARK SMILES IDX 13 1 12 2 1 3 2 4 3 6 4 7 5 8 6 9 7 10 8 11 11 12 9 13 10 14
REMARK SMILES IDX 14 15 15 16 16 17 17 18 18 20 19 21 20 22 66 23 21 24 65 25
REMARK SMILES IDX 22 26 23 27 24 28 59 29 25 30 64 31 58 32 60 33 26 34 63 35
REMARK SMILES IDX 57 36 56 37 27 39 49 40 34 41 48 42 35 43 38 44 47 45 61 46
REMARK SMILES IDX 36 47 37 48 46 50 62 51 39 52 28 53 29 54 33 55 30 56 32 57
REMARK SMILES IDX 31 58 50 59 51 60 55 61 52 62 54 63 53 64 40 65 41 66 45 67
REMARK SMILES IDX 42 68 44 69 43 70
REMARK H PARENT 12 5 16 19 60 38 38 49
REMARK Flexibility Score: inf
ROOT
ATOM      1  C   UNL A   1      36.806  22.053  24.168  1.00  0.00     0.117 C 
ENDROOT
BRANCH   1   2
ATOM      2  N   UNL A   1      35.474  22.379  24.636  1.00  0.00    -0.356 N 
ATOM      3  O   UNL A   1      34.731  23.298  22.670  1.00  0.00    -0.275 OA
ATOM      4  C   UNL A   1      34.513  22.918  23.816  1.00  0.00     0.219 C 
ATOM      5  H   UNL A   1      35.248  22.207  25.579  1.00  0.00     0.163 HD
BRANCH   4   6
ATOM      6  C   UNL A   1      33.139  23.012  24.444  1.00  0.00     0.100 C 
BRANCH   6   7
ATOM      7  C   UNL A   1      32.129  22.043  23.817  1.00  0.00     0.010 C 
BRANCH   7   8
ATOM      8  C   UNL A   1      32.589  20.595  23.567  1.00  0.00     0.002 C 
BRANCH   8   9
ATOM      9  C   UNL A   1      32.862  19.710  24.792  1.00  0.00     0.015 C 
BRANCH   9  10
ATOM     10  C   UNL A   1      32.988  18.199  24.535  1.00  0.00     0.059 C 
ATOM     11  C   UNL A   1      32.477  17.277  25.644  1.00  0.00     0.027 C 
ATOM     12  S   UNL A   1      34.750  17.783  24.273  1.00  0.00    -0.091 SA
ATOM     13  C   UNL A   1      32.952  15.848  25.408  1.00  0.00     0.083 C 
ATOM     14  S   UNL A   1      34.741  15.955  25.199  1.00  0.00    -0.094 SA
ENDBRANCH   9  10
ENDBRANCH   8   9
ENDBRANCH   7   8
ENDBRANCH   6   7
ENDBRANCH   4   6
ENDBRANCH   1   2
BRANCH   1  15
ATOM     15  C   UNL A   1      37.369  20.804  24.830  1.00  0.00     0.042 C 
BRANCH  15  16
ATOM     16  C   UNL A   1      38.628  21.030  25.659  1.00  0.00     0.118 C 
BRANCH  16  17
ATOM     17  N   UNL A   1      39.564  19.915  25.618  1.00  0.00    -0.352 N 
ATOM     18  C   UNL A   1      40.892  19.876  25.976  1.00  0.00     0.251 C 
ATOM     19  H   UNL A   1      39.192  19.065  25.286  1.00  0.00     0.163 HD
ATOM     20  O   UNL A   1      41.561  18.871  25.771  1.00  0.00    -0.269 OA
BRANCH  18  21
ATOM     21  C   UNL A   1      41.523  21.072  26.577  1.00  0.00     0.039 A 
ATOM     22  C   UNL A   1      42.060  22.049  25.734  1.00  0.00     0.014 A 
ATOM     23  C   UNL A   1      41.548  21.244  27.963  1.00  0.00     0.014 A 
ATOM     24  C   UNL A   1      42.538  23.244  26.277  1.00  0.00     0.010 A 
ATOM     25  C   UNL A   1      41.961  22.462  28.497  1.00  0.00     0.010 A 
ATOM     26  C   UNL A   1      42.445  23.480  27.659  1.00  0.00    -0.014 A 
BRANCH  26  27
ATOM     27  C   UNL A   1      42.815  24.789  28.255  1.00  0.00     0.031 A 
ATOM     28  C   UNL A   1      41.765  25.841  28.474  1.00  0.00     0.074 A 
ATOM     29  C   UNL A   1      44.109  25.069  28.502  1.00  0.00     0.049 A 
ATOM     30  N   UNL A   1      41.911  27.089  28.842  1.00  0.00    -0.248 NA
ATOM     31  C   UNL A   1      40.371  25.446  28.222  1.00  0.00     0.031 C 
ATOM     32  C   UNL A   1      45.232  24.149  28.308  1.00  0.00     0.029 A 
ATOM     33  N   UNL A   1      44.703  26.223  28.952  1.00  0.00    -0.354 N 
ATOM     34  C   UNL A   1      40.634  27.634  28.838  1.00  0.00     0.074 A 
ATOM     35  C   UNL A   1      39.730  26.593  28.399  1.00  0.00     0.031 C 
ATOM     36  C   UNL A   1      46.374  24.769  28.648  1.00  0.00     0.029 A 
ATOM     37  C   UNL A   1      46.072  26.142  29.038  1.00  0.00     0.049 A 
ATOM     38  H   UNL A   1      44.195  27.032  29.191  1.00  0.00     0.167 HD
ATOM     39  C   UNL A   1      40.246  28.885  29.180  1.00  0.00     0.031 A 
ATOM     40  C   UNL A   1      46.985  27.072  29.373  1.00  0.00     0.031 A 
ATOM     41  C   UNL A   1      41.138  29.918  29.632  1.00  0.00     0.049 A 
ATOM     42  C   UNL A   1      46.531  28.460  29.730  1.00  0.00     0.074 A 
ATOM     43  C   UNL A   1      40.830  31.200  30.052  1.00  0.00     0.029 A 
ATOM     44  N   UNL A   1      42.515  29.786  29.724  1.00  0.00    -0.354 N 
ATOM     45  N   UNL A   1      45.314  28.945  29.769  1.00  0.00    -0.248 NA
ATOM     46  C   UNL A   1      47.577  29.427  30.094  1.00  0.00     0.031 C 
ATOM     47  C   UNL A   1      42.025  31.859  30.359  1.00  0.00     0.029 A 
ATOM     48  C   UNL A   1      43.072  30.970  30.176  1.00  0.00     0.049 A 
ATOM     49  H   UNL A   1      43.021  28.972  29.499  1.00  0.00     0.167 HD
ATOM     50  C   UNL A   1      45.445  30.261  30.192  1.00  0.00     0.074 A 
ATOM     51  C   UNL A   1      46.858  30.498  30.402  1.00  0.00     0.031 C 
ATOM     52  C   UNL A   1      44.478  31.188  30.392  1.00  0.00     0.031 A 
BRANCH  39  53
ATOM     53  C   UNL A   1      38.782  29.209  29.067  1.00  0.00    -0.014 A 
ATOM     54  C   UNL A   1      37.926  29.097  30.172  1.00  0.00     0.009 A 
ATOM     55  C   UNL A   1      38.264  29.670  27.847  1.00  0.00     0.009 A 
ATOM     56  C   UNL A   1      36.570  29.405  30.048  1.00  0.00     0.001 A 
ATOM     57  C   UNL A   1      36.913  30.003  27.734  1.00  0.00     0.001 A 
ATOM     58  C   UNL A   1      36.065  29.861  28.832  1.00  0.00     0.000 A 
ENDBRANCH  39  53
BRANCH  40  59
ATOM     59  C   UNL A   1      48.430  26.724  29.391  1.00  0.00    -0.014 A 
ATOM     60  C   UNL A   1      49.013  26.185  30.548  1.00  0.00     0.009 A 
ATOM     61  C   UNL A   1      49.231  26.930  28.258  1.00  0.00     0.009 A 
ATOM     62  C   UNL A   1      50.376  25.881  30.576  1.00  0.00     0.001 A 
ATOM     63  C   UNL A   1      50.588  26.601  28.282  1.00  0.00     0.001 A 
ATOM     64  C   UNL A   1      51.161  26.085  29.443  1.00  0.00     0.000 A 
ENDBRANCH  40  59
BRANCH  52  65
ATOM     65  C   UNL A   1      44.904  32.531  30.911  1.00  0.00    -0.014 A 
ATOM     66  C   UNL A   1      45.208  33.587  30.039  1.00  0.00     0.009 A 
ATOM     67  C   UNL A   1      44.942  32.757  32.296  1.00  0.00     0.009 A 
ATOM     68  C   UNL A   1      45.561  34.839  30.546  1.00  0.00     0.001 A 
ATOM     69  C   UNL A   1      45.273  34.015  32.800  1.00  0.00     0.001 A 
ATOM     70  C   UNL A   1      45.588  35.053  31.925  1.00  0.00     0.000 A 
ENDBRANCH  52  65
ENDBRANCH  26  27
ENDBRANCH  18  21
ENDBRANCH  16  17
ENDBRANCH  15  16
ENDBRANCH   1  15
TORSDOF 14
ENDMDL
