MODEL 1
REMARK VINA RESULT:     -11.5      0.000      0.000
REMARK SMILES O=C(NCCCNC(=O)c1cn(C[C@@H]2CCS(=O)(=O)C2)c(=O)[nH]c1=O)c1ccc(-c2c3nc(c(-c4ccccc4)c4ccc([nH]4)c(-c4ccccc4)c4nc(c(-c5ccccc5)c5ccc2[nH]5)C=C4)C=C3)cc1
REMARK SMILES IDX 5 1 4 2 3 3 1 4 2 5 26 7 27 8 73 9 28 10 72 11 29 12 30 13
REMARK SMILES IDX 31 14 66 15 32 16 71 17 65 18 67 19 33 20 70 21 64 22 63 23
REMARK SMILES IDX 34 25 56 26 41 27 55 28 42 29 45 30 54 31 68 32 43 33 44 34
REMARK SMILES IDX 53 36 69 37 46 38 35 39 36 40 40 41 37 42 39 43 38 44 57 45
REMARK SMILES IDX 58 46 62 47 59 48 61 49 60 50 47 51 48 52 52 53 49 54 51 55
REMARK SMILES IDX 50 56 6 57 7 58 8 59 9 61 10 62 11 63 24 64 12 65 23 66
REMARK SMILES IDX 25 67 21 68 22 70 13 71 14 72 15 73 20 74 16 75 17 76 18 77
REMARK SMILES IDX 19 78
REMARK H PARENT 3 6 67 24 45 35 7 60 23 69
REMARK Flexibility Score: inf
ROOT
ATOM      1  C   UNL A   1      33.727  28.485  25.715  1.00  0.00     0.042 C 
ENDROOT
BRANCH   1   2
ATOM      2  C   UNL A   1      33.535  28.656  27.213  1.00  0.00     0.118 C 
BRANCH   2   3
ATOM      3  N   UNL A   1      33.585  30.056  27.618  1.00  0.00    -0.352 N 
ATOM      4  O   UNL A   1      34.267  31.868  28.751  1.00  0.00    -0.269 OA
ATOM      5  C   UNL A   1      34.543  30.758  28.301  1.00  0.00     0.251 C 
ATOM      6  H   UNL A   1      32.798  30.586  27.355  1.00  0.00     0.163 HD
BRANCH   5   7
ATOM      7  C   UNL A   1      35.898  30.202  28.497  1.00  0.00     0.039 A 
ATOM      8  C   UNL A   1      36.234  29.660  29.742  1.00  0.00     0.014 A 
ATOM      9  C   UNL A   1      36.862  30.280  27.491  1.00  0.00     0.014 A 
ATOM     10  C   UNL A   1      37.525  29.175  29.964  1.00  0.00     0.010 A 
ATOM     11  C   UNL A   1      38.112  29.703  27.675  1.00  0.00     0.010 A 
ATOM     12  C   UNL A   1      38.468  29.180  28.926  1.00  0.00    -0.014 A 
BRANCH  12  13
ATOM     13  C   UNL A   1      39.862  28.719  29.132  1.00  0.00     0.031 A 
ATOM     14  C   UNL A   1      40.880  29.676  29.692  1.00  0.00     0.074 A 
ATOM     15  C   UNL A   1      40.227  27.476  28.765  1.00  0.00     0.049 A 
ATOM     16  N   UNL A   1      42.170  29.512  29.843  1.00  0.00    -0.248 NA
ATOM     17  C   UNL A   1      40.392  31.000  30.113  1.00  0.00     0.031 C 
ATOM     18  C   UNL A   1      39.331  26.463  28.210  1.00  0.00     0.029 A 
ATOM     19  N   UNL A   1      41.452  26.857  28.800  1.00  0.00    -0.354 N 
ATOM     20  C   UNL A   1      42.643  30.717  30.347  1.00  0.00     0.074 A 
ATOM     21  C   UNL A   1      41.520  31.620  30.429  1.00  0.00     0.031 C 
ATOM     22  C   UNL A   1      40.029  25.339  27.983  1.00  0.00     0.029 A 
ATOM     23  C   UNL A   1      41.432  25.571  28.318  1.00  0.00     0.049 A 
ATOM     24  H   UNL A   1      42.267  27.294  29.138  1.00  0.00     0.167 HD
ATOM     25  C   UNL A   1      43.902  31.031  30.731  1.00  0.00     0.031 A 
ATOM     26  C   UNL A   1      42.430  24.681  28.149  1.00  0.00     0.031 A 
ATOM     27  C   UNL A   1      45.005  30.112  30.679  1.00  0.00     0.049 A 
ATOM     28  C   UNL A   1      43.829  25.065  28.546  1.00  0.00     0.074 A 
ATOM     29  C   UNL A   1      46.303  30.314  31.111  1.00  0.00     0.029 A 
ATOM     30  N   UNL A   1      44.945  28.825  30.169  1.00  0.00    -0.354 N 
ATOM     31  N   UNL A   1      44.255  26.188  29.075  1.00  0.00    -0.248 NA
ATOM     32  C   UNL A   1      44.885  24.065  28.334  1.00  0.00     0.031 C 
ATOM     33  C   UNL A   1      47.048  29.183  30.783  1.00  0.00     0.029 A 
ATOM     34  C   UNL A   1      46.195  28.239  30.232  1.00  0.00     0.049 A 
ATOM     35  H   UNL A   1      44.134  28.394  29.813  1.00  0.00     0.167 HD
ATOM     36  C   UNL A   1      45.619  26.023  29.277  1.00  0.00     0.074 A 
ATOM     37  C   UNL A   1      45.950  24.687  28.829  1.00  0.00     0.031 C 
ATOM     38  C   UNL A   1      46.513  26.905  29.786  1.00  0.00     0.031 A 
BRANCH  25  39
ATOM     39  C   UNL A   1      44.168  32.418  31.248  1.00  0.00    -0.014 A 
ATOM     40  C   UNL A   1      44.595  33.420  30.360  1.00  0.00     0.009 A 
ATOM     41  C   UNL A   1      44.110  32.711  32.620  1.00  0.00     0.009 A 
ATOM     42  C   UNL A   1      44.981  34.674  30.835  1.00  0.00     0.001 A 
ATOM     43  C   UNL A   1      44.461  33.979  33.088  1.00  0.00     0.001 A 
ATOM     44  C   UNL A   1      44.910  34.954  32.198  1.00  0.00     0.000 A 
ENDBRANCH  25  39
BRANCH  26  45
ATOM     45  C   UNL A   1      42.114  23.335  27.600  1.00  0.00    -0.014 A 
ATOM     46  C   UNL A   1      42.267  23.065  26.228  1.00  0.00     0.009 A 
ATOM     47  C   UNL A   1      41.575  22.339  28.426  1.00  0.00     0.009 A 
ATOM     48  C   UNL A   1      41.846  21.846  25.691  1.00  0.00     0.001 A 
ATOM     49  C   UNL A   1      41.187  21.107  27.892  1.00  0.00     0.001 A 
ATOM     50  C   UNL A   1      41.309  20.868  26.524  1.00  0.00     0.000 A 
ENDBRANCH  26  45
BRANCH  38  51
ATOM     51  C   UNL A   1      47.952  26.480  29.907  1.00  0.00    -0.014 A 
ATOM     52  C   UNL A   1      48.790  26.531  28.780  1.00  0.00     0.009 A 
ATOM     53  C   UNL A   1      48.427  25.872  31.079  1.00  0.00     0.009 A 
ATOM     54  C   UNL A   1      50.057  25.949  28.810  1.00  0.00     0.001 A 
ATOM     55  C   UNL A   1      49.710  25.322  31.117  1.00  0.00     0.001 A 
ATOM     56  C   UNL A   1      50.516  25.344  29.979  1.00  0.00     0.000 A 
ENDBRANCH  38  51
ENDBRANCH  12  13
ENDBRANCH   5   7
ENDBRANCH   2   3
ENDBRANCH   1   2
BRANCH   1  57
ATOM     57  C   UNL A   1      33.595  27.047  25.246  1.00  0.00     0.118 C 
BRANCH  57  58
ATOM     58  N   UNL A   1      33.966  26.855  23.849  1.00  0.00    -0.352 N 
ATOM     59  C   UNL A   1      33.195  26.531  22.759  1.00  0.00     0.258 C 
ATOM     60  H   UNL A   1      34.924  26.978  23.655  1.00  0.00     0.163 HD
ATOM     61  O   UNL A   1      33.725  26.400  21.661  1.00  0.00    -0.269 OA
BRANCH  59  62
ATOM     62  C   UNL A   1      31.749  26.337  22.971  1.00  0.00     0.121 A 
ATOM     63  C   UNL A   1      30.898  27.300  22.591  1.00  0.00     0.110 A 
ATOM     64  C   UNL A   1      31.204  25.156  23.663  1.00  0.00     0.266 A 
ATOM     65  N   UNL A   1      29.581  27.332  23.013  1.00  0.00    -0.299 N 
ATOM     66  N   UNL A   1      29.882  25.240  24.008  1.00  0.00    -0.273 N 
ATOM     67  O   UNL A   1      31.882  24.190  23.989  1.00  0.00    -0.268 OA
ATOM     68  C   UNL A   1      29.066  26.321  23.820  1.00  0.00     0.328 A 
ATOM     69  H   UNL A   1      29.481  24.448  24.432  1.00  0.00     0.175 HD
ATOM     70  O   UNL A   1      27.954  26.362  24.339  1.00  0.00    -0.248 OA
BRANCH  65  71
ATOM     71  C   UNL A   1      28.791  28.539  22.780  1.00  0.00     0.131 C 
BRANCH  71  72
ATOM     72  C   UNL A   1      29.557  29.817  22.391  1.00  0.00     0.025 C 
ATOM     73  C   UNL A   1      30.353  30.486  23.522  1.00  0.00     0.022 C 
ATOM     74  C   UNL A   1      28.693  30.912  21.765  1.00  0.00     0.142 C 
ATOM     75  C   UNL A   1      29.450  31.464  24.267  1.00  0.00     0.137 C 
ATOM     76  S   UNL A   1      28.262  32.043  23.074  1.00  0.00     0.150 S 
ATOM     77  O   UNL A   1      26.929  31.719  23.545  1.00  0.00    -0.229 OA
ATOM     78  O   UNL A   1      28.626  33.380  22.661  1.00  0.00    -0.229 OA
ENDBRANCH  71  72
ENDBRANCH  65  71
ENDBRANCH  59  62
ENDBRANCH  57  58
ENDBRANCH   1  57
TORSDOF 12
ENDMDL
MODEL 2
REMARK VINA RESULT:     -11.5      3.084      7.663
REMARK SMILES O=C(NCCCNC(=O)c1cn(C[C@@H]2CCS(=O)(=O)C2)c(=O)[nH]c1=O)c1ccc(-c2c3nc(c(-c4ccccc4)c4ccc([nH]4)c(-c4ccccc4)c4nc(c(-c5ccccc5)c5ccc2[nH]5)C=C4)C=C3)cc1
REMARK SMILES IDX 5 1 4 2 3 3 1 4 2 5 26 7 27 8 73 9 28 10 72 11 29 12 30 13
REMARK SMILES IDX 31 14 66 15 32 16 71 17 65 18 67 19 33 20 70 21 64 22 63 23
REMARK SMILES IDX 34 25 56 26 41 27 55 28 42 29 45 30 54 31 68 32 43 33 44 34
REMARK SMILES IDX 53 36 69 37 46 38 35 39 36 40 40 41 37 42 39 43 38 44 57 45
REMARK SMILES IDX 58 46 62 47 59 48 61 49 60 50 47 51 48 52 52 53 49 54 51 55
REMARK SMILES IDX 50 56 6 57 7 58 8 59 9 61 10 62 11 63 24 64 12 65 23 66
REMARK SMILES IDX 25 67 21 68 22 70 13 71 14 72 15 73 20 74 16 75 17 76 18 77
REMARK SMILES IDX 19 78
REMARK H PARENT 3 6 67 24 45 35 7 60 23 69
REMARK Flexibility Score: inf
ROOT
ATOM      1  C   UNL A   1      35.725  23.371  25.813  1.00  0.00     0.042 C 
ENDROOT
BRANCH   1   2
ATOM      2  C   UNL A   1      37.030  23.667  25.092  1.00  0.00     0.118 C 
BRANCH   2   3
ATOM      3  N   UNL A   1      38.097  22.757  25.488  1.00  0.00    -0.352 N 
ATOM      4  O   UNL A   1      40.148  22.115  26.135  1.00  0.00    -0.269 OA
ATOM      5  C   UNL A   1      39.289  22.995  26.122  1.00  0.00     0.251 C 
ATOM      6  H   UNL A   1      37.934  21.813  25.264  1.00  0.00     0.163 HD
BRANCH   5   7
ATOM      7  C   UNL A   1      39.551  24.286  26.791  1.00  0.00     0.039 A 
ATOM      8  C   UNL A   1      40.254  25.277  26.099  1.00  0.00     0.014 A 
ATOM      9  C   UNL A   1      39.175  24.499  28.118  1.00  0.00     0.014 A 
ATOM     10  C   UNL A   1      40.554  26.486  26.730  1.00  0.00     0.010 A 
ATOM     11  C   UNL A   1      39.381  25.738  28.711  1.00  0.00     0.010 A 
ATOM     12  C   UNL A   1      40.106  26.730  28.037  1.00  0.00    -0.014 A 
BRANCH  12  13
ATOM     13  C   UNL A   1      40.444  27.979  28.761  1.00  0.00     0.031 A 
ATOM     14  C   UNL A   1      41.791  28.108  29.421  1.00  0.00     0.074 A 
ATOM     15  C   UNL A   1      39.532  28.962  28.878  1.00  0.00     0.049 A 
ATOM     16  N   UNL A   1      42.241  29.062  30.194  1.00  0.00    -0.248 NA
ATOM     17  C   UNL A   1      42.749  27.010  29.206  1.00  0.00     0.031 C 
ATOM     18  C   UNL A   1      38.196  28.949  28.285  1.00  0.00     0.029 A 
ATOM     19  N   UNL A   1      39.593  30.163  29.542  1.00  0.00    -0.354 N 
ATOM     20  C   UNL A   1      43.516  28.663  30.576  1.00  0.00     0.074 A 
ATOM     21  C   UNL A   1      43.752  27.362  29.996  1.00  0.00     0.031 C 
ATOM     22  C   UNL A   1      37.573  30.099  28.588  1.00  0.00     0.029 A 
ATOM     23  C   UNL A   1      38.440  30.903  29.446  1.00  0.00     0.049 A 
ATOM     24  H   UNL A   1      40.386  30.463  30.041  1.00  0.00     0.167 HD
ATOM     25  C   UNL A   1      44.419  29.338  31.325  1.00  0.00     0.031 A 
ATOM     26  C   UNL A   1      38.109  32.089  29.995  1.00  0.00     0.031 A 
ATOM     27  C   UNL A   1      44.188  30.648  31.867  1.00  0.00     0.049 A 
ATOM     28  C   UNL A   1      39.114  32.803  30.856  1.00  0.00     0.074 A 
ATOM     29  C   UNL A   1      45.067  31.443  32.579  1.00  0.00     0.029 A 
ATOM     30  N   UNL A   1      43.001  31.354  31.758  1.00  0.00    -0.354 N 
ATOM     31  N   UNL A   1      40.338  32.442  31.164  1.00  0.00    -0.248 NA
ATOM     32  C   UNL A   1      38.704  34.087  31.442  1.00  0.00     0.031 C 
ATOM     33  C   UNL A   1      44.386  32.592  32.976  1.00  0.00     0.029 A 
ATOM     34  C   UNL A   1      43.110  32.557  32.432  1.00  0.00     0.049 A 
ATOM     35  H   UNL A   1      42.200  31.046  31.276  1.00  0.00     0.167 HD
ATOM     36  C   UNL A   1      40.849  33.460  31.958  1.00  0.00     0.074 A 
ATOM     37  C   UNL A   1      39.811  34.462  32.074  1.00  0.00     0.031 C 
ATOM     38  C   UNL A   1      42.070  33.550  32.539  1.00  0.00     0.031 A 
BRANCH  25  39
ATOM     39  C   UNL A   1      45.746  28.687  31.606  1.00  0.00    -0.014 A 
ATOM     40  C   UNL A   1      45.917  27.938  32.782  1.00  0.00     0.009 A 
ATOM     41  C   UNL A   1      46.857  28.903  30.775  1.00  0.00     0.009 A 
ATOM     42  C   UNL A   1      47.172  27.441  33.133  1.00  0.00     0.001 A 
ATOM     43  C   UNL A   1      48.105  28.372  31.110  1.00  0.00     0.001 A 
ATOM     44  C   UNL A   1      48.265  27.656  32.295  1.00  0.00     0.000 A 
ENDBRANCH  25  39
BRANCH  26  45
ATOM     45  C   UNL A   1      36.769  32.668  29.712  1.00  0.00    -0.014 A 
ATOM     46  C   UNL A   1      36.558  33.470  28.577  1.00  0.00     0.009 A 
ATOM     47  C   UNL A   1      35.714  32.494  30.619  1.00  0.00     0.009 A 
ATOM     48  C   UNL A   1      35.337  34.121  28.381  1.00  0.00     0.001 A 
ATOM     49  C   UNL A   1      34.482  33.118  30.402  1.00  0.00     0.001 A 
ATOM     50  C   UNL A   1      34.300  33.942  29.293  1.00  0.00     0.000 A 
ENDBRANCH  26  45
BRANCH  38  51
ATOM     51  C   UNL A   1      42.387  34.771  33.359  1.00  0.00    -0.014 A 
ATOM     52  C   UNL A   1      41.891  34.877  34.670  1.00  0.00     0.009 A 
ATOM     53  C   UNL A   1      43.024  35.880  32.783  1.00  0.00     0.009 A 
ATOM     54  C   UNL A   1      41.989  36.079  35.371  1.00  0.00     0.001 A 
ATOM     55  C   UNL A   1      43.153  37.071  33.501  1.00  0.00     0.001 A 
ATOM     56  C   UNL A   1      42.620  37.175  34.786  1.00  0.00     0.000 A 
ENDBRANCH  38  51
ENDBRANCH  12  13
ENDBRANCH   5   7
ENDBRANCH   2   3
ENDBRANCH   1   2
BRANCH   1  57
ATOM     57  C   UNL A   1      35.017  22.129  25.302  1.00  0.00     0.118 C 
BRANCH  57  58
ATOM     58  N   UNL A   1      34.603  22.229  23.908  1.00  0.00    -0.352 N 
ATOM     59  C   UNL A   1      33.378  22.525  23.361  1.00  0.00     0.258 C 
ATOM     60  H   UNL A   1      35.316  22.055  23.252  1.00  0.00     0.163 HD
ATOM     61  O   UNL A   1      33.246  22.536  22.143  1.00  0.00    -0.269 OA
BRANCH  59  62
ATOM     62  C   UNL A   1      32.261  22.803  24.283  1.00  0.00     0.121 A 
ATOM     63  C   UNL A   1      31.863  24.070  24.465  1.00  0.00     0.110 A 
ATOM     64  C   UNL A   1      31.614  21.746  25.080  1.00  0.00     0.266 A 
ATOM     65  N   UNL A   1      31.042  24.444  25.513  1.00  0.00    -0.299 N 
ATOM     66  N   UNL A   1      30.777  22.191  26.069  1.00  0.00    -0.273 N 
ATOM     67  O   UNL A   1      31.852  20.553  24.942  1.00  0.00    -0.268 OA
ATOM     68  C   UNL A   1      30.545  23.496  26.403  1.00  0.00     0.328 A 
ATOM     69  H   UNL A   1      30.298  21.505  26.588  1.00  0.00     0.175 HD
ATOM     70  O   UNL A   1      29.928  23.777  27.428  1.00  0.00    -0.248 OA
BRANCH  65  71
ATOM     71  C   UNL A   1      30.865  25.865  25.804  1.00  0.00     0.131 C 
BRANCH  71  72
ATOM     72  C   UNL A   1      31.891  26.522  26.745  1.00  0.00     0.025 C 
ATOM     73  C   UNL A   1      31.454  27.849  27.384  1.00  0.00     0.022 C 
ATOM     74  C   UNL A   1      33.262  26.776  26.117  1.00  0.00     0.142 C 
ATOM     75  C   UNL A   1      31.827  29.003  26.460  1.00  0.00     0.137 C 
ATOM     76  S   UNL A   1      33.272  28.472  25.566  1.00  0.00     0.150 S 
ATOM     77  O   UNL A   1      32.982  28.499  24.145  1.00  0.00    -0.229 OA
ATOM     78  O   UNL A   1      34.435  29.126  26.124  1.00  0.00    -0.229 OA
ENDBRANCH  71  72
ENDBRANCH  65  71
ENDBRANCH  59  62
ENDBRANCH  57  58
ENDBRANCH   1  57
TORSDOF 12
ENDMDL
MODEL 3
REMARK VINA RESULT:     -11.4      2.717      7.204
REMARK SMILES O=C(NCCCNC(=O)c1cn(C[C@@H]2CCS(=O)(=O)C2)c(=O)[nH]c1=O)c1ccc(-c2c3nc(c(-c4ccccc4)c4ccc([nH]4)c(-c4ccccc4)c4nc(c(-c5ccccc5)c5ccc2[nH]5)C=C4)C=C3)cc1
REMARK SMILES IDX 5 1 4 2 3 3 1 4 2 5 26 7 27 8 73 9 28 10 72 11 29 12 30 13
REMARK SMILES IDX 31 14 66 15 32 16 71 17 65 18 67 19 33 20 70 21 64 22 63 23
REMARK SMILES IDX 34 25 56 26 41 27 55 28 42 29 45 30 54 31 68 32 43 33 44 34
REMARK SMILES IDX 53 36 69 37 46 38 35 39 36 40 40 41 37 42 39 43 38 44 57 45
REMARK SMILES IDX 58 46 62 47 59 48 61 49 60 50 47 51 48 52 52 53 49 54 51 55
REMARK SMILES IDX 50 56 6 57 7 58 8 59 9 61 10 62 11 63 24 64 12 65 23 66
REMARK SMILES IDX 25 67 21 68 22 70 13 71 14 72 15 73 20 74 16 75 17 76 18 77
REMARK SMILES IDX 19 78
REMARK H PARENT 3 6 67 24 45 35 7 60 23 69
REMARK Flexibility Score: inf
ROOT
ATOM      1  C   UNL A   1      37.089  19.848  24.955  1.00  0.00     0.042 C 
ENDROOT
BRANCH   1   2
ATOM      2  C   UNL A   1      38.408  20.468  25.385  1.00  0.00     0.118 C 
BRANCH   2   3
ATOM      3  N   UNL A   1      39.442  19.465  25.606  1.00  0.00    -0.352 N 
ATOM      4  O   UNL A   1      41.510  18.638  25.879  1.00  0.00    -0.269 OA
ATOM      5  C   UNL A   1      40.750  19.597  25.996  1.00  0.00     0.251 C 
ATOM      6  H   UNL A   1      39.152  18.537  25.451  1.00  0.00     0.163 HD
BRANCH   5   7
ATOM      7  C   UNL A   1      41.252  20.869  26.556  1.00  0.00     0.039 A 
ATOM      8  C   UNL A   1      41.124  21.101  27.930  1.00  0.00     0.014 A 
ATOM      9  C   UNL A   1      41.777  21.863  25.729  1.00  0.00     0.014 A 
ATOM     10  C   UNL A   1      41.548  22.317  28.471  1.00  0.00     0.010 A 
ATOM     11  C   UNL A   1      42.294  23.028  26.280  1.00  0.00     0.010 A 
ATOM     12  C   UNL A   1      42.149  23.283  27.651  1.00  0.00    -0.014 A 
BRANCH  12  13
ATOM     13  C   UNL A   1      42.569  24.605  28.176  1.00  0.00     0.031 A 
ATOM     14  C   UNL A   1      41.533  25.676  28.388  1.00  0.00     0.074 A 
ATOM     15  C   UNL A   1      43.870  24.863  28.401  1.00  0.00     0.049 A 
ATOM     16  N   UNL A   1      41.701  26.928  28.728  1.00  0.00    -0.248 NA
ATOM     17  C   UNL A   1      40.126  25.301  28.165  1.00  0.00     0.031 C 
ATOM     18  C   UNL A   1      44.962  23.906  28.229  1.00  0.00     0.029 A 
ATOM     19  N   UNL A   1      44.494  26.012  28.819  1.00  0.00    -0.354 N 
ATOM     20  C   UNL A   1      40.430  27.489  28.730  1.00  0.00     0.074 A 
ATOM     21  C   UNL A   1      39.506  26.462  28.309  1.00  0.00     0.031 C 
ATOM     22  C   UNL A   1      46.119  24.499  28.566  1.00  0.00     0.029 A 
ATOM     23  C   UNL A   1      45.859  25.892  28.919  1.00  0.00     0.049 A 
ATOM     24  H   UNL A   1      44.010  26.844  29.028  1.00  0.00     0.167 HD
ATOM     25  C   UNL A   1      40.065  28.745  29.077  1.00  0.00     0.031 A 
ATOM     26  C   UNL A   1      46.799  26.802  29.243  1.00  0.00     0.031 A 
ATOM     27  C   UNL A   1      40.988  29.748  29.530  1.00  0.00     0.049 A 
ATOM     28  C   UNL A   1      46.375  28.203  29.588  1.00  0.00     0.074 A 
ATOM     29  C   UNL A   1      40.707  31.028  29.972  1.00  0.00     0.029 A 
ATOM     30  N   UNL A   1      42.363  29.589  29.600  1.00  0.00    -0.354 N 
ATOM     31  N   UNL A   1      45.164  28.706  29.641  1.00  0.00    -0.248 NA
ATOM     32  C   UNL A   1      47.437  29.162  29.924  1.00  0.00     0.031 C 
ATOM     33  C   UNL A   1      41.916  31.672  30.227  1.00  0.00     0.029 A 
ATOM     34  C   UNL A   1      42.947  30.765  30.033  1.00  0.00     0.049 A 
ATOM     35  H   UNL A   1      42.850  28.764  29.374  1.00  0.00     0.167 HD
ATOM     36  C   UNL A   1      45.316  30.029  30.036  1.00  0.00     0.074 A 
ATOM     37  C   UNL A   1      46.734  30.249  30.223  1.00  0.00     0.031 C 
ATOM     38  C   UNL A   1      44.361  30.973  30.221  1.00  0.00     0.031 A 
BRANCH  25  39
ATOM     39  C   UNL A   1      38.609  29.118  28.994  1.00  0.00    -0.014 A 
ATOM     40  C   UNL A   1      38.106  29.685  27.812  1.00  0.00     0.009 A 
ATOM     41  C   UNL A   1      37.763  29.017  30.109  1.00  0.00     0.009 A 
ATOM     42  C   UNL A   1      36.797  30.165  27.754  1.00  0.00     0.001 A 
ATOM     43  C   UNL A   1      36.442  29.465  30.037  1.00  0.00     0.001 A 
ATOM     44  C   UNL A   1      35.965  30.052  28.867  1.00  0.00     0.000 A 
ENDBRANCH  25  39
BRANCH  26  45
ATOM     45  C   UNL A   1      48.227  26.386  29.275  1.00  0.00    -0.014 A 
ATOM     46  C   UNL A   1      49.021  26.455  28.117  1.00  0.00     0.009 A 
ATOM     47  C   UNL A   1      48.781  25.837  30.441  1.00  0.00     0.009 A 
ATOM     48  C   UNL A   1      50.321  25.942  28.113  1.00  0.00     0.001 A 
ATOM     49  C   UNL A   1      50.093  25.357  30.443  1.00  0.00     0.001 A 
ATOM     50  C   UNL A   1      50.856  25.396  29.278  1.00  0.00     0.000 A 
ENDBRANCH  26  45
BRANCH  38  51
ATOM     51  C   UNL A   1      44.787  32.348  30.659  1.00  0.00    -0.014 A 
ATOM     52  C   UNL A   1      44.805  32.668  32.027  1.00  0.00     0.009 A 
ATOM     53  C   UNL A   1      45.003  33.369  29.720  1.00  0.00     0.009 A 
ATOM     54  C   UNL A   1      44.988  33.986  32.446  1.00  0.00     0.001 A 
ATOM     55  C   UNL A   1      45.222  34.681  30.145  1.00  0.00     0.001 A 
ATOM     56  C   UNL A   1      45.197  34.992  31.505  1.00  0.00     0.000 A 
ENDBRANCH  38  51
ENDBRANCH  12  13
ENDBRANCH   5   7
ENDBRANCH   2   3
ENDBRANCH   1   2
BRANCH   1  57
ATOM     57  C   UNL A   1      35.914  20.808  25.023  1.00  0.00     0.118 C 
BRANCH  57  58
ATOM     58  N   UNL A   1      36.308  22.190  25.273  1.00  0.00    -0.352 N 
ATOM     59  C   UNL A   1      35.570  23.260  25.717  1.00  0.00     0.258 C 
ATOM     60  H   UNL A   1      37.256  22.388  25.094  1.00  0.00     0.163 HD
ATOM     61  O   UNL A   1      36.106  24.355  25.840  1.00  0.00    -0.269 OA
BRANCH  59  62
ATOM     62  C   UNL A   1      34.142  23.037  26.010  1.00  0.00     0.121 A 
ATOM     63  C   UNL A   1      33.218  23.691  25.292  1.00  0.00     0.110 A 
ATOM     64  C   UNL A   1      33.688  22.183  27.121  1.00  0.00     0.266 A 
ATOM     65  N   UNL A   1      31.895  23.771  25.687  1.00  0.00    -0.299 N 
ATOM     66  N   UNL A   1      32.356  22.279  27.425  1.00  0.00    -0.273 N 
ATOM     67  O   UNL A   1      34.441  21.489  27.793  1.00  0.00    -0.268 OA
ATOM     68  C   UNL A   1      31.453  23.120  26.836  1.00  0.00     0.328 A 
ATOM     69  H   UNL A   1      32.017  21.686  28.134  1.00  0.00     0.175 HD
ATOM     70  O   UNL A   1      30.330  23.263  27.314  1.00  0.00    -0.248 OA
BRANCH  65  71
ATOM     71  C   UNL A   1      31.006  24.710  25.007  1.00  0.00     0.131 C 
BRANCH  71  72
ATOM     72  C   UNL A   1      31.657  25.717  24.040  1.00  0.00     0.025 C 
ATOM     73  C   UNL A   1      32.031  27.078  24.648  1.00  0.00     0.022 C 
ATOM     74  C   UNL A   1      30.836  26.016  22.785  1.00  0.00     0.142 C 
ATOM     75  C   UNL A   1      30.838  28.022  24.549  1.00  0.00     0.137 C 
ATOM     76  S   UNL A   1      29.926  27.515  23.107  1.00  0.00     0.150 S 
ATOM     77  O   UNL A   1      28.577  27.161  23.505  1.00  0.00    -0.229 OA
ATOM     78  O   UNL A   1      30.189  28.448  22.034  1.00  0.00    -0.229 OA
ENDBRANCH  71  72
ENDBRANCH  65  71
ENDBRANCH  59  62
ENDBRANCH  57  58
ENDBRANCH   1  57
TORSDOF 12
ENDMDL
