MODEL 1
REMARK VINA RESULT:      -9.5      0.000      0.000
REMARK SMILES COC[C@@H](C)CC(=O)N1CC(CC(=O)NCCCNC(=O)c2ccc(-c3c4nc(c(-c5ccccc5)c5ccc([nH]5)c(-c5ccccc5)c5nc(c(-c6ccccc6)c6ccc3[nH]6)C=C5)C=C4)cc2)C1
REMARK SMILES IDX 13 1 14 2 15 3 12 5 11 6 7 7 8 8 9 9 10 10 70 11 6 12 4 13
REMARK SMILES IDX 5 14 3 15 2 16 1 17 16 18 17 19 18 20 19 21 20 22 21 24
REMARK SMILES IDX 22 25 23 26 69 27 24 28 68 29 25 30 26 31 27 32 62 33 28 34
REMARK SMILES IDX 67 35 61 36 63 37 29 38 66 39 60 40 59 41 30 43 52 44 37 45
REMARK SMILES IDX 51 46 38 47 41 48 50 49 64 50 39 51 40 52 49 54 65 55 42 56
REMARK SMILES IDX 31 57 32 58 36 59 33 60 35 61 34 62 53 63 54 64 58 65 55 66
REMARK SMILES IDX 57 67 56 68 43 69 44 70 48 71 45 72 47 73 46 74
REMARK H PARENT 15 4 19 23 63 42 41 53
REMARK Flexibility Score: inf
ROOT
ATOM      1  C   UNL A   1      36.869  23.240  25.523  1.00  0.00     0.220 C 
ATOM      2  O   UNL A   1      37.462  24.097  26.181  1.00  0.00    -0.275 OA
ATOM      3  N   UNL A   1      37.440  22.006  25.432  1.00  0.00    -0.356 N 
ATOM      4  H   UNL A   1      38.269  21.905  25.955  1.00  0.00     0.163 HD
ENDROOT
BRANCH   1   5
ATOM      5  C   UNL A   1      35.572  23.585  24.809  1.00  0.00     0.107 C 
BRANCH   5   6
ATOM      6  C   UNL A   1      34.657  24.455  25.666  1.00  0.00     0.037 C 
ATOM      7  C   UNL A   1      31.902  26.312  25.757  1.00  0.00     0.222 C 
ATOM      8  O   UNL A   1      31.452  26.303  26.900  1.00  0.00    -0.275 OA
ATOM      9  N   UNL A   1      32.823  25.392  25.308  1.00  0.00    -0.342 N 
ATOM     10  C   UNL A   1      33.179  24.095  25.886  1.00  0.00     0.125 C 
ATOM     11  C   UNL A   1      34.187  25.698  24.928  1.00  0.00     0.125 C 
BRANCH   7  12
ATOM     12  C   UNL A   1      31.339  27.241  24.679  1.00  0.00     0.106 C 
BRANCH  12  13
ATOM     13  C   UNL A   1      31.377  28.767  24.912  1.00  0.00     0.021 C 
ATOM     14  C   UNL A   1      30.459  29.460  23.898  1.00  0.00     0.010 C 
BRANCH  13  15
ATOM     15  C   UNL A   1      32.806  29.319  24.807  1.00  0.00     0.163 C 
BRANCH  15  16
ATOM     16  O   UNL A   1      33.296  29.918  25.999  1.00  0.00    -0.384 OA
ATOM     17  C   UNL A   1      32.354  29.933  27.063  1.00  0.00     0.194 C 
ENDBRANCH  15  16
ENDBRANCH  13  15
ENDBRANCH  12  13
ENDBRANCH   7  12
ENDBRANCH   5   6
ENDBRANCH   1   5
BRANCH   3  18
ATOM     18  C   UNL A   1      37.048  20.810  24.700  1.00  0.00     0.117 C 
BRANCH  18  19
ATOM     19  C   UNL A   1      38.102  19.706  24.797  1.00  0.00     0.042 C 
BRANCH  19  20
ATOM     20  C   UNL A   1      38.997  19.739  26.032  1.00  0.00     0.118 C 
BRANCH  20  21
ATOM     21  N   UNL A   1      40.289  19.110  25.815  1.00  0.00    -0.352 N 
ATOM     22  C   UNL A   1      41.573  19.583  25.966  1.00  0.00     0.251 C 
ATOM     23  H   UNL A   1      40.236  18.177  25.506  1.00  0.00     0.163 HD
ATOM     24  O   UNL A   1      42.499  18.879  25.572  1.00  0.00    -0.269 OA
BRANCH  22  25
ATOM     25  C   UNL A   1      41.879  20.919  26.547  1.00  0.00     0.039 A 
ATOM     26  C   UNL A   1      42.277  21.943  25.673  1.00  0.00     0.014 A 
ATOM     27  C   UNL A   1      41.833  21.185  27.917  1.00  0.00     0.014 A 
ATOM     28  C   UNL A   1      42.547  23.231  26.155  1.00  0.00     0.010 A 
ATOM     29  C   UNL A   1      42.042  22.485  28.393  1.00  0.00     0.010 A 
ATOM     30  C   UNL A   1      42.405  23.521  27.518  1.00  0.00    -0.014 A 
BRANCH  30  31
ATOM     31  C   UNL A   1      42.678  24.883  28.052  1.00  0.00     0.031 A 
ATOM     32  C   UNL A   1      44.064  25.248  28.512  1.00  0.00     0.074 A 
ATOM     33  C   UNL A   1      41.681  25.781  28.177  1.00  0.00     0.049 A 
ATOM     34  N   UNL A   1      44.491  26.366  29.046  1.00  0.00    -0.248 NA
ATOM     35  C   UNL A   1      45.101  24.214  28.374  1.00  0.00     0.031 C 
ATOM     36  C   UNL A   1      40.285  25.554  27.810  1.00  0.00     0.029 A 
ATOM     37  N   UNL A   1      41.690  27.067  28.667  1.00  0.00    -0.354 N 
ATOM     38  C   UNL A   1      45.837  26.161  29.323  1.00  0.00     0.074 A 
ATOM     39  C   UNL A   1      46.147  24.803  28.934  1.00  0.00     0.031 C 
ATOM     40  C   UNL A   1      39.572  26.661  28.081  1.00  0.00     0.029 A 
ATOM     41  C   UNL A   1      40.454  27.666  28.667  1.00  0.00     0.049 A 
ATOM     42  H   UNL A   1      42.506  27.515  28.986  1.00  0.00     0.167 HD
ATOM     43  C   UNL A   1      46.739  27.028  29.842  1.00  0.00     0.031 A 
ATOM     44  C   UNL A   1      40.069  28.883  29.102  1.00  0.00     0.031 A 
ATOM     45  C   UNL A   1      46.446  28.384  30.217  1.00  0.00     0.049 A 
ATOM     46  C   UNL A   1      41.090  29.824  29.681  1.00  0.00     0.074 A 
ATOM     47  C   UNL A   1      47.317  29.356  30.681  1.00  0.00     0.029 A 
ATOM     48  N   UNL A   1      45.187  28.960  30.181  1.00  0.00    -0.354 N 
ATOM     49  N   UNL A   1      42.378  29.646  29.849  1.00  0.00    -0.248 NA
ATOM     50  C   UNL A   1      40.605  31.143  30.117  1.00  0.00     0.031 C 
ATOM     51  C   UNL A   1      46.575  30.506  30.972  1.00  0.00     0.029 A 
ATOM     52  C   UNL A   1      45.252  30.264  30.640  1.00  0.00     0.049 A 
ATOM     53  H   UNL A   1      44.368  28.508  29.873  1.00  0.00     0.167 HD
ATOM     54  C   UNL A   1      42.859  30.835  30.381  1.00  0.00     0.074 A 
ATOM     55  C   UNL A   1      41.730  31.734  30.495  1.00  0.00     0.031 C 
ATOM     56  C   UNL A   1      44.126  31.154  30.743  1.00  0.00     0.031 A 
BRANCH  43  57
ATOM     57  C   UNL A   1      48.142  26.527  30.043  1.00  0.00    -0.014 A 
ATOM     58  C   UNL A   1      48.518  25.878  31.228  1.00  0.00     0.009 A 
ATOM     59  C   UNL A   1      49.085  26.670  29.014  1.00  0.00     0.009 A 
ATOM     60  C   UNL A   1      49.823  25.410  31.393  1.00  0.00     0.001 A 
ATOM     61  C   UNL A   1      50.382  26.178  29.171  1.00  0.00     0.001 A 
ATOM     62  C   UNL A   1      50.752  25.556  30.363  1.00  0.00     0.000 A 
ENDBRANCH  43  57
BRANCH  44  63
ATOM     63  C   UNL A   1      38.643  29.293  29.010  1.00  0.00    -0.014 A 
ATOM     64  C   UNL A   1      37.802  29.207  30.131  1.00  0.00     0.009 A 
ATOM     65  C   UNL A   1      38.106  29.739  27.792  1.00  0.00     0.009 A 
ATOM     66  C   UNL A   1      36.447  29.530  30.025  1.00  0.00     0.001 A 
ATOM     67  C   UNL A   1      36.757  30.087  27.697  1.00  0.00     0.001 A 
ATOM     68  C   UNL A   1      35.927  29.972  28.810  1.00  0.00     0.000 A 
ENDBRANCH  44  63
BRANCH  56  69
ATOM     69  C   UNL A   1      44.370  32.544  31.259  1.00  0.00    -0.014 A 
ATOM     70  C   UNL A   1      44.673  33.602  30.389  1.00  0.00     0.009 A 
ATOM     71  C   UNL A   1      44.249  32.805  32.632  1.00  0.00     0.009 A 
ATOM     72  C   UNL A   1      44.877  34.890  30.889  1.00  0.00     0.001 A 
ATOM     73  C   UNL A   1      44.427  34.098  33.126  1.00  0.00     0.001 A 
ATOM     74  C   UNL A   1      44.749  35.138  32.256  1.00  0.00     0.000 A 
ENDBRANCH  56  69
ENDBRANCH  30  31
ENDBRANCH  22  25
ENDBRANCH  20  21
ENDBRANCH  19  20
ENDBRANCH  18  19
ENDBRANCH   3  18
TORSDOF 15
ENDMDL
MODEL 2
REMARK VINA RESULT:      -9.4      2.188      7.940
REMARK SMILES COC[C@@H](C)CC(=O)N1CC(CC(=O)NCCCNC(=O)c2ccc(-c3c4nc(c(-c5ccccc5)c5ccc([nH]5)c(-c5ccccc5)c5nc(c(-c6ccccc6)c6ccc3[nH]6)C=C5)C=C4)cc2)C1
REMARK SMILES IDX 13 1 14 2 15 3 12 5 11 6 7 7 8 8 9 9 10 10 70 11 6 12 4 13
REMARK SMILES IDX 5 14 3 15 2 16 1 17 16 18 17 19 18 20 19 21 20 22 21 24
REMARK SMILES IDX 22 25 23 26 69 27 24 28 68 29 25 30 26 31 27 32 62 33 28 34
REMARK SMILES IDX 67 35 61 36 63 37 29 38 66 39 60 40 59 41 30 43 52 44 37 45
REMARK SMILES IDX 51 46 38 47 41 48 50 49 64 50 39 51 40 52 49 54 65 55 42 56
REMARK SMILES IDX 31 57 32 58 36 59 33 60 35 61 34 62 53 63 54 64 58 65 55 66
REMARK SMILES IDX 57 67 56 68 43 69 44 70 48 71 45 72 47 73 46 74
REMARK H PARENT 15 4 19 23 63 42 41 53
REMARK Flexibility Score: inf
ROOT
ATOM      1  C   UNL A   1      30.712  28.588  23.166  1.00  0.00     0.220 C 
ATOM      2  O   UNL A   1      30.485  28.865  21.987  1.00  0.00    -0.275 OA
ATOM      3  N   UNL A   1      31.214  29.574  23.961  1.00  0.00    -0.356 N 
ATOM      4  H   UNL A   1      31.302  30.447  23.514  1.00  0.00     0.163 HD
ENDROOT
BRANCH   1   5
ATOM      5  C   UNL A   1      30.478  27.176  23.679  1.00  0.00     0.107 C 
BRANCH   5   6
ATOM      6  C   UNL A   1      31.704  26.286  23.493  1.00  0.00     0.037 C 
ATOM      7  C   UNL A   1      32.821  23.244  22.759  1.00  0.00     0.222 C 
ATOM      8  O   UNL A   1      33.945  23.337  22.271  1.00  0.00    -0.275 OA
ATOM      9  N   UNL A   1      31.957  24.310  22.860  1.00  0.00    -0.342 N 
ATOM     10  C   UNL A   1      31.999  25.592  22.153  1.00  0.00     0.125 C 
ATOM     11  C   UNL A   1      31.512  24.907  24.102  1.00  0.00     0.125 C 
BRANCH   7  12
ATOM     12  C   UNL A   1      32.220  21.887  23.135  1.00  0.00     0.106 C 
BRANCH  12  13
ATOM     13  C   UNL A   1      33.056  20.907  23.986  1.00  0.00     0.021 C 
ATOM     14  C   UNL A   1      32.519  19.483  23.798  1.00  0.00     0.010 C 
BRANCH  13  15
ATOM     15  C   UNL A   1      33.042  21.294  25.471  1.00  0.00     0.163 C 
BRANCH  15  16
ATOM     16  O   UNL A   1      34.212  21.967  25.917  1.00  0.00    -0.384 OA
ATOM     17  C   UNL A   1      35.422  21.347  25.505  1.00  0.00     0.194 C 
ENDBRANCH  15  16
ENDBRANCH  13  15
ENDBRANCH  12  13
ENDBRANCH   7  12
ENDBRANCH   5   6
ENDBRANCH   1   5
BRANCH   3  18
ATOM     18  C   UNL A   1      31.645  29.570  25.352  1.00  0.00     0.117 C 
BRANCH  18  19
ATOM     19  C   UNL A   1      33.069  29.036  25.510  1.00  0.00     0.042 C 
BRANCH  19  20
ATOM     20  C   UNL A   1      33.611  28.982  26.935  1.00  0.00     0.118 C 
BRANCH  20  21
ATOM     21  N   UNL A   1      33.617  30.278  27.591  1.00  0.00    -0.352 N 
ATOM     22  C   UNL A   1      34.563  30.903  28.373  1.00  0.00     0.251 C 
ATOM     23  H   UNL A   1      32.798  30.806  27.449  1.00  0.00     0.163 HD
ATOM     24  O   UNL A   1      34.252  31.954  28.927  1.00  0.00    -0.269 OA
BRANCH  22  25
ATOM     25  C   UNL A   1      35.922  30.340  28.602  1.00  0.00     0.039 A 
ATOM     26  C   UNL A   1      36.852  30.417  27.554  1.00  0.00     0.014 A 
ATOM     27  C   UNL A   1      36.296  29.702  29.787  1.00  0.00     0.014 A 
ATOM     28  C   UNL A   1      38.159  29.936  27.719  1.00  0.00     0.010 A 
ATOM     29  C   UNL A   1      37.615  29.276  29.975  1.00  0.00     0.010 A 
ATOM     30  C   UNL A   1      38.560  29.385  28.943  1.00  0.00    -0.014 A 
BRANCH  30  31
ATOM     31  C   UNL A   1      39.944  28.874  29.145  1.00  0.00     0.031 A 
ATOM     32  C   UNL A   1      41.005  29.779  29.711  1.00  0.00     0.074 A 
ATOM     33  C   UNL A   1      40.271  27.620  28.775  1.00  0.00     0.049 A 
ATOM     34  N   UNL A   1      42.275  29.535  29.921  1.00  0.00    -0.248 NA
ATOM     35  C   UNL A   1      40.589  31.144  30.069  1.00  0.00     0.031 C 
ATOM     36  C   UNL A   1      39.358  26.647  28.177  1.00  0.00     0.029 A 
ATOM     37  N   UNL A   1      41.473  26.955  28.834  1.00  0.00    -0.354 N 
ATOM     38  C   UNL A   1      42.811  30.717  30.415  1.00  0.00     0.074 A 
ATOM     39  C   UNL A   1      41.739  31.689  30.440  1.00  0.00     0.031 C 
ATOM     40  C   UNL A   1      40.028  25.509  27.929  1.00  0.00     0.029 A 
ATOM     41  C   UNL A   1      41.424  25.680  28.322  1.00  0.00     0.049 A 
ATOM     42  H   UNL A   1      42.291  27.354  29.207  1.00  0.00     0.167 HD
ATOM     43  C   UNL A   1      44.075  30.971  30.825  1.00  0.00     0.031 A 
ATOM     44  C   UNL A   1      42.394  24.756  28.175  1.00  0.00     0.031 A 
ATOM     45  C   UNL A   1      45.145  30.010  30.820  1.00  0.00     0.049 A 
ATOM     46  C   UNL A   1      43.794  25.066  28.632  1.00  0.00     0.074 A 
ATOM     47  C   UNL A   1      46.439  30.160  31.289  1.00  0.00     0.029 A 
ATOM     48  N   UNL A   1      45.048  28.724  30.316  1.00  0.00    -0.354 N 
ATOM     49  N   UNL A   1      44.260  26.160  29.184  1.00  0.00    -0.248 NA
ATOM     50  C   UNL A   1      44.799  24.006  28.460  1.00  0.00     0.031 C 
ATOM     51  C   UNL A   1      47.140  28.979  31.022  1.00  0.00     0.029 A 
ATOM     52  C   UNL A   1      46.267  28.078  30.436  1.00  0.00     0.049 A 
ATOM     53  H   UNL A   1      44.233  28.327  29.930  1.00  0.00     0.167 HD
ATOM     54  C   UNL A   1      45.600  25.909  29.449  1.00  0.00     0.074 A 
ATOM     55  C   UNL A   1      45.871  24.556  29.013  1.00  0.00     0.031 C 
ATOM     56  C   UNL A   1      46.525  26.729  30.006  1.00  0.00     0.031 A 
BRANCH  43  57
ATOM     57  C   UNL A   1      44.378  32.360  31.312  1.00  0.00    -0.014 A 
ATOM     58  C   UNL A   1      44.206  32.711  32.660  1.00  0.00     0.009 A 
ATOM     59  C   UNL A   1      44.884  33.316  30.419  1.00  0.00     0.009 A 
ATOM     60  C   UNL A   1      44.503  34.004  33.096  1.00  0.00     0.001 A 
ATOM     61  C   UNL A   1      45.205  34.600  30.862  1.00  0.00     0.001 A 
ATOM     62  C   UNL A   1      45.006  34.945  32.199  1.00  0.00     0.000 A 
ENDBRANCH  43  57
BRANCH  44  63
ATOM     63  C   UNL A   1      42.084  23.437  27.562  1.00  0.00    -0.014 A 
ATOM     64  C   UNL A   1      41.506  22.413  28.329  1.00  0.00     0.009 A 
ATOM     65  C   UNL A   1      42.397  23.185  26.217  1.00  0.00     0.009 A 
ATOM     66  C   UNL A   1      41.278  21.154  27.769  1.00  0.00     0.001 A 
ATOM     67  C   UNL A   1      42.141  21.933  25.653  1.00  0.00     0.001 A 
ATOM     68  C   UNL A   1      41.593  20.916  26.432  1.00  0.00     0.000 A 
ENDBRANCH  44  63
BRANCH  56  69
ATOM     69  C   UNL A   1      47.906  26.176  30.214  1.00  0.00    -0.014 A 
ATOM     70  C   UNL A   1      48.849  26.159  29.175  1.00  0.00     0.009 A 
ATOM     71  C   UNL A   1      48.282  25.707  31.482  1.00  0.00     0.009 A 
ATOM     72  C   UNL A   1      50.134  25.658  29.396  1.00  0.00     0.001 A 
ATOM     73  C   UNL A   1      49.575  25.231  31.707  1.00  0.00     0.001 A 
ATOM     74  C   UNL A   1      50.497  25.199  30.662  1.00  0.00     0.000 A 
ENDBRANCH  56  69
ENDBRANCH  30  31
ENDBRANCH  22  25
ENDBRANCH  20  21
ENDBRANCH  19  20
ENDBRANCH  18  19
ENDBRANCH   3  18
TORSDOF 15
ENDMDL
MODEL 3
REMARK VINA RESULT:      -9.4      1.019      6.239
REMARK SMILES COC[C@@H](C)CC(=O)N1CC(CC(=O)NCCCNC(=O)c2ccc(-c3c4nc(c(-c5ccccc5)c5ccc([nH]5)c(-c5ccccc5)c5nc(c(-c6ccccc6)c6ccc3[nH]6)C=C5)C=C4)cc2)C1
REMARK SMILES IDX 13 1 14 2 15 3 12 5 11 6 7 7 8 8 9 9 10 10 70 11 6 12 4 13
REMARK SMILES IDX 5 14 3 15 2 16 1 17 16 18 17 19 18 20 19 21 20 22 21 24
REMARK SMILES IDX 22 25 23 26 69 27 24 28 68 29 25 30 26 31 27 32 62 33 28 34
REMARK SMILES IDX 67 35 61 36 63 37 29 38 66 39 60 40 59 41 30 43 52 44 37 45
REMARK SMILES IDX 51 46 38 47 41 48 50 49 64 50 39 51 40 52 49 54 65 55 42 56
REMARK SMILES IDX 31 57 32 58 36 59 33 60 35 61 34 62 53 63 54 64 58 65 55 66
REMARK SMILES IDX 57 67 56 68 43 69 44 70 48 71 45 72 47 73 46 74
REMARK H PARENT 15 4 19 23 63 42 41 53
REMARK Flexibility Score: inf
ROOT
ATOM      1  C   UNL A   1      36.804  23.420  25.457  1.00  0.00     0.220 C 
ATOM      2  O   UNL A   1      37.363  24.251  26.176  1.00  0.00    -0.275 OA
ATOM      3  N   UNL A   1      37.352  22.175  25.385  1.00  0.00    -0.356 N 
ATOM      4  H   UNL A   1      38.134  22.044  25.969  1.00  0.00     0.163 HD
ENDROOT
BRANCH   1   5
ATOM      5  C   UNL A   1      35.575  23.810  24.650  1.00  0.00     0.107 C 
BRANCH   5   6
ATOM      6  C   UNL A   1      34.638  24.724  25.435  1.00  0.00     0.037 C 
ATOM      7  C   UNL A   1      31.570  25.976  25.681  1.00  0.00     0.222 C 
ATOM      8  O   UNL A   1      31.342  26.247  26.857  1.00  0.00    -0.275 OA
ATOM      9  N   UNL A   1      32.596  25.147  25.288  1.00  0.00    -0.342 N 
ATOM     10  C   UNL A   1      33.355  24.187  26.091  1.00  0.00     0.125 C 
ATOM     11  C   UNL A   1      33.755  25.561  24.525  1.00  0.00     0.125 C 
BRANCH   7  12
ATOM     12  C   UNL A   1      30.616  26.398  24.560  1.00  0.00     0.106 C 
BRANCH  12  13
ATOM     13  C   UNL A   1      30.965  27.636  23.706  1.00  0.00     0.021 C 
ATOM     14  C   UNL A   1      31.320  28.809  24.629  1.00  0.00     0.010 C 
BRANCH  13  15
ATOM     15  C   UNL A   1      29.811  28.020  22.769  1.00  0.00     0.163 C 
BRANCH  15  16
ATOM     16  O   UNL A   1      30.106  29.086  21.876  1.00  0.00    -0.384 OA
ATOM     17  C   UNL A   1      29.155  30.141  21.908  1.00  0.00     0.194 C 
ENDBRANCH  15  16
ENDBRANCH  13  15
ENDBRANCH  12  13
ENDBRANCH   7  12
ENDBRANCH   5   6
ENDBRANCH   1   5
BRANCH   3  18
ATOM     18  C   UNL A   1      36.991  21.003  24.601  1.00  0.00     0.117 C 
BRANCH  18  19
ATOM     19  C   UNL A   1      37.943  19.831  24.848  1.00  0.00     0.042 C 
BRANCH  19  20
ATOM     20  C   UNL A   1      38.928  19.998  26.001  1.00  0.00     0.118 C 
BRANCH  20  21
ATOM     21  N   UNL A   1      40.148  19.229  25.822  1.00  0.00    -0.352 N 
ATOM     22  C   UNL A   1      41.473  19.564  25.992  1.00  0.00     0.251 C 
ATOM     23  H   UNL A   1      40.000  18.302  25.528  1.00  0.00     0.163 HD
ATOM     24  O   UNL A   1      42.324  18.756  25.630  1.00  0.00    -0.269 OA
BRANCH  22  25
ATOM     25  C   UNL A   1      41.911  20.870  26.557  1.00  0.00     0.039 A 
ATOM     26  C   UNL A   1      42.396  21.843  25.668  1.00  0.00     0.014 A 
ATOM     27  C   UNL A   1      41.905  21.152  27.924  1.00  0.00     0.014 A 
ATOM     28  C   UNL A   1      42.792  23.104  26.134  1.00  0.00     0.010 A 
ATOM     29  C   UNL A   1      42.242  22.430  28.385  1.00  0.00     0.010 A 
ATOM     30  C   UNL A   1      42.692  23.418  27.496  1.00  0.00    -0.014 A 
BRANCH  30  31
ATOM     31  C   UNL A   1      43.099  24.754  28.013  1.00  0.00     0.031 A 
ATOM     32  C   UNL A   1      42.059  25.809  28.275  1.00  0.00     0.074 A 
ATOM     33  C   UNL A   1      44.401  25.047  28.200  1.00  0.00     0.049 A 
ATOM     34  N   UNL A   1      42.216  27.043  28.685  1.00  0.00    -0.248 NA
ATOM     35  C   UNL A   1      40.657  25.433  28.026  1.00  0.00     0.031 C 
ATOM     36  C   UNL A   1      45.519  24.139  27.950  1.00  0.00     0.029 A 
ATOM     37  N   UNL A   1      45.005  26.206  28.630  1.00  0.00    -0.354 N 
ATOM     38  C   UNL A   1      40.942  27.595  28.722  1.00  0.00     0.074 A 
ATOM     39  C   UNL A   1      40.026  26.574  28.260  1.00  0.00     0.031 C 
ATOM     40  C   UNL A   1      46.671  24.769  28.235  1.00  0.00     0.029 A 
ATOM     41  C   UNL A   1      46.376  26.135  28.660  1.00  0.00     0.049 A 
ATOM     42  H   UNL A   1      44.501  27.009  28.892  1.00  0.00     0.167 HD
ATOM     43  C   UNL A   1      40.563  28.833  29.118  1.00  0.00     0.031 A 
ATOM     44  C   UNL A   1      47.296  27.067  28.982  1.00  0.00     0.031 A 
ATOM     45  C   UNL A   1      41.461  29.849  29.594  1.00  0.00     0.049 A 
ATOM     46  C   UNL A   1      46.849  28.438  29.411  1.00  0.00     0.074 A 
ATOM     47  C   UNL A   1      41.155  31.107  30.086  1.00  0.00     0.029 A 
ATOM     48  N   UNL A   1      42.840  29.730  29.630  1.00  0.00    -0.354 N 
ATOM     49  N   UNL A   1      45.632  28.912  29.529  1.00  0.00    -0.248 NA
ATOM     50  C   UNL A   1      47.904  29.400  29.767  1.00  0.00     0.031 C 
ATOM     51  C   UNL A   1      42.354  31.767  30.375  1.00  0.00     0.029 A 
ATOM     52  C   UNL A   1      43.401  30.901  30.110  1.00  0.00     0.049 A 
ATOM     53  H   UNL A   1      43.346  28.931  29.356  1.00  0.00     0.167 HD
ATOM     54  C   UNL A   1      45.775  30.211  29.998  1.00  0.00     0.074 A 
ATOM     55  C   UNL A   1      47.194  30.449  30.158  1.00  0.00     0.031 C 
ATOM     56  C   UNL A   1      44.813  31.127  30.272  1.00  0.00     0.031 A 
BRANCH  43  57
ATOM     57  C   UNL A   1      39.098  29.163  29.045  1.00  0.00    -0.014 A 
ATOM     58  C   UNL A   1      38.518  29.633  27.857  1.00  0.00     0.009 A 
ATOM     59  C   UNL A   1      38.282  28.960  30.168  1.00  0.00     0.009 A 
ATOM     60  C   UNL A   1      37.154  29.925  27.804  1.00  0.00     0.001 A 
ATOM     61  C   UNL A   1      36.914  29.228  30.106  1.00  0.00     0.001 A 
ATOM     62  C   UNL A   1      36.353  29.718  28.927  1.00  0.00     0.000 A 
ENDBRANCH  43  57
BRANCH  44  63
ATOM     63  C   UNL A   1      48.745  26.743  28.912  1.00  0.00    -0.014 A 
ATOM     64  C   UNL A   1      49.414  26.219  30.029  1.00  0.00     0.009 A 
ATOM     65  C   UNL A   1      49.475  26.988  27.738  1.00  0.00     0.009 A 
ATOM     66  C   UNL A   1      50.790  25.979  29.982  1.00  0.00     0.001 A 
ATOM     67  C   UNL A   1      50.844  26.720  27.685  1.00  0.00     0.001 A 
ATOM     68  C   UNL A   1      51.502  26.226  28.810  1.00  0.00     0.000 A 
ENDBRANCH  44  63
BRANCH  56  69
ATOM     69  C   UNL A   1      45.257  32.457  30.812  1.00  0.00    -0.014 A 
ATOM     70  C   UNL A   1      45.428  32.666  32.189  1.00  0.00     0.009 A 
ATOM     71  C   UNL A   1      45.554  33.502  29.923  1.00  0.00     0.009 A 
ATOM     72  C   UNL A   1      45.860  33.905  32.666  1.00  0.00     0.001 A 
ATOM     73  C   UNL A   1      46.011  34.730  30.401  1.00  0.00     0.001 A 
ATOM     74  C   UNL A   1      46.156  34.934  31.772  1.00  0.00     0.000 A 
ENDBRANCH  56  69
ENDBRANCH  30  31
ENDBRANCH  22  25
ENDBRANCH  20  21
ENDBRANCH  19  20
ENDBRANCH  18  19
ENDBRANCH   3  18
TORSDOF 15
ENDMDL
