MODEL 1
REMARK VINA RESULT:     -10.1      0.000      0.000
REMARK SMILES O=C(NCCCNC(=O)[C@@H]1CC[C@@H](CS(=O)(=O)c2cccc(F)c2)O1)c1ccc(-c2c3nc(c(-c4ccccc4)c4ccc([nH]4)c(-c4ccccc4)c4nc(c(-c5ccccc5)c5ccc2[nH]5)C=C4)C=C3)cc1
REMARK SMILES IDX 5 1 4 2 3 3 1 4 2 5 26 7 27 8 73 9 28 10 72 11 29 12 30 13
REMARK SMILES IDX 31 14 66 15 32 16 71 17 65 18 67 19 33 20 70 21 64 22 63 23
REMARK SMILES IDX 34 25 56 26 41 27 55 28 42 29 45 30 54 31 68 32 43 33 44 34
REMARK SMILES IDX 53 36 69 37 46 38 35 39 36 40 40 41 37 42 39 43 38 44 57 45
REMARK SMILES IDX 58 46 62 47 59 48 61 49 60 50 47 51 48 52 52 53 49 54 51 55
REMARK SMILES IDX 50 56 6 57 7 58 8 59 9 61 10 62 11 63 25 64 12 65 13 66
REMARK SMILES IDX 14 67 15 68 16 69 17 70 18 71 19 72 24 73 20 74 22 75 21 76
REMARK SMILES IDX 23 77
REMARK H PARENT 3 6 67 24 45 35 7 60
REMARK Flexibility Score: inf
ROOT
ATOM      1  C   UNL A   1      33.327  37.341  29.977  1.00  0.00     0.042 C 
ENDROOT
BRANCH   1   2
ATOM      2  C   UNL A   1      33.755  36.626  28.704  1.00  0.00     0.118 C 
BRANCH   2   3
ATOM      3  N   UNL A   1      32.893  35.497  28.363  1.00  0.00    -0.352 N 
ATOM      4  O   UNL A   1      32.237  33.427  27.790  1.00  0.00    -0.269 OA
ATOM      5  C   UNL A   1      33.131  34.153  28.219  1.00  0.00     0.251 C 
ATOM      6  H   UNL A   1      31.955  35.752  28.205  1.00  0.00     0.163 HD
BRANCH   5   7
ATOM      7  C   UNL A   1      34.441  33.551  28.551  1.00  0.00     0.039 A 
ATOM      8  C   UNL A   1      35.572  33.817  27.788  1.00  0.00     0.014 A 
ATOM      9  C   UNL A   1      34.561  32.768  29.708  1.00  0.00     0.014 A 
ATOM     10  C   UNL A   1      36.768  33.174  28.067  1.00  0.00     0.010 A 
ATOM     11  C   UNL A   1      35.800  32.222  30.065  1.00  0.00     0.010 A 
ATOM     12  C   UNL A   1      36.910  32.403  29.231  1.00  0.00    -0.014 A 
BRANCH  12  13
ATOM     13  C   UNL A   1      38.269  31.920  29.583  1.00  0.00     0.031 A 
ATOM     14  C   UNL A   1      39.152  32.675  30.531  1.00  0.00     0.074 A 
ATOM     15  C   UNL A   1      38.657  30.726  29.091  1.00  0.00     0.049 A 
ATOM     16  N   UNL A   1      40.304  32.312  31.039  1.00  0.00    -0.248 NA
ATOM     17  C   UNL A   1      38.700  34.006  30.961  1.00  0.00     0.031 C 
ATOM     18  C   UNL A   1      37.883  29.914  28.146  1.00  0.00     0.029 A 
ATOM     19  N   UNL A   1      39.763  29.960  29.355  1.00  0.00    -0.354 N 
ATOM     20  C   UNL A   1      40.720  33.371  31.835  1.00  0.00     0.074 A 
ATOM     21  C   UNL A   1      39.709  34.402  31.726  1.00  0.00     0.031 C 
ATOM     22  C   UNL A   1      38.488  28.730  27.984  1.00  0.00     0.029 A 
ATOM     23  C   UNL A   1      39.728  28.727  28.749  1.00  0.00     0.049 A 
ATOM     24  H   UNL A   1      40.508  30.263  29.922  1.00  0.00     0.167 HD
ATOM     25  C   UNL A   1      41.841  33.470  32.588  1.00  0.00     0.031 A 
ATOM     26  C   UNL A   1      40.598  27.703  28.798  1.00  0.00     0.031 A 
ATOM     27  C   UNL A   1      42.843  32.440  32.688  1.00  0.00     0.049 A 
ATOM     28  C   UNL A   1      41.835  27.849  29.631  1.00  0.00     0.074 A 
ATOM     29  C   UNL A   1      44.006  32.438  33.439  1.00  0.00     0.029 A 
ATOM     30  N   UNL A   1      42.805  31.231  32.010  1.00  0.00    -0.354 N 
ATOM     31  N   UNL A   1      42.193  28.844  30.403  1.00  0.00    -0.248 NA
ATOM     32  C   UNL A   1      42.789  26.734  29.591  1.00  0.00     0.031 C 
ATOM     33  C   UNL A   1      44.693  31.248  33.179  1.00  0.00     0.029 A 
ATOM     34  C   UNL A   1      43.935  30.487  32.306  1.00  0.00     0.049 A 
ATOM     35  H   UNL A   1      42.081  30.945  31.407  1.00  0.00     0.167 HD
ATOM     36  C   UNL A   1      43.415  28.477  30.946  1.00  0.00     0.074 A 
ATOM     37  C   UNL A   1      43.717  27.152  30.440  1.00  0.00     0.031 C 
ATOM     38  C   UNL A   1      44.221  29.177  31.780  1.00  0.00     0.031 A 
BRANCH  25  39
ATOM     39  C   UNL A   1      42.060  34.749  33.347  1.00  0.00    -0.014 A 
ATOM     40  C   UNL A   1      42.871  35.772  32.833  1.00  0.00     0.009 A 
ATOM     41  C   UNL A   1      41.403  34.954  34.570  1.00  0.00     0.009 A 
ATOM     42  C   UNL A   1      43.038  36.965  33.541  1.00  0.00     0.001 A 
ATOM     43  C   UNL A   1      41.553  36.156  35.265  1.00  0.00     0.001 A 
ATOM     44  C   UNL A   1      42.375  37.158  34.753  1.00  0.00     0.000 A 
ENDBRANCH  25  39
BRANCH  26  45
ATOM     45  C   UNL A   1      40.332  26.465  28.019  1.00  0.00    -0.014 A 
ATOM     46  C   UNL A   1      40.914  26.270  26.758  1.00  0.00     0.009 A 
ATOM     47  C   UNL A   1      39.500  25.463  28.545  1.00  0.00     0.009 A 
ATOM     48  C   UNL A   1      40.655  25.103  26.033  1.00  0.00     0.001 A 
ATOM     49  C   UNL A   1      39.270  24.284  27.834  1.00  0.00     0.001 A 
ATOM     50  C   UNL A   1      39.839  24.111  26.575  1.00  0.00     0.000 A 
ENDBRANCH  26  45
BRANCH  38  51
ATOM     51  C   UNL A   1      45.499  28.509  32.198  1.00  0.00    -0.014 A 
ATOM     52  C   UNL A   1      45.559  27.732  33.365  1.00  0.00     0.009 A 
ATOM     53  C   UNL A   1      46.650  28.650  31.409  1.00  0.00     0.009 A 
ATOM     54  C   UNL A   1      46.762  27.139  33.754  1.00  0.00     0.001 A 
ATOM     55  C   UNL A   1      47.843  28.034  31.787  1.00  0.00     0.001 A 
ATOM     56  C   UNL A   1      47.901  27.288  32.963  1.00  0.00     0.000 A 
ENDBRANCH  38  51
ENDBRANCH  12  13
ENDBRANCH   5   7
ENDBRANCH   2   3
ENDBRANCH   1   2
BRANCH   1  57
ATOM     57  C   UNL A   1      32.728  36.399  31.010  1.00  0.00     0.117 C 
BRANCH  57  58
ATOM     58  N   UNL A   1      32.989  36.840  32.366  1.00  0.00    -0.354 N 
ATOM     59  C   UNL A   1      33.940  36.463  33.262  1.00  0.00     0.249 C 
ATOM     60  H   UNL A   1      32.372  37.532  32.695  1.00  0.00     0.163 HD
ATOM     61  O   UNL A   1      33.944  37.050  34.350  1.00  0.00    -0.272 OA
BRANCH  59  62
ATOM     62  C   UNL A   1      34.985  35.361  32.968  1.00  0.00     0.207 C 
ATOM     63  C   UNL A   1      34.362  33.995  33.256  1.00  0.00     0.045 C 
ATOM     64  O   UNL A   1      36.260  35.364  33.614  1.00  0.00    -0.364 OA
ATOM     65  C   UNL A   1      35.558  33.141  33.589  1.00  0.00     0.036 C 
ATOM     66  C   UNL A   1      36.439  34.130  34.330  1.00  0.00     0.134 C 
BRANCH  66  67
ATOM     67  C   UNL A   1      37.910  33.753  34.321  1.00  0.00     0.174 C 
BRANCH  67  68
ATOM     68  S   UNL A   1      38.308  32.425  35.428  1.00  0.00     0.181 S 
ATOM     69  O   UNL A   1      39.507  32.798  36.160  1.00  0.00    -0.224 OA
ATOM     70  O   UNL A   1      37.098  32.085  36.149  1.00  0.00    -0.224 OA
BRANCH  68  71
ATOM     71  C   UNL A   1      38.715  31.015  34.427  1.00  0.00     0.070 A 
ATOM     72  C   UNL A   1      39.988  30.438  34.521  1.00  0.00     0.020 A 
ATOM     73  C   UNL A   1      37.816  30.589  33.448  1.00  0.00     0.059 A 
ATOM     74  C   UNL A   1      40.350  29.409  33.648  1.00  0.00     0.004 A 
ATOM     75  C   UNL A   1      38.192  29.563  32.591  1.00  0.00     0.124 A 
ATOM     76  C   UNL A   1      39.447  28.968  32.681  1.00  0.00     0.039 A 
ATOM     77  F   UNL A   1      37.318  29.127  31.678  1.00  0.00    -0.207 F 
ENDBRANCH  68  71
ENDBRANCH  67  68
ENDBRANCH  66  67
ENDBRANCH  59  62
ENDBRANCH  57  58
ENDBRANCH   1  57
TORSDOF 13
ENDMDL
MODEL 2
REMARK VINA RESULT:      -9.6      0.476      6.036
REMARK SMILES O=C(NCCCNC(=O)[C@@H]1CC[C@@H](CS(=O)(=O)c2cccc(F)c2)O1)c1ccc(-c2c3nc(c(-c4ccccc4)c4ccc([nH]4)c(-c4ccccc4)c4nc(c(-c5ccccc5)c5ccc2[nH]5)C=C4)C=C3)cc1
REMARK SMILES IDX 5 1 4 2 3 3 1 4 2 5 26 7 27 8 73 9 28 10 72 11 29 12 30 13
REMARK SMILES IDX 31 14 66 15 32 16 71 17 65 18 67 19 33 20 70 21 64 22 63 23
REMARK SMILES IDX 34 25 56 26 41 27 55 28 42 29 45 30 54 31 68 32 43 33 44 34
REMARK SMILES IDX 53 36 69 37 46 38 35 39 36 40 40 41 37 42 39 43 38 44 57 45
REMARK SMILES IDX 58 46 62 47 59 48 61 49 60 50 47 51 48 52 52 53 49 54 51 55
REMARK SMILES IDX 50 56 6 57 7 58 8 59 9 61 10 62 11 63 25 64 12 65 13 66
REMARK SMILES IDX 14 67 15 68 16 69 17 70 18 71 19 72 24 73 20 74 22 75 21 76
REMARK SMILES IDX 23 77
REMARK H PARENT 3 6 67 24 45 35 7 60
REMARK Flexibility Score: inf
ROOT
ATOM      1  C   UNL A   1      33.308  37.265  29.999  1.00  0.00     0.042 C 
ENDROOT
BRANCH   1   2
ATOM      2  C   UNL A   1      33.851  36.567  28.761  1.00  0.00     0.118 C 
BRANCH   2   3
ATOM      3  N   UNL A   1      32.989  35.490  28.284  1.00  0.00    -0.352 N 
ATOM      4  O   UNL A   1      32.321  33.474  27.549  1.00  0.00    -0.269 OA
ATOM      5  C   UNL A   1      33.194  34.145  28.096  1.00  0.00     0.251 C 
ATOM      6  H   UNL A   1      32.079  35.787  28.052  1.00  0.00     0.163 HD
BRANCH   5   7
ATOM      7  C   UNL A   1      34.445  33.479  28.519  1.00  0.00     0.039 A 
ATOM      8  C   UNL A   1      35.634  33.668  27.824  1.00  0.00     0.014 A 
ATOM      9  C   UNL A   1      34.449  32.713  29.694  1.00  0.00     0.014 A 
ATOM     10  C   UNL A   1      36.773  32.966  28.188  1.00  0.00     0.010 A 
ATOM     11  C   UNL A   1      35.631  32.106  30.136  1.00  0.00     0.010 A 
ATOM     12  C   UNL A   1      36.799  32.210  29.371  1.00  0.00    -0.014 A 
BRANCH  12  13
ATOM     13  C   UNL A   1      38.105  31.660  29.815  1.00  0.00     0.031 A 
ATOM     14  C   UNL A   1      38.622  30.349  29.302  1.00  0.00     0.074 A 
ATOM     15  C   UNL A   1      38.861  32.421  30.632  1.00  0.00     0.049 A 
ATOM     16  N   UNL A   1      39.799  29.806  29.489  1.00  0.00    -0.248 NA
ATOM     17  C   UNL A   1      37.711  29.538  28.482  1.00  0.00     0.031 C 
ATOM     18  C   UNL A   1      38.448  33.706  31.206  1.00  0.00     0.029 A 
ATOM     19  N   UNL A   1      40.148  32.260  31.076  1.00  0.00    -0.354 N 
ATOM     20  C   UNL A   1      39.766  28.587  28.827  1.00  0.00     0.074 A 
ATOM     21  C   UNL A   1      38.444  28.457  28.250  1.00  0.00     0.031 C 
ATOM     22  C   UNL A   1      39.488  34.258  31.844  1.00  0.00     0.029 A 
ATOM     23  C   UNL A   1      40.615  33.336  31.792  1.00  0.00     0.049 A 
ATOM     24  H   UNL A   1      40.684  31.453  30.901  1.00  0.00     0.167 HD
ATOM     25  C   UNL A   1      40.750  27.664  28.709  1.00  0.00     0.031 A 
ATOM     26  C   UNL A   1      41.817  33.560  32.350  1.00  0.00     0.031 A 
ATOM     27  C   UNL A   1      42.061  27.799  29.290  1.00  0.00     0.049 A 
ATOM     28  C   UNL A   1      42.881  32.514  32.214  1.00  0.00     0.074 A 
ATOM     29  C   UNL A   1      43.133  26.927  29.212  1.00  0.00     0.029 A 
ATOM     30  N   UNL A   1      42.477  28.874  30.062  1.00  0.00    -0.354 N 
ATOM     31  N   UNL A   1      42.841  31.383  31.554  1.00  0.00    -0.248 NA
ATOM     32  C   UNL A   1      44.150  32.772  32.905  1.00  0.00     0.031 C 
ATOM     33  C   UNL A   1      44.181  27.452  29.976  1.00  0.00     0.029 A 
ATOM     34  C   UNL A   1      43.780  28.675  30.486  1.00  0.00     0.049 A 
ATOM     35  H   UNL A   1      41.926  29.662  30.276  1.00  0.00     0.167 HD
ATOM     36  C   UNL A   1      44.080  30.792  31.747  1.00  0.00     0.074 A 
ATOM     37  C   UNL A   1      44.860  31.708  32.557  1.00  0.00     0.031 C 
ATOM     38  C   UNL A   1      44.530  29.593  31.304  1.00  0.00     0.031 A 
BRANCH  25  39
ATOM     39  C   UNL A   1      40.439  26.407  27.944  1.00  0.00    -0.014 A 
ATOM     40  C   UNL A   1      39.697  25.365  28.523  1.00  0.00     0.009 A 
ATOM     41  C   UNL A   1      40.851  26.287  26.608  1.00  0.00     0.009 A 
ATOM     42  C   UNL A   1      39.395  24.219  27.784  1.00  0.00     0.001 A 
ATOM     43  C   UNL A   1      40.528  25.149  25.865  1.00  0.00     0.001 A 
ATOM     44  C   UNL A   1      39.806  24.114  26.456  1.00  0.00     0.000 A 
ENDBRANCH  25  39
BRANCH  26  45
ATOM     45  C   UNL A   1      42.063  34.819  33.103  1.00  0.00    -0.014 A 
ATOM     46  C   UNL A   1      41.513  35.012  34.378  1.00  0.00     0.009 A 
ATOM     47  C   UNL A   1      42.866  35.829  32.549  1.00  0.00     0.009 A 
ATOM     48  C   UNL A   1      41.749  36.201  35.076  1.00  0.00     0.001 A 
ATOM     49  C   UNL A   1      43.127  37.000  33.261  1.00  0.00     0.001 A 
ATOM     50  C   UNL A   1      42.560  37.189  34.519  1.00  0.00     0.000 A 
ENDBRANCH  26  45
BRANCH  38  51
ATOM     51  C   UNL A   1      45.935  29.221  31.683  1.00  0.00    -0.014 A 
ATOM     52  C   UNL A   1      46.221  28.672  32.942  1.00  0.00     0.009 A 
ATOM     53  C   UNL A   1      46.978  29.411  30.765  1.00  0.00     0.009 A 
ATOM     54  C   UNL A   1      47.536  28.355  33.288  1.00  0.00     0.001 A 
ATOM     55  C   UNL A   1      48.287  29.069  31.105  1.00  0.00     0.001 A 
ATOM     56  C   UNL A   1      48.566  28.551  32.369  1.00  0.00     0.000 A 
ENDBRANCH  38  51
ENDBRANCH  12  13
ENDBRANCH   5   7
ENDBRANCH   2   3
ENDBRANCH   1   2
BRANCH   1  57
ATOM     57  C   UNL A   1      32.716  36.295  31.009  1.00  0.00     0.117 C 
BRANCH  57  58
ATOM     58  N   UNL A   1      32.918  36.741  32.374  1.00  0.00    -0.354 N 
ATOM     59  C   UNL A   1      33.857  36.400  33.297  1.00  0.00     0.249 C 
ATOM     60  H   UNL A   1      32.263  37.406  32.687  1.00  0.00     0.163 HD
ATOM     61  O   UNL A   1      33.804  36.981  34.387  1.00  0.00    -0.272 OA
BRANCH  59  62
ATOM     62  C   UNL A   1      34.954  35.343  33.031  1.00  0.00     0.207 C 
ATOM     63  C   UNL A   1      34.382  33.952  33.304  1.00  0.00     0.045 C 
ATOM     64  O   UNL A   1      36.211  35.400  33.710  1.00  0.00    -0.364 OA
ATOM     65  C   UNL A   1      35.605  33.149  33.668  1.00  0.00     0.036 C 
ATOM     66  C   UNL A   1      36.424  34.173  34.431  1.00  0.00     0.134 C 
BRANCH  66  67
ATOM     67  C   UNL A   1      37.909  33.860  34.460  1.00  0.00     0.174 C 
BRANCH  67  68
ATOM     68  S   UNL A   1      38.338  32.574  35.605  1.00  0.00     0.181 S 
ATOM     69  O   UNL A   1      39.471  33.035  36.390  1.00  0.00    -0.224 OA
ATOM     70  O   UNL A   1      37.119  32.160  36.270  1.00  0.00    -0.224 OA
BRANCH  68  71
ATOM     71  C   UNL A   1      38.889  31.184  34.646  1.00  0.00     0.070 A 
ATOM     72  C   UNL A   1      40.246  30.839  34.634  1.00  0.00     0.020 A 
ATOM     73  C   UNL A   1      37.989  30.541  33.794  1.00  0.00     0.059 A 
ATOM     74  C   UNL A   1      40.698  29.824  33.786  1.00  0.00     0.004 A 
ATOM     75  C   UNL A   1      38.456  29.534  32.960  1.00  0.00     0.124 A 
ATOM     76  C   UNL A   1      39.798  29.168  32.947  1.00  0.00     0.039 A 
ATOM     77  F   UNL A   1      37.588  28.890  32.172  1.00  0.00    -0.207 F 
ENDBRANCH  68  71
ENDBRANCH  67  68
ENDBRANCH  66  67
ENDBRANCH  59  62
ENDBRANCH  57  58
ENDBRANCH   1  57
TORSDOF 13
ENDMDL
MODEL 3
REMARK VINA RESULT:      -9.4      4.265      8.979
REMARK SMILES O=C(NCCCNC(=O)[C@@H]1CC[C@@H](CS(=O)(=O)c2cccc(F)c2)O1)c1ccc(-c2c3nc(c(-c4ccccc4)c4ccc([nH]4)c(-c4ccccc4)c4nc(c(-c5ccccc5)c5ccc2[nH]5)C=C4)C=C3)cc1
REMARK SMILES IDX 5 1 4 2 3 3 1 4 2 5 26 7 27 8 73 9 28 10 72 11 29 12 30 13
REMARK SMILES IDX 31 14 66 15 32 16 71 17 65 18 67 19 33 20 70 21 64 22 63 23
REMARK SMILES IDX 34 25 56 26 41 27 55 28 42 29 45 30 54 31 68 32 43 33 44 34
REMARK SMILES IDX 53 36 69 37 46 38 35 39 36 40 40 41 37 42 39 43 38 44 57 45
REMARK SMILES IDX 58 46 62 47 59 48 61 49 60 50 47 51 48 52 52 53 49 54 51 55
REMARK SMILES IDX 50 56 6 57 7 58 8 59 9 61 10 62 11 63 25 64 12 65 13 66
REMARK SMILES IDX 14 67 15 68 16 69 17 70 18 71 19 72 24 73 20 74 22 75 21 76
REMARK SMILES IDX 23 77
REMARK H PARENT 3 6 67 24 45 35 7 60
REMARK Flexibility Score: inf
ROOT
ATOM      1  C   UNL A   1      33.306  34.669  29.403  1.00  0.00     0.042 C 
ENDROOT
BRANCH   1   2
ATOM      2  C   UNL A   1      33.078  36.165  29.552  1.00  0.00     0.118 C 
BRANCH   2   3
ATOM      3  N   UNL A   1      32.519  36.534  30.850  1.00  0.00    -0.352 N 
ATOM      4  O   UNL A   1      32.074  36.511  33.052  1.00  0.00    -0.269 OA
ATOM      5  C   UNL A   1      32.797  36.131  32.133  1.00  0.00     0.251 C 
ATOM      6  H   UNL A   1      31.800  37.205  30.793  1.00  0.00     0.163 HD
BRANCH   5   7
ATOM      7  C   UNL A   1      33.935  35.239  32.442  1.00  0.00     0.039 A 
ATOM      8  C   UNL A   1      35.248  35.687  32.358  1.00  0.00     0.014 A 
ATOM      9  C   UNL A   1      33.679  33.943  32.913  1.00  0.00     0.014 A 
ATOM     10  C   UNL A   1      36.299  34.808  32.569  1.00  0.00     0.010 A 
ATOM     11  C   UNL A   1      34.740  33.093  33.252  1.00  0.00     0.010 A 
ATOM     12  C   UNL A   1      36.061  33.515  33.059  1.00  0.00    -0.014 A 
BRANCH  12  13
ATOM     13  C   UNL A   1      37.235  32.700  33.466  1.00  0.00     0.031 A 
ATOM     14  C   UNL A   1      37.861  31.703  32.537  1.00  0.00     0.074 A 
ATOM     15  C   UNL A   1      37.782  32.948  34.673  1.00  0.00     0.049 A 
ATOM     16  N   UNL A   1      38.967  31.020  32.698  1.00  0.00    -0.248 NA
ATOM     17  C   UNL A   1      37.164  31.427  31.273  1.00  0.00     0.031 C 
ATOM     18  C   UNL A   1      37.243  33.885  35.665  1.00  0.00     0.029 A 
ATOM     19  N   UNL A   1      38.934  32.483  35.252  1.00  0.00    -0.354 N 
ATOM     20  C   UNL A   1      39.091  30.224  31.568  1.00  0.00     0.074 A 
ATOM     21  C   UNL A   1      37.937  30.491  30.736  1.00  0.00     0.031 C 
ATOM     22  C   UNL A   1      38.108  33.996  36.682  1.00  0.00     0.029 A 
ATOM     23  C   UNL A   1      39.221  33.085  36.454  1.00  0.00     0.049 A 
ATOM     24  H   UNL A   1      39.500  31.786  34.847  1.00  0.00     0.167 HD
ATOM     25  C   UNL A   1      40.081  29.354  31.253  1.00  0.00     0.031 A 
ATOM     26  C   UNL A   1      40.264  32.922  37.287  1.00  0.00     0.031 A 
ATOM     27  C   UNL A   1      41.224  29.092  32.088  1.00  0.00     0.049 A 
ATOM     28  C   UNL A   1      41.335  31.942  36.917  1.00  0.00     0.074 A 
ATOM     29  C   UNL A   1      42.290  28.241  31.849  1.00  0.00     0.029 A 
ATOM     30  N   UNL A   1      41.449  29.673  33.327  1.00  0.00    -0.354 N 
ATOM     31  N   UNL A   1      41.452  31.225  35.827  1.00  0.00    -0.248 NA
ATOM     32  C   UNL A   1      42.412  31.745  37.894  1.00  0.00     0.031 C 
ATOM     33  C   UNL A   1      43.134  28.273  32.965  1.00  0.00     0.029 A 
ATOM     34  C   UNL A   1      42.622  29.181  33.875  1.00  0.00     0.049 A 
ATOM     35  H   UNL A   1      40.859  30.337  33.754  1.00  0.00     0.167 HD
ATOM     36  C   UNL A   1      42.617  30.490  35.984  1.00  0.00     0.074 A 
ATOM     37  C   UNL A   1      43.188  30.877  37.260  1.00  0.00     0.031 C 
ATOM     38  C   UNL A   1      43.162  29.570  35.152  1.00  0.00     0.031 A 
BRANCH  25  39
ATOM     39  C   UNL A   1      39.958  28.597  29.960  1.00  0.00    -0.014 A 
ATOM     40  C   UNL A   1      40.457  29.121  28.758  1.00  0.00     0.009 A 
ATOM     41  C   UNL A   1      39.381  27.318  29.955  1.00  0.00     0.009 A 
ATOM     42  C   UNL A   1      40.359  28.387  27.573  1.00  0.00     0.001 A 
ATOM     43  C   UNL A   1      39.305  26.577  28.773  1.00  0.00     0.001 A 
ATOM     44  C   UNL A   1      39.788  27.115  27.582  1.00  0.00     0.000 A 
ENDBRANCH  25  39
BRANCH  26  45
ATOM     45  C   UNL A   1      40.326  33.692  38.557  1.00  0.00    -0.014 A 
ATOM     46  C   UNL A   1      40.994  34.923  38.619  1.00  0.00     0.009 A 
ATOM     47  C   UNL A   1      39.699  33.200  39.713  1.00  0.00     0.009 A 
ATOM     48  C   UNL A   1      41.048  35.638  39.819  1.00  0.00     0.001 A 
ATOM     49  C   UNL A   1      39.726  33.931  40.902  1.00  0.00     0.001 A 
ATOM     50  C   UNL A   1      40.409  35.144  40.956  1.00  0.00     0.000 A 
ENDBRANCH  26  45
BRANCH  38  51
ATOM     51  C   UNL A   1      44.445  28.933  35.603  1.00  0.00    -0.014 A 
ATOM     52  C   UNL A   1      45.687  29.495  35.271  1.00  0.00     0.009 A 
ATOM     53  C   UNL A   1      44.408  27.764  36.377  1.00  0.00     0.009 A 
ATOM     54  C   UNL A   1      46.870  28.876  35.675  1.00  0.00     0.001 A 
ATOM     55  C   UNL A   1      45.592  27.162  36.802  1.00  0.00     0.001 A 
ATOM     56  C   UNL A   1      46.822  27.712  36.442  1.00  0.00     0.000 A 
ENDBRANCH  38  51
ENDBRANCH  12  13
ENDBRANCH   5   7
ENDBRANCH   2   3
ENDBRANCH   1   2
BRANCH   1  57
ATOM     57  C   UNL A   1      33.718  34.273  27.993  1.00  0.00     0.117 C 
BRANCH  57  58
ATOM     58  N   UNL A   1      35.023  33.642  27.964  1.00  0.00    -0.354 N 
ATOM     59  C   UNL A   1      35.382  32.331  27.948  1.00  0.00     0.249 C 
ATOM     60  H   UNL A   1      35.779  34.272  27.954  1.00  0.00     0.163 HD
ATOM     61  O   UNL A   1      36.593  32.086  27.884  1.00  0.00    -0.272 OA
BRANCH  59  62
ATOM     62  C   UNL A   1      34.357  31.175  28.002  1.00  0.00     0.207 C 
ATOM     63  C   UNL A   1      35.089  29.850  27.786  1.00  0.00     0.045 C 
ATOM     64  O   UNL A   1      33.223  31.154  27.131  1.00  0.00    -0.364 OA
ATOM     65  C   UNL A   1      34.017  28.963  27.206  1.00  0.00     0.036 C 
ATOM     66  C   UNL A   1      33.240  29.945  26.350  1.00  0.00     0.134 C 
BRANCH  66  67
ATOM     67  C   UNL A   1      31.813  29.508  26.073  1.00  0.00     0.174 C 
BRANCH  67  68
ATOM     68  S   UNL A   1      31.598  28.764  24.477  1.00  0.00     0.181 S 
ATOM     69  O   UNL A   1      32.651  29.261  23.607  1.00  0.00    -0.224 OA
ATOM     70  O   UNL A   1      31.444  27.337  24.682  1.00  0.00    -0.224 OA
BRANCH  68  71
ATOM     71  C   UNL A   1      30.052  29.352  23.829  1.00  0.00     0.070 A 
ATOM     72  C   UNL A   1      29.224  28.484  23.106  1.00  0.00     0.020 A 
ATOM     73  C   UNL A   1      29.747  30.711  23.917  1.00  0.00     0.059 A 
ATOM     74  C   UNL A   1      28.069  28.976  22.493  1.00  0.00     0.004 A 
ATOM     75  C   UNL A   1      28.594  31.182  23.303  1.00  0.00     0.124 A 
ATOM     76  C   UNL A   1      27.752  30.330  22.594  1.00  0.00     0.039 A 
ATOM     77  F   UNL A   1      28.279  32.476  23.418  1.00  0.00    -0.207 F 
ENDBRANCH  68  71
ENDBRANCH  67  68
ENDBRANCH  66  67
ENDBRANCH  59  62
ENDBRANCH  57  58
ENDBRANCH   1  57
TORSDOF 13
ENDMDL
