MODEL 1
REMARK VINA RESULT:     -11.7      0.000      0.000
REMARK SMILES O=C(NCCCNC(=O)[C@H]1C[C@](O)(c2ccc(Cl)cc2)[C@@H](c2ccc(Cl)cc2)O1)c1ccc(-c2c3nc(c(-c4ccccc4)c4ccc([nH]4)c(-c4ccccc4)c4nc(c(-c5ccccc5)c5ccc2[nH]5)C=C4)C=C3)cc1
REMARK SMILES IDX 4 1 3 2 1 3 2 4 30 6 31 7 77 8 32 9 76 10 33 11 34 12 35 13
REMARK SMILES IDX 70 14 36 15 75 16 69 17 71 18 37 19 74 20 68 21 67 22 38 24
REMARK SMILES IDX 60 25 45 26 59 27 46 28 49 29 58 30 72 31 47 32 48 33 57 35
REMARK SMILES IDX 73 36 50 37 39 38 40 39 44 40 41 41 43 42 42 43 61 44 62 45
REMARK SMILES IDX 66 46 63 47 65 48 64 49 51 50 52 51 56 52 53 53 55 54 54 55
REMARK SMILES IDX 5 56 6 57 7 58 8 59 9 61 10 62 11 63 29 64 12 65 21 66 14 67
REMARK SMILES IDX 15 68 20 69 16 70 19 71 17 72 18 73 13 74 22 76 23 77 28 78
REMARK SMILES IDX 24 79 27 80 25 81 26 82
REMARK H PARENT 3 5 71 23 49 34 7 60 13 75
REMARK Flexibility Score: inf
ROOT
ATOM      1  C   UNL A   1      39.985  24.152  27.284  1.00  0.00     0.118 C 
ENDROOT
BRANCH   1   2
ATOM      2  N   UNL A   1      40.776  23.095  26.672  1.00  0.00    -0.352 N 
ATOM      3  O   UNL A   1      42.365  22.185  25.378  1.00  0.00    -0.269 OA
ATOM      4  C   UNL A   1      42.005  23.144  26.058  1.00  0.00     0.251 C 
ATOM      5  H   UNL A   1      40.365  22.201  26.703  1.00  0.00     0.163 HD
BRANCH   4   6
ATOM      6  C   UNL A   1      42.917  24.309  26.196  1.00  0.00     0.039 A 
ATOM      7  C   UNL A   1      43.680  24.518  27.345  1.00  0.00     0.014 A 
ATOM      8  C   UNL A   1      43.127  25.133  25.082  1.00  0.00     0.014 A 
ATOM      9  C   UNL A   1      44.600  25.574  27.395  1.00  0.00     0.010 A 
ATOM     10  C   UNL A   1      44.073  26.170  25.125  1.00  0.00     0.010 A 
ATOM     11  C   UNL A   1      44.815  26.415  26.289  1.00  0.00    -0.014 A 
BRANCH  11  12
ATOM     12  C   UNL A   1      45.848  27.497  26.336  1.00  0.00     0.031 A 
ATOM     13  C   UNL A   1      45.468  28.945  26.539  1.00  0.00     0.074 A 
ATOM     14  C   UNL A   1      47.153  27.193  26.180  1.00  0.00     0.049 A 
ATOM     15  N   UNL A   1      46.236  30.009  26.538  1.00  0.00    -0.248 NA
ATOM     16  C   UNL A   1      44.044  29.237  26.760  1.00  0.00     0.031 C 
ATOM     17  C   UNL A   1      47.691  25.848  25.969  1.00  0.00     0.029 A 
ATOM     18  N   UNL A   1      48.269  27.998  26.181  1.00  0.00    -0.354 N 
ATOM     19  C   UNL A   1      45.389  31.096  26.725  1.00  0.00     0.074 A 
ATOM     20  C   UNL A   1      44.045  30.562  26.822  1.00  0.00     0.031 C 
ATOM     21  C   UNL A   1      49.030  25.914  25.907  1.00  0.00     0.029 A 
ATOM     22  C   UNL A   1      49.445  27.310  26.008  1.00  0.00     0.049 A 
ATOM     23  H   UNL A   1      48.228  28.975  26.295  1.00  0.00     0.167 HD
ATOM     24  C   UNL A   1      45.693  32.415  26.810  1.00  0.00     0.031 A 
ATOM     25  C   UNL A   1      50.719  27.740  25.920  1.00  0.00     0.031 A 
ATOM     26  C   UNL A   1      47.023  32.967  26.742  1.00  0.00     0.049 A 
ATOM     27  C   UNL A   1      51.028  29.207  25.998  1.00  0.00     0.074 A 
ATOM     28  C   UNL A   1      47.411  34.292  26.863  1.00  0.00     0.029 A 
ATOM     29  N   UNL A   1      48.179  32.232  26.538  1.00  0.00    -0.354 N 
ATOM     30  N   UNL A   1      50.212  30.213  26.182  1.00  0.00    -0.248 NA
ATOM     31  C   UNL A   1      52.439  29.595  25.845  1.00  0.00     0.031 C 
ATOM     32  C   UNL A   1      48.798  34.364  26.691  1.00  0.00     0.029 A 
ATOM     33  C   UNL A   1      49.277  33.078  26.508  1.00  0.00     0.049 A 
ATOM     34  H   UNL A   1      48.215  31.255  26.430  1.00  0.00     0.167 HD
ATOM     35  C   UNL A   1      51.009  31.351  26.179  1.00  0.00     0.074 A 
ATOM     36  C   UNL A   1      52.376  30.911  25.996  1.00  0.00     0.031 C 
ATOM     37  C   UNL A   1      50.635  32.645  26.315  1.00  0.00     0.031 A 
BRANCH  24  38
ATOM     38  C   UNL A   1      44.553  33.383  26.969  1.00  0.00    -0.014 A 
ATOM     39  C   UNL A   1      44.056  33.719  28.236  1.00  0.00     0.009 A 
ATOM     40  C   UNL A   1      44.021  34.020  25.837  1.00  0.00     0.009 A 
ATOM     41  C   UNL A   1      43.028  34.657  28.364  1.00  0.00     0.001 A 
ATOM     42  C   UNL A   1      43.010  34.974  25.970  1.00  0.00     0.001 A 
ATOM     43  C   UNL A   1      42.510  35.287  27.232  1.00  0.00     0.000 A 
ENDBRANCH  24  38
BRANCH  25  44
ATOM     44  C   UNL A   1      51.815  26.757  25.728  1.00  0.00    -0.014 A 
ATOM     45  C   UNL A   1      52.466  26.191  26.835  1.00  0.00     0.009 A 
ATOM     46  C   UNL A   1      52.216  26.382  24.436  1.00  0.00     0.009 A 
ATOM     47  C   UNL A   1      53.507  25.280  26.651  1.00  0.00     0.001 A 
ATOM     48  C   UNL A   1      53.239  25.449  24.256  1.00  0.00     0.001 A 
ATOM     49  C   UNL A   1      53.888  24.905  25.364  1.00  0.00     0.000 A 
ENDBRANCH  25  44
BRANCH  37  50
ATOM     50  C   UNL A   1      51.721  33.681  26.289  1.00  0.00    -0.014 A 
ATOM     51  C   UNL A   1      52.353  34.099  27.471  1.00  0.00     0.009 A 
ATOM     52  C   UNL A   1      52.134  34.232  25.066  1.00  0.00     0.009 A 
ATOM     53  C   UNL A   1      53.357  35.070  27.431  1.00  0.00     0.001 A 
ATOM     54  C   UNL A   1      53.153  35.186  25.026  1.00  0.00     0.001 A 
ATOM     55  C   UNL A   1      53.757  35.610  26.209  1.00  0.00     0.000 A 
ENDBRANCH  37  50
ENDBRANCH  11  12
ENDBRANCH   4   6
ENDBRANCH   1   2
BRANCH   1  56
ATOM     56  C   UNL A   1      38.842  24.602  26.370  1.00  0.00     0.042 C 
BRANCH  56  57
ATOM     57  C   UNL A   1      37.664  23.631  26.274  1.00  0.00     0.117 C 
BRANCH  57  58
ATOM     58  N   UNL A   1      37.492  23.040  24.958  1.00  0.00    -0.354 N 
ATOM     59  C   UNL A   1      36.474  23.172  24.053  1.00  0.00     0.249 C 
ATOM     60  H   UNL A   1      38.225  22.449  24.670  1.00  0.00     0.163 HD
ATOM     61  O   UNL A   1      36.604  22.588  22.975  1.00  0.00    -0.272 OA
BRANCH  59  62
ATOM     62  C   UNL A   1      35.257  24.078  24.366  1.00  0.00     0.211 C 
ATOM     63  C   UNL A   1      34.502  24.533  23.112  1.00  0.00     0.085 C 
ATOM     64  O   UNL A   1      34.310  23.471  25.243  1.00  0.00    -0.357 OA
ATOM     65  C   UNL A   1      33.138  23.845  23.163  1.00  0.00     0.123 C 
ATOM     66  C   UNL A   1      33.197  22.996  24.470  1.00  0.00     0.186 C 
BRANCH  65  67
ATOM     67  C   UNL A   1      31.996  24.873  23.103  1.00  0.00    -0.013 A 
ATOM     68  C   UNL A   1      30.815  24.655  23.843  1.00  0.00     0.008 A 
ATOM     69  C   UNL A   1      32.070  26.046  22.331  1.00  0.00     0.008 A 
ATOM     70  C   UNL A   1      29.789  25.603  23.879  1.00  0.00     0.021 A 
ATOM     71  C   UNL A   1      31.045  27.001  22.370  1.00  0.00     0.021 A 
ATOM     72  C   UNL A   1      29.916  26.781  23.154  1.00  0.00     0.041 A 
ATOM     73  Cl  UNL A   1      28.675  27.969  23.224  1.00  0.00    -0.084 Cl
ENDBRANCH  65  67
BRANCH  65  74
ATOM     74  O   UNL A   1      32.997  23.019  21.997  1.00  0.00    -0.382 OA
ATOM     75  H   UNL A   1      32.480  22.230  22.221  1.00  0.00     0.212 HD
ENDBRANCH  65  74
BRANCH  66  76
ATOM     76  C   UNL A   1      33.277  21.480  24.347  1.00  0.00    -0.016 A 
ATOM     77  C   UNL A   1      34.321  20.726  24.907  1.00  0.00     0.008 A 
ATOM     78  C   UNL A   1      32.276  20.799  23.629  1.00  0.00     0.008 A 
ATOM     79  C   UNL A   1      34.423  19.356  24.668  1.00  0.00     0.021 A 
ATOM     80  C   UNL A   1      32.374  19.426  23.395  1.00  0.00     0.021 A 
ATOM     81  C   UNL A   1      33.469  18.720  23.882  1.00  0.00     0.041 A 
ATOM     82  Cl  UNL A   1      33.687  17.072  23.451  1.00  0.00    -0.084 Cl
ENDBRANCH  66  76
ENDBRANCH  59  62
ENDBRANCH  57  58
ENDBRANCH  56  57
ENDBRANCH   1  56
TORSDOF 13
ENDMDL
MODEL 2
REMARK VINA RESULT:     -11.6      6.946      9.400
REMARK SMILES O=C(NCCCNC(=O)[C@H]1C[C@](O)(c2ccc(Cl)cc2)[C@@H](c2ccc(Cl)cc2)O1)c1ccc(-c2c3nc(c(-c4ccccc4)c4ccc([nH]4)c(-c4ccccc4)c4nc(c(-c5ccccc5)c5ccc2[nH]5)C=C4)C=C3)cc1
REMARK SMILES IDX 4 1 3 2 1 3 2 4 30 6 31 7 77 8 32 9 76 10 33 11 34 12 35 13
REMARK SMILES IDX 70 14 36 15 75 16 69 17 71 18 37 19 74 20 68 21 67 22 38 24
REMARK SMILES IDX 60 25 45 26 59 27 46 28 49 29 58 30 72 31 47 32 48 33 57 35
REMARK SMILES IDX 73 36 50 37 39 38 40 39 44 40 41 41 43 42 42 43 61 44 62 45
REMARK SMILES IDX 66 46 63 47 65 48 64 49 51 50 52 51 56 52 53 53 55 54 54 55
REMARK SMILES IDX 5 56 6 57 7 58 8 59 9 61 10 62 11 63 29 64 12 65 21 66 14 67
REMARK SMILES IDX 15 68 20 69 16 70 19 71 17 72 18 73 13 74 22 76 23 77 28 78
REMARK SMILES IDX 24 79 27 80 25 81 26 82
REMARK H PARENT 3 5 71 23 49 34 7 60 13 75
REMARK Flexibility Score: inf
ROOT
ATOM      1  C   UNL A   1      40.120  23.071  27.127  1.00  0.00     0.118 C 
ENDROOT
BRANCH   1   2
ATOM      2  N   UNL A   1      40.827  23.853  26.125  1.00  0.00    -0.352 N 
ATOM      3  O   UNL A   1      41.506  25.690  25.034  1.00  0.00    -0.269 OA
ATOM      4  C   UNL A   1      41.139  25.191  26.096  1.00  0.00     0.251 C 
ATOM      5  H   UNL A   1      41.133  23.340  25.342  1.00  0.00     0.163 HD
BRANCH   4   6
ATOM      6  C   UNL A   1      41.058  26.053  27.304  1.00  0.00     0.039 A 
ATOM      7  C   UNL A   1      41.928  27.124  27.507  1.00  0.00     0.014 A 
ATOM      8  C   UNL A   1      39.982  25.875  28.185  1.00  0.00     0.014 A 
ATOM      9  C   UNL A   1      41.755  27.970  28.611  1.00  0.00     0.010 A 
ATOM     10  C   UNL A   1      39.794  26.745  29.271  1.00  0.00     0.010 A 
ATOM     11  C   UNL A   1      40.687  27.799  29.508  1.00  0.00    -0.014 A 
BRANCH  11  12
ATOM     12  C   UNL A   1      40.478  28.751  30.644  1.00  0.00     0.031 A 
ATOM     13  C   UNL A   1      39.412  29.820  30.594  1.00  0.00     0.074 A 
ATOM     14  C   UNL A   1      41.261  28.678  31.741  1.00  0.00     0.049 A 
ATOM     15  N   UNL A   1      39.146  30.765  31.466  1.00  0.00    -0.248 NA
ATOM     16  C   UNL A   1      38.541  29.840  29.410  1.00  0.00     0.031 C 
ATOM     17  C   UNL A   1      42.339  27.710  31.949  1.00  0.00     0.029 A 
ATOM     18  N   UNL A   1      41.264  29.430  32.892  1.00  0.00    -0.354 N 
ATOM     19  C   UNL A   1      38.103  31.507  30.924  1.00  0.00     0.074 A 
ATOM     20  C   UNL A   1      37.793  30.911  29.640  1.00  0.00     0.031 C 
ATOM     21  C   UNL A   1      42.868  27.897  33.168  1.00  0.00     0.029 A 
ATOM     22  C   UNL A   1      42.213  29.035  33.805  1.00  0.00     0.049 A 
ATOM     23  H   UNL A   1      40.646  30.180  33.049  1.00  0.00     0.167 HD
ATOM     24  C   UNL A   1      37.459  32.583  31.440  1.00  0.00     0.031 A 
ATOM     25  C   UNL A   1      42.544  29.535  35.012  1.00  0.00     0.031 A 
ATOM     26  C   UNL A   1      37.732  33.177  32.724  1.00  0.00     0.049 A 
ATOM     27  C   UNL A   1      41.828  30.739  35.553  1.00  0.00     0.074 A 
ATOM     28  C   UNL A   1      37.089  34.245  33.332  1.00  0.00     0.029 A 
ATOM     29  N   UNL A   1      38.720  32.760  33.600  1.00  0.00    -0.354 N 
ATOM     30  N   UNL A   1      40.842  31.418  35.026  1.00  0.00    -0.248 NA
ATOM     31  C   UNL A   1      42.284  31.249  36.856  1.00  0.00     0.031 C 
ATOM     32  C   UNL A   1      37.716  34.500  34.557  1.00  0.00     0.029 A 
ATOM     33  C   UNL A   1      38.719  33.562  34.731  1.00  0.00     0.049 A 
ATOM     34  H   UNL A   1      39.333  32.006  33.441  1.00  0.00     0.167 HD
ATOM     35  C   UNL A   1      40.550  32.427  35.935  1.00  0.00     0.074 A 
ATOM     36  C   UNL A   1      41.449  32.259  37.057  1.00  0.00     0.031 C 
ATOM     37  C   UNL A   1      39.619  33.405  35.842  1.00  0.00     0.031 A 
BRANCH  24  38
ATOM     38  C   UNL A   1      36.386  33.221  30.600  1.00  0.00    -0.014 A 
ATOM     39  C   UNL A   1      36.707  34.030  29.501  1.00  0.00     0.009 A 
ATOM     40  C   UNL A   1      35.036  32.945  30.873  1.00  0.00     0.009 A 
ATOM     41  C   UNL A   1      35.695  34.572  28.705  1.00  0.00     0.001 A 
ATOM     42  C   UNL A   1      34.028  33.470  30.062  1.00  0.00     0.001 A 
ATOM     43  C   UNL A   1      34.357  34.289  28.984  1.00  0.00     0.000 A 
ENDBRANCH  24  38
BRANCH  25  44
ATOM     44  C   UNL A   1      43.633  28.900  35.797  1.00  0.00    -0.014 A 
ATOM     45  C   UNL A   1      43.363  27.802  36.627  1.00  0.00     0.009 A 
ATOM     46  C   UNL A   1      44.946  29.391  35.719  1.00  0.00     0.009 A 
ATOM     47  C   UNL A   1      44.385  27.217  37.377  1.00  0.00     0.001 A 
ATOM     48  C   UNL A   1      45.970  28.786  36.449  1.00  0.00     0.001 A 
ATOM     49  C   UNL A   1      45.688  27.705  37.283  1.00  0.00     0.000 A 
ENDBRANCH  25  44
BRANCH  37  50
ATOM     50  C   UNL A   1      39.509  34.362  36.994  1.00  0.00    -0.014 A 
ATOM     51  C   UNL A   1      40.133  35.619  36.953  1.00  0.00     0.009 A 
ATOM     52  C   UNL A   1      38.756  34.013  38.125  1.00  0.00     0.009 A 
ATOM     53  C   UNL A   1      40.028  36.495  38.037  1.00  0.00     0.001 A 
ATOM     54  C   UNL A   1      38.635  34.899  39.197  1.00  0.00     0.001 A 
ATOM     55  C   UNL A   1      39.278  36.136  39.156  1.00  0.00     0.000 A 
ENDBRANCH  37  50
ENDBRANCH  11  12
ENDBRANCH   4   6
ENDBRANCH   1   2
BRANCH   1  56
ATOM     56  C   UNL A   1      39.072  22.154  26.491  1.00  0.00     0.042 C 
BRANCH  56  57
ATOM     57  C   UNL A   1      37.853  22.867  25.902  1.00  0.00     0.117 C 
BRANCH  57  58
ATOM     58  N   UNL A   1      37.618  22.575  24.498  1.00  0.00    -0.354 N 
ATOM     59  C   UNL A   1      36.577  22.923  23.682  1.00  0.00     0.249 C 
ATOM     60  H   UNL A   1      38.321  22.040  24.063  1.00  0.00     0.163 HD
ATOM     61  O   UNL A   1      36.651  22.579  22.501  1.00  0.00    -0.272 OA
BRANCH  59  62
ATOM     62  C   UNL A   1      35.401  23.772  24.228  1.00  0.00     0.211 C 
ATOM     63  C   UNL A   1      34.486  24.318  23.126  1.00  0.00     0.085 C 
ATOM     64  O   UNL A   1      34.582  23.071  25.161  1.00  0.00    -0.357 OA
ATOM     65  C   UNL A   1      33.147  23.599  23.290  1.00  0.00     0.123 C 
ATOM     66  C   UNL A   1      33.383  22.642  24.498  1.00  0.00     0.186 C 
BRANCH  65  67
ATOM     67  C   UNL A   1      31.997  24.604  23.468  1.00  0.00    -0.013 A 
ATOM     68  C   UNL A   1      31.892  25.713  22.603  1.00  0.00     0.008 A 
ATOM     69  C   UNL A   1      31.021  24.472  24.472  1.00  0.00     0.008 A 
ATOM     70  C   UNL A   1      30.818  26.604  22.680  1.00  0.00     0.021 A 
ATOM     71  C   UNL A   1      29.940  25.360  24.548  1.00  0.00     0.021 A 
ATOM     72  C   UNL A   1      29.836  26.413  23.644  1.00  0.00     0.041 A 
ATOM     73  Cl  UNL A   1      28.491  27.482  23.720  1.00  0.00    -0.084 Cl
ENDBRANCH  65  67
BRANCH  65  74
ATOM     74  O   UNL A   1      32.865  22.875  22.083  1.00  0.00    -0.382 OA
ATOM     75  H   UNL A   1      33.417  22.078  22.048  1.00  0.00     0.212 HD
ENDBRANCH  65  74
BRANCH  66  76
ATOM     76  C   UNL A   1      33.462  21.144  24.232  1.00  0.00    -0.016 A 
ATOM     77  C   UNL A   1      32.482  20.449  23.503  1.00  0.00     0.008 A 
ATOM     78  C   UNL A   1      34.548  20.414  24.749  1.00  0.00     0.008 A 
ATOM     79  C   UNL A   1      32.528  19.060  23.386  1.00  0.00     0.021 A 
ATOM     80  C   UNL A   1      34.599  19.024  24.626  1.00  0.00     0.021 A 
ATOM     81  C   UNL A   1      33.566  18.352  23.981  1.00  0.00     0.041 A 
ATOM     82  Cl  UNL A   1      33.531  16.635  23.979  1.00  0.00    -0.084 Cl
ENDBRANCH  66  76
ENDBRANCH  59  62
ENDBRANCH  57  58
ENDBRANCH  56  57
ENDBRANCH   1  56
TORSDOF 13
ENDMDL
MODEL 3
REMARK VINA RESULT:     -11.6      6.286     11.365
REMARK SMILES O=C(NCCCNC(=O)[C@H]1C[C@](O)(c2ccc(Cl)cc2)[C@@H](c2ccc(Cl)cc2)O1)c1ccc(-c2c3nc(c(-c4ccccc4)c4ccc([nH]4)c(-c4ccccc4)c4nc(c(-c5ccccc5)c5ccc2[nH]5)C=C4)C=C3)cc1
REMARK SMILES IDX 4 1 3 2 1 3 2 4 30 6 31 7 77 8 32 9 76 10 33 11 34 12 35 13
REMARK SMILES IDX 70 14 36 15 75 16 69 17 71 18 37 19 74 20 68 21 67 22 38 24
REMARK SMILES IDX 60 25 45 26 59 27 46 28 49 29 58 30 72 31 47 32 48 33 57 35
REMARK SMILES IDX 73 36 50 37 39 38 40 39 44 40 41 41 43 42 42 43 61 44 62 45
REMARK SMILES IDX 66 46 63 47 65 48 64 49 51 50 52 51 56 52 53 53 55 54 54 55
REMARK SMILES IDX 5 56 6 57 7 58 8 59 9 61 10 62 11 63 29 64 12 65 21 66 14 67
REMARK SMILES IDX 15 68 20 69 16 70 19 71 17 72 18 73 13 74 22 76 23 77 28 78
REMARK SMILES IDX 24 79 27 80 25 81 26 82
REMARK H PARENT 3 5 71 23 49 34 7 60 13 75
REMARK Flexibility Score: inf
ROOT
ATOM      1  C   UNL A   1      31.221  26.316  26.116  1.00  0.00     0.118 C 
ENDROOT
BRANCH   1   2
ATOM      2  N   UNL A   1      31.220  27.290  25.035  1.00  0.00    -0.352 N 
ATOM      3  O   UNL A   1      31.445  29.293  24.055  1.00  0.00    -0.269 OA
ATOM      4  C   UNL A   1      31.794  28.536  24.958  1.00  0.00     0.251 C 
ATOM      5  H   UNL A   1      30.729  27.010  24.228  1.00  0.00     0.163 HD
BRANCH   4   6
ATOM      6  C   UNL A   1      32.829  28.996  25.920  1.00  0.00     0.039 A 
ATOM      7  C   UNL A   1      33.934  28.210  26.249  1.00  0.00     0.014 A 
ATOM      8  C   UNL A   1      32.769  30.314  26.393  1.00  0.00     0.014 A 
ATOM      9  C   UNL A   1      34.936  28.721  27.085  1.00  0.00     0.010 A 
ATOM     10  C   UNL A   1      33.791  30.833  27.203  1.00  0.00     0.010 A 
ATOM     11  C   UNL A   1      34.885  30.038  27.573  1.00  0.00    -0.014 A 
BRANCH  11  12
ATOM     12  C   UNL A   1      35.995  30.590  28.411  1.00  0.00     0.031 A 
ATOM     13  C   UNL A   1      37.411  30.080  28.283  1.00  0.00     0.074 A 
ATOM     14  C   UNL A   1      35.741  31.556  29.319  1.00  0.00     0.049 A 
ATOM     15  N   UNL A   1      38.474  30.406  28.981  1.00  0.00    -0.248 NA
ATOM     16  C   UNL A   1      37.665  29.067  27.249  1.00  0.00     0.031 C 
ATOM     17  C   UNL A   1      34.431  32.156  29.574  1.00  0.00     0.029 A 
ATOM     18  N   UNL A   1      36.580  32.209  30.192  1.00  0.00    -0.354 N 
ATOM     19  C   UNL A   1      39.512  29.619  28.494  1.00  0.00     0.074 A 
ATOM     20  C   UNL A   1      38.947  28.789  27.450  1.00  0.00     0.031 C 
ATOM     21  C   UNL A   1      34.561  33.116  30.503  1.00  0.00     0.029 A 
ATOM     22  C   UNL A   1      35.947  33.159  30.957  1.00  0.00     0.049 A 
ATOM     23  H   UNL A   1      37.542  32.014  30.263  1.00  0.00     0.167 HD
ATOM     24  C   UNL A   1      40.813  29.586  28.874  1.00  0.00     0.031 A 
ATOM     25  C   UNL A   1      36.411  33.967  31.930  1.00  0.00     0.031 A 
ATOM     26  C   UNL A   1      41.403  30.420  29.891  1.00  0.00     0.049 A 
ATOM     27  C   UNL A   1      37.853  33.898  32.345  1.00  0.00     0.074 A 
ATOM     28  C   UNL A   1      42.726  30.471  30.300  1.00  0.00     0.029 A 
ATOM     29  N   UNL A   1      40.716  31.346  30.656  1.00  0.00    -0.354 N 
ATOM     30  N   UNL A   1      38.814  33.151  31.866  1.00  0.00    -0.248 NA
ATOM     31  C   UNL A   1      38.266  34.780  33.448  1.00  0.00     0.031 C 
ATOM     32  C   UNL A   1      42.832  31.399  31.342  1.00  0.00     0.029 A 
ATOM     33  C   UNL A   1      41.582  31.958  31.549  1.00  0.00     0.049 A 
ATOM     34  H   UNL A   1      39.754  31.542  30.578  1.00  0.00     0.167 HD
ATOM     35  C   UNL A   1      39.948  33.481  32.598  1.00  0.00     0.074 A 
ATOM     36  C   UNL A   1      39.561  34.510  33.540  1.00  0.00     0.031 C 
ATOM     37  C   UNL A   1      41.198  32.971  32.495  1.00  0.00     0.031 A 
BRANCH  24  38
ATOM     38  C   UNL A   1      41.711  28.589  28.195  1.00  0.00    -0.014 A 
ATOM     39  C   UNL A   1      42.331  28.883  26.972  1.00  0.00     0.009 A 
ATOM     40  C   UNL A   1      41.995  27.368  28.827  1.00  0.00     0.009 A 
ATOM     41  C   UNL A   1      43.199  27.960  26.382  1.00  0.00     0.001 A 
ATOM     42  C   UNL A   1      42.881  26.458  28.247  1.00  0.00     0.001 A 
ATOM     43  C   UNL A   1      43.477  26.751  27.022  1.00  0.00     0.000 A 
ENDBRANCH  24  38
BRANCH  25  44
ATOM     44  C   UNL A   1      35.487  34.915  32.602  1.00  0.00    -0.014 A 
ATOM     45  C   UNL A   1      35.146  34.740  33.952  1.00  0.00     0.009 A 
ATOM     46  C   UNL A   1      34.942  35.999  31.896  1.00  0.00     0.009 A 
ATOM     47  C   UNL A   1      34.264  35.623  34.577  1.00  0.00     0.001 A 
ATOM     48  C   UNL A   1      34.082  36.896  32.532  1.00  0.00     0.001 A 
ATOM     49  C   UNL A   1      33.738  36.703  33.869  1.00  0.00     0.000 A 
ENDBRANCH  25  44
BRANCH  37  50
ATOM     50  C   UNL A   1      42.247  33.531  33.412  1.00  0.00    -0.014 A 
ATOM     51  C   UNL A   1      42.562  32.898  34.625  1.00  0.00     0.009 A 
ATOM     52  C   UNL A   1      42.945  34.693  33.051  1.00  0.00     0.009 A 
ATOM     53  C   UNL A   1      43.535  33.436  35.471  1.00  0.00     0.001 A 
ATOM     54  C   UNL A   1      43.932  35.217  33.888  1.00  0.00     0.001 A 
ATOM     55  C   UNL A   1      44.220  34.593  35.101  1.00  0.00     0.000 A 
ENDBRANCH  37  50
ENDBRANCH  11  12
ENDBRANCH   4   6
ENDBRANCH   1   2
BRANCH   1  56
ATOM     56  C   UNL A   1      30.831  24.921  25.619  1.00  0.00     0.042 C 
BRANCH  56  57
ATOM     57  C   UNL A   1      31.016  23.792  26.636  1.00  0.00     0.117 C 
BRANCH  57  58
ATOM     58  N   UNL A   1      31.282  22.495  26.037  1.00  0.00    -0.354 N 
ATOM     59  C   UNL A   1      32.445  21.779  25.953  1.00  0.00     0.249 C 
ATOM     60  H   UNL A   1      30.500  22.061  25.624  1.00  0.00     0.163 HD
ATOM     61  O   UNL A   1      32.381  20.668  25.424  1.00  0.00    -0.272 OA
BRANCH  59  62
ATOM     62  C   UNL A   1      33.755  22.334  26.567  1.00  0.00     0.211 C 
ATOM     63  C   UNL A   1      35.010  21.606  26.073  1.00  0.00     0.085 C 
ATOM     64  O   UNL A   1      33.945  23.728  26.330  1.00  0.00    -0.357 OA
ATOM     65  C   UNL A   1      35.783  22.615  25.225  1.00  0.00     0.123 C 
ATOM     66  C   UNL A   1      34.893  23.895  25.265  1.00  0.00     0.186 C 
BRANCH  65  67
ATOM     67  C   UNL A   1      37.215  22.799  25.751  1.00  0.00    -0.013 A 
ATOM     68  C   UNL A   1      37.617  24.046  26.276  1.00  0.00     0.008 A 
ATOM     69  C   UNL A   1      38.169  21.765  25.737  1.00  0.00     0.008 A 
ATOM     70  C   UNL A   1      38.883  24.231  26.837  1.00  0.00     0.021 A 
ATOM     71  C   UNL A   1      39.437  21.946  26.306  1.00  0.00     0.021 A 
ATOM     72  C   UNL A   1      39.784  23.173  26.864  1.00  0.00     0.041 A 
ATOM     73  Cl  UNL A   1      41.329  23.381  27.589  1.00  0.00    -0.084 Cl
ENDBRANCH  65  67
BRANCH  65  74
ATOM     74  O   UNL A   1      35.908  22.093  23.893  1.00  0.00    -0.382 OA
ATOM     75  H   UNL A   1      36.762  21.643  23.801  1.00  0.00     0.212 HD
ENDBRANCH  65  74
BRANCH  66  76
ATOM     76  C   UNL A   1      34.160  24.308  23.995  1.00  0.00    -0.016 A 
ATOM     77  C   UNL A   1      33.570  23.380  23.122  1.00  0.00     0.008 A 
ATOM     78  C   UNL A   1      34.081  25.674  23.665  1.00  0.00     0.008 A 
ATOM     79  C   UNL A   1      33.015  23.789  21.909  1.00  0.00     0.021 A 
ATOM     80  C   UNL A   1      33.520  26.086  22.455  1.00  0.00     0.021 A 
ATOM     81  C   UNL A   1      33.027  25.137  21.566  1.00  0.00     0.041 A 
ATOM     82  Cl  UNL A   1      32.498  25.618  20.005  1.00  0.00    -0.084 Cl
ENDBRANCH  66  76
ENDBRANCH  59  62
ENDBRANCH  57  58
ENDBRANCH  56  57
ENDBRANCH   1  56
TORSDOF 13
ENDMDL
