MODEL 1
REMARK VINA RESULT:      -9.4      0.000      0.000
REMARK SMILES CC(C)C[N@@H+](C[C@@H](C)C(=O)NCCCNC(=O)c1ccc(-c2c3nc(c(-c4ccccc4)c4ccc([nH]4)c(-c4ccccc4)c4nc(c(-c5ccccc5)c5ccc2[nH]5)C=C4)C=C3)cc1)C1CCCC1
REMARK SMILES IDX 12 1 11 2 9 3 10 4 7 6 8 7 6 8 5 9 4 11 2 12 1 13 3 14 66 15
REMARK SMILES IDX 67 16 70 17 68 18 69 19 13 20 14 21 15 22 16 23 17 25 18 26
REMARK SMILES IDX 19 27 65 28 20 29 64 30 21 31 22 32 23 33 58 34 24 35 63 36
REMARK SMILES IDX 57 37 59 38 25 39 62 40 56 41 55 42 26 44 48 45 33 46 47 47
REMARK SMILES IDX 34 48 37 49 46 50 60 51 35 52 36 53 45 55 61 56 38 57 27 58
REMARK SMILES IDX 28 59 32 60 29 61 31 62 30 63 49 64 50 65 54 66 51 67 53 68
REMARK SMILES IDX 52 69 39 70 40 71 44 72 41 73 43 74 42 75
REMARK H PARENT 11 5 5 10 15 24 59 43 37 54
REMARK Flexibility Score: inf
ROOT
ATOM      1  C   UNL A   1      33.151  28.322  25.016  1.00  0.00     0.117 C 
ENDROOT
BRANCH   1   2
ATOM      2  N   UNL A   1      32.197  27.237  24.903  1.00  0.00    -0.356 N 
ATOM      3  C   UNL A   1      32.289  26.036  24.273  1.00  0.00     0.228 C 
ATOM      4  O   UNL A   1      31.288  25.314  24.295  1.00  0.00    -0.275 OA
ATOM      5  H   UNL A   1      31.339  27.397  25.359  1.00  0.00     0.163 HD
BRANCH   3   6
ATOM      6  C   UNL A   1      33.576  25.557  23.604  1.00  0.00     0.130 C 
ATOM      7  C   UNL A   1      33.248  24.821  22.306  1.00  0.00     0.024 C 
BRANCH   6   8
ATOM      8  C   UNL A   1      34.533  24.873  24.612  1.00  0.00     0.275 C 
BRANCH   8   9
ATOM      9  N   UNL A   1      34.824  23.423  24.493  1.00  0.00    -0.332 N 
ATOM     10  H   UNL A   1      34.712  23.169  23.512  1.00  0.00     0.348 HD
BRANCH   9  11
ATOM     11  C   UNL A   1      33.818  22.643  25.251  1.00  0.00     0.265 C 
BRANCH  11  12
ATOM     12  C   UNL A   1      33.345  23.100  26.653  1.00  0.00     0.038 C 
ATOM     13  C   UNL A   1      31.826  23.004  26.840  1.00  0.00     0.013 C 
ATOM     14  C   UNL A   1      33.993  22.204  27.721  1.00  0.00     0.013 C 
ENDBRANCH  11  12
ENDBRANCH   9  11
BRANCH   9  15
ATOM     15  C   UNL A   1      36.228  23.030  24.655  1.00  0.00     0.184 C 
ATOM     16  C   UNL A   1      36.912  23.700  25.862  1.00  0.00     0.065 C 
ATOM     17  C   UNL A   1      36.547  21.563  25.010  1.00  0.00     0.065 C 
ATOM     18  C   UNL A   1      38.270  23.010  25.914  1.00  0.00     0.006 C 
ATOM     19  C   UNL A   1      37.995  21.572  25.499  1.00  0.00     0.006 C 
ENDBRANCH   9  15
ENDBRANCH   8   9
ENDBRANCH   6   8
ENDBRANCH   3   6
ENDBRANCH   1   2
BRANCH   1  20
ATOM     20  C   UNL A   1      34.040  28.171  26.242  1.00  0.00     0.042 C 
BRANCH  20  21
ATOM     21  C   UNL A   1      33.381  28.685  27.512  1.00  0.00     0.118 C 
BRANCH  21  22
ATOM     22  N   UNL A   1      33.501  30.131  27.646  1.00  0.00    -0.352 N 
ATOM     23  C   UNL A   1      34.548  30.887  28.115  1.00  0.00     0.251 C 
ATOM     24  H   UNL A   1      32.713  30.645  27.357  1.00  0.00     0.163 HD
ATOM     25  O   UNL A   1      34.394  32.076  28.350  1.00  0.00    -0.269 OA
BRANCH  23  26
ATOM     26  C   UNL A   1      35.860  30.247  28.350  1.00  0.00     0.039 A 
ATOM     27  C   UNL A   1      36.817  30.264  27.333  1.00  0.00     0.014 A 
ATOM     28  C   UNL A   1      36.142  29.642  29.576  1.00  0.00     0.014 A 
ATOM     29  C   UNL A   1      38.087  29.739  27.575  1.00  0.00     0.010 A 
ATOM     30  C   UNL A   1      37.432  29.206  29.846  1.00  0.00     0.010 A 
ATOM     31  C   UNL A   1      38.416  29.245  28.848  1.00  0.00    -0.014 A 
BRANCH  31  32
ATOM     32  C   UNL A   1      39.778  28.752  29.166  1.00  0.00     0.031 A 
ATOM     33  C   UNL A   1      40.769  29.671  29.823  1.00  0.00     0.074 A 
ATOM     34  C   UNL A   1      40.148  27.515  28.782  1.00  0.00     0.049 A 
ATOM     35  N   UNL A   1      42.038  29.475  30.073  1.00  0.00    -0.248 NA
ATOM     36  C   UNL A   1      40.277  31.001  30.223  1.00  0.00     0.031 C 
ATOM     37  C   UNL A   1      39.288  26.541  28.106  1.00  0.00     0.029 A 
ATOM     38  N   UNL A   1      41.354  26.871  28.894  1.00  0.00    -0.354 N 
ATOM     39  C   UNL A   1      42.498  30.659  30.634  1.00  0.00     0.074 A 
ATOM     40  C   UNL A   1      41.389  31.586  30.640  1.00  0.00     0.031 C 
ATOM     41  C   UNL A   1      39.987  25.416  27.885  1.00  0.00     0.029 A 
ATOM     42  C   UNL A   1      41.355  25.606  28.355  1.00  0.00     0.049 A 
ATOM     43  H   UNL A   1      42.145  27.276  29.319  1.00  0.00     0.167 HD
ATOM     44  C   UNL A   1      43.730  30.943  31.118  1.00  0.00     0.031 A 
ATOM     45  C   UNL A   1      42.351  24.708  28.238  1.00  0.00     0.031 A 
ATOM     46  C   UNL A   1      44.827  30.015  31.122  1.00  0.00     0.049 A 
ATOM     47  C   UNL A   1      43.717  25.058  28.760  1.00  0.00     0.074 A 
ATOM     48  C   UNL A   1      46.097  30.185  31.641  1.00  0.00     0.029 A 
ATOM     49  N   UNL A   1      44.782  28.741  30.577  1.00  0.00    -0.354 N 
ATOM     50  N   UNL A   1      44.120  26.159  29.347  1.00  0.00    -0.248 NA
ATOM     51  C   UNL A   1      44.764  24.038  28.610  1.00  0.00     0.031 C 
ATOM     52  C   UNL A   1      46.840  29.035  31.361  1.00  0.00     0.029 A 
ATOM     53  C   UNL A   1      46.012  28.124  30.724  1.00  0.00     0.049 A 
ATOM     54  H   UNL A   1      43.993  28.336  30.150  1.00  0.00     0.167 HD
ATOM     55  C   UNL A   1      45.456  25.951  29.665  1.00  0.00     0.074 A 
ATOM     56  C   UNL A   1      45.791  24.616  29.216  1.00  0.00     0.031 C 
ATOM     57  C   UNL A   1      46.325  26.790  30.278  1.00  0.00     0.031 A 
BRANCH  44  58
ATOM     58  C   UNL A   1      43.955  32.322  31.675  1.00  0.00    -0.014 A 
ATOM     59  C   UNL A   1      43.736  32.605  33.034  1.00  0.00     0.009 A 
ATOM     60  C   UNL A   1      44.425  33.346  30.837  1.00  0.00     0.009 A 
ATOM     61  C   UNL A   1      43.946  33.892  33.532  1.00  0.00     0.001 A 
ATOM     62  C   UNL A   1      44.664  34.623  31.344  1.00  0.00     0.001 A 
ATOM     63  C   UNL A   1      44.414  34.899  32.688  1.00  0.00     0.000 A 
ENDBRANCH  44  58
BRANCH  45  64
ATOM     64  C   UNL A   1      42.093  23.387  27.607  1.00  0.00    -0.014 A 
ATOM     65  C   UNL A   1      41.514  22.346  28.348  1.00  0.00     0.009 A 
ATOM     66  C   UNL A   1      42.428  23.157  26.263  1.00  0.00     0.009 A 
ATOM     67  C   UNL A   1      41.300  21.095  27.765  1.00  0.00     0.001 A 
ATOM     68  C   UNL A   1      42.186  21.914  25.675  1.00  0.00     0.001 A 
ATOM     69  C   UNL A   1      41.633  20.881  26.428  1.00  0.00     0.000 A 
ENDBRANCH  45  64
BRANCH  57  70
ATOM     70  C   UNL A   1      47.712  26.279  30.543  1.00  0.00    -0.014 A 
ATOM     71  C   UNL A   1      48.066  25.735  31.787  1.00  0.00     0.009 A 
ATOM     72  C   UNL A   1      48.660  26.281  29.507  1.00  0.00     0.009 A 
ATOM     73  C   UNL A   1      49.349  25.226  31.994  1.00  0.00     0.001 A 
ATOM     74  C   UNL A   1      49.931  25.743  29.707  1.00  0.00     0.001 A 
ATOM     75  C   UNL A   1      50.277  25.223  30.952  1.00  0.00     0.000 A 
ENDBRANCH  57  70
ENDBRANCH  31  32
ENDBRANCH  23  26
ENDBRANCH  21  22
ENDBRANCH  20  21
ENDBRANCH   1  20
TORSDOF 15
ENDMDL
MODEL 2
REMARK VINA RESULT:      -9.1      2.069      7.408
REMARK SMILES CC(C)C[N@@H+](C[C@@H](C)C(=O)NCCCNC(=O)c1ccc(-c2c3nc(c(-c4ccccc4)c4ccc([nH]4)c(-c4ccccc4)c4nc(c(-c5ccccc5)c5ccc2[nH]5)C=C4)C=C3)cc1)C1CCCC1
REMARK SMILES IDX 12 1 11 2 9 3 10 4 7 6 8 7 6 8 5 9 4 11 2 12 1 13 3 14 66 15
REMARK SMILES IDX 67 16 70 17 68 18 69 19 13 20 14 21 15 22 16 23 17 25 18 26
REMARK SMILES IDX 19 27 65 28 20 29 64 30 21 31 22 32 23 33 58 34 24 35 63 36
REMARK SMILES IDX 57 37 59 38 25 39 62 40 56 41 55 42 26 44 48 45 33 46 47 47
REMARK SMILES IDX 34 48 37 49 46 50 60 51 35 52 36 53 45 55 61 56 38 57 27 58
REMARK SMILES IDX 28 59 32 60 29 61 31 62 30 63 49 64 50 65 54 66 51 67 53 68
REMARK SMILES IDX 52 69 39 70 40 71 44 72 41 73 43 74 42 75
REMARK H PARENT 11 5 5 10 15 24 59 43 37 54
REMARK Flexibility Score: inf
ROOT
ATOM      1  C   UNL A   1      36.374  21.367  24.744  1.00  0.00     0.117 C 
ENDROOT
BRANCH   1   2
ATOM      2  N   UNL A   1      35.028  20.856  24.905  1.00  0.00    -0.356 N 
ATOM      3  C   UNL A   1      33.884  21.476  25.300  1.00  0.00     0.228 C 
ATOM      4  O   UNL A   1      32.873  20.774  25.399  1.00  0.00    -0.275 OA
ATOM      5  H   UNL A   1      34.925  19.900  24.693  1.00  0.00     0.163 HD
BRANCH   3   6
ATOM      6  C   UNL A   1      33.815  22.978  25.567  1.00  0.00     0.130 C 
ATOM      7  C   UNL A   1      34.164  23.267  27.026  1.00  0.00     0.024 C 
BRANCH   6   8
ATOM      8  C   UNL A   1      32.526  23.610  24.983  1.00  0.00     0.275 C 
BRANCH   8   9
ATOM      9  N   UNL A   1      32.514  25.040  24.588  1.00  0.00    -0.332 N 
ATOM     10  H   UNL A   1      31.627  25.219  24.117  1.00  0.00     0.348 HD
BRANCH   9  11
ATOM     11  C   UNL A   1      33.580  25.298  23.592  1.00  0.00     0.265 C 
BRANCH  11  12
ATOM     12  C   UNL A   1      33.256  25.962  22.232  1.00  0.00     0.038 C 
ATOM     13  C   UNL A   1      31.762  25.937  21.887  1.00  0.00     0.013 C 
ATOM     14  C   UNL A   1      33.689  27.437  22.273  1.00  0.00     0.013 C 
ENDBRANCH  11  12
ENDBRANCH   9  11
BRANCH   9  15
ATOM     15  C   UNL A   1      32.375  26.011  25.679  1.00  0.00     0.184 C 
ATOM     16  C   UNL A   1      33.633  26.876  25.887  1.00  0.00     0.065 C 
ATOM     17  C   UNL A   1      31.349  27.154  25.523  1.00  0.00     0.065 C 
ATOM     18  C   UNL A   1      33.183  27.895  26.927  1.00  0.00     0.006 C 
ATOM     19  C   UNL A   1      31.727  28.183  26.588  1.00  0.00     0.006 C 
ENDBRANCH   9  15
ENDBRANCH   8   9
ENDBRANCH   6   8
ENDBRANCH   3   6
ENDBRANCH   1   2
BRANCH   1  20
ATOM     20  C   UNL A   1      37.417  20.265  24.854  1.00  0.00     0.042 C 
BRANCH  20  21
ATOM     21  C   UNL A   1      38.690  20.728  25.543  1.00  0.00     0.118 C 
BRANCH  21  22
ATOM     22  N   UNL A   1      39.680  19.662  25.643  1.00  0.00    -0.352 N 
ATOM     23  C   UNL A   1      41.007  19.726  25.990  1.00  0.00     0.251 C 
ATOM     24  H   UNL A   1      39.347  18.761  25.429  1.00  0.00     0.163 HD
ATOM     25  O   UNL A   1      41.736  18.760  25.818  1.00  0.00    -0.269 OA
BRANCH  23  26
ATOM     26  C   UNL A   1      41.553  20.978  26.557  1.00  0.00     0.039 A 
ATOM     27  C   UNL A   1      42.074  21.944  25.694  1.00  0.00     0.014 A 
ATOM     28  C   UNL A   1      41.537  21.196  27.935  1.00  0.00     0.014 A 
ATOM     29  C   UNL A   1      42.512  23.164  26.211  1.00  0.00     0.010 A 
ATOM     30  C   UNL A   1      41.885  22.442  28.438  1.00  0.00     0.010 A 
ATOM     31  C   UNL A   1      42.381  23.437  27.582  1.00  0.00    -0.014 A 
BRANCH  31  32
ATOM     32  C   UNL A   1      42.760  24.750  28.157  1.00  0.00     0.031 A 
ATOM     33  C   UNL A   1      41.709  25.802  28.374  1.00  0.00     0.074 A 
ATOM     34  C   UNL A   1      44.057  25.026  28.394  1.00  0.00     0.049 A 
ATOM     35  N   UNL A   1      41.851  27.047  28.749  1.00  0.00    -0.248 NA
ATOM     36  C   UNL A   1      40.314  25.412  28.103  1.00  0.00     0.031 C 
ATOM     37  C   UNL A   1      45.175  24.101  28.190  1.00  0.00     0.029 A 
ATOM     38  N   UNL A   1      44.656  26.175  28.845  1.00  0.00    -0.354 N 
ATOM     39  C   UNL A   1      40.573  27.592  28.735  1.00  0.00     0.074 A 
ATOM     40  C   UNL A   1      39.676  26.561  28.265  1.00  0.00     0.031 C 
ATOM     41  C   UNL A   1      46.319  24.711  28.539  1.00  0.00     0.029 A 
ATOM     42  C   UNL A   1      46.024  26.083  28.939  1.00  0.00     0.049 A 
ATOM     43  H   UNL A   1      44.154  26.989  29.080  1.00  0.00     0.167 HD
ATOM     44  C   UNL A   1      40.180  28.835  29.098  1.00  0.00     0.031 A 
ATOM     45  C   UNL A   1      46.939  27.005  29.292  1.00  0.00     0.031 A 
ATOM     46  C   UNL A   1      41.073  29.854  29.577  1.00  0.00     0.049 A 
ATOM     47  C   UNL A   1      46.479  28.387  29.666  1.00  0.00     0.074 A 
ATOM     48  C   UNL A   1      40.767  31.126  30.025  1.00  0.00     0.029 A 
ATOM     49  N   UNL A   1      42.449  29.715  29.667  1.00  0.00    -0.354 N 
ATOM     50  N   UNL A   1      45.260  28.868  29.710  1.00  0.00    -0.248 NA
ATOM     51  C   UNL A   1      47.520  29.351  30.047  1.00  0.00     0.031 C 
ATOM     52  C   UNL A   1      41.964  31.778  30.334  1.00  0.00     0.029 A 
ATOM     53  C   UNL A   1      43.010  30.890  30.139  1.00  0.00     0.049 A 
ATOM     54  H   UNL A   1      42.953  28.903  29.431  1.00  0.00     0.167 HD
ATOM     55  C   UNL A   1      45.386  30.178  30.154  1.00  0.00     0.074 A 
ATOM     56  C   UNL A   1      46.797  30.412  30.375  1.00  0.00     0.031 C 
ATOM     57  C   UNL A   1      44.417  31.102  30.362  1.00  0.00     0.031 A 
BRANCH  44  58
ATOM     58  C   UNL A   1      38.717  29.161  28.980  1.00  0.00    -0.014 A 
ATOM     59  C   UNL A   1      37.851  29.042  30.081  1.00  0.00     0.009 A 
ATOM     60  C   UNL A   1      38.201  29.627  27.760  1.00  0.00     0.009 A 
ATOM     61  C   UNL A   1      36.494  29.344  29.951  1.00  0.00     0.001 A 
ATOM     62  C   UNL A   1      36.851  29.959  27.642  1.00  0.00     0.001 A 
ATOM     63  C   UNL A   1      35.996  29.807  28.733  1.00  0.00     0.000 A 
ENDBRANCH  44  58
BRANCH  45  64
ATOM     64  C   UNL A   1      48.383  26.652  29.316  1.00  0.00    -0.014 A 
ATOM     65  C   UNL A   1      48.966  26.121  30.477  1.00  0.00     0.009 A 
ATOM     66  C   UNL A   1      49.188  26.847  28.182  1.00  0.00     0.009 A 
ATOM     67  C   UNL A   1      50.329  25.819  30.510  1.00  0.00     0.001 A 
ATOM     68  C   UNL A   1      50.544  26.515  28.210  1.00  0.00     0.001 A 
ATOM     69  C   UNL A   1      51.116  26.012  29.376  1.00  0.00     0.000 A 
ENDBRANCH  45  64
BRANCH  57  70
ATOM     70  C   UNL A   1      44.840  32.439  30.899  1.00  0.00    -0.014 A 
ATOM     71  C   UNL A   1      44.976  32.664  32.277  1.00  0.00     0.009 A 
ATOM     72  C   UNL A   1      45.171  33.470  30.005  1.00  0.00     0.009 A 
ATOM     73  C   UNL A   1      45.413  33.904  32.749  1.00  0.00     0.001 A 
ATOM     74  C   UNL A   1      45.637  34.697  30.478  1.00  0.00     0.001 A 
ATOM     75  C   UNL A   1      45.751  34.915  31.849  1.00  0.00     0.000 A 
ENDBRANCH  57  70
ENDBRANCH  31  32
ENDBRANCH  23  26
ENDBRANCH  21  22
ENDBRANCH  20  21
ENDBRANCH   1  20
TORSDOF 15
ENDMDL
MODEL 3
REMARK VINA RESULT:      -9.1      2.811      7.685
REMARK SMILES CC(C)C[N@@H+](C[C@@H](C)C(=O)NCCCNC(=O)c1ccc(-c2c3nc(c(-c4ccccc4)c4ccc([nH]4)c(-c4ccccc4)c4nc(c(-c5ccccc5)c5ccc2[nH]5)C=C4)C=C3)cc1)C1CCCC1
REMARK SMILES IDX 12 1 11 2 9 3 10 4 7 6 8 7 6 8 5 9 4 11 2 12 1 13 3 14 66 15
REMARK SMILES IDX 67 16 70 17 68 18 69 19 13 20 14 21 15 22 16 23 17 25 18 26
REMARK SMILES IDX 19 27 65 28 20 29 64 30 21 31 22 32 23 33 58 34 24 35 63 36
REMARK SMILES IDX 57 37 59 38 25 39 62 40 56 41 55 42 26 44 48 45 33 46 47 47
REMARK SMILES IDX 34 48 37 49 46 50 60 51 35 52 36 53 45 55 61 56 38 57 27 58
REMARK SMILES IDX 28 59 32 60 29 61 31 62 30 63 49 64 50 65 54 66 51 67 53 68
REMARK SMILES IDX 52 69 39 70 40 71 44 72 41 73 43 74 42 75
REMARK H PARENT 11 5 5 10 15 24 59 43 37 54
REMARK Flexibility Score: inf
ROOT
ATOM      1  C   UNL A   1      36.740  20.511  24.843  1.00  0.00     0.117 C 
ENDROOT
BRANCH   1   2
ATOM      2  N   UNL A   1      36.965  21.695  25.646  1.00  0.00    -0.356 N 
ATOM      3  C   UNL A   1      36.236  22.835  25.771  1.00  0.00     0.228 C 
ATOM      4  O   UNL A   1      36.696  23.718  26.500  1.00  0.00    -0.275 OA
ATOM      5  H   UNL A   1      37.784  21.669  26.193  1.00  0.00     0.163 HD
BRANCH   3   6
ATOM      6  C   UNL A   1      34.881  23.021  25.090  1.00  0.00     0.130 C 
ATOM      7  C   UNL A   1      34.741  24.457  24.588  1.00  0.00     0.024 C 
BRANCH   6   8
ATOM      8  C   UNL A   1      33.724  22.422  25.928  1.00  0.00     0.275 C 
BRANCH   8   9
ATOM      9  N   UNL A   1      32.450  22.042  25.271  1.00  0.00    -0.332 N 
ATOM     10  H   UNL A   1      32.487  22.386  24.312  1.00  0.00     0.348 HD
BRANCH   9  11
ATOM     11  C   UNL A   1      31.318  22.739  25.926  1.00  0.00     0.265 C 
BRANCH  11  12
ATOM     12  C   UNL A   1      30.654  23.974  25.268  1.00  0.00     0.038 C 
ATOM     13  C   UNL A   1      31.142  25.306  25.852  1.00  0.00     0.013 C 
ATOM     14  C   UNL A   1      30.986  23.986  23.767  1.00  0.00     0.013 C 
ENDBRANCH  11  12
ENDBRANCH   9  11
BRANCH   9  15
ATOM     15  C   UNL A   1      32.272  20.616  24.979  1.00  0.00     0.184 C 
ATOM     16  C   UNL A   1      32.528  20.261  23.502  1.00  0.00     0.065 C 
ATOM     17  C   UNL A   1      33.246  19.604  25.618  1.00  0.00     0.065 C 
ATOM     18  C   UNL A   1      32.455  18.739  23.496  1.00  0.00     0.006 C 
ATOM     19  C   UNL A   1      33.065  18.313  24.823  1.00  0.00     0.006 C 
ENDBRANCH   9  15
ENDBRANCH   8   9
ENDBRANCH   6   8
ENDBRANCH   3   6
ENDBRANCH   1   2
BRANCH   1  20
ATOM     20  C   UNL A   1      37.862  19.495  25.001  1.00  0.00     0.042 C 
BRANCH  20  21
ATOM     21  C   UNL A   1      39.065  20.060  25.739  1.00  0.00     0.118 C 
BRANCH  21  22
ATOM     22  N   UNL A   1      40.113  19.063  25.925  1.00  0.00    -0.352 N 
ATOM     23  C   UNL A   1      41.461  19.234  26.129  1.00  0.00     0.251 C 
ATOM     24  H   UNL A   1      39.809  18.128  25.901  1.00  0.00     0.163 HD
ATOM     25  O   UNL A   1      42.220  18.279  26.057  1.00  0.00    -0.269 OA
BRANCH  23  26
ATOM     26  C   UNL A   1      41.988  20.583  26.419  1.00  0.00     0.039 A 
ATOM     27  C   UNL A   1      42.377  21.404  25.358  1.00  0.00     0.014 A 
ATOM     28  C   UNL A   1      42.088  21.036  27.735  1.00  0.00     0.014 A 
ATOM     29  C   UNL A   1      42.795  22.710  25.615  1.00  0.00     0.010 A 
ATOM     30  C   UNL A   1      42.413  22.363  27.983  1.00  0.00     0.010 A 
ATOM     31  C   UNL A   1      42.776  23.211  26.927  1.00  0.00    -0.014 A 
BRANCH  31  32
ATOM     32  C   UNL A   1      43.137  24.617  27.231  1.00  0.00     0.031 A 
ATOM     33  C   UNL A   1      44.580  25.036  27.220  1.00  0.00     0.074 A 
ATOM     34  C   UNL A   1      42.179  25.487  27.605  1.00  0.00     0.049 A 
ATOM     35  N   UNL A   1      45.111  26.179  27.573  1.00  0.00    -0.248 NA
ATOM     36  C   UNL A   1      45.560  24.027  26.785  1.00  0.00     0.031 C 
ATOM     37  C   UNL A   1      40.747  25.192  27.689  1.00  0.00     0.029 A 
ATOM     38  N   UNL A   1      42.270  26.797  28.001  1.00  0.00    -0.354 N 
ATOM     39  C   UNL A   1      46.483  26.016  27.426  1.00  0.00     0.074 A 
ATOM     40  C   UNL A   1      46.707  24.652  27.004  1.00  0.00     0.031 C 
ATOM     41  C   UNL A   1      40.092  26.295  28.086  1.00  0.00     0.029 A 
ATOM     42  C   UNL A   1      41.060  27.358  28.334  1.00  0.00     0.049 A 
ATOM     43  H   UNL A   1      43.121  27.291  28.042  1.00  0.00     0.167 HD
ATOM     44  C   UNL A   1      47.467  26.927  27.610  1.00  0.00     0.031 A 
ATOM     45  C   UNL A   1      40.766  28.585  28.805  1.00  0.00     0.031 A 
ATOM     46  C   UNL A   1      47.239  28.286  28.018  1.00  0.00     0.049 A 
ATOM     47  C   UNL A   1      41.880  29.571  29.025  1.00  0.00     0.074 A 
ATOM     48  C   UNL A   1      48.162  29.304  28.176  1.00  0.00     0.029 A 
ATOM     49  N   UNL A   1      45.998  28.816  28.334  1.00  0.00    -0.354 N 
ATOM     50  N   UNL A   1      43.166  29.423  28.819  1.00  0.00    -0.248 NA
ATOM     51  C   UNL A   1      41.500  30.896  29.535  1.00  0.00     0.031 C 
ATOM     52  C   UNL A   1      47.487  30.435  28.642  1.00  0.00     0.029 A 
ATOM     53  C   UNL A   1      46.135  30.140  28.714  1.00  0.00     0.049 A 
ATOM     54  H   UNL A   1      45.146  28.324  28.295  1.00  0.00     0.167 HD
ATOM     55  C   UNL A   1      43.744  30.643  29.143  1.00  0.00     0.074 A 
ATOM     56  C   UNL A   1      42.668  31.523  29.548  1.00  0.00     0.031 C 
ATOM     57  C   UNL A   1      45.050  31.003  29.105  1.00  0.00     0.031 A 
BRANCH  44  58
ATOM     58  C   UNL A   1      48.882  26.475  27.377  1.00  0.00    -0.014 A 
ATOM     59  C   UNL A   1      49.674  25.985  28.429  1.00  0.00     0.009 A 
ATOM     60  C   UNL A   1      49.421  26.508  26.082  1.00  0.00     0.009 A 
ATOM     61  C   UNL A   1      50.988  25.574  28.195  1.00  0.00     0.001 A 
ATOM     62  C   UNL A   1      50.724  26.067  25.844  1.00  0.00     0.001 A 
ATOM     63  C   UNL A   1      51.510  25.610  26.902  1.00  0.00     0.000 A 
ENDBRANCH  44  58
BRANCH  45  64
ATOM     64  C   UNL A   1      39.355  28.954  29.092  1.00  0.00    -0.014 A 
ATOM     65  C   UNL A   1      38.802  28.715  30.359  1.00  0.00     0.009 A 
ATOM     66  C   UNL A   1      38.552  29.542  28.101  1.00  0.00     0.009 A 
ATOM     67  C   UNL A   1      37.467  29.032  30.620  1.00  0.00     0.001 A 
ATOM     68  C   UNL A   1      37.227  29.886  28.376  1.00  0.00     0.001 A 
ATOM     69  C   UNL A   1      36.681  29.621  29.630  1.00  0.00     0.000 A 
ENDBRANCH  45  64
BRANCH  57  70
ATOM     70  C   UNL A   1      45.388  32.422  29.465  1.00  0.00    -0.014 A 
ATOM     71  C   UNL A   1      45.743  32.779  30.775  1.00  0.00     0.009 A 
ATOM     72  C   UNL A   1      45.416  33.402  28.460  1.00  0.00     0.009 A 
ATOM     73  C   UNL A   1      46.097  34.097  31.074  1.00  0.00     0.001 A 
ATOM     74  C   UNL A   1      45.799  34.710  28.756  1.00  0.00     0.001 A 
ATOM     75  C   UNL A   1      46.132  35.058  30.063  1.00  0.00     0.000 A 
ENDBRANCH  57  70
ENDBRANCH  31  32
ENDBRANCH  23  26
ENDBRANCH  21  22
ENDBRANCH  20  21
ENDBRANCH   1  20
TORSDOF 15
ENDMDL
