MODEL 1
REMARK VINA RESULT:     -12.2      0.000      0.000
REMARK SMILES Cc1ccc(C)c(S(=O)(=O)N[C@H](CC2=c3ccccc3=NC2)C(=O)NCCCNC(=O)c2ccc(-c3c4nc(c(-c5ccccc5)c5ccc([nH]5)c(-c5ccccc5)c5nc(c(-c6ccccc6)c6ccc3[nH]6)C=C5)C=C4)cc2)c1
REMARK SMILES IDX 26 1 25 2 23 3 24 4 12 6 11 7 8 9 9 10 10 11 7 12 1 13 2 14
REMARK SMILES IDX 3 15 80 16 4 17 5 18 6 19 13 20 14 21 15 22 22 23 16 24
REMARK SMILES IDX 20 25 21 26 17 27 19 28 18 29 27 30 28 31 29 32 30 33 31 35
REMARK SMILES IDX 32 36 33 37 79 38 34 39 78 40 35 41 36 42 37 43 72 44 38 45
REMARK SMILES IDX 77 46 71 47 73 48 39 49 76 50 70 51 69 52 40 54 62 55 47 56
REMARK SMILES IDX 61 57 48 58 51 59 60 60 74 61 49 62 50 63 59 65 75 66 52 67
REMARK SMILES IDX 41 68 42 69 46 70 43 71 45 72 44 73 63 74 64 75 68 76 65 77
REMARK SMILES IDX 67 78 66 79 53 80 54 81 58 82 55 83 57 84 56 85
REMARK H PARENT 25 5 11 8 29 34 73 53 51 64
REMARK Flexibility Score: inf
ROOT
ATOM      1  C   UNL A   1      34.195  28.984  27.399  1.00  0.00     0.117 C 
ENDROOT
BRANCH   1   2
ATOM      2  N   UNL A   1      32.817  28.667  27.767  1.00  0.00    -0.355 N 
ATOM      3  C   UNL A   1      31.878  27.743  27.396  1.00  0.00     0.238 C 
ATOM      4  O   UNL A   1      30.784  27.824  27.966  1.00  0.00    -0.273 OA
ATOM      5  H   UNL A   1      32.475  29.276  28.463  1.00  0.00     0.163 HD
BRANCH   3   6
ATOM      6  C   UNL A   1      32.085  26.701  26.291  1.00  0.00     0.163 C 
BRANCH   6   7
ATOM      7  N   UNL A   1      31.873  25.331  26.840  1.00  0.00    -0.198 NA
ATOM      8  H   UNL A   1      32.782  24.869  26.817  1.00  0.00     0.142 HD
BRANCH   7   9
ATOM      9  S   UNL A   1      30.779  24.268  26.138  1.00  0.00     0.241 S 
ATOM     10  O   UNL A   1      30.147  24.951  25.022  1.00  0.00    -0.207 OA
ATOM     11  O   UNL A   1      30.033  23.752  27.250  1.00  0.00    -0.207 OA
BRANCH   9  12
ATOM     12  C   UNL A   1      31.787  22.952  25.514  1.00  0.00     0.085 A 
ATOM     13  C   UNL A   1      32.100  21.084  22.214  1.00  0.00     0.044 C 
ATOM     14  C   UNL A   1      32.314  21.484  23.643  1.00  0.00    -0.050 A 
ATOM     15  C   UNL A   1      33.125  20.732  24.491  1.00  0.00     0.004 A 
ATOM     16  C   UNL A   1      31.680  22.613  24.157  1.00  0.00     0.025 A 
ATOM     17  C   UNL A   1      33.301  21.111  25.828  1.00  0.00     0.005 A 
ATOM     18  C   UNL A   1      32.635  22.228  26.364  1.00  0.00    -0.031 A 
ATOM     19  C   UNL A   1      32.895  22.576  27.803  1.00  0.00     0.046 C 
ENDBRANCH   9  12
ENDBRANCH   7   9
ENDBRANCH   6   7
BRANCH   6  20
ATOM     20  C   UNL A   1      33.442  26.772  25.511  1.00  0.00     0.063 C 
BRANCH  20  21
ATOM     21  C   UNL A   1      33.892  25.674  24.571  1.00  0.00    -0.037 C 
ATOM     22  C   UNL A   1      34.792  24.694  24.704  1.00  0.00     0.001 A 
ATOM     23  C   UNL A   1      33.428  25.713  23.151  1.00  0.00     0.174 C 
ATOM     24  C   UNL A   1      35.680  24.216  25.720  1.00  0.00     0.010 A 
ATOM     25  C   UNL A   1      34.832  24.095  23.350  1.00  0.00     0.065 A 
ATOM     26  N   UNL A   1      34.108  24.634  22.421  1.00  0.00    -0.280 NA
ATOM     27  C   UNL A   1      36.492  23.179  25.439  1.00  0.00     0.001 A 
ATOM     28  C   UNL A   1      35.704  22.929  23.134  1.00  0.00     0.028 A 
ATOM     29  C   UNL A   1      36.475  22.513  24.147  1.00  0.00     0.002 A 
ENDBRANCH  20  21
ENDBRANCH   6  20
ENDBRANCH   3   6
ENDBRANCH   1   2
BRANCH   1  30
ATOM     30  C   UNL A   1      34.494  30.387  26.865  1.00  0.00     0.042 C 
BRANCH  30  31
ATOM     31  C   UNL A   1      35.482  31.245  27.630  1.00  0.00     0.118 C 
BRANCH  31  32
ATOM     32  N   UNL A   1      34.894  32.037  28.695  1.00  0.00    -0.352 N 
ATOM     33  C   UNL A   1      35.164  31.972  30.047  1.00  0.00     0.251 C 
ATOM     34  H   UNL A   1      34.220  32.700  28.419  1.00  0.00     0.163 HD
ATOM     35  O   UNL A   1      34.525  32.656  30.840  1.00  0.00    -0.269 OA
BRANCH  33  36
ATOM     36  C   UNL A   1      36.349  31.210  30.500  1.00  0.00     0.039 A 
ATOM     37  C   UNL A   1      37.588  31.840  30.368  1.00  0.00     0.014 A 
ATOM     38  C   UNL A   1      36.274  29.851  30.805  1.00  0.00     0.014 A 
ATOM     39  C   UNL A   1      38.735  31.063  30.304  1.00  0.00     0.010 A 
ATOM     40  C   UNL A   1      37.398  29.066  30.644  1.00  0.00     0.010 A 
ATOM     41  C   UNL A   1      38.615  29.670  30.334  1.00  0.00    -0.014 A 
BRANCH  41  42
ATOM     42  C   UNL A   1      39.814  28.849  30.279  1.00  0.00     0.031 A 
ATOM     43  C   UNL A   1      40.500  28.791  31.586  1.00  0.00     0.074 A 
ATOM     44  C   UNL A   1      40.203  28.082  29.245  1.00  0.00     0.049 A 
ATOM     45  N   UNL A   1      41.472  29.539  31.992  1.00  0.00    -0.248 NA
ATOM     46  C   UNL A   1      39.877  27.978  32.645  1.00  0.00     0.031 C 
ATOM     47  C   UNL A   1      39.460  27.737  28.033  1.00  0.00     0.029 A 
ATOM     48  N   UNL A   1      41.352  27.358  29.120  1.00  0.00    -0.354 N 
ATOM     49  C   UNL A   1      41.707  29.137  33.300  1.00  0.00     0.074 A 
ATOM     50  C   UNL A   1      40.526  28.430  33.717  1.00  0.00     0.031 C 
ATOM     51  C   UNL A   1      40.083  26.707  27.407  1.00  0.00     0.029 A 
ATOM     52  C   UNL A   1      41.339  26.431  28.087  1.00  0.00     0.049 A 
ATOM     53  H   UNL A   1      42.128  27.483  29.714  1.00  0.00     0.167 HD
ATOM     54  C   UNL A   1      42.966  29.092  33.814  1.00  0.00     0.031 A 
ATOM     55  C   UNL A   1      42.283  25.483  27.862  1.00  0.00     0.031 A 
ATOM     56  C   UNL A   1      43.909  29.713  32.917  1.00  0.00     0.049 A 
ATOM     57  C   UNL A   1      43.527  25.927  28.533  1.00  0.00     0.074 A 
ATOM     58  C   UNL A   1      44.191  30.992  32.498  1.00  0.00     0.029 A 
ATOM     59  N   UNL A   1      44.447  28.848  31.994  1.00  0.00    -0.354 N 
ATOM     60  N   UNL A   1      44.199  26.984  28.180  1.00  0.00    -0.248 NA
ATOM     61  C   UNL A   1      43.861  25.387  29.846  1.00  0.00     0.031 C 
ATOM     62  C   UNL A   1      44.688  30.863  31.168  1.00  0.00     0.029 A 
ATOM     63  C   UNL A   1      44.748  29.509  30.833  1.00  0.00     0.049 A 
ATOM     64  H   UNL A   1      44.595  27.887  32.145  1.00  0.00     0.167 HD
ATOM     65  C   UNL A   1      44.695  27.491  29.367  1.00  0.00     0.074 A 
ATOM     66  C   UNL A   1      44.610  26.388  30.317  1.00  0.00     0.031 C 
ATOM     67  C   UNL A   1      44.832  28.836  29.549  1.00  0.00     0.031 A 
BRANCH  54  68
ATOM     68  C   UNL A   1      43.425  28.082  34.845  1.00  0.00    -0.014 A 
ATOM     69  C   UNL A   1      43.711  28.391  36.188  1.00  0.00     0.009 A 
ATOM     70  C   UNL A   1      43.335  26.715  34.529  1.00  0.00     0.009 A 
ATOM     71  C   UNL A   1      43.900  27.408  37.162  1.00  0.00     0.001 A 
ATOM     72  C   UNL A   1      43.485  25.724  35.509  1.00  0.00     0.001 A 
ATOM     73  C   UNL A   1      43.767  26.072  36.826  1.00  0.00     0.000 A 
ENDBRANCH  54  68
BRANCH  55  74
ATOM     74  C   UNL A   1      42.114  24.076  27.430  1.00  0.00    -0.014 A 
ATOM     75  C   UNL A   1      42.720  23.633  26.243  1.00  0.00     0.009 A 
ATOM     76  C   UNL A   1      41.095  23.278  27.982  1.00  0.00     0.009 A 
ATOM     77  C   UNL A   1      42.279  22.473  25.592  1.00  0.00     0.001 A 
ATOM     78  C   UNL A   1      40.655  22.117  27.330  1.00  0.00     0.001 A 
ATOM     79  C   UNL A   1      41.232  21.728  26.124  1.00  0.00     0.000 A 
ENDBRANCH  55  74
BRANCH  67  80
ATOM     80  C   UNL A   1      44.868  29.717  28.326  1.00  0.00    -0.014 A 
ATOM     81  C   UNL A   1      46.091  29.825  27.644  1.00  0.00     0.009 A 
ATOM     82  C   UNL A   1      43.806  30.545  27.927  1.00  0.00     0.009 A 
ATOM     83  C   UNL A   1      46.265  30.755  26.621  1.00  0.00     0.001 A 
ATOM     84  C   UNL A   1      43.972  31.459  26.880  1.00  0.00     0.001 A 
ATOM     85  C   UNL A   1      45.205  31.575  26.239  1.00  0.00     0.000 A 
ENDBRANCH  67  80
ENDBRANCH  41  42
ENDBRANCH  33  36
ENDBRANCH  31  32
ENDBRANCH  30  31
ENDBRANCH   1  30
TORSDOF 15
ENDMDL
MODEL 2
REMARK VINA RESULT:     -12.0      1.770      5.845
REMARK SMILES Cc1ccc(C)c(S(=O)(=O)N[C@H](CC2=c3ccccc3=NC2)C(=O)NCCCNC(=O)c2ccc(-c3c4nc(c(-c5ccccc5)c5ccc([nH]5)c(-c5ccccc5)c5nc(c(-c6ccccc6)c6ccc3[nH]6)C=C5)C=C4)cc2)c1
REMARK SMILES IDX 26 1 25 2 23 3 24 4 12 6 11 7 8 9 9 10 10 11 7 12 1 13 2 14
REMARK SMILES IDX 3 15 80 16 4 17 5 18 6 19 13 20 14 21 15 22 22 23 16 24
REMARK SMILES IDX 20 25 21 26 17 27 19 28 18 29 27 30 28 31 29 32 30 33 31 35
REMARK SMILES IDX 32 36 33 37 79 38 34 39 78 40 35 41 36 42 37 43 72 44 38 45
REMARK SMILES IDX 77 46 71 47 73 48 39 49 76 50 70 51 69 52 40 54 62 55 47 56
REMARK SMILES IDX 61 57 48 58 51 59 60 60 74 61 49 62 50 63 59 65 75 66 52 67
REMARK SMILES IDX 41 68 42 69 46 70 43 71 45 72 44 73 63 74 64 75 68 76 65 77
REMARK SMILES IDX 67 78 66 79 53 80 54 81 58 82 55 83 57 84 56 85
REMARK H PARENT 25 5 11 8 29 34 73 53 51 64
REMARK Flexibility Score: inf
ROOT
ATOM      1  C   UNL A   1      34.301  28.963  27.217  1.00  0.00     0.117 C 
ENDROOT
BRANCH   1   2
ATOM      2  N   UNL A   1      32.911  28.665  27.557  1.00  0.00    -0.355 N 
ATOM      3  C   UNL A   1      32.025  27.653  27.310  1.00  0.00     0.238 C 
ATOM      4  O   UNL A   1      30.894  27.795  27.789  1.00  0.00    -0.273 OA
ATOM      5  H   UNL A   1      32.509  29.378  28.107  1.00  0.00     0.163 HD
BRANCH   3   6
ATOM      6  C   UNL A   1      32.331  26.435  26.431  1.00  0.00     0.163 C 
BRANCH   6   7
ATOM      7  N   UNL A   1      31.793  25.201  27.071  1.00  0.00    -0.198 NA
ATOM      8  H   UNL A   1      32.601  24.633  27.325  1.00  0.00     0.142 HD
BRANCH   7   9
ATOM      9  S   UNL A   1      30.733  24.184  26.255  1.00  0.00     0.241 S 
ATOM     10  O   UNL A   1      30.123  24.947  25.179  1.00  0.00    -0.207 OA
ATOM     11  O   UNL A   1      29.964  23.572  27.300  1.00  0.00    -0.207 OA
BRANCH   9  12
ATOM     12  C   UNL A   1      31.777  22.934  25.557  1.00  0.00     0.085 A 
ATOM     13  C   UNL A   1      32.056  21.176  22.195  1.00  0.00     0.044 C 
ATOM     14  C   UNL A   1      32.302  21.545  23.627  1.00  0.00    -0.050 A 
ATOM     15  C   UNL A   1      33.176  20.808  24.424  1.00  0.00     0.004 A 
ATOM     16  C   UNL A   1      31.636  22.630  24.196  1.00  0.00     0.025 A 
ATOM     17  C   UNL A   1      33.382  21.157  25.764  1.00  0.00     0.005 A 
ATOM     18  C   UNL A   1      32.686  22.225  26.356  1.00  0.00    -0.031 A 
ATOM     19  C   UNL A   1      32.981  22.545  27.795  1.00  0.00     0.046 C 
ENDBRANCH   9  12
ENDBRANCH   7   9
ENDBRANCH   6   7
BRANCH   6  20
ATOM     20  C   UNL A   1      33.830  26.228  26.023  1.00  0.00     0.063 C 
BRANCH  20  21
ATOM     21  C   UNL A   1      34.245  25.265  24.932  1.00  0.00    -0.037 C 
ATOM     22  C   UNL A   1      35.188  24.318  24.884  1.00  0.00     0.001 A 
ATOM     23  C   UNL A   1      33.670  25.441  23.564  1.00  0.00     0.174 C 
ATOM     24  C   UNL A   1      36.169  23.771  25.770  1.00  0.00     0.010 A 
ATOM     25  C   UNL A   1      35.144  23.878  23.471  1.00  0.00     0.065 A 
ATOM     26  N   UNL A   1      34.329  24.484  22.666  1.00  0.00    -0.280 NA
ATOM     27  C   UNL A   1      36.996  22.810  25.312  1.00  0.00     0.001 A 
ATOM     28  C   UNL A   1      36.038  22.784  23.058  1.00  0.00     0.028 A 
ATOM     29  C   UNL A   1      36.902  22.293  23.957  1.00  0.00     0.002 A 
ENDBRANCH  20  21
ENDBRANCH   6  20
ENDBRANCH   3   6
ENDBRANCH   1   2
BRANCH   1  30
ATOM     30  C   UNL A   1      34.736  30.429  27.179  1.00  0.00     0.042 C 
BRANCH  30  31
ATOM     31  C   UNL A   1      35.951  30.833  27.989  1.00  0.00     0.118 C 
BRANCH  31  32
ATOM     32  N   UNL A   1      35.846  30.560  29.411  1.00  0.00    -0.352 N 
ATOM     33  C   UNL A   1      36.545  29.625  30.148  1.00  0.00     0.251 C 
ATOM     34  H   UNL A   1      35.197  31.107  29.909  1.00  0.00     0.163 HD
ATOM     35  O   UNL A   1      36.289  29.456  31.335  1.00  0.00    -0.269 OA
BRANCH  33  36
ATOM     36  C   UNL A   1      37.721  28.970  29.534  1.00  0.00     0.039 A 
ATOM     37  C   UNL A   1      38.333  27.957  30.275  1.00  0.00     0.014 A 
ATOM     38  C   UNL A   1      38.343  29.494  28.400  1.00  0.00     0.014 A 
ATOM     39  C   UNL A   1      39.660  27.644  30.020  1.00  0.00     0.010 A 
ATOM     40  C   UNL A   1      39.690  29.257  28.206  1.00  0.00     0.010 A 
ATOM     41  C   UNL A   1      40.359  28.378  29.056  1.00  0.00    -0.014 A 
BRANCH  41  42
ATOM     42  C   UNL A   1      41.746  28.048  28.775  1.00  0.00     0.031 A 
ATOM     43  C   UNL A   1      41.870  26.764  28.054  1.00  0.00     0.074 A 
ATOM     44  C   UNL A   1      42.809  28.850  28.972  1.00  0.00     0.049 A 
ATOM     45  N   UNL A   1      42.078  25.597  28.567  1.00  0.00    -0.248 NA
ATOM     46  C   UNL A   1      41.478  26.742  26.634  1.00  0.00     0.031 C 
ATOM     47  C   UNL A   1      42.827  30.270  29.324  1.00  0.00     0.029 A 
ATOM     48  N   UNL A   1      44.128  28.557  28.795  1.00  0.00    -0.354 N 
ATOM     49  C   UNL A   1      42.041  24.723  27.489  1.00  0.00     0.074 A 
ATOM     50  C   UNL A   1      41.375  25.430  26.428  1.00  0.00     0.031 C 
ATOM     51  C   UNL A   1      44.076  30.761  29.122  1.00  0.00     0.029 A 
ATOM     52  C   UNL A   1      44.966  29.663  28.780  1.00  0.00     0.049 A 
ATOM     53  H   UNL A   1      44.460  27.635  28.687  1.00  0.00     0.167 HD
ATOM     54  C   UNL A   1      42.864  23.642  27.422  1.00  0.00     0.031 A 
ATOM     55  C   UNL A   1      46.284  29.654  28.456  1.00  0.00     0.031 A 
ATOM     56  C   UNL A   1      43.552  23.443  28.673  1.00  0.00     0.049 A 
ATOM     57  C   UNL A   1      46.777  28.270  28.641  1.00  0.00     0.074 A 
ATOM     58  C   UNL A   1      43.214  23.032  29.942  1.00  0.00     0.029 A 
ATOM     59  N   UNL A   1      44.744  24.121  28.763  1.00  0.00    -0.354 N 
ATOM     60  N   UNL A   1      46.838  27.674  29.797  1.00  0.00    -0.248 NA
ATOM     61  C   UNL A   1      46.890  27.392  27.482  1.00  0.00     0.031 C 
ATOM     62  C   UNL A   1      44.111  23.708  30.819  1.00  0.00     0.029 A 
ATOM     63  C   UNL A   1      45.005  24.468  30.062  1.00  0.00     0.049 A 
ATOM     64  H   UNL A   1      45.330  24.330  28.000  1.00  0.00     0.167 HD
ATOM     65  C   UNL A   1      46.549  26.351  29.520  1.00  0.00     0.074 A 
ATOM     66  C   UNL A   1      46.766  26.206  28.086  1.00  0.00     0.031 C 
ATOM     67  C   UNL A   1      45.864  25.584  30.416  1.00  0.00     0.031 A 
BRANCH  54  68
ATOM     68  C   UNL A   1      43.421  23.080  26.131  1.00  0.00    -0.014 A 
ATOM     69  C   UNL A   1      44.137  23.833  25.180  1.00  0.00     0.009 A 
ATOM     70  C   UNL A   1      43.448  21.684  25.964  1.00  0.00     0.009 A 
ATOM     71  C   UNL A   1      44.836  23.242  24.125  1.00  0.00     0.001 A 
ATOM     72  C   UNL A   1      44.180  21.083  24.931  1.00  0.00     0.001 A 
ATOM     73  C   UNL A   1      44.874  21.863  24.011  1.00  0.00     0.000 A 
ENDBRANCH  54  68
BRANCH  55  74
ATOM     74  C   UNL A   1      47.061  30.639  27.668  1.00  0.00    -0.014 A 
ATOM     75  C   UNL A   1      48.427  30.829  27.941  1.00  0.00     0.009 A 
ATOM     76  C   UNL A   1      46.404  31.620  26.903  1.00  0.00     0.009 A 
ATOM     77  C   UNL A   1      49.094  31.989  27.527  1.00  0.00     0.001 A 
ATOM     78  C   UNL A   1      47.073  32.780  26.488  1.00  0.00     0.001 A 
ATOM     79  C   UNL A   1      48.412  32.974  26.820  1.00  0.00     0.000 A 
ENDBRANCH  55  74
BRANCH  67  80
ATOM     80  C   UNL A   1      45.821  26.039  31.853  1.00  0.00    -0.014 A 
ATOM     81  C   UNL A   1      44.734  26.835  32.245  1.00  0.00     0.009 A 
ATOM     82  C   UNL A   1      46.870  25.843  32.767  1.00  0.00     0.009 A 
ATOM     83  C   UNL A   1      44.708  27.452  33.496  1.00  0.00     0.001 A 
ATOM     84  C   UNL A   1      46.830  26.438  34.033  1.00  0.00     0.001 A 
ATOM     85  C   UNL A   1      45.757  27.254  34.390  1.00  0.00     0.000 A 
ENDBRANCH  67  80
ENDBRANCH  41  42
ENDBRANCH  33  36
ENDBRANCH  31  32
ENDBRANCH  30  31
ENDBRANCH   1  30
TORSDOF 15
ENDMDL
MODEL 3
REMARK VINA RESULT:     -11.9      2.478      7.358
REMARK SMILES Cc1ccc(C)c(S(=O)(=O)N[C@H](CC2=c3ccccc3=NC2)C(=O)NCCCNC(=O)c2ccc(-c3c4nc(c(-c5ccccc5)c5ccc([nH]5)c(-c5ccccc5)c5nc(c(-c6ccccc6)c6ccc3[nH]6)C=C5)C=C4)cc2)c1
REMARK SMILES IDX 26 1 25 2 23 3 24 4 12 6 11 7 8 9 9 10 10 11 7 12 1 13 2 14
REMARK SMILES IDX 3 15 80 16 4 17 5 18 6 19 13 20 14 21 15 22 22 23 16 24
REMARK SMILES IDX 20 25 21 26 17 27 19 28 18 29 27 30 28 31 29 32 30 33 31 35
REMARK SMILES IDX 32 36 33 37 79 38 34 39 78 40 35 41 36 42 37 43 72 44 38 45
REMARK SMILES IDX 77 46 71 47 73 48 39 49 76 50 70 51 69 52 40 54 62 55 47 56
REMARK SMILES IDX 61 57 48 58 51 59 60 60 74 61 49 62 50 63 59 65 75 66 52 67
REMARK SMILES IDX 41 68 42 69 46 70 43 71 45 72 44 73 63 74 64 75 68 76 65 77
REMARK SMILES IDX 67 78 66 79 53 80 54 81 58 82 55 83 57 84 56 85
REMARK H PARENT 25 5 11 8 29 34 73 53 51 64
REMARK Flexibility Score: inf
ROOT
ATOM      1  C   UNL A   1      36.684  21.786  25.438  1.00  0.00     0.117 C 
ENDROOT
BRANCH   1   2
ATOM      2  N   UNL A   1      35.495  21.010  25.785  1.00  0.00    -0.355 N 
ATOM      3  C   UNL A   1      34.143  21.139  25.617  1.00  0.00     0.238 C 
ATOM      4  O   UNL A   1      33.451  20.228  26.087  1.00  0.00    -0.273 OA
ATOM      5  H   UNL A   1      35.728  20.180  26.263  1.00  0.00     0.163 HD
BRANCH   3   6
ATOM      6  C   UNL A   1      33.467  22.352  24.969  1.00  0.00     0.163 C 
BRANCH   6   7
ATOM      7  N   UNL A   1      31.989  22.262  25.144  1.00  0.00    -0.198 NA
ATOM      8  H   UNL A   1      31.576  22.602  24.276  1.00  0.00     0.142 HD
BRANCH   7   9
ATOM      9  S   UNL A   1      31.205  23.065  26.393  1.00  0.00     0.241 S 
ATOM     10  O   UNL A   1      32.074  23.033  27.558  1.00  0.00    -0.207 OA
ATOM     11  O   UNL A   1      29.886  22.502  26.397  1.00  0.00    -0.207 OA
BRANCH   9  12
ATOM     12  C   UNL A   1      31.071  24.737  25.820  1.00  0.00     0.085 A 
ATOM     13  C   UNL A   1      31.454  28.191  27.368  1.00  0.00     0.044 C 
ATOM     14  C   UNL A   1      31.172  27.106  26.372  1.00  0.00    -0.050 A 
ATOM     15  C   UNL A   1      30.643  27.398  25.116  1.00  0.00     0.004 A 
ATOM     16  C   UNL A   1      31.417  25.774  26.698  1.00  0.00     0.025 A 
ATOM     17  C   UNL A   1      30.371  26.372  24.204  1.00  0.00     0.005 A 
ATOM     18  C   UNL A   1      30.579  25.022  24.538  1.00  0.00    -0.031 A 
ATOM     19  C   UNL A   1      30.278  23.984  23.494  1.00  0.00     0.046 C 
ENDBRANCH   9  12
ENDBRANCH   7   9
ENDBRANCH   6   7
BRANCH   6  20
ATOM     20  C   UNL A   1      33.822  22.630  23.469  1.00  0.00     0.063 C 
BRANCH  20  21
ATOM     21  C   UNL A   1      33.741  24.014  22.862  1.00  0.00    -0.037 C 
ATOM     22  C   UNL A   1      33.891  25.233  23.390  1.00  0.00     0.001 A 
ATOM     23  C   UNL A   1      33.239  24.154  21.462  1.00  0.00     0.174 C 
ATOM     24  C   UNL A   1      34.203  25.790  24.671  1.00  0.00     0.010 A 
ATOM     25  C   UNL A   1      33.522  26.128  22.269  1.00  0.00     0.065 A 
ATOM     26  N   UNL A   1      33.123  25.588  21.161  1.00  0.00    -0.280 NA
ATOM     27  C   UNL A   1      34.221  27.130  24.812  1.00  0.00     0.001 A 
ATOM     28  C   UNL A   1      33.619  27.581  22.481  1.00  0.00     0.028 A 
ATOM     29  C   UNL A   1      33.960  28.026  23.698  1.00  0.00     0.002 A 
ENDBRANCH  20  21
ENDBRANCH   6  20
ENDBRANCH   3   6
ENDBRANCH   1   2
BRANCH   1  30
ATOM     30  C   UNL A   1      36.764  23.236  25.919  1.00  0.00     0.042 C 
BRANCH  30  31
ATOM     31  C   UNL A   1      38.123  23.789  26.297  1.00  0.00     0.118 C 
BRANCH  31  32
ATOM     32  N   UNL A   1      39.198  22.813  26.273  1.00  0.00    -0.352 N 
ATOM     33  C   UNL A   1      40.556  23.046  26.360  1.00  0.00     0.251 C 
ATOM     34  H   UNL A   1      38.925  21.871  26.182  1.00  0.00     0.163 HD
ATOM     35  O   UNL A   1      41.352  22.120  26.244  1.00  0.00    -0.269 OA
BRANCH  33  36
ATOM     36  C   UNL A   1      41.023  24.388  26.774  1.00  0.00     0.039 A 
ATOM     37  C   UNL A   1      41.318  24.559  28.127  1.00  0.00     0.014 A 
ATOM     38  C   UNL A   1      40.934  25.489  25.922  1.00  0.00     0.014 A 
ATOM     39  C   UNL A   1      41.286  25.836  28.667  1.00  0.00     0.010 A 
ATOM     40  C   UNL A   1      40.804  26.750  26.470  1.00  0.00     0.010 A 
ATOM     41  C   UNL A   1      40.920  26.911  27.850  1.00  0.00    -0.014 A 
BRANCH  41  42
ATOM     42  C   UNL A   1      40.895  28.254  28.406  1.00  0.00     0.031 A 
ATOM     43  C   UNL A   1      42.100  29.025  28.033  1.00  0.00     0.074 A 
ATOM     44  C   UNL A   1      39.859  28.831  29.042  1.00  0.00     0.049 A 
ATOM     45  N   UNL A   1      43.186  29.155  28.719  1.00  0.00    -0.248 NA
ATOM     46  C   UNL A   1      42.199  29.499  26.642  1.00  0.00     0.031 C 
ATOM     47  C   UNL A   1      38.483  28.350  29.167  1.00  0.00     0.029 A 
ATOM     48  N   UNL A   1      39.816  30.053  29.642  1.00  0.00    -0.354 N 
ATOM     49  C   UNL A   1      44.028  29.907  27.911  1.00  0.00     0.074 A 
ATOM     50  C   UNL A   1      43.494  29.808  26.580  1.00  0.00     0.031 C 
ATOM     51  C   UNL A   1      37.697  29.363  29.610  1.00  0.00     0.029 A 
ATOM     52  C   UNL A   1      38.538  30.503  29.943  1.00  0.00     0.049 A 
ATOM     53  H   UNL A   1      40.627  30.575  29.847  1.00  0.00     0.167 HD
ATOM     54  C   UNL A   1      44.874  30.835  28.435  1.00  0.00     0.031 A 
ATOM     55  C   UNL A   1      38.219  31.746  30.384  1.00  0.00     0.031 A 
ATOM     56  C   UNL A   1      44.913  30.740  29.873  1.00  0.00     0.049 A 
ATOM     57  C   UNL A   1      39.441  32.334  30.978  1.00  0.00     0.074 A 
ATOM     58  C   UNL A   1      45.411  29.853  30.799  1.00  0.00     0.029 A 
ATOM     59  N   UNL A   1      43.964  31.507  30.505  1.00  0.00    -0.354 N 
ATOM     60  N   UNL A   1      40.019  31.869  32.049  1.00  0.00    -0.248 NA
ATOM     61  C   UNL A   1      40.250  33.251  30.184  1.00  0.00     0.031 C 
ATOM     62  C   UNL A   1      44.546  29.946  31.929  1.00  0.00     0.029 A 
ATOM     63  C   UNL A   1      43.580  30.924  31.684  1.00  0.00     0.049 A 
ATOM     64  H   UNL A   1      43.608  32.357  30.159  1.00  0.00     0.167 HD
ATOM     65  C   UNL A   1      41.369  32.070  31.828  1.00  0.00     0.074 A 
ATOM     66  C   UNL A   1      41.437  33.069  30.769  1.00  0.00     0.031 C 
ATOM     67  C   UNL A   1      42.292  31.184  32.302  1.00  0.00     0.031 A 
BRANCH  54  68
ATOM     68  C   UNL A   1      45.264  32.118  27.731  1.00  0.00    -0.014 A 
ATOM     69  C   UNL A   1      46.560  32.404  27.259  1.00  0.00     0.009 A 
ATOM     70  C   UNL A   1      44.243  32.983  27.300  1.00  0.00     0.009 A 
ATOM     71  C   UNL A   1      46.832  33.481  26.413  1.00  0.00     0.001 A 
ATOM     72  C   UNL A   1      44.502  34.042  26.419  1.00  0.00     0.001 A 
ATOM     73  C   UNL A   1      45.798  34.291  25.976  1.00  0.00     0.000 A 
ENDBRANCH  54  68
BRANCH  55  74
ATOM     74  C   UNL A   1      37.063  32.599  30.024  1.00  0.00    -0.014 A 
ATOM     75  C   UNL A   1      35.996  32.747  30.926  1.00  0.00     0.009 A 
ATOM     76  C   UNL A   1      36.847  32.981  28.686  1.00  0.00     0.009 A 
ATOM     77  C   UNL A   1      34.739  33.191  30.496  1.00  0.00     0.001 A 
ATOM     78  C   UNL A   1      35.589  33.426  28.257  1.00  0.00     0.001 A 
ATOM     79  C   UNL A   1      34.530  33.510  29.158  1.00  0.00     0.000 A 
ENDBRANCH  55  74
BRANCH  67  80
ATOM     80  C   UNL A   1      41.880  30.259  33.418  1.00  0.00    -0.014 A 
ATOM     81  C   UNL A   1      42.112  30.692  34.734  1.00  0.00     0.009 A 
ATOM     82  C   UNL A   1      41.429  28.944  33.218  1.00  0.00     0.009 A 
ATOM     83  C   UNL A   1      41.937  29.830  35.816  1.00  0.00     0.001 A 
ATOM     84  C   UNL A   1      41.225  28.088  34.307  1.00  0.00     0.001 A 
ATOM     85  C   UNL A   1      41.494  28.527  35.603  1.00  0.00     0.000 A 
ENDBRANCH  67  80
ENDBRANCH  41  42
ENDBRANCH  33  36
ENDBRANCH  31  32
ENDBRANCH  30  31
ENDBRANCH   1  30
TORSDOF 15
ENDMDL
