MODEL 1
REMARK VINA RESULT:     -11.6      0.000      0.000
REMARK SMILES O=C1C=C/C(=C\NCc2ccc(C(=O)NCCCNC(=O)c3ccc(-c4c5nc(c(-c6ccccc6)c6ccc([nH]6)c(-c6ccccc6)c6nc(c(-c7ccccc7)c7ccc4[nH]7)C=C6)C=C5)cc3)cc2)C=C1[N+](=O)[O-]
REMARK SMILES IDX 16 1 15 2 13 3 14 4 12 6 9 7 10 8 71 9 11 10 70 11 8 12 7 13
REMARK SMILES IDX 6 15 1 16 2 17 3 18 73 19 4 20 72 21 5 22 74 23 75 24 76 25
REMARK SMILES IDX 17 26 18 27 19 28 20 29 21 31 22 32 23 33 69 34 24 35 68 36
REMARK SMILES IDX 25 37 26 38 27 39 62 40 28 41 67 42 61 43 63 44 29 45 66 46
REMARK SMILES IDX 60 47 59 48 30 50 52 51 37 52 51 53 38 54 41 55 50 56 64 57
REMARK SMILES IDX 39 58 40 59 49 61 65 62 42 63 31 64 32 65 36 66 33 67 35 68
REMARK SMILES IDX 34 69 53 70 54 71 58 72 55 73 57 74 56 75 43 76 44 77 48 78
REMARK SMILES IDX 45 79 47 80 46 81
REMARK H PARENT 15 5 7 14 19 30 63 49 41 60
REMARK Flexibility Score: inf
ROOT
ATOM      1  C   UNL A   1      32.931  28.442  24.796  1.00  0.00     0.118 C 
ENDROOT
BRANCH   1   2
ATOM      2  N   UNL A   1      31.892  27.517  25.210  1.00  0.00    -0.352 N 
ATOM      3  C   UNL A   1      31.896  26.159  25.396  1.00  0.00     0.251 C 
ATOM      4  O   UNL A   1      30.876  25.638  25.847  1.00  0.00    -0.269 OA
ATOM      5  H   UNL A   1      31.023  27.944  25.389  1.00  0.00     0.163 HD
BRANCH   3   6
ATOM      6  C   UNL A   1      33.080  25.305  25.116  1.00  0.00     0.039 A 
ATOM      7  C   UNL A   1      35.341  23.767  24.413  1.00  0.00    -0.029 A 
ATOM      8  C   UNL A   1      34.549  24.358  23.420  1.00  0.00     0.006 A 
ATOM      9  C   UNL A   1      35.008  23.979  25.757  1.00  0.00     0.006 A 
ATOM     10  C   UNL A   1      33.428  25.115  23.770  1.00  0.00     0.014 A 
ATOM     11  C   UNL A   1      33.899  24.756  26.104  1.00  0.00     0.014 A 
BRANCH   7  12
ATOM     12  C   UNL A   1      36.590  23.002  24.055  1.00  0.00     0.148 C 
BRANCH  12  13
ATOM     13  N   UNL A   1      36.753  21.922  25.008  1.00  0.00    -0.386 N 
ATOM     14  H   UNL A   1      37.049  22.172  25.913  1.00  0.00     0.160 HD
BRANCH  13  15
ATOM     15  C   UNL A   1      36.537  20.586  24.777  1.00  0.00     0.086 C 
ATOM     16  O   UNL A   1      31.923  17.720  25.034  1.00  0.00    -0.282 OA
ATOM     17  C   UNL A   1      32.995  18.308  25.002  1.00  0.00     0.255 C 
ATOM     18  C   UNL A   1      33.005  19.766  25.314  1.00  0.00     0.060 C 
ATOM     19  C   UNL A   1      34.304  17.703  24.649  1.00  0.00     0.316 C 
ATOM     20  C   UNL A   1      34.131  20.487  25.248  1.00  0.00     0.014 C 
ATOM     21  C   UNL A   1      35.428  18.442  24.579  1.00  0.00     0.099 C 
ATOM     22  C   UNL A   1      35.396  19.873  24.871  1.00  0.00    -0.003 C 
BRANCH  19  23
ATOM     23  N   UNL A   1      34.406  16.285  24.355  1.00  0.00     0.067 N 
ATOM     24  O   UNL A   1      34.141  15.917  23.199  1.00  0.00    -0.258 OA
ATOM     25  O   UNL A   1      34.772  15.516  25.249  1.00  0.00    -0.258 OA
ENDBRANCH  19  23
ENDBRANCH  13  15
ENDBRANCH  12  13
ENDBRANCH   7  12
ENDBRANCH   3   6
ENDBRANCH   1   2
BRANCH   1  26
ATOM     26  C   UNL A   1      34.089  28.461  25.795  1.00  0.00     0.042 C 
BRANCH  26  27
ATOM     27  C   UNL A   1      33.645  28.645  27.244  1.00  0.00     0.118 C 
BRANCH  27  28
ATOM     28  N   UNL A   1      33.604  30.046  27.632  1.00  0.00    -0.352 N 
ATOM     29  C   UNL A   1      34.529  30.805  28.302  1.00  0.00     0.251 C 
ATOM     30  H   UNL A   1      32.783  30.524  27.373  1.00  0.00     0.163 HD
ATOM     31  O   UNL A   1      34.208  31.915  28.718  1.00  0.00    -0.269 OA
BRANCH  29  32
ATOM     32  C   UNL A   1      35.902  30.306  28.539  1.00  0.00     0.039 A 
ATOM     33  C   UNL A   1      36.832  30.388  27.498  1.00  0.00     0.014 A 
ATOM     34  C   UNL A   1      36.264  29.704  29.748  1.00  0.00     0.014 A 
ATOM     35  C   UNL A   1      38.130  29.905  27.680  1.00  0.00     0.010 A 
ATOM     36  C   UNL A   1      37.577  29.280  29.952  1.00  0.00     0.010 A 
ATOM     37  C   UNL A   1      38.518  29.367  28.916  1.00  0.00    -0.014 A 
BRANCH  37  38
ATOM     38  C   UNL A   1      39.904  28.884  29.134  1.00  0.00     0.031 A 
ATOM     39  C   UNL A   1      40.930  29.772  29.782  1.00  0.00     0.074 A 
ATOM     40  C   UNL A   1      40.255  27.656  28.706  1.00  0.00     0.049 A 
ATOM     41  N   UNL A   1      42.189  29.526  30.042  1.00  0.00    -0.248 NA
ATOM     42  C   UNL A   1      40.487  31.120  30.170  1.00  0.00     0.031 C 
ATOM     43  C   UNL A   1      39.363  26.707  28.035  1.00  0.00     0.029 A 
ATOM     44  N   UNL A   1      41.454  26.995  28.776  1.00  0.00    -0.354 N 
ATOM     45  C   UNL A   1      42.694  30.693  30.603  1.00  0.00     0.074 A 
ATOM     46  C   UNL A   1      41.616  31.659  30.606  1.00  0.00     0.031 C 
ATOM     47  C   UNL A   1      40.036  25.572  27.792  1.00  0.00     0.029 A 
ATOM     48  C   UNL A   1      41.412  25.726  28.255  1.00  0.00     0.049 A 
ATOM     49  H   UNL A   1      42.268  27.393  29.162  1.00  0.00     0.167 HD
ATOM     50  C   UNL A   1      43.936  30.935  31.087  1.00  0.00     0.031 A 
ATOM     51  C   UNL A   1      42.372  24.787  28.165  1.00  0.00     0.031 A 
ATOM     52  C   UNL A   1      45.007  29.974  31.092  1.00  0.00     0.049 A 
ATOM     53  C   UNL A   1      43.745  25.084  28.694  1.00  0.00     0.074 A 
ATOM     54  C   UNL A   1      46.281  30.102  31.619  1.00  0.00     0.029 A 
ATOM     55  N   UNL A   1      44.929  28.706  30.538  1.00  0.00    -0.354 N 
ATOM     56  N   UNL A   1      44.188  26.168  29.283  1.00  0.00    -0.248 NA
ATOM     57  C   UNL A   1      44.748  24.019  28.552  1.00  0.00     0.031 C 
ATOM     58  C   UNL A   1      46.990  28.927  31.339  1.00  0.00     0.029 A 
ATOM     59  C   UNL A   1      46.141  28.051  30.683  1.00  0.00     0.049 A 
ATOM     60  H   UNL A   1      44.130  28.327  30.104  1.00  0.00     0.167 HD
ATOM     61  C   UNL A   1      45.514  25.908  29.603  1.00  0.00     0.074 A 
ATOM     62  C   UNL A   1      45.798  24.560  29.154  1.00  0.00     0.031 C 
ATOM     63  C   UNL A   1      46.413  26.715  30.219  1.00  0.00     0.031 A 
BRANCH  50  64
ATOM     64  C   UNL A   1      44.200  32.311  31.634  1.00  0.00    -0.014 A 
ATOM     65  C   UNL A   1      44.041  32.597  33.000  1.00  0.00     0.009 A 
ATOM     66  C   UNL A   1      44.613  33.338  30.771  1.00  0.00     0.009 A 
ATOM     67  C   UNL A   1      44.243  33.892  33.481  1.00  0.00     0.001 A 
ATOM     68  C   UNL A   1      44.841  34.626  31.259  1.00  0.00     0.001 A 
ATOM     69  C   UNL A   1      44.644  34.905  32.610  1.00  0.00     0.000 A 
ENDBRANCH  50  64
BRANCH  51  70
ATOM     70  C   UNL A   1      42.049  23.458  27.589  1.00  0.00    -0.014 A 
ATOM     71  C   UNL A   1      41.450  22.472  28.389  1.00  0.00     0.009 A 
ATOM     72  C   UNL A   1      42.316  23.172  26.242  1.00  0.00     0.009 A 
ATOM     73  C   UNL A   1      41.136  21.221  27.854  1.00  0.00     0.001 A 
ATOM     74  C   UNL A   1      41.982  21.928  25.704  1.00  0.00     0.001 A 
ATOM     75  C   UNL A   1      41.397  20.953  26.510  1.00  0.00     0.000 A 
ENDBRANCH  51  70
BRANCH  63  76
ATOM     76  C   UNL A   1      47.782  26.146  30.461  1.00  0.00    -0.014 A 
ATOM     77  C   UNL A   1      48.191  25.756  31.746  1.00  0.00     0.009 A 
ATOM     78  C   UNL A   1      48.667  25.980  29.384  1.00  0.00     0.009 A 
ATOM     79  C   UNL A   1      49.474  25.243  31.952  1.00  0.00     0.001 A 
ATOM     80  C   UNL A   1      49.938  25.443  29.589  1.00  0.00     0.001 A 
ATOM     81  C   UNL A   1      50.344  25.084  30.873  1.00  0.00     0.000 A 
ENDBRANCH  63  76
ENDBRANCH  37  38
ENDBRANCH  29  32
ENDBRANCH  27  28
ENDBRANCH  26  27
ENDBRANCH   1  26
TORSDOF 14
ENDMDL
MODEL 2
REMARK VINA RESULT:     -11.5      0.249      5.832
REMARK SMILES O=C1C=C/C(=C\NCc2ccc(C(=O)NCCCNC(=O)c3ccc(-c4c5nc(c(-c6ccccc6)c6ccc([nH]6)c(-c6ccccc6)c6nc(c(-c7ccccc7)c7ccc4[nH]7)C=C6)C=C5)cc3)cc2)C=C1[N+](=O)[O-]
REMARK SMILES IDX 16 1 15 2 13 3 14 4 12 6 9 7 10 8 71 9 11 10 70 11 8 12 7 13
REMARK SMILES IDX 6 15 1 16 2 17 3 18 73 19 4 20 72 21 5 22 74 23 75 24 76 25
REMARK SMILES IDX 17 26 18 27 19 28 20 29 21 31 22 32 23 33 69 34 24 35 68 36
REMARK SMILES IDX 25 37 26 38 27 39 62 40 28 41 67 42 61 43 63 44 29 45 66 46
REMARK SMILES IDX 60 47 59 48 30 50 52 51 37 52 51 53 38 54 41 55 50 56 64 57
REMARK SMILES IDX 39 58 40 59 49 61 65 62 42 63 31 64 32 65 36 66 33 67 35 68
REMARK SMILES IDX 34 69 53 70 54 71 58 72 55 73 57 74 56 75 43 76 44 77 48 78
REMARK SMILES IDX 45 79 47 80 46 81
REMARK H PARENT 15 5 7 14 19 30 63 49 41 60
REMARK Flexibility Score: inf
ROOT
ATOM      1  C   UNL A   1      32.995  28.571  24.812  1.00  0.00     0.118 C 
ENDROOT
BRANCH   1   2
ATOM      2  N   UNL A   1      31.915  27.655  25.129  1.00  0.00    -0.352 N 
ATOM      3  C   UNL A   1      31.883  26.292  25.268  1.00  0.00     0.251 C 
ATOM      4  O   UNL A   1      30.828  25.777  25.637  1.00  0.00    -0.269 OA
ATOM      5  H   UNL A   1      31.045  28.093  25.269  1.00  0.00     0.163 HD
BRANCH   3   6
ATOM      6  C   UNL A   1      33.067  25.423  25.032  1.00  0.00     0.039 A 
ATOM      7  C   UNL A   1      35.333  23.858  24.413  1.00  0.00    -0.029 A 
ATOM      8  C   UNL A   1      34.580  24.451  23.391  1.00  0.00     0.006 A 
ATOM      9  C   UNL A   1      34.957  24.081  25.744  1.00  0.00     0.006 A 
ATOM     10  C   UNL A   1      33.456  25.222  23.699  1.00  0.00     0.014 A 
ATOM     11  C   UNL A   1      33.846  24.871  26.050  1.00  0.00     0.014 A 
BRANCH   7  12
ATOM     12  C   UNL A   1      36.585  23.077  24.100  1.00  0.00     0.148 C 
BRANCH  12  13
ATOM     13  N   UNL A   1      36.690  21.985  25.047  1.00  0.00    -0.386 N 
ATOM     14  H   UNL A   1      36.938  22.222  25.970  1.00  0.00     0.160 HD
BRANCH  13  15
ATOM     15  C   UNL A   1      36.479  20.652  24.788  1.00  0.00     0.086 C 
ATOM     16  O   UNL A   1      31.875  17.765  24.983  1.00  0.00    -0.282 OA
ATOM     17  C   UNL A   1      32.945  18.357  24.963  1.00  0.00     0.255 C 
ATOM     18  C   UNL A   1      32.949  19.808  25.306  1.00  0.00     0.060 C 
ATOM     19  C   UNL A   1      34.257  17.765  24.598  1.00  0.00     0.316 C 
ATOM     20  C   UNL A   1      34.073  20.535  25.256  1.00  0.00     0.014 C 
ATOM     21  C   UNL A   1      35.377  18.510  24.545  1.00  0.00     0.099 C 
ATOM     22  C   UNL A   1      35.341  19.934  24.867  1.00  0.00    -0.003 C 
BRANCH  19  23
ATOM     23  N   UNL A   1      34.364  16.354  24.274  1.00  0.00     0.067 N 
ATOM     24  O   UNL A   1      34.085  16.007  23.115  1.00  0.00    -0.258 OA
ATOM     25  O   UNL A   1      34.749  15.570  25.148  1.00  0.00    -0.258 OA
ENDBRANCH  19  23
ENDBRANCH  13  15
ENDBRANCH  12  13
ENDBRANCH   7  12
ENDBRANCH   3   6
ENDBRANCH   1   2
BRANCH   1  26
ATOM     26  C   UNL A   1      34.142  28.449  25.816  1.00  0.00     0.042 C 
BRANCH  26  27
ATOM     27  C   UNL A   1      33.704  28.607  27.269  1.00  0.00     0.118 C 
BRANCH  27  28
ATOM     28  N   UNL A   1      33.634  30.003  27.672  1.00  0.00    -0.352 N 
ATOM     29  C   UNL A   1      34.542  30.774  28.351  1.00  0.00     0.251 C 
ATOM     30  H   UNL A   1      32.803  30.467  27.418  1.00  0.00     0.163 HD
ATOM     31  O   UNL A   1      34.198  31.873  28.778  1.00  0.00    -0.269 OA
BRANCH  29  32
ATOM     32  C   UNL A   1      35.926  30.302  28.583  1.00  0.00     0.039 A 
ATOM     33  C   UNL A   1      36.876  30.497  27.576  1.00  0.00     0.014 A 
ATOM     34  C   UNL A   1      36.279  29.615  29.748  1.00  0.00     0.014 A 
ATOM     35  C   UNL A   1      38.185  30.042  27.752  1.00  0.00     0.010 A 
ATOM     36  C   UNL A   1      37.601  29.218  29.951  1.00  0.00     0.010 A 
ATOM     37  C   UNL A   1      38.563  29.418  28.951  1.00  0.00    -0.014 A 
BRANCH  37  38
ATOM     38  C   UNL A   1      39.959  28.964  29.165  1.00  0.00     0.031 A 
ATOM     39  C   UNL A   1      40.389  27.589  28.736  1.00  0.00     0.074 A 
ATOM     40  C   UNL A   1      40.833  29.775  29.790  1.00  0.00     0.049 A 
ATOM     41  N   UNL A   1      41.561  27.016  28.853  1.00  0.00    -0.248 NA
ATOM     42  C   UNL A   1      39.363  26.739  28.114  1.00  0.00     0.031 C 
ATOM     43  C   UNL A   1      40.534  31.122  30.283  1.00  0.00     0.029 A 
ATOM     44  N   UNL A   1      42.153  29.587  30.112  1.00  0.00    -0.354 N 
ATOM     45  C   UNL A   1      41.407  25.734  28.339  1.00  0.00     0.074 A 
ATOM     46  C   UNL A   1      40.020  25.600  27.950  1.00  0.00     0.031 C 
ATOM     47  C   UNL A   1      41.650  31.653  30.809  1.00  0.00     0.029 A 
ATOM     48  C   UNL A   1      42.729  30.673  30.723  1.00  0.00     0.049 A 
ATOM     49  H   UNL A   1      42.640  28.752  29.925  1.00  0.00     0.167 HD
ATOM     50  C   UNL A   1      42.338  24.761  28.189  1.00  0.00     0.031 A 
ATOM     51  C   UNL A   1      43.987  30.862  31.161  1.00  0.00     0.031 A 
ATOM     52  C   UNL A   1      43.720  24.895  28.568  1.00  0.00     0.049 A 
ATOM     53  C   UNL A   1      44.997  29.764  30.998  1.00  0.00     0.074 A 
ATOM     54  C   UNL A   1      44.754  23.990  28.397  1.00  0.00     0.029 A 
ATOM     55  N   UNL A   1      44.258  26.004  29.202  1.00  0.00    -0.354 N 
ATOM     56  N   UNL A   1      44.854  28.583  30.450  1.00  0.00    -0.248 NA
ATOM     57  C   UNL A   1      46.349  30.034  31.511  1.00  0.00     0.031 C 
ATOM     58  C   UNL A   1      45.910  24.535  28.971  1.00  0.00     0.029 A 
ATOM     59  C   UNL A   1      45.605  25.796  29.454  1.00  0.00     0.049 A 
ATOM     60  H   UNL A   1      43.758  26.818  29.437  1.00  0.00     0.167 HD
ATOM     61  C   UNL A   1      46.100  27.976  30.528  1.00  0.00     0.074 A 
ATOM     62  C   UNL A   1      46.989  28.926  31.166  1.00  0.00     0.031 C 
ATOM     63  C   UNL A   1      46.474  26.744  30.103  1.00  0.00     0.031 A 
BRANCH  50  64
ATOM     64  C   UNL A   1      41.874  23.456  27.603  1.00  0.00    -0.014 A 
ATOM     65  C   UNL A   1      41.304  22.456  28.408  1.00  0.00     0.009 A 
ATOM     66  C   UNL A   1      42.011  23.221  26.226  1.00  0.00     0.009 A 
ATOM     67  C   UNL A   1      40.925  21.231  27.854  1.00  0.00     0.001 A 
ATOM     68  C   UNL A   1      41.606  22.005  25.670  1.00  0.00     0.001 A 
ATOM     69  C   UNL A   1      41.076  21.007  26.487  1.00  0.00     0.000 A 
ENDBRANCH  50  64
BRANCH  51  70
ATOM     70  C   UNL A   1      44.370  32.168  31.755  1.00  0.00    -0.014 A 
ATOM     71  C   UNL A   1      44.259  32.370  33.139  1.00  0.00     0.009 A 
ATOM     72  C   UNL A   1      44.864  33.206  30.953  1.00  0.00     0.009 A 
ATOM     73  C   UNL A   1      44.623  33.592  33.707  1.00  0.00     0.001 A 
ATOM     74  C   UNL A   1      45.249  34.420  31.526  1.00  0.00     0.001 A 
ATOM     75  C   UNL A   1      45.124  34.614  32.902  1.00  0.00     0.000 A 
ENDBRANCH  51  70
BRANCH  63  76
ATOM     76  C   UNL A   1      47.915  26.366  30.298  1.00  0.00    -0.014 A 
ATOM     77  C   UNL A   1      48.356  25.776  31.493  1.00  0.00     0.009 A 
ATOM     78  C   UNL A   1      48.838  26.587  29.264  1.00  0.00     0.009 A 
ATOM     79  C   UNL A   1      49.704  25.446  31.659  1.00  0.00     0.001 A 
ATOM     80  C   UNL A   1      50.177  26.231  29.424  1.00  0.00     0.001 A 
ATOM     81  C   UNL A   1      50.611  25.671  30.624  1.00  0.00     0.000 A 
ENDBRANCH  63  76
ENDBRANCH  37  38
ENDBRANCH  29  32
ENDBRANCH  27  28
ENDBRANCH  26  27
ENDBRANCH   1  26
TORSDOF 14
ENDMDL
MODEL 3
REMARK VINA RESULT:     -11.2      4.778      6.701
REMARK SMILES O=C1C=C/C(=C\NCc2ccc(C(=O)NCCCNC(=O)c3ccc(-c4c5nc(c(-c6ccccc6)c6ccc([nH]6)c(-c6ccccc6)c6nc(c(-c7ccccc7)c7ccc4[nH]7)C=C6)C=C5)cc3)cc2)C=C1[N+](=O)[O-]
REMARK SMILES IDX 16 1 15 2 13 3 14 4 12 6 9 7 10 8 71 9 11 10 70 11 8 12 7 13
REMARK SMILES IDX 6 15 1 16 2 17 3 18 73 19 4 20 72 21 5 22 74 23 75 24 76 25
REMARK SMILES IDX 17 26 18 27 19 28 20 29 21 31 22 32 23 33 69 34 24 35 68 36
REMARK SMILES IDX 25 37 26 38 27 39 62 40 28 41 67 42 61 43 63 44 29 45 66 46
REMARK SMILES IDX 60 47 59 48 30 50 52 51 37 52 51 53 38 54 41 55 50 56 64 57
REMARK SMILES IDX 39 58 40 59 49 61 65 62 42 63 31 64 32 65 36 66 33 67 35 68
REMARK SMILES IDX 34 69 53 70 54 71 58 72 55 73 57 74 56 75 43 76 44 77 48 78
REMARK SMILES IDX 45 79 47 80 46 81
REMARK H PARENT 15 5 7 14 19 30 63 49 41 60
REMARK Flexibility Score: inf
ROOT
ATOM      1  C   UNL A   1      31.638  30.644  26.885  1.00  0.00     0.118 C 
ENDROOT
BRANCH   1   2
ATOM      2  N   UNL A   1      32.893  30.296  27.524  1.00  0.00    -0.352 N 
ATOM      3  C   UNL A   1      33.839  29.349  27.227  1.00  0.00     0.251 C 
ATOM      4  O   UNL A   1      34.870  29.337  27.899  1.00  0.00    -0.269 OA
ATOM      5  H   UNL A   1      33.105  30.840  28.316  1.00  0.00     0.163 HD
BRANCH   3   6
ATOM      6  C   UNL A   1      33.690  28.373  26.115  1.00  0.00     0.039 A 
ATOM      7  C   UNL A   1      33.264  26.438  24.104  1.00  0.00    -0.029 A 
ATOM      8  C   UNL A   1      32.833  26.204  25.416  1.00  0.00     0.006 A 
ATOM      9  C   UNL A   1      33.881  27.660  23.805  1.00  0.00     0.006 A 
ATOM     10  C   UNL A   1      33.049  27.160  26.411  1.00  0.00     0.014 A 
ATOM     11  C   UNL A   1      34.074  28.625  24.797  1.00  0.00     0.014 A 
BRANCH   7  12
ATOM     12  C   UNL A   1      32.982  25.445  23.006  1.00  0.00     0.148 C 
BRANCH  12  13
ATOM     13  N   UNL A   1      31.783  25.864  22.306  1.00  0.00    -0.386 N 
ATOM     14  H   UNL A   1      31.180  25.152  21.995  1.00  0.00     0.160 HD
BRANCH  13  15
ATOM     15  C   UNL A   1      31.403  27.156  22.034  1.00  0.00     0.086 C 
ATOM     16  O   UNL A   1      26.903  29.833  23.502  1.00  0.00    -0.282 OA
ATOM     17  C   UNL A   1      27.914  29.266  23.110  1.00  0.00     0.255 C 
ATOM     18  C   UNL A   1      28.116  27.842  23.505  1.00  0.00     0.060 C 
ATOM     19  C   UNL A   1      28.987  29.879  22.287  1.00  0.00     0.316 C 
ATOM     20  C   UNL A   1      29.222  27.172  23.159  1.00  0.00     0.014 C 
ATOM     21  C   UNL A   1      30.097  29.194  21.952  1.00  0.00     0.099 C 
ATOM     22  C   UNL A   1      30.272  27.806  22.375  1.00  0.00    -0.003 C 
BRANCH  19  23
ATOM     23  N   UNL A   1      28.872  31.251  21.827  1.00  0.00     0.067 N 
ATOM     24  O   UNL A   1      28.468  31.436  20.668  1.00  0.00    -0.258 OA
ATOM     25  O   UNL A   1      29.152  32.166  22.608  1.00  0.00    -0.258 OA
ENDBRANCH  19  23
ENDBRANCH  13  15
ENDBRANCH  12  13
ENDBRANCH   7  12
ENDBRANCH   3   6
ENDBRANCH   1   2
BRANCH   1  26
ATOM     26  C   UNL A   1      31.424  32.158  26.865  1.00  0.00     0.042 C 
BRANCH  26  27
ATOM     27  C   UNL A   1      32.723  32.960  26.888  1.00  0.00     0.118 C 
BRANCH  27  28
ATOM     28  N   UNL A   1      32.587  34.203  27.632  1.00  0.00    -0.352 N 
ATOM     29  C   UNL A   1      33.208  34.618  28.782  1.00  0.00     0.251 C 
ATOM     30  H   UNL A   1      31.947  34.847  27.250  1.00  0.00     0.163 HD
ATOM     31  O   UNL A   1      32.792  35.616  29.363  1.00  0.00    -0.269 OA
BRANCH  29  32
ATOM     32  C   UNL A   1      34.364  33.879  29.337  1.00  0.00     0.039 A 
ATOM     33  C   UNL A   1      35.652  34.273  28.960  1.00  0.00     0.014 A 
ATOM     34  C   UNL A   1      34.193  32.768  30.168  1.00  0.00     0.014 A 
ATOM     35  C   UNL A   1      36.765  33.584  29.445  1.00  0.00     0.010 A 
ATOM     36  C   UNL A   1      35.306  32.120  30.704  1.00  0.00     0.010 A 
ATOM     37  C   UNL A   1      36.601  32.514  30.340  1.00  0.00    -0.014 A 
BRANCH  37  38
ATOM     38  C   UNL A   1      37.776  31.796  30.892  1.00  0.00     0.031 A 
ATOM     39  C   UNL A   1      38.287  32.114  32.269  1.00  0.00     0.074 A 
ATOM     40  C   UNL A   1      38.415  30.886  30.133  1.00  0.00     0.049 A 
ATOM     41  N   UNL A   1      39.306  31.599  32.911  1.00  0.00    -0.248 NA
ATOM     42  C   UNL A   1      37.572  33.160  33.015  1.00  0.00     0.031 C 
ATOM     43  C   UNL A   1      38.039  30.508  28.768  1.00  0.00     0.029 A 
ATOM     44  N   UNL A   1      39.513  30.110  30.404  1.00  0.00    -0.354 N 
ATOM     45  C   UNL A   1      39.367  32.273  34.125  1.00  0.00     0.074 A 
ATOM     46  C   UNL A   1      38.310  33.261  34.111  1.00  0.00     0.031 C 
ATOM     47  C   UNL A   1      38.868  29.544  28.338  1.00  0.00     0.029 A 
ATOM     48  C   UNL A   1      39.852  29.263  29.378  1.00  0.00     0.049 A 
ATOM     49  H   UNL A   1      40.010  30.157  31.252  1.00  0.00     0.167 HD
ATOM     50  C   UNL A   1      40.214  32.078  35.164  1.00  0.00     0.031 A 
ATOM     51  C   UNL A   1      40.843  28.357  29.287  1.00  0.00     0.031 A 
ATOM     52  C   UNL A   1      41.261  31.090  35.183  1.00  0.00     0.049 A 
ATOM     53  C   UNL A   1      41.779  28.168  30.445  1.00  0.00     0.074 A 
ATOM     54  C   UNL A   1      42.130  30.772  36.213  1.00  0.00     0.029 A 
ATOM     55  N   UNL A   1      41.585  30.266  34.117  1.00  0.00    -0.354 N 
ATOM     56  N   UNL A   1      41.783  28.766  31.611  1.00  0.00    -0.248 NA
ATOM     57  C   UNL A   1      42.846  27.171  30.272  1.00  0.00     0.031 C 
ATOM     58  C   UNL A   1      43.011  29.785  35.752  1.00  0.00     0.029 A 
ATOM     59  C   UNL A   1      42.658  29.457  34.453  1.00  0.00     0.049 A 
ATOM     60  H   UNL A   1      41.120  30.256  33.249  1.00  0.00     0.167 HD
ATOM     61  C   UNL A   1      42.833  28.202  32.321  1.00  0.00     0.074 A 
ATOM     62  C   UNL A   1      43.436  27.206  31.459  1.00  0.00     0.031 C 
ATOM     63  C   UNL A   1      43.257  28.481  33.579  1.00  0.00     0.031 A 
BRANCH  50  64
ATOM     64  C   UNL A   1      40.047  32.974  36.360  1.00  0.00    -0.014 A 
ATOM     65  C   UNL A   1      39.154  32.651  37.395  1.00  0.00     0.009 A 
ATOM     66  C   UNL A   1      40.793  34.159  36.454  1.00  0.00     0.009 A 
ATOM     67  C   UNL A   1      38.976  33.520  38.474  1.00  0.00     0.001 A 
ATOM     68  C   UNL A   1      40.633  35.013  37.548  1.00  0.00     0.001 A 
ATOM     69  C   UNL A   1      39.716  34.699  38.549  1.00  0.00     0.000 A 
ENDBRANCH  50  64
BRANCH  51  70
ATOM     70  C   UNL A   1      40.966  27.523  28.065  1.00  0.00    -0.014 A 
ATOM     71  C   UNL A   1      40.303  26.289  27.986  1.00  0.00     0.009 A 
ATOM     72  C   UNL A   1      41.726  27.959  26.970  1.00  0.00     0.009 A 
ATOM     73  C   UNL A   1      40.408  25.502  26.838  1.00  0.00     0.001 A 
ATOM     74  C   UNL A   1      41.811  27.181  25.814  1.00  0.00     0.001 A 
ATOM     75  C   UNL A   1      41.157  25.951  25.750  1.00  0.00     0.000 A 
ENDBRANCH  51  70
BRANCH  63  76
ATOM     76  C   UNL A   1      44.415  27.679  34.100  1.00  0.00    -0.014 A 
ATOM     77  C   UNL A   1      44.229  26.394  34.631  1.00  0.00     0.009 A 
ATOM     78  C   UNL A   1      45.713  28.212  34.041  1.00  0.00     0.009 A 
ATOM     79  C   UNL A   1      45.319  25.671  35.125  1.00  0.00     0.001 A 
ATOM     80  C   UNL A   1      46.801  27.477  34.510  1.00  0.00     0.001 A 
ATOM     81  C   UNL A   1      46.603  26.212  35.059  1.00  0.00     0.000 A 
ENDBRANCH  63  76
ENDBRANCH  37  38
ENDBRANCH  29  32
ENDBRANCH  27  28
ENDBRANCH  26  27
ENDBRANCH   1  26
TORSDOF 14
ENDMDL
