MODEL 1
REMARK VINA RESULT:      -9.6      0.000      0.000
REMARK SMILES CC[NH2+]C[C@@H](C)C(=O)N1CCO[C@@H](CC(=O)NCCCNC(=O)c2ccc(-c3c4nc(c(-c5ccccc5)c5ccc([nH]5)c(-c5ccccc5)c5nc(c(-c6ccccc6)c6ccc3[nH]6)C=C5)C=C4)cc2)C1
REMARK SMILES IDX 15 1 16 2 17 3 14 5 13 6 9 7 10 8 72 9 11 10 12 11 7 12 8 13
REMARK SMILES IDX 5 14 6 15 4 16 3 17 2 20 1 21 18 22 19 23 20 24 21 25 22 26
REMARK SMILES IDX 23 28 24 29 25 30 71 31 26 32 70 33 27 34 28 35 29 36 64 37
REMARK SMILES IDX 30 38 69 39 63 40 65 41 31 42 68 43 62 44 61 45 32 47 54 48
REMARK SMILES IDX 39 49 53 50 40 51 43 52 52 53 66 54 41 55 42 56 51 58 67 59
REMARK SMILES IDX 44 60 33 61 34 62 38 63 35 64 37 65 36 66 55 67 56 68 60 69
REMARK SMILES IDX 57 70 59 71 58 72 45 73 46 74 50 75 47 76 49 77 48 78
REMARK H PARENT 17 4 3 18 3 19 21 27 65 46 43 57
REMARK Flexibility Score: inf
ROOT
ATOM      1  C   UNL A   1      31.410  28.836  24.140  1.00  0.00     0.222 C 
ATOM      2  O   UNL A   1      30.657  29.603  23.536  1.00  0.00    -0.275 OA
ATOM      3  N   UNL A   1      30.908  28.166  25.217  1.00  0.00    -0.356 N 
ATOM      4  H   UNL A   1      29.956  28.340  25.395  1.00  0.00     0.163 HD
ENDROOT
BRANCH   1   5
ATOM      5  C   UNL A   1      32.858  28.694  23.730  1.00  0.00     0.133 C 
BRANCH   5   6
ATOM      6  C   UNL A   1      33.070  27.474  22.832  1.00  0.00     0.147 C 
ATOM      7  N   UNL A   1      33.870  25.107  22.890  1.00  0.00    -0.337 N 
ATOM      8  C   UNL A   1      32.569  24.683  22.383  1.00  0.00     0.148 C 
ATOM      9  C   UNL A   1      33.813  26.373  23.595  1.00  0.00     0.152 C 
ATOM     10  C   UNL A   1      31.896  25.814  21.602  1.00  0.00     0.182 C 
ATOM     11  O   UNL A   1      31.773  26.997  22.412  1.00  0.00    -0.374 OA
BRANCH   7  12
ATOM     12  C   UNL A   1      34.723  24.167  23.458  1.00  0.00     0.231 C 
ATOM     13  O   UNL A   1      35.385  23.390  22.771  1.00  0.00    -0.274 OA
BRANCH  12  14
ATOM     14  C   UNL A   1      34.703  24.060  24.980  1.00  0.00     0.130 C 
ATOM     15  C   UNL A   1      36.120  24.014  25.554  1.00  0.00     0.024 C 
BRANCH  14  16
ATOM     16  C   UNL A   1      33.808  22.904  25.435  1.00  0.00     0.273 C 
BRANCH  16  17
ATOM     17  N   UNL A   1      34.501  21.708  25.927  1.00  0.00    -0.346 N 
ATOM     18  H   UNL A   1      35.489  21.932  26.048  1.00  0.00     0.346 HD
ATOM     19  H   UNL A   1      34.058  21.441  26.806  1.00  0.00     0.346 HD
BRANCH  17  20
ATOM     20  C   UNL A   1      34.392  20.566  25.022  1.00  0.00     0.257 C 
ATOM     21  C   UNL A   1      33.127  20.708  24.191  1.00  0.00     0.071 C 
ENDBRANCH  17  20
ENDBRANCH  16  17
ENDBRANCH  14  16
ENDBRANCH  12  14
ENDBRANCH   7  12
ENDBRANCH   5   6
ENDBRANCH   1   5
BRANCH   3  22
ATOM     22  C   UNL A   1      31.532  27.235  26.154  1.00  0.00     0.117 C 
BRANCH  22  23
ATOM     23  C   UNL A   1      32.023  27.922  27.432  1.00  0.00     0.042 C 
BRANCH  23  24
ATOM     24  C   UNL A   1      33.448  28.463  27.357  1.00  0.00     0.118 C 
BRANCH  24  25
ATOM     25  N   UNL A   1      33.495  29.899  27.573  1.00  0.00    -0.352 N 
ATOM     26  C   UNL A   1      34.487  30.687  28.107  1.00  0.00     0.251 C 
ATOM     27  H   UNL A   1      32.687  30.385  27.293  1.00  0.00     0.163 HD
ATOM     28  O   UNL A   1      34.217  31.844  28.421  1.00  0.00    -0.269 OA
BRANCH  26  29
ATOM     29  C   UNL A   1      35.869  30.184  28.320  1.00  0.00     0.039 A 
ATOM     30  C   UNL A   1      36.196  29.648  29.571  1.00  0.00     0.014 A 
ATOM     31  C   UNL A   1      36.870  30.319  27.354  1.00  0.00     0.014 A 
ATOM     32  C   UNL A   1      37.499  29.210  29.837  1.00  0.00     0.010 A 
ATOM     33  C   UNL A   1      38.157  29.826  27.597  1.00  0.00     0.010 A 
ATOM     34  C   UNL A   1      38.488  29.272  28.844  1.00  0.00    -0.014 A 
BRANCH  34  35
ATOM     35  C   UNL A   1      39.871  28.781  29.096  1.00  0.00     0.031 A 
ATOM     36  C   UNL A   1      40.902  29.684  29.722  1.00  0.00     0.074 A 
ATOM     37  C   UNL A   1      40.221  27.534  28.725  1.00  0.00     0.049 A 
ATOM     38  N   UNL A   1      42.177  29.462  29.929  1.00  0.00    -0.248 NA
ATOM     39  C   UNL A   1      40.445  31.011  30.159  1.00  0.00     0.031 C 
ATOM     40  C   UNL A   1      39.335  26.553  28.097  1.00  0.00     0.029 A 
ATOM     41  N   UNL A   1      41.428  26.881  28.818  1.00  0.00    -0.354 N 
ATOM     42  C   UNL A   1      42.677  30.627  30.500  1.00  0.00     0.074 A 
ATOM     43  C   UNL A   1      41.575  31.562  30.581  1.00  0.00     0.031 C 
ATOM     44  C   UNL A   1      40.021  25.420  27.876  1.00  0.00     0.029 A 
ATOM     45  C   UNL A   1      41.404  25.606  28.308  1.00  0.00     0.049 A 
ATOM     46  H   UNL A   1      42.232  27.289  29.213  1.00  0.00     0.167 HD
ATOM     47  C   UNL A   1      43.934  30.893  30.929  1.00  0.00     0.031 A 
ATOM     48  C   UNL A   1      42.386  24.693  28.181  1.00  0.00     0.031 A 
ATOM     49  C   UNL A   1      45.035  29.968  30.871  1.00  0.00     0.049 A 
ATOM     50  C   UNL A   1      43.778  25.025  28.638  1.00  0.00     0.074 A 
ATOM     51  C   UNL A   1      46.334  30.145  31.318  1.00  0.00     0.029 A 
ATOM     52  N   UNL A   1      44.966  28.692  30.339  1.00  0.00    -0.354 N 
ATOM     53  N   UNL A   1      44.225  26.125  29.192  1.00  0.00    -0.248 NA
ATOM     54  C   UNL A   1      44.801  23.985  28.448  1.00  0.00     0.031 C 
ATOM     55  C   UNL A   1      47.062  28.987  31.023  1.00  0.00     0.029 A 
ATOM     56  C   UNL A   1      46.204  28.077  30.429  1.00  0.00     0.049 A 
ATOM     57  H   UNL A   1      44.158  28.283  29.953  1.00  0.00     0.167 HD
ATOM     58  C   UNL A   1      45.576  25.905  29.427  1.00  0.00     0.074 A 
ATOM     59  C   UNL A   1      45.872  24.563  28.974  1.00  0.00     0.031 C 
ATOM     60  C   UNL A   1      46.489  26.744  29.970  1.00  0.00     0.031 A 
BRANCH  47  61
ATOM     61  C   UNL A   1      44.195  32.257  31.503  1.00  0.00    -0.014 A 
ATOM     62  C   UNL A   1      44.061  32.499  32.878  1.00  0.00     0.009 A 
ATOM     63  C   UNL A   1      44.636  33.294  30.667  1.00  0.00     0.009 A 
ATOM     64  C   UNL A   1      44.339  33.763  33.402  1.00  0.00     0.001 A 
ATOM     65  C   UNL A   1      44.932  34.552  31.196  1.00  0.00     0.001 A 
ATOM     66  C   UNL A   1      44.779  34.786  32.561  1.00  0.00     0.000 A 
ENDBRANCH  47  61
BRANCH  48  67
ATOM     67  C   UNL A   1      42.100  23.375  27.562  1.00  0.00    -0.014 A 
ATOM     68  C   UNL A   1      41.519  22.342  28.311  1.00  0.00     0.009 A 
ATOM     69  C   UNL A   1      42.431  23.139  26.219  1.00  0.00     0.009 A 
ATOM     70  C   UNL A   1      41.295  21.091  27.730  1.00  0.00     0.001 A 
ATOM     71  C   UNL A   1      42.181  21.898  25.634  1.00  0.00     0.001 A 
ATOM     72  C   UNL A   1      41.622  20.872  26.392  1.00  0.00     0.000 A 
ENDBRANCH  48  67
BRANCH  60  73
ATOM     73  C   UNL A   1      47.890  26.227  30.121  1.00  0.00    -0.014 A 
ATOM     74  C   UNL A   1      48.352  25.739  31.354  1.00  0.00     0.009 A 
ATOM     75  C   UNL A   1      48.748  26.201  29.010  1.00  0.00     0.009 A 
ATOM     76  C   UNL A   1      49.657  25.261  31.477  1.00  0.00     0.001 A 
ATOM     77  C   UNL A   1      50.046  25.703  29.133  1.00  0.00     0.001 A 
ATOM     78  C   UNL A   1      50.501  25.240  30.367  1.00  0.00     0.000 A 
ENDBRANCH  60  73
ENDBRANCH  34  35
ENDBRANCH  26  29
ENDBRANCH  24  25
ENDBRANCH  23  24
ENDBRANCH  22  23
ENDBRANCH   3  22
TORSDOF 16
ENDMDL
MODEL 2
REMARK VINA RESULT:      -9.6      2.001      7.714
REMARK SMILES CC[NH2+]C[C@@H](C)C(=O)N1CCO[C@@H](CC(=O)NCCCNC(=O)c2ccc(-c3c4nc(c(-c5ccccc5)c5ccc([nH]5)c(-c5ccccc5)c5nc(c(-c6ccccc6)c6ccc3[nH]6)C=C5)C=C4)cc2)C1
REMARK SMILES IDX 15 1 16 2 17 3 14 5 13 6 9 7 10 8 72 9 11 10 12 11 7 12 8 13
REMARK SMILES IDX 5 14 6 15 4 16 3 17 2 20 1 21 18 22 19 23 20 24 21 25 22 26
REMARK SMILES IDX 23 28 24 29 25 30 71 31 26 32 70 33 27 34 28 35 29 36 64 37
REMARK SMILES IDX 30 38 69 39 63 40 65 41 31 42 68 43 62 44 61 45 32 47 54 48
REMARK SMILES IDX 39 49 53 50 40 51 43 52 52 53 66 54 41 55 42 56 51 58 67 59
REMARK SMILES IDX 44 60 33 61 34 62 38 63 35 64 37 65 36 66 55 67 56 68 60 69
REMARK SMILES IDX 57 70 59 71 58 72 45 73 46 74 50 75 47 76 49 77 48 78
REMARK H PARENT 17 4 3 18 3 19 21 27 65 46 43 57
REMARK Flexibility Score: inf
ROOT
ATOM      1  C   UNL A   1      33.767  18.943  24.937  1.00  0.00     0.222 C 
ATOM      2  O   UNL A   1      33.136  17.979  24.500  1.00  0.00    -0.275 OA
ATOM      3  N   UNL A   1      35.093  19.031  24.632  1.00  0.00    -0.356 N 
ATOM      4  H   UNL A   1      35.422  18.311  24.047  1.00  0.00     0.163 HD
ENDROOT
BRANCH   1   5
ATOM      5  C   UNL A   1      33.098  19.960  25.834  1.00  0.00     0.133 C 
BRANCH   5   6
ATOM      6  C   UNL A   1      32.298  20.982  25.024  1.00  0.00     0.147 C 
ATOM      7  N   UNL A   1      31.636  23.392  25.008  1.00  0.00    -0.337 N 
ATOM      8  C   UNL A   1      32.265  23.529  23.699  1.00  0.00     0.148 C 
ATOM      9  C   UNL A   1      32.193  22.305  25.790  1.00  0.00     0.152 C 
ATOM     10  C   UNL A   1      32.308  22.182  22.973  1.00  0.00     0.182 C 
ATOM     11  O   UNL A   1      32.980  21.189  23.768  1.00  0.00    -0.374 OA
BRANCH   7  12
ATOM     12  C   UNL A   1      31.326  24.532  25.741  1.00  0.00     0.231 C 
ATOM     13  O   UNL A   1      30.472  24.524  26.627  1.00  0.00    -0.274 OA
BRANCH  12  14
ATOM     14  C   UNL A   1      32.008  25.826  25.308  1.00  0.00     0.130 C 
ATOM     15  C   UNL A   1      33.483  25.842  25.714  1.00  0.00     0.024 C 
BRANCH  14  16
ATOM     16  C   UNL A   1      31.217  27.047  25.787  1.00  0.00     0.273 C 
BRANCH  16  17
ATOM     17  N   UNL A   1      31.245  27.308  27.230  1.00  0.00    -0.346 N 
ATOM     18  H   UNL A   1      30.309  27.156  27.606  1.00  0.00     0.346 HD
ATOM     19  H   UNL A   1      31.931  26.673  27.640  1.00  0.00     0.346 HD
BRANCH  17  20
ATOM     20  C   UNL A   1      31.663  28.668  27.561  1.00  0.00     0.257 C 
ATOM     21  C   UNL A   1      31.995  29.414  26.279  1.00  0.00     0.071 C 
ENDBRANCH  17  20
ENDBRANCH  16  17
ENDBRANCH  14  16
ENDBRANCH  12  14
ENDBRANCH   7  12
ENDBRANCH   5   6
ENDBRANCH   1   5
BRANCH   3  22
ATOM     22  C   UNL A   1      36.113  20.003  25.017  1.00  0.00     0.117 C 
BRANCH  22  23
ATOM     23  C   UNL A   1      37.534  19.528  24.698  1.00  0.00     0.042 C 
BRANCH  23  24
ATOM     24  C   UNL A   1      38.621  20.138  25.579  1.00  0.00     0.118 C 
BRANCH  24  25
ATOM     25  N   UNL A   1      39.768  19.256  25.713  1.00  0.00    -0.352 N 
ATOM     26  C   UNL A   1      41.078  19.540  26.019  1.00  0.00     0.251 C 
ATOM     27  H   UNL A   1      39.577  18.303  25.561  1.00  0.00     0.163 HD
ATOM     28  O   UNL A   1      41.928  18.671  25.838  1.00  0.00    -0.269 OA
BRANCH  26  29
ATOM     29  C   UNL A   1      41.498  20.860  26.555  1.00  0.00     0.039 A 
ATOM     30  C   UNL A   1      41.410  21.077  27.935  1.00  0.00     0.014 A 
ATOM     31  C   UNL A   1      41.880  21.917  25.723  1.00  0.00     0.014 A 
ATOM     32  C   UNL A   1      41.744  22.322  28.481  1.00  0.00     0.010 A 
ATOM     33  C   UNL A   1      42.272  23.142  26.273  1.00  0.00     0.010 A 
ATOM     34  C   UNL A   1      42.202  23.362  27.658  1.00  0.00    -0.014 A 
BRANCH  34  35
ATOM     35  C   UNL A   1      42.593  24.682  28.223  1.00  0.00     0.031 A 
ATOM     36  C   UNL A   1      41.563  25.762  28.432  1.00  0.00     0.074 A 
ATOM     37  C   UNL A   1      43.884  24.935  28.513  1.00  0.00     0.049 A 
ATOM     38  N   UNL A   1      41.733  27.002  28.821  1.00  0.00    -0.248 NA
ATOM     39  C   UNL A   1      40.163  25.407  28.152  1.00  0.00     0.031 C 
ATOM     40  C   UNL A   1      44.993  23.993  28.352  1.00  0.00     0.029 A 
ATOM     41  N   UNL A   1      44.483  26.073  29.000  1.00  0.00    -0.354 N 
ATOM     42  C   UNL A   1      40.468  27.578  28.815  1.00  0.00     0.074 A 
ATOM     43  C   UNL A   1      39.545  26.561  28.356  1.00  0.00     0.031 C 
ATOM     44  C   UNL A   1      46.132  24.584  28.747  1.00  0.00     0.029 A 
ATOM     45  C   UNL A   1      45.843  25.957  29.151  1.00  0.00     0.049 A 
ATOM     46  H   UNL A   1      43.984  26.893  29.220  1.00  0.00     0.167 HD
ATOM     47  C   UNL A   1      40.103  28.834  29.169  1.00  0.00     0.031 A 
ATOM     48  C   UNL A   1      46.762  26.858  29.550  1.00  0.00     0.031 A 
ATOM     49  C   UNL A   1      41.006  29.849  29.642  1.00  0.00     0.049 A 
ATOM     50  C   UNL A   1      46.334  28.253  29.908  1.00  0.00     0.074 A 
ATOM     51  C   UNL A   1      40.713  31.138  30.057  1.00  0.00     0.029 A 
ATOM     52  N   UNL A   1      42.375  29.689  29.770  1.00  0.00    -0.354 N 
ATOM     53  N   UNL A   1      45.131  28.772  29.912  1.00  0.00    -0.248 NA
ATOM     54  C   UNL A   1      47.396  29.186  30.314  1.00  0.00     0.031 C 
ATOM     55  C   UNL A   1      41.912  31.771  30.403  1.00  0.00     0.029 A 
ATOM     56  C   UNL A   1      42.944  30.863  30.240  1.00  0.00     0.049 A 
ATOM     57  H   UNL A   1      42.871  28.866  29.559  1.00  0.00     0.167 HD
ATOM     58  C   UNL A   1      45.290  30.086  30.332  1.00  0.00     0.074 A 
ATOM     59  C   UNL A   1      46.701  30.281  30.591  1.00  0.00     0.031 C 
ATOM     60  C   UNL A   1      44.348  31.046  30.488  1.00  0.00     0.031 A 
BRANCH  47  61
ATOM     61  C   UNL A   1      38.648  29.191  29.051  1.00  0.00    -0.014 A 
ATOM     62  C   UNL A   1      37.783  29.064  30.148  1.00  0.00     0.009 A 
ATOM     63  C   UNL A   1      38.151  29.713  27.847  1.00  0.00     0.009 A 
ATOM     64  C   UNL A   1      36.441  29.431  30.034  1.00  0.00     0.001 A 
ATOM     65  C   UNL A   1      36.813  30.098  27.741  1.00  0.00     0.001 A 
ATOM     66  C   UNL A   1      35.959  29.952  28.832  1.00  0.00     0.000 A 
ENDBRANCH  47  61
BRANCH  48  67
ATOM     67  C   UNL A   1      48.197  26.482  29.603  1.00  0.00    -0.014 A 
ATOM     68  C   UNL A   1      49.017  26.626  28.476  1.00  0.00     0.009 A 
ATOM     69  C   UNL A   1      48.744  25.954  30.782  1.00  0.00     0.009 A 
ATOM     70  C   UNL A   1      50.356  26.226  28.524  1.00  0.00     0.001 A 
ATOM     71  C   UNL A   1      50.087  25.582  30.836  1.00  0.00     0.001 A 
ATOM     72  C   UNL A   1      50.890  25.710  29.704  1.00  0.00     0.000 A 
ENDBRANCH  48  67
BRANCH  60  73
ATOM     73  C   UNL A   1      44.812  32.387  30.977  1.00  0.00    -0.014 A 
ATOM     74  C   UNL A   1      44.855  32.680  32.350  1.00  0.00     0.009 A 
ATOM     75  C   UNL A   1      45.237  33.358  30.058  1.00  0.00     0.009 A 
ATOM     76  C   UNL A   1      45.290  33.932  32.789  1.00  0.00     0.001 A 
ATOM     77  C   UNL A   1      45.690  34.601  30.502  1.00  0.00     0.001 A 
ATOM     78  C   UNL A   1      45.709  34.889  31.866  1.00  0.00     0.000 A 
ENDBRANCH  60  73
ENDBRANCH  34  35
ENDBRANCH  26  29
ENDBRANCH  24  25
ENDBRANCH  23  24
ENDBRANCH  22  23
ENDBRANCH   3  22
TORSDOF 16
ENDMDL
MODEL 3
REMARK VINA RESULT:      -9.5      1.878      7.606
REMARK SMILES CC[NH2+]C[C@@H](C)C(=O)N1CCO[C@@H](CC(=O)NCCCNC(=O)c2ccc(-c3c4nc(c(-c5ccccc5)c5ccc([nH]5)c(-c5ccccc5)c5nc(c(-c6ccccc6)c6ccc3[nH]6)C=C5)C=C4)cc2)C1
REMARK SMILES IDX 15 1 16 2 17 3 14 5 13 6 9 7 10 8 72 9 11 10 12 11 7 12 8 13
REMARK SMILES IDX 5 14 6 15 4 16 3 17 2 20 1 21 18 22 19 23 20 24 21 25 22 26
REMARK SMILES IDX 23 28 24 29 25 30 71 31 26 32 70 33 27 34 28 35 29 36 64 37
REMARK SMILES IDX 30 38 69 39 63 40 65 41 31 42 68 43 62 44 61 45 32 47 54 48
REMARK SMILES IDX 39 49 53 50 40 51 43 52 52 53 66 54 41 55 42 56 51 58 67 59
REMARK SMILES IDX 44 60 33 61 34 62 38 63 35 64 37 65 36 66 55 67 56 68 60 69
REMARK SMILES IDX 57 70 59 71 58 72 45 73 46 74 50 75 47 76 49 77 48 78
REMARK H PARENT 17 4 3 18 3 19 21 27 65 46 43 57
REMARK Flexibility Score: inf
ROOT
ATOM      1  C   UNL A   1      35.705  22.771  25.432  1.00  0.00     0.222 C 
ATOM      2  O   UNL A   1      35.846  23.898  24.952  1.00  0.00    -0.275 OA
ATOM      3  N   UNL A   1      36.211  21.713  24.738  1.00  0.00    -0.356 N 
ATOM      4  H   UNL A   1      36.684  21.959  23.911  1.00  0.00     0.163 HD
ENDROOT
BRANCH   1   5
ATOM      5  C   UNL A   1      34.939  22.573  26.721  1.00  0.00     0.133 C 
BRANCH   5   6
ATOM      6  C   UNL A   1      33.430  22.523  26.475  1.00  0.00     0.147 C 
ATOM      7  N   UNL A   1      31.466  23.995  26.000  1.00  0.00    -0.337 N 
ATOM      8  C   UNL A   1      31.229  23.238  24.775  1.00  0.00     0.148 C 
ATOM      9  C   UNL A   1      32.848  23.940  26.437  1.00  0.00     0.152 C 
ATOM     10  C   UNL A   1      31.803  21.823  24.891  1.00  0.00     0.182 C 
ATOM     11  O   UNL A   1      33.204  21.861  25.212  1.00  0.00    -0.374 OA
BRANCH   7  12
ATOM     12  C   UNL A   1      30.855  25.232  26.169  1.00  0.00     0.231 C 
ATOM     13  O   UNL A   1      29.669  25.335  26.480  1.00  0.00    -0.274 OA
BRANCH  12  14
ATOM     14  C   UNL A   1      31.695  26.459  25.827  1.00  0.00     0.130 C 
ATOM     15  C   UNL A   1      31.502  27.572  26.859  1.00  0.00     0.024 C 
BRANCH  14  16
ATOM     16  C   UNL A   1      31.453  26.901  24.381  1.00  0.00     0.273 C 
BRANCH  16  17
ATOM     17  N   UNL A   1      31.889  28.260  24.042  1.00  0.00    -0.346 N 
ATOM     18  H   UNL A   1      32.207  28.722  24.894  1.00  0.00     0.346 HD
ATOM     19  H   UNL A   1      32.635  28.175  23.350  1.00  0.00     0.346 HD
BRANCH  17  20
ATOM     20  C   UNL A   1      30.833  29.071  23.441  1.00  0.00     0.257 C 
ATOM     21  C   UNL A   1      29.582  28.221  23.281  1.00  0.00     0.071 C 
ENDBRANCH  17  20
ENDBRANCH  16  17
ENDBRANCH  14  16
ENDBRANCH  12  14
ENDBRANCH   7  12
ENDBRANCH   5   6
ENDBRANCH   1   5
BRANCH   3  22
ATOM     22  C   UNL A   1      36.179  20.277  25.004  1.00  0.00     0.117 C 
BRANCH  22  23
ATOM     23  C   UNL A   1      37.541  19.605  24.793  1.00  0.00     0.042 C 
BRANCH  23  24
ATOM     24  C   UNL A   1      38.702  20.283  25.516  1.00  0.00     0.118 C 
BRANCH  24  25
ATOM     25  N   UNL A   1      39.817  19.374  25.720  1.00  0.00    -0.352 N 
ATOM     26  C   UNL A   1      41.120  19.628  26.076  1.00  0.00     0.251 C 
ATOM     27  H   UNL A   1      39.605  18.423  25.582  1.00  0.00     0.163 HD
ATOM     28  O   UNL A   1      41.952  18.732  25.953  1.00  0.00    -0.269 OA
BRANCH  26  29
ATOM     29  C   UNL A   1      41.554  20.950  26.598  1.00  0.00     0.039 A 
ATOM     30  C   UNL A   1      41.405  21.206  27.967  1.00  0.00     0.014 A 
ATOM     31  C   UNL A   1      42.009  21.972  25.761  1.00  0.00     0.014 A 
ATOM     32  C   UNL A   1      41.750  22.455  28.497  1.00  0.00     0.010 A 
ATOM     33  C   UNL A   1      42.412  23.199  26.298  1.00  0.00     0.010 A 
ATOM     34  C   UNL A   1      42.280  23.458  27.671  1.00  0.00    -0.014 A 
BRANCH  34  35
ATOM     35  C   UNL A   1      42.683  24.781  28.222  1.00  0.00     0.031 A 
ATOM     36  C   UNL A   1      41.660  25.865  28.439  1.00  0.00     0.074 A 
ATOM     37  C   UNL A   1      43.980  25.032  28.490  1.00  0.00     0.049 A 
ATOM     38  N   UNL A   1      41.840  27.107  28.818  1.00  0.00    -0.248 NA
ATOM     39  C   UNL A   1      40.255  25.512  28.184  1.00  0.00     0.031 C 
ATOM     40  C   UNL A   1      45.083  24.085  28.317  1.00  0.00     0.029 A 
ATOM     41  N   UNL A   1      44.590  26.171  28.960  1.00  0.00    -0.354 N 
ATOM     42  C   UNL A   1      40.577  27.687  28.827  1.00  0.00     0.074 A 
ATOM     43  C   UNL A   1      39.643  26.670  28.390  1.00  0.00     0.031 C 
ATOM     44  C   UNL A   1      46.230  24.676  28.691  1.00  0.00     0.029 A 
ATOM     45  C   UNL A   1      45.952  26.053  29.090  1.00  0.00     0.049 A 
ATOM     46  H   UNL A   1      44.097  26.994  29.182  1.00  0.00     0.167 HD
ATOM     47  C   UNL A   1      40.221  28.947  29.179  1.00  0.00     0.031 A 
ATOM     48  C   UNL A   1      46.879  26.954  29.468  1.00  0.00     0.031 A 
ATOM     49  C   UNL A   1      41.134  29.962  29.631  1.00  0.00     0.049 A 
ATOM     50  C   UNL A   1      46.461  28.352  29.824  1.00  0.00     0.074 A 
ATOM     51  C   UNL A   1      40.852  31.255  30.042  1.00  0.00     0.029 A 
ATOM     52  N   UNL A   1      42.505  29.799  29.739  1.00  0.00    -0.354 N 
ATOM     53  N   UNL A   1      45.260  28.875  29.843  1.00  0.00    -0.248 NA
ATOM     54  C   UNL A   1      47.533  29.284  30.207  1.00  0.00     0.031 C 
ATOM     55  C   UNL A   1      42.058  31.886  30.365  1.00  0.00     0.029 A 
ATOM     56  C   UNL A   1      43.084  30.973  30.192  1.00  0.00     0.049 A 
ATOM     57  H   UNL A   1      42.994  28.973  29.525  1.00  0.00     0.167 HD
ATOM     58  C   UNL A   1      45.429  30.191  30.252  1.00  0.00     0.074 A 
ATOM     59  C   UNL A   1      46.844  30.383  30.487  1.00  0.00     0.031 C 
ATOM     60  C   UNL A   1      44.493  31.155  30.416  1.00  0.00     0.031 A 
BRANCH  47  61
ATOM     61  C   UNL A   1      38.766  29.307  29.081  1.00  0.00    -0.014 A 
ATOM     62  C   UNL A   1      38.216  29.772  27.877  1.00  0.00     0.009 A 
ATOM     63  C   UNL A   1      37.924  29.124  30.189  1.00  0.00     0.009 A 
ATOM     64  C   UNL A   1      36.855  30.071  27.792  1.00  0.00     0.001 A 
ATOM     65  C   UNL A   1      36.560  29.405  30.096  1.00  0.00     0.001 A 
ATOM     66  C   UNL A   1      36.028  29.883  28.899  1.00  0.00     0.000 A 
ENDBRANCH  47  61
BRANCH  48  67
ATOM     67  C   UNL A   1      48.314  26.574  29.502  1.00  0.00    -0.014 A 
ATOM     68  C   UNL A   1      48.879  26.010  30.654  1.00  0.00     0.009 A 
ATOM     69  C   UNL A   1      49.129  26.799  28.383  1.00  0.00     0.009 A 
ATOM     70  C   UNL A   1      50.240  25.697  30.690  1.00  0.00     0.001 A 
ATOM     71  C   UNL A   1      50.482  26.461  28.412  1.00  0.00     0.001 A 
ATOM     72  C   UNL A   1      51.039  25.919  29.569  1.00  0.00     0.000 A 
ENDBRANCH  48  67
BRANCH  60  73
ATOM     73  C   UNL A   1      44.968  32.498  30.890  1.00  0.00    -0.014 A 
ATOM     74  C   UNL A   1      45.345  33.494  29.975  1.00  0.00     0.009 A 
ATOM     75  C   UNL A   1      45.012  32.778  32.264  1.00  0.00     0.009 A 
ATOM     76  C   UNL A   1      45.784  34.738  30.431  1.00  0.00     0.001 A 
ATOM     77  C   UNL A   1      45.432  34.030  32.715  1.00  0.00     0.001 A 
ATOM     78  C   UNL A   1      45.824  35.006  31.800  1.00  0.00     0.000 A 
ENDBRANCH  60  73
ENDBRANCH  34  35
ENDBRANCH  26  29
ENDBRANCH  24  25
ENDBRANCH  23  24
ENDBRANCH  22  23
ENDBRANCH   3  22
TORSDOF 16
ENDMDL
