MODEL 1
REMARK VINA RESULT:     -13.0      0.000      0.000
REMARK SMILES C[N@@H+]1CC2(CCN(C(=O)c3cc(-c4ccncc4)n[nH]3)CC2)C[C@H]1C(=O)NCCCNC(=O)c1ccc(-c2c3nc(c(-c4ccccc4)c4ccc([nH]4)c(-c4ccccc4)c4nc(c(-c5ccccc5)c5ccc2[nH]5)C=C4)C=C3)cc1
REMARK SMILES IDX 29 1 28 2 27 3 25 4 26 5 24 7 1 8 2 9 3 10 4 12 23 13 5 14
REMARK SMILES IDX 22 15 6 16 21 17 7 18 8 19 9 20 10 21 11 22 20 23 12 24
REMARK SMILES IDX 19 25 13 27 14 28 18 29 15 30 17 31 16 32 30 33 31 34 32 35
REMARK SMILES IDX 33 37 34 38 35 39 81 40 36 41 80 42 37 43 38 44 39 45 74 46
REMARK SMILES IDX 40 47 79 48 73 49 75 50 41 51 78 52 72 53 71 54 42 56 64 57
REMARK SMILES IDX 49 58 63 59 50 60 53 61 62 62 76 63 51 64 52 65 61 67 77 68
REMARK SMILES IDX 54 69 43 70 44 71 48 72 45 73 47 74 46 75 65 76 66 77 70 78
REMARK SMILES IDX 67 79 69 80 68 81 55 82 56 83 60 84 57 85 59 86 58 87
REMARK H PARENT 27 6 2 11 20 26 31 36 75 55 53 66
REMARK Flexibility Score: inf
ROOT
ATOM      1  C   UNL A   1      37.769  19.849  24.947  1.00  0.00     0.042 C 
ENDROOT
BRANCH   1   2
ATOM      2  C   UNL A   1      36.696  20.921  24.852  1.00  0.00     0.118 C 
BRANCH   2   3
ATOM      3  N   UNL A   1      35.998  21.216  26.072  1.00  0.00    -0.351 N 
ATOM      4  C   UNL A   1      34.797  21.839  26.254  1.00  0.00     0.278 C 
ATOM      5  O   UNL A   1      34.329  21.775  27.400  1.00  0.00    -0.268 OA
ATOM      6  H   UNL A   1      36.452  20.928  26.897  1.00  0.00     0.163 HD
BRANCH   4   7
ATOM      7  C   UNL A   1      34.011  22.609  25.144  1.00  0.00     0.274 C 
ATOM      8  C   UNL A   1      31.746  22.114  24.474  1.00  0.00     0.333 C 
ATOM      9  N   UNL A   1      32.583  22.742  25.500  1.00  0.00    -0.327 N 
ATOM     10  C   UNL A   1      32.279  24.167  25.666  1.00  0.00     0.269 C 
ATOM     11  H   UNL A   1      32.385  22.261  26.378  1.00  0.00     0.348 HD
ATOM     12  C   UNL A   1      33.395  25.013  25.012  1.00  0.00     0.029 C 
ATOM     13  C   UNL A   1      34.501  23.984  24.686  1.00  0.00     0.088 C 
ATOM     14  C   UNL A   1      33.997  26.140  25.890  1.00  0.00     0.034 C 
ATOM     15  C   UNL A   1      32.813  25.755  23.772  1.00  0.00     0.034 C 
ATOM     16  C   UNL A   1      32.916  27.076  26.373  1.00  0.00     0.120 C 
ATOM     17  C   UNL A   1      31.831  26.899  24.162  1.00  0.00     0.120 C 
ATOM     18  N   UNL A   1      32.360  27.765  25.220  1.00  0.00    -0.337 N 
ATOM     19  C   UNL A   1      32.091  29.134  25.228  1.00  0.00     0.271 C 
ATOM     20  O   UNL A   1      31.239  29.634  24.495  1.00  0.00    -0.267 OA
BRANCH  19  21
ATOM     21  C   UNL A   1      32.842  29.937  26.162  1.00  0.00     0.123 A 
ATOM     22  C   UNL A   1      32.464  30.980  26.988  1.00  0.00     0.064 A 
ATOM     23  N   UNL A   1      34.175  29.769  26.409  1.00  0.00    -0.272 N 
ATOM     24  C   UNL A   1      33.662  31.476  27.562  1.00  0.00     0.093 A 
ATOM     25  N   UNL A   1      34.712  30.740  27.171  1.00  0.00    -0.175 NA
ATOM     26  H   UNL A   1      34.695  29.009  26.060  1.00  0.00     0.190 HD
BRANCH  24  27
ATOM     27  C   UNL A   1      33.806  32.641  28.424  1.00  0.00     0.005 A 
ATOM     28  C   UNL A   1      33.186  33.846  28.091  1.00  0.00     0.030 A 
ATOM     29  C   UNL A   1      34.589  32.576  29.576  1.00  0.00     0.030 A 
ATOM     30  C   UNL A   1      33.375  34.933  28.927  1.00  0.00     0.111 A 
ATOM     31  C   UNL A   1      34.728  33.722  30.340  1.00  0.00     0.111 A 
ATOM     32  N   UNL A   1      34.140  34.901  30.040  1.00  0.00    -0.265 NA
ENDBRANCH  24  27
ENDBRANCH  19  21
ENDBRANCH   4   7
ENDBRANCH   2   3
ENDBRANCH   1   2
BRANCH   1  33
ATOM     33  C   UNL A   1      38.965  20.263  25.789  1.00  0.00     0.118 C 
BRANCH  33  34
ATOM     34  N   UNL A   1      40.007  19.236  25.838  1.00  0.00    -0.352 N 
ATOM     35  C   UNL A   1      41.359  19.330  26.067  1.00  0.00     0.251 C 
ATOM     36  H   UNL A   1      39.682  18.320  25.679  1.00  0.00     0.163 HD
ATOM     37  O   UNL A   1      42.064  18.336  25.909  1.00  0.00    -0.269 OA
BRANCH  35  38
ATOM     38  C   UNL A   1      41.982  20.611  26.473  1.00  0.00     0.039 A 
ATOM     39  C   UNL A   1      42.444  21.485  25.482  1.00  0.00     0.014 A 
ATOM     40  C   UNL A   1      42.134  20.952  27.817  1.00  0.00     0.014 A 
ATOM     41  C   UNL A   1      42.982  22.726  25.840  1.00  0.00     0.010 A 
ATOM     42  C   UNL A   1      42.570  22.224  28.168  1.00  0.00     0.010 A 
ATOM     43  C   UNL A   1      43.007  23.122  27.185  1.00  0.00    -0.014 A 
BRANCH  43  44
ATOM     44  C   UNL A   1      43.501  24.458  27.602  1.00  0.00     0.031 A 
ATOM     45  C   UNL A   1      42.530  25.506  28.072  1.00  0.00     0.074 A 
ATOM     46  C   UNL A   1      44.804  24.766  27.455  1.00  0.00     0.049 A 
ATOM     47  N   UNL A   1      42.742  26.766  28.352  1.00  0.00    -0.248 NA
ATOM     48  C   UNL A   1      41.122  25.091  28.201  1.00  0.00     0.031 C 
ATOM     49  C   UNL A   1      45.841  23.863  26.951  1.00  0.00     0.029 A 
ATOM     50  N   UNL A   1      45.474  25.937  27.702  1.00  0.00    -0.354 N 
ATOM     51  C   UNL A   1      41.494  27.301  28.645  1.00  0.00     0.074 A 
ATOM     52  C   UNL A   1      40.526  26.243  28.464  1.00  0.00     0.031 C 
ATOM     53  C   UNL A   1      47.018  24.507  26.945  1.00  0.00     0.029 A 
ATOM     54  C   UNL A   1      46.815  25.874  27.410  1.00  0.00     0.049 A 
ATOM     55  H   UNL A   1      45.036  26.745  28.055  1.00  0.00     0.167 HD
ATOM     56  C   UNL A   1      41.182  28.557  29.045  1.00  0.00     0.031 A 
ATOM     57  C   UNL A   1      47.773  26.814  27.500  1.00  0.00     0.031 A 
ATOM     58  C   UNL A   1      42.147  29.599  29.264  1.00  0.00     0.049 A 
ATOM     59  C   UNL A   1      47.416  28.185  27.999  1.00  0.00     0.074 A 
ATOM     60  C   UNL A   1      41.945  30.877  29.753  1.00  0.00     0.029 A 
ATOM     61  N   UNL A   1      43.505  29.476  29.010  1.00  0.00    -0.354 N 
ATOM     62  N   UNL A   1      46.241  28.657  28.339  1.00  0.00    -0.248 NA
ATOM     63  C   UNL A   1      48.518  29.146  28.138  1.00  0.00     0.031 C 
ATOM     64  C   UNL A   1      43.177  31.540  29.764  1.00  0.00     0.029 A 
ATOM     65  C   UNL A   1      44.152  30.660  29.318  1.00  0.00     0.049 A 
ATOM     66  H   UNL A   1      43.943  28.666  28.662  1.00  0.00     0.167 HD
ATOM     67  C   UNL A   1      46.463  29.965  28.748  1.00  0.00     0.074 A 
ATOM     68  C   UNL A   1      47.887  30.205  28.627  1.00  0.00     0.031 C 
ATOM     69  C   UNL A   1      45.567  30.883  29.184  1.00  0.00     0.031 A 
BRANCH  56  70
ATOM     70  C   UNL A   1      39.726  28.862  29.263  1.00  0.00    -0.014 A 
ATOM     71  C   UNL A   1      38.945  29.455  28.257  1.00  0.00     0.009 A 
ATOM     72  C   UNL A   1      39.127  28.559  30.495  1.00  0.00     0.009 A 
ATOM     73  C   UNL A   1      37.611  29.787  28.499  1.00  0.00     0.001 A 
ATOM     74  C   UNL A   1      37.784  28.866  30.725  1.00  0.00     0.001 A 
ATOM     75  C   UNL A   1      37.032  29.492  29.733  1.00  0.00     0.000 A 
ENDBRANCH  56  70
BRANCH  57  76
ATOM     76  C   UNL A   1      49.171  26.472  27.136  1.00  0.00    -0.014 A 
ATOM     77  C   UNL A   1      49.645  26.722  25.840  1.00  0.00     0.009 A 
ATOM     78  C   UNL A   1      50.046  25.932  28.090  1.00  0.00     0.009 A 
ATOM     79  C   UNL A   1      50.968  26.427  25.503  1.00  0.00     0.001 A 
ATOM     80  C   UNL A   1      51.374  25.657  27.755  1.00  0.00     0.001 A 
ATOM     81  C   UNL A   1      51.832  25.901  26.462  1.00  0.00     0.000 A 
ENDBRANCH  57  76
BRANCH  69  82
ATOM     82  C   UNL A   1      46.106  32.226  29.581  1.00  0.00    -0.014 A 
ATOM     83  C   UNL A   1      46.170  33.282  28.659  1.00  0.00     0.009 A 
ATOM     84  C   UNL A   1      46.512  32.449  30.905  1.00  0.00     0.009 A 
ATOM     85  C   UNL A   1      46.658  34.529  29.050  1.00  0.00     0.001 A 
ATOM     86  C   UNL A   1      46.978  33.705  31.299  1.00  0.00     0.001 A 
ATOM     87  C   UNL A   1      47.057  34.741  30.370  1.00  0.00     0.000 A 
ENDBRANCH  69  82
ENDBRANCH  43  44
ENDBRANCH  35  38
ENDBRANCH  33  34
ENDBRANCH   1  33
TORSDOF 12
ENDMDL
MODEL 2
REMARK VINA RESULT:     -12.8      0.338      5.731
REMARK SMILES C[N@@H+]1CC2(CCN(C(=O)c3cc(-c4ccncc4)n[nH]3)CC2)C[C@H]1C(=O)NCCCNC(=O)c1ccc(-c2c3nc(c(-c4ccccc4)c4ccc([nH]4)c(-c4ccccc4)c4nc(c(-c5ccccc5)c5ccc2[nH]5)C=C4)C=C3)cc1
REMARK SMILES IDX 29 1 28 2 27 3 25 4 26 5 24 7 1 8 2 9 3 10 4 12 23 13 5 14
REMARK SMILES IDX 22 15 6 16 21 17 7 18 8 19 9 20 10 21 11 22 20 23 12 24
REMARK SMILES IDX 19 25 13 27 14 28 18 29 15 30 17 31 16 32 30 33 31 34 32 35
REMARK SMILES IDX 33 37 34 38 35 39 81 40 36 41 80 42 37 43 38 44 39 45 74 46
REMARK SMILES IDX 40 47 79 48 73 49 75 50 41 51 78 52 72 53 71 54 42 56 64 57
REMARK SMILES IDX 49 58 63 59 50 60 53 61 62 62 76 63 51 64 52 65 61 67 77 68
REMARK SMILES IDX 54 69 43 70 44 71 48 72 45 73 47 74 46 75 65 76 66 77 70 78
REMARK SMILES IDX 67 79 69 80 68 81 55 82 56 83 60 84 57 85 59 86 58 87
REMARK H PARENT 27 6 2 11 20 26 31 36 75 55 53 66
REMARK Flexibility Score: inf
ROOT
ATOM      1  C   UNL A   1      37.762  19.704  24.999  1.00  0.00     0.042 C 
ENDROOT
BRANCH   1   2
ATOM      2  C   UNL A   1      36.622  20.700  24.856  1.00  0.00     0.118 C 
BRANCH   2   3
ATOM      3  N   UNL A   1      35.984  21.098  26.080  1.00  0.00    -0.351 N 
ATOM      4  C   UNL A   1      34.832  21.807  26.265  1.00  0.00     0.278 C 
ATOM      5  O   UNL A   1      34.398  21.829  27.426  1.00  0.00    -0.268 OA
ATOM      6  H   UNL A   1      36.445  20.821  26.905  1.00  0.00     0.163 HD
BRANCH   4   7
ATOM      7  C   UNL A   1      34.062  22.572  25.141  1.00  0.00     0.274 C 
ATOM      8  C   UNL A   1      31.809  22.072  24.437  1.00  0.00     0.333 C 
ATOM      9  N   UNL A   1      32.629  22.704  25.474  1.00  0.00    -0.327 N 
ATOM     10  C   UNL A   1      32.319  24.128  25.632  1.00  0.00     0.269 C 
ATOM     11  H   UNL A   1      32.418  22.224  26.350  1.00  0.00     0.348 HD
ATOM     12  C   UNL A   1      33.444  24.975  24.994  1.00  0.00     0.029 C 
ATOM     13  C   UNL A   1      34.556  23.948  24.688  1.00  0.00     0.088 C 
ATOM     14  C   UNL A   1      34.030  26.106  25.879  1.00  0.00     0.034 C 
ATOM     15  C   UNL A   1      32.879  25.713  23.744  1.00  0.00     0.034 C 
ATOM     16  C   UNL A   1      32.939  27.040  26.343  1.00  0.00     0.120 C 
ATOM     17  C   UNL A   1      31.889  26.856  24.115  1.00  0.00     0.120 C 
ATOM     18  N   UNL A   1      32.399  27.726  25.180  1.00  0.00    -0.337 N 
ATOM     19  C   UNL A   1      32.128  29.094  25.180  1.00  0.00     0.271 C 
ATOM     20  O   UNL A   1      31.287  29.591  24.432  1.00  0.00    -0.267 OA
BRANCH  19  21
ATOM     21  C   UNL A   1      32.862  29.900  26.124  1.00  0.00     0.123 A 
ATOM     22  C   UNL A   1      32.477  30.967  26.915  1.00  0.00     0.064 A 
ATOM     23  N   UNL A   1      34.182  29.711  26.420  1.00  0.00    -0.272 N 
ATOM     24  C   UNL A   1      33.665  31.451  27.521  1.00  0.00     0.093 A 
ATOM     25  N   UNL A   1      34.713  30.687  27.181  1.00  0.00    -0.175 NA
ATOM     26  H   UNL A   1      34.698  28.934  26.104  1.00  0.00     0.190 HD
BRANCH  24  27
ATOM     27  C   UNL A   1      33.803  32.630  28.365  1.00  0.00     0.005 A 
ATOM     28  C   UNL A   1      34.533  32.567  29.553  1.00  0.00     0.030 A 
ATOM     29  C   UNL A   1      33.181  33.828  28.013  1.00  0.00     0.030 A 
ATOM     30  C   UNL A   1      34.611  33.707  30.335  1.00  0.00     0.111 A 
ATOM     31  C   UNL A   1      33.307  34.909  28.869  1.00  0.00     0.111 A 
ATOM     32  N   UNL A   1      34.007  34.874  30.024  1.00  0.00    -0.265 NA
ENDBRANCH  24  27
ENDBRANCH  19  21
ENDBRANCH   4   7
ENDBRANCH   2   3
ENDBRANCH   1   2
BRANCH   1  33
ATOM     33  C   UNL A   1      38.908  20.215  25.856  1.00  0.00     0.118 C 
BRANCH  33  34
ATOM     34  N   UNL A   1      40.020  19.268  25.939  1.00  0.00    -0.352 N 
ATOM     35  C   UNL A   1      41.368  19.470  26.123  1.00  0.00     0.251 C 
ATOM     36  H   UNL A   1      39.758  18.324  25.847  1.00  0.00     0.163 HD
ATOM     37  O   UNL A   1      42.137  18.518  26.007  1.00  0.00    -0.269 OA
BRANCH  35  38
ATOM     38  C   UNL A   1      41.909  20.814  26.431  1.00  0.00     0.039 A 
ATOM     39  C   UNL A   1      42.172  21.697  25.377  1.00  0.00     0.014 A 
ATOM     40  C   UNL A   1      42.177  21.207  27.742  1.00  0.00     0.014 A 
ATOM     41  C   UNL A   1      42.627  22.991  25.646  1.00  0.00     0.010 A 
ATOM     42  C   UNL A   1      42.528  22.524  28.016  1.00  0.00     0.010 A 
ATOM     43  C   UNL A   1      42.765  23.429  26.972  1.00  0.00    -0.014 A 
BRANCH  43  44
ATOM     44  C   UNL A   1      43.174  24.816  27.304  1.00  0.00     0.031 A 
ATOM     45  C   UNL A   1      44.619  25.220  27.198  1.00  0.00     0.074 A 
ATOM     46  C   UNL A   1      42.269  25.679  27.805  1.00  0.00     0.049 A 
ATOM     47  N   UNL A   1      45.196  26.335  27.566  1.00  0.00    -0.248 NA
ATOM     48  C   UNL A   1      45.546  24.218  26.646  1.00  0.00     0.031 C 
ATOM     49  C   UNL A   1      40.849  25.394  28.019  1.00  0.00     0.029 A 
ATOM     50  N   UNL A   1      42.419  26.970  28.243  1.00  0.00    -0.354 N 
ATOM     51  C   UNL A   1      46.553  26.151  27.332  1.00  0.00     0.074 A 
ATOM     52  C   UNL A   1      46.718  24.803  26.835  1.00  0.00     0.031 C 
ATOM     53  C   UNL A   1      40.254  26.484  28.527  1.00  0.00     0.029 A 
ATOM     54  C   UNL A   1      41.254  27.530  28.708  1.00  0.00     0.049 A 
ATOM     55  H   UNL A   1      43.279  27.449  28.225  1.00  0.00     0.167 HD
ATOM     56  C   UNL A   1      47.570  27.029  27.499  1.00  0.00     0.031 A 
ATOM     57  C   UNL A   1      41.018  28.748  29.229  1.00  0.00     0.031 A 
ATOM     58  C   UNL A   1      47.403  28.382  27.955  1.00  0.00     0.049 A 
ATOM     59  C   UNL A   1      42.150  29.727  29.354  1.00  0.00     0.074 A 
ATOM     60  C   UNL A   1      48.355  29.379  28.074  1.00  0.00     0.029 A 
ATOM     61  N   UNL A   1      46.195  28.929  28.362  1.00  0.00    -0.354 N 
ATOM     62  N   UNL A   1      43.418  29.562  29.063  1.00  0.00    -0.248 NA
ATOM     63  C   UNL A   1      41.816  31.062  29.868  1.00  0.00     0.031 C 
ATOM     64  C   UNL A   1      47.728  30.520  28.587  1.00  0.00     0.029 A 
ATOM     65  C   UNL A   1      46.379  30.245  28.748  1.00  0.00     0.049 A 
ATOM     66  H   UNL A   1      45.334  28.451  28.376  1.00  0.00     0.167 HD
ATOM     67  C   UNL A   1      44.031  30.776  29.342  1.00  0.00     0.074 A 
ATOM     68  C   UNL A   1      42.992  31.672  29.811  1.00  0.00     0.031 C 
ATOM     69  C   UNL A   1      45.336  31.118  29.220  1.00  0.00     0.031 A 
BRANCH  56  70
ATOM     70  C   UNL A   1      48.956  26.537  27.188  1.00  0.00    -0.014 A 
ATOM     71  C   UNL A   1      49.771  25.971  28.183  1.00  0.00     0.009 A 
ATOM     72  C   UNL A   1      49.459  26.646  25.882  1.00  0.00     0.009 A 
ATOM     73  C   UNL A   1      51.077  25.576  27.889  1.00  0.00     0.001 A 
ATOM     74  C   UNL A   1      50.755  26.224  25.584  1.00  0.00     0.001 A 
ATOM     75  C   UNL A   1      51.568  25.702  26.590  1.00  0.00     0.000 A 
ENDBRANCH  56  70
BRANCH  57  76
ATOM     76  C   UNL A   1      39.640  29.114  29.639  1.00  0.00    -0.014 A 
ATOM     77  C   UNL A   1      38.775  29.742  28.730  1.00  0.00     0.009 A 
ATOM     78  C   UNL A   1      39.169  28.803  30.924  1.00  0.00     0.009 A 
ATOM     79  C   UNL A   1      37.468  30.062  29.104  1.00  0.00     0.001 A 
ATOM     80  C   UNL A   1      37.855  29.106  31.287  1.00  0.00     0.001 A 
ATOM     81  C   UNL A   1      37.008  29.738  30.379  1.00  0.00     0.000 A 
ENDBRANCH  57  76
BRANCH  69  82
ATOM     82  C   UNL A   1      45.710  32.525  29.582  1.00  0.00    -0.014 A 
ATOM     83  C   UNL A   1      46.110  32.856  30.886  1.00  0.00     0.009 A 
ATOM     84  C   UNL A   1      45.703  33.522  28.595  1.00  0.00     0.009 A 
ATOM     85  C   UNL A   1      46.471  34.166  31.199  1.00  0.00     0.001 A 
ATOM     86  C   UNL A   1      46.087  34.828  28.907  1.00  0.00     0.001 A 
ATOM     87  C   UNL A   1      46.463  35.150  30.210  1.00  0.00     0.000 A 
ENDBRANCH  69  82
ENDBRANCH  43  44
ENDBRANCH  35  38
ENDBRANCH  33  34
ENDBRANCH   1  33
TORSDOF 12
ENDMDL
MODEL 3
REMARK VINA RESULT:     -12.8      4.106     10.767
REMARK SMILES C[N@@H+]1CC2(CCN(C(=O)c3cc(-c4ccncc4)n[nH]3)CC2)C[C@H]1C(=O)NCCCNC(=O)c1ccc(-c2c3nc(c(-c4ccccc4)c4ccc([nH]4)c(-c4ccccc4)c4nc(c(-c5ccccc5)c5ccc2[nH]5)C=C4)C=C3)cc1
REMARK SMILES IDX 29 1 28 2 27 3 25 4 26 5 24 7 1 8 2 9 3 10 4 12 23 13 5 14
REMARK SMILES IDX 22 15 6 16 21 17 7 18 8 19 9 20 10 21 11 22 20 23 12 24
REMARK SMILES IDX 19 25 13 27 14 28 18 29 15 30 17 31 16 32 30 33 31 34 32 35
REMARK SMILES IDX 33 37 34 38 35 39 81 40 36 41 80 42 37 43 38 44 39 45 74 46
REMARK SMILES IDX 40 47 79 48 73 49 75 50 41 51 78 52 72 53 71 54 42 56 64 57
REMARK SMILES IDX 49 58 63 59 50 60 53 61 62 62 76 63 51 64 52 65 61 67 77 68
REMARK SMILES IDX 54 69 43 70 44 71 48 72 45 73 47 74 46 75 65 76 66 77 70 78
REMARK SMILES IDX 67 79 69 80 68 81 55 82 56 83 60 84 57 85 59 86 58 87
REMARK H PARENT 27 6 2 11 20 26 31 36 75 55 53 66
REMARK Flexibility Score: inf
ROOT
ATOM      1  C   UNL A   1      31.462  31.815  26.505  1.00  0.00     0.042 C 
ENDROOT
BRANCH   1   2
ATOM      2  C   UNL A   1      31.669  30.343  26.181  1.00  0.00     0.118 C 
BRANCH   2   3
ATOM      3  N   UNL A   1      32.387  30.066  24.969  1.00  0.00    -0.351 N 
ATOM      4  C   UNL A   1      32.413  28.925  24.220  1.00  0.00     0.278 C 
ATOM      5  O   UNL A   1      32.951  29.027  23.107  1.00  0.00    -0.268 OA
ATOM      6  H   UNL A   1      32.942  30.805  24.629  1.00  0.00     0.163 HD
BRANCH   4   7
ATOM      7  C   UNL A   1      31.834  27.545  24.670  1.00  0.00     0.274 C 
ATOM      8  C   UNL A   1      30.256  26.239  23.396  1.00  0.00     0.333 C 
ATOM      9  N   UNL A   1      31.660  26.640  23.515  1.00  0.00    -0.327 N 
ATOM     10  C   UNL A   1      32.551  25.489  23.690  1.00  0.00     0.269 C 
ATOM     11  H   UNL A   1      31.906  27.115  22.646  1.00  0.00     0.348 HD
ATOM     12  C   UNL A   1      33.014  25.414  25.163  1.00  0.00     0.029 C 
ATOM     13  C   UNL A   1      32.540  26.753  25.772  1.00  0.00     0.088 C 
ATOM     14  C   UNL A   1      34.541  25.268  25.390  1.00  0.00     0.034 C 
ATOM     15  C   UNL A   1      32.400  24.145  25.827  1.00  0.00     0.034 C 
ATOM     16  C   UNL A   1      35.076  24.058  24.664  1.00  0.00     0.120 C 
ATOM     17  C   UNL A   1      33.033  22.824  25.300  1.00  0.00     0.120 C 
ATOM     18  N   UNL A   1      34.498  22.869  25.271  1.00  0.00    -0.337 N 
ATOM     19  C   UNL A   1      35.257  21.733  25.554  1.00  0.00     0.271 C 
ATOM     20  O   UNL A   1      34.751  20.613  25.623  1.00  0.00    -0.267 OA
BRANCH  19  21
ATOM     21  C   UNL A   1      36.674  21.928  25.734  1.00  0.00     0.123 A 
ATOM     22  C   UNL A   1      37.759  21.137  25.403  1.00  0.00     0.064 A 
ATOM     23  N   UNL A   1      37.222  23.041  26.307  1.00  0.00    -0.272 N 
ATOM     24  C   UNL A   1      38.894  21.779  25.963  1.00  0.00     0.093 A 
ATOM     25  N   UNL A   1      38.543  22.935  26.544  1.00  0.00    -0.175 NA
ATOM     26  H   UNL A   1      36.698  23.845  26.527  1.00  0.00     0.190 HD
BRANCH  24  27
ATOM     27  C   UNL A   1      40.264  21.284  25.978  1.00  0.00     0.005 A 
ATOM     28  C   UNL A   1      40.519  19.914  26.040  1.00  0.00     0.030 A 
ATOM     29  C   UNL A   1      41.337  22.175  25.963  1.00  0.00     0.030 A 
ATOM     30  C   UNL A   1      41.837  19.494  26.081  1.00  0.00     0.111 A 
ATOM     31  C   UNL A   1      42.620  21.657  26.021  1.00  0.00     0.111 A 
ATOM     32  N   UNL A   1      42.894  20.335  26.082  1.00  0.00    -0.265 NA
ENDBRANCH  24  27
ENDBRANCH  19  21
ENDBRANCH   4   7
ENDBRANCH   2   3
ENDBRANCH   1   2
BRANCH   1  33
ATOM     33  C   UNL A   1      32.642  32.448  27.222  1.00  0.00     0.118 C 
BRANCH  33  34
ATOM     34  N   UNL A   1      32.411  33.852  27.565  1.00  0.00    -0.352 N 
ATOM     35  C   UNL A   1      33.034  34.676  28.472  1.00  0.00     0.251 C 
ATOM     36  H   UNL A   1      31.684  34.279  27.058  1.00  0.00     0.163 HD
ATOM     37  O   UNL A   1      32.561  35.789  28.693  1.00  0.00    -0.269 OA
BRANCH  35  38
ATOM     38  C   UNL A   1      34.244  34.236  29.205  1.00  0.00     0.039 A 
ATOM     39  C   UNL A   1      34.093  33.461  30.360  1.00  0.00     0.014 A 
ATOM     40  C   UNL A   1      35.522  34.595  28.778  1.00  0.00     0.014 A 
ATOM     41  C   UNL A   1      35.222  32.985  31.035  1.00  0.00     0.010 A 
ATOM     42  C   UNL A   1      36.641  34.037  29.386  1.00  0.00     0.010 A 
ATOM     43  C   UNL A   1      36.505  33.233  30.526  1.00  0.00    -0.014 A 
BRANCH  43  44
ATOM     44  C   UNL A   1      37.726  32.686  31.168  1.00  0.00     0.031 A 
ATOM     45  C   UNL A   1      38.442  31.518  30.549  1.00  0.00     0.074 A 
ATOM     46  C   UNL A   1      38.127  33.166  32.361  1.00  0.00     0.049 A 
ATOM     47  N   UNL A   1      39.440  30.815  31.019  1.00  0.00    -0.248 NA
ATOM     48  C   UNL A   1      37.939  31.050  29.246  1.00  0.00     0.031 C 
ATOM     49  C   UNL A   1      37.484  34.254  33.101  1.00  0.00     0.029 A 
ATOM     50  N   UNL A   1      39.167  32.782  33.170  1.00  0.00    -0.354 N 
ATOM     51  C   UNL A   1      39.653  29.800  30.094  1.00  0.00     0.074 A 
ATOM     52  C   UNL A   1      38.652  29.950  29.062  1.00  0.00     0.031 C 
ATOM     53  C   UNL A   1      38.155  34.464  34.244  1.00  0.00     0.029 A 
ATOM     54  C   UNL A   1      39.250  33.505  34.335  1.00  0.00     0.049 A 
ATOM     55  H   UNL A   1      39.792  32.059  32.937  1.00  0.00     0.167 HD
ATOM     56  C   UNL A   1      40.605  28.837  30.095  1.00  0.00     0.031 A 
ATOM     57  C   UNL A   1      40.110  33.404  35.365  1.00  0.00     0.031 A 
ATOM     58  C   UNL A   1      41.625  28.710  31.100  1.00  0.00     0.049 A 
ATOM     59  C   UNL A   1      41.194  32.365  35.320  1.00  0.00     0.074 A 
ATOM     60  C   UNL A   1      42.689  27.826  31.146  1.00  0.00     0.029 A 
ATOM     61  N   UNL A   1      41.709  29.500  32.236  1.00  0.00    -0.354 N 
ATOM     62  N   UNL A   1      41.425  31.455  34.405  1.00  0.00    -0.248 NA
ATOM     63  C   UNL A   1      42.141  32.349  36.443  1.00  0.00     0.031 C 
ATOM     64  C   UNL A   1      43.398  28.060  32.329  1.00  0.00     0.029 A 
ATOM     65  C   UNL A   1      42.798  29.116  32.999  1.00  0.00     0.049 A 
ATOM     66  H   UNL A   1      41.086  30.227  32.466  1.00  0.00     0.167 HD
ATOM     67  C   UNL A   1      42.553  30.768  34.832  1.00  0.00     0.074 A 
ATOM     68  C   UNL A   1      42.967  31.377  36.080  1.00  0.00     0.031 C 
ATOM     69  C   UNL A   1      43.189  29.727  34.242  1.00  0.00     0.031 A 
BRANCH  56  70
ATOM     70  C   UNL A   1      40.573  27.844  28.966  1.00  0.00    -0.014 A 
ATOM     71  C   UNL A   1      39.852  26.642  29.072  1.00  0.00     0.009 A 
ATOM     72  C   UNL A   1      41.280  28.108  27.784  1.00  0.00     0.009 A 
ATOM     73  C   UNL A   1      39.885  25.705  28.038  1.00  0.00     0.001 A 
ATOM     74  C   UNL A   1      41.287  27.182  26.740  1.00  0.00     0.001 A 
ATOM     75  C   UNL A   1      40.602  25.976  26.873  1.00  0.00     0.000 A 
ENDBRANCH  56  70
BRANCH  57  76
ATOM     76  C   UNL A   1      39.993  34.339  36.511  1.00  0.00    -0.014 A 
ATOM     77  C   UNL A   1      39.266  33.971  37.653  1.00  0.00     0.009 A 
ATOM     78  C   UNL A   1      40.638  35.585  36.486  1.00  0.00     0.009 A 
ATOM     79  C   UNL A   1      39.176  34.838  38.743  1.00  0.00     0.001 A 
ATOM     80  C   UNL A   1      40.563  36.441  37.588  1.00  0.00     0.001 A 
ATOM     81  C   UNL A   1      39.830  36.068  38.712  1.00  0.00     0.000 A 
ENDBRANCH  57  76
BRANCH  69  82
ATOM     82  C   UNL A   1      44.410  29.194  34.932  1.00  0.00    -0.014 A 
ATOM     83  C   UNL A   1      44.318  28.141  35.856  1.00  0.00     0.009 A 
ATOM     84  C   UNL A   1      45.672  29.722  34.620  1.00  0.00     0.009 A 
ATOM     85  C   UNL A   1      45.466  27.646  36.475  1.00  0.00     0.001 A 
ATOM     86  C   UNL A   1      46.821  29.209  35.225  1.00  0.00     0.001 A 
ATOM     87  C   UNL A   1      46.716  28.177  36.156  1.00  0.00     0.000 A 
ENDBRANCH  69  82
ENDBRANCH  43  44
ENDBRANCH  35  38
ENDBRANCH  33  34
ENDBRANCH   1  33
TORSDOF 12
ENDMDL
