MODEL 1
REMARK VINA RESULT:      -9.7      0.000      0.000
REMARK SMILES C[C@@H](C(=O)NCCCNC(=O)c1ccc(-c2c3nc(c(-c4ccccc4)c4ccc([nH]4)c(-c4ccccc4)c4nc(c(-c5ccccc5)c5ccc2[nH]5)C=C4)C=C3)cc1)c1ccc(C[C@@H]2CCC[C@@H]2O)cc1
REMARK SMILES IDX 6 1 5 2 3 3 4 4 2 6 1 7 60 8 61 9 72 10 62 11 71 12 63 13
REMARK SMILES IDX 64 14 65 15 66 16 69 17 67 18 68 19 70 20 7 22 8 23 9 24
REMARK SMILES IDX 10 25 11 27 12 28 13 29 59 30 14 31 58 32 15 33 16 34 17 35
REMARK SMILES IDX 52 36 18 37 57 38 51 39 53 40 19 41 56 42 50 43 49 44 20 46
REMARK SMILES IDX 42 47 27 48 41 49 28 50 31 51 40 52 54 53 29 54 30 55 39 57
REMARK SMILES IDX 55 58 32 59 21 60 22 61 26 62 23 63 25 64 24 65 43 66 44 67
REMARK SMILES IDX 48 68 45 69 47 70 46 71 33 72 34 73 38 74 35 75 37 76 36 77
REMARK H PARENT 5 5 70 21 9 26 53 45 31 56
REMARK Flexibility Score: inf
ROOT
ATOM      1  C   UNL A   1      33.414  34.971  28.696  1.00  0.00     0.117 C 
ENDROOT
BRANCH   1   2
ATOM      2  N   UNL A   1      33.517  36.234  29.399  1.00  0.00    -0.356 N 
ATOM      3  C   UNL A   1      33.243  36.541  30.701  1.00  0.00     0.227 C 
ATOM      4  O   UNL A   1      32.992  37.728  30.910  1.00  0.00    -0.274 OA
ATOM      5  H   UNL A   1      33.834  36.988  28.852  1.00  0.00     0.163 HD
BRANCH   3   6
ATOM      6  C   UNL A   1      33.245  35.435  31.773  1.00  0.00     0.105 C 
ATOM      7  C   UNL A   1      32.900  36.032  33.141  1.00  0.00     0.023 C 
BRANCH   6   8
ATOM      8  C   UNL A   1      34.511  34.580  31.899  1.00  0.00    -0.036 A 
ATOM      9  C   UNL A   1      35.800  35.096  32.067  1.00  0.00     0.005 A 
ATOM     10  C   UNL A   1      34.379  33.179  31.872  1.00  0.00     0.005 A 
ATOM     11  C   UNL A   1      36.910  34.257  32.198  1.00  0.00     0.004 A 
ATOM     12  C   UNL A   1      35.488  32.338  31.999  1.00  0.00     0.004 A 
ATOM     13  C   UNL A   1      36.772  32.871  32.140  1.00  0.00    -0.048 A 
BRANCH  13  14
ATOM     14  C   UNL A   1      37.980  31.973  32.198  1.00  0.00     0.041 C 
BRANCH  14  15
ATOM     15  C   UNL A   1      38.392  31.410  33.577  1.00  0.00     0.022 C 
ATOM     16  C   UNL A   1      39.868  31.604  33.945  1.00  0.00     0.007 C 
ATOM     17  C   UNL A   1      38.188  29.910  33.811  1.00  0.00     0.117 C 
ATOM     18  C   UNL A   1      40.573  30.276  33.651  1.00  0.00     0.003 C 
ATOM     19  C   UNL A   1      39.480  29.259  33.336  1.00  0.00     0.032 C 
BRANCH  17  20
ATOM     20  O   UNL A   1      37.052  29.374  33.163  1.00  0.00    -0.393 OA
ATOM     21  H   UNL A   1      37.172  28.420  33.037  1.00  0.00     0.210 HD
ENDBRANCH  17  20
ENDBRANCH  14  15
ENDBRANCH  13  14
ENDBRANCH   6   8
ENDBRANCH   3   6
ENDBRANCH   1   2
BRANCH   1  22
ATOM     22  C   UNL A   1      34.743  34.601  28.035  1.00  0.00     0.042 C 
BRANCH  22  23
ATOM     23  C   UNL A   1      35.291  33.232  28.428  1.00  0.00     0.118 C 
BRANCH  23  24
ATOM     24  N   UNL A   1      34.345  32.156  28.181  1.00  0.00    -0.352 N 
ATOM     25  C   UNL A   1      34.570  30.813  28.018  1.00  0.00     0.251 C 
ATOM     26  H   UNL A   1      33.402  32.432  28.121  1.00  0.00     0.163 HD
ATOM     27  O   UNL A   1      33.655  30.084  27.633  1.00  0.00    -0.269 OA
BRANCH  25  28
ATOM     28  C   UNL A   1      35.906  30.236  28.276  1.00  0.00     0.039 A 
ATOM     29  C   UNL A   1      36.847  30.234  27.243  1.00  0.00     0.014 A 
ATOM     30  C   UNL A   1      36.229  29.678  29.516  1.00  0.00     0.014 A 
ATOM     31  C   UNL A   1      38.130  29.731  27.473  1.00  0.00     0.010 A 
ATOM     32  C   UNL A   1      37.530  29.246  29.766  1.00  0.00     0.010 A 
ATOM     33  C   UNL A   1      38.493  29.266  28.747  1.00  0.00    -0.014 A 
BRANCH  33  34
ATOM     34  C   UNL A   1      39.878  28.806  29.030  1.00  0.00     0.031 A 
ATOM     35  C   UNL A   1      40.872  29.734  29.674  1.00  0.00     0.074 A 
ATOM     36  C   UNL A   1      40.258  27.569  28.658  1.00  0.00     0.049 A 
ATOM     37  N   UNL A   1      42.136  29.528  29.948  1.00  0.00    -0.248 NA
ATOM     38  C   UNL A   1      40.388  31.075  30.039  1.00  0.00     0.031 C 
ATOM     39  C   UNL A   1      39.401  26.580  27.998  1.00  0.00     0.029 A 
ATOM     40  N   UNL A   1      41.468  26.931  28.777  1.00  0.00    -0.354 N 
ATOM     41  C   UNL A   1      42.600  30.713  30.504  1.00  0.00     0.074 A 
ATOM     42  C   UNL A   1      41.497  31.650  30.481  1.00  0.00     0.031 C 
ATOM     43  C   UNL A   1      40.104  25.454  27.797  1.00  0.00     0.029 A 
ATOM     44  C   UNL A   1      41.469  25.654  28.271  1.00  0.00     0.049 A 
ATOM     45  H   UNL A   1      42.259  27.349  29.186  1.00  0.00     0.167 HD
ATOM     46  C   UNL A   1      43.827  30.993  31.006  1.00  0.00     0.031 A 
ATOM     47  C   UNL A   1      42.460  24.746  28.190  1.00  0.00     0.031 A 
ATOM     48  C   UNL A   1      44.924  30.063  31.030  1.00  0.00     0.049 A 
ATOM     49  C   UNL A   1      43.822  25.092  28.723  1.00  0.00     0.074 A 
ATOM     50  C   UNL A   1      46.192  30.240  31.556  1.00  0.00     0.029 A 
ATOM     51  N   UNL A   1      44.885  28.783  30.501  1.00  0.00    -0.354 N 
ATOM     52  N   UNL A   1      44.227  26.198  29.298  1.00  0.00    -0.248 NA
ATOM     53  C   UNL A   1      44.860  24.058  28.604  1.00  0.00     0.031 C 
ATOM     54  C   UNL A   1      46.938  29.086  31.297  1.00  0.00     0.029 A 
ATOM     55  C   UNL A   1      46.115  28.167  30.665  1.00  0.00     0.049 A 
ATOM     56  H   UNL A   1      44.101  28.372  30.071  1.00  0.00     0.167 HD
ATOM     57  C   UNL A   1      45.558  25.984  29.634  1.00  0.00     0.074 A 
ATOM     58  C   UNL A   1      45.885  24.637  29.214  1.00  0.00     0.031 C 
ATOM     59  C   UNL A   1      46.429  26.827  30.240  1.00  0.00     0.031 A 
BRANCH  46  60
ATOM     60  C   UNL A   1      44.046  32.371  31.566  1.00  0.00    -0.014 A 
ATOM     61  C   UNL A   1      44.578  33.403  30.775  1.00  0.00     0.009 A 
ATOM     62  C   UNL A   1      43.686  32.654  32.893  1.00  0.00     0.009 A 
ATOM     63  C   UNL A   1      44.779  34.677  31.313  1.00  0.00     0.001 A 
ATOM     64  C   UNL A   1      43.859  33.936  33.418  1.00  0.00     0.001 A 
ATOM     65  C   UNL A   1      44.415  34.943  32.632  1.00  0.00     0.000 A 
ENDBRANCH  46  60
BRANCH  47  66
ATOM     66  C   UNL A   1      42.198  23.411  27.588  1.00  0.00    -0.014 A 
ATOM     67  C   UNL A   1      41.613  22.389  28.351  1.00  0.00     0.009 A 
ATOM     68  C   UNL A   1      42.535  23.151  26.251  1.00  0.00     0.009 A 
ATOM     69  C   UNL A   1      41.393  21.128  27.795  1.00  0.00     0.001 A 
ATOM     70  C   UNL A   1      42.286  21.897  25.689  1.00  0.00     0.001 A 
ATOM     71  C   UNL A   1      41.726  20.884  26.463  1.00  0.00     0.000 A 
ENDBRANCH  47  66
BRANCH  59  72
ATOM     72  C   UNL A   1      47.811  26.305  30.519  1.00  0.00    -0.014 A 
ATOM     73  C   UNL A   1      48.159  25.792  31.778  1.00  0.00     0.009 A 
ATOM     74  C   UNL A   1      48.766  26.289  29.490  1.00  0.00     0.009 A 
ATOM     75  C   UNL A   1      49.447  25.305  32.009  1.00  0.00     0.001 A 
ATOM     76  C   UNL A   1      50.042  25.773  29.715  1.00  0.00     0.001 A 
ATOM     77  C   UNL A   1      50.385  25.290  30.977  1.00  0.00     0.000 A 
ENDBRANCH  59  72
ENDBRANCH  33  34
ENDBRANCH  25  28
ENDBRANCH  23  24
ENDBRANCH  22  23
ENDBRANCH   1  22
TORSDOF 14
ENDMDL
MODEL 2
REMARK VINA RESULT:      -9.6      4.119      7.202
REMARK SMILES C[C@@H](C(=O)NCCCNC(=O)c1ccc(-c2c3nc(c(-c4ccccc4)c4ccc([nH]4)c(-c4ccccc4)c4nc(c(-c5ccccc5)c5ccc2[nH]5)C=C4)C=C3)cc1)c1ccc(C[C@@H]2CCC[C@@H]2O)cc1
REMARK SMILES IDX 6 1 5 2 3 3 4 4 2 6 1 7 60 8 61 9 72 10 62 11 71 12 63 13
REMARK SMILES IDX 64 14 65 15 66 16 69 17 67 18 68 19 70 20 7 22 8 23 9 24
REMARK SMILES IDX 10 25 11 27 12 28 13 29 59 30 14 31 58 32 15 33 16 34 17 35
REMARK SMILES IDX 52 36 18 37 57 38 51 39 53 40 19 41 56 42 50 43 49 44 20 46
REMARK SMILES IDX 42 47 27 48 41 49 28 50 31 51 40 52 54 53 29 54 30 55 39 57
REMARK SMILES IDX 55 58 32 59 21 60 22 61 26 62 23 63 25 64 24 65 43 66 44 67
REMARK SMILES IDX 48 68 45 69 47 70 46 71 33 72 34 73 38 74 35 75 37 76 36 77
REMARK H PARENT 5 5 70 21 9 26 53 45 31 56
REMARK Flexibility Score: inf
ROOT
ATOM      1  C   UNL A   1      31.235  30.907  26.539  1.00  0.00     0.117 C 
ENDROOT
BRANCH   1   2
ATOM      2  N   UNL A   1      31.758  30.275  25.346  1.00  0.00    -0.356 N 
ATOM      3  C   UNL A   1      32.748  29.344  25.205  1.00  0.00     0.227 C 
ATOM      4  O   UNL A   1      33.279  29.318  24.095  1.00  0.00    -0.274 OA
ATOM      5  H   UNL A   1      31.335  30.561  24.505  1.00  0.00     0.163 HD
BRANCH   3   6
ATOM      6  C   UNL A   1      33.134  28.441  26.391  1.00  0.00     0.105 C 
ATOM      7  C   UNL A   1      34.546  28.788  26.875  1.00  0.00     0.023 C 
BRANCH   6   8
ATOM      8  C   UNL A   1      33.027  26.926  26.186  1.00  0.00    -0.036 A 
ATOM      9  C   UNL A   1      34.071  26.114  25.729  1.00  0.00     0.005 A 
ATOM     10  C   UNL A   1      31.810  26.291  26.499  1.00  0.00     0.005 A 
ATOM     11  C   UNL A   1      33.912  24.734  25.586  1.00  0.00     0.004 A 
ATOM     12  C   UNL A   1      31.648  24.910  26.353  1.00  0.00     0.004 A 
ATOM     13  C   UNL A   1      32.694  24.118  25.870  1.00  0.00    -0.048 A 
BRANCH  13  14
ATOM     14  C   UNL A   1      32.502  22.643  25.635  1.00  0.00     0.041 C 
BRANCH  14  15
ATOM     15  C   UNL A   1      33.376  21.969  24.553  1.00  0.00     0.022 C 
ATOM     16  C   UNL A   1      32.814  22.034  23.128  1.00  0.00     0.007 C 
ATOM     17  C   UNL A   1      33.673  20.475  24.722  1.00  0.00     0.117 C 
ATOM     18  C   UNL A   1      32.153  20.679  22.853  1.00  0.00     0.003 C 
ATOM     19  C   UNL A   1      32.528  19.764  24.015  1.00  0.00     0.032 C 
BRANCH  17  20
ATOM     20  O   UNL A   1      33.808  20.063  26.067  1.00  0.00    -0.393 OA
ATOM     21  H   UNL A   1      34.719  19.774  26.226  1.00  0.00     0.210 HD
ENDBRANCH  17  20
ENDBRANCH  14  15
ENDBRANCH  13  14
ENDBRANCH   6   8
ENDBRANCH   3   6
ENDBRANCH   1   2
BRANCH   1  22
ATOM     22  C   UNL A   1      31.458  32.421  26.501  1.00  0.00     0.042 C 
BRANCH  22  23
ATOM     23  C   UNL A   1      32.694  32.901  27.257  1.00  0.00     0.118 C 
BRANCH  23  24
ATOM     24  N   UNL A   1      32.528  34.231  27.820  1.00  0.00    -0.352 N 
ATOM     25  C   UNL A   1      33.237  34.857  28.813  1.00  0.00     0.251 C 
ATOM     26  H   UNL A   1      31.798  34.763  27.429  1.00  0.00     0.163 HD
ATOM     27  O   UNL A   1      32.825  35.920  29.278  1.00  0.00    -0.269 OA
BRANCH  25  28
ATOM     28  C   UNL A   1      34.475  34.254  29.349  1.00  0.00     0.039 A 
ATOM     29  C   UNL A   1      34.395  33.471  30.504  1.00  0.00     0.014 A 
ATOM     30  C   UNL A   1      35.713  34.473  28.738  1.00  0.00     0.014 A 
ATOM     31  C   UNL A   1      35.544  32.857  31.008  1.00  0.00     0.010 A 
ATOM     32  C   UNL A   1      36.843  33.800  29.199  1.00  0.00     0.010 A 
ATOM     33  C   UNL A   1      36.771  32.987  30.339  1.00  0.00    -0.014 A 
BRANCH  33  34
ATOM     34  C   UNL A   1      37.985  32.273  30.814  1.00  0.00     0.031 A 
ATOM     35  C   UNL A   1      38.803  32.832  31.947  1.00  0.00     0.074 A 
ATOM     36  C   UNL A   1      38.383  31.147  30.191  1.00  0.00     0.049 A 
ATOM     37  N   UNL A   1      39.919  32.379  32.461  1.00  0.00    -0.248 NA
ATOM     38  C   UNL A   1      38.314  34.073  32.569  1.00  0.00     0.031 C 
ATOM     39  C   UNL A   1      37.697  30.515  29.061  1.00  0.00     0.029 A 
ATOM     40  N   UNL A   1      39.467  30.335  30.416  1.00  0.00    -0.354 N 
ATOM     41  C   UNL A   1      40.271  33.284  33.455  1.00  0.00     0.074 A 
ATOM     42  C   UNL A   1      39.279  34.337  33.438  1.00  0.00     0.031 C 
ATOM     43  C   UNL A   1      38.361  29.401  28.712  1.00  0.00     0.029 A 
ATOM     44  C   UNL A   1      39.540  29.264  29.560  1.00  0.00     0.049 A 
ATOM     45  H   UNL A   1      40.130  30.506  31.124  1.00  0.00     0.167 HD
ATOM     46  C   UNL A   1      41.314  33.234  34.317  1.00  0.00     0.031 A 
ATOM     47  C   UNL A   1      40.457  28.283  29.462  1.00  0.00     0.031 A 
ATOM     48  C   UNL A   1      42.301  32.188  34.337  1.00  0.00     0.049 A 
ATOM     49  C   UNL A   1      41.624  28.268  30.408  1.00  0.00     0.074 A 
ATOM     50  C   UNL A   1      43.371  32.028  35.200  1.00  0.00     0.029 A 
ATOM     51  N   UNL A   1      42.342  31.125  33.448  1.00  0.00    -0.354 N 
ATOM     52  N   UNL A   1      41.910  29.100  31.380  1.00  0.00    -0.248 NA
ATOM     53  C   UNL A   1      42.590  27.172  30.249  1.00  0.00     0.031 C 
ATOM     54  C   UNL A   1      44.091  30.898  34.800  1.00  0.00     0.029 A 
ATOM     55  C   UNL A   1      43.434  30.319  33.726  1.00  0.00     0.049 A 
ATOM     56  H   UNL A   1      41.693  30.966  32.725  1.00  0.00     0.167 HD
ATOM     57  C   UNL A   1      43.071  28.613  31.966  1.00  0.00     0.074 A 
ATOM     58  C   UNL A   1      43.427  27.405  31.251  1.00  0.00     0.031 C 
ATOM     59  C   UNL A   1      43.778  29.120  33.006  1.00  0.00     0.031 A 
BRANCH  46  60
ATOM     60  C   UNL A   1      41.443  34.355  35.312  1.00  0.00    -0.014 A 
ATOM     61  C   UNL A   1      40.846  34.276  36.581  1.00  0.00     0.009 A 
ATOM     62  C   UNL A   1      42.200  35.493  34.990  1.00  0.00     0.009 A 
ATOM     63  C   UNL A   1      40.973  35.328  37.491  1.00  0.00     0.001 A 
ATOM     64  C   UNL A   1      42.350  36.529  35.913  1.00  0.00     0.001 A 
ATOM     65  C   UNL A   1      41.729  36.451  37.158  1.00  0.00     0.000 A 
ENDBRANCH  46  60
BRANCH  47  66
ATOM     66  C   UNL A   1      40.302  27.221  28.433  1.00  0.00    -0.014 A 
ATOM     67  C   UNL A   1      39.532  26.078  28.699  1.00  0.00     0.009 A 
ATOM     68  C   UNL A   1      40.926  27.341  27.181  1.00  0.00     0.009 A 
ATOM     69  C   UNL A   1      39.410  25.068  27.743  1.00  0.00     0.001 A 
ATOM     70  C   UNL A   1      40.778  26.342  26.216  1.00  0.00     0.001 A 
ATOM     71  C   UNL A   1      40.030  25.203  26.501  1.00  0.00     0.000 A 
ENDBRANCH  47  66
BRANCH  59  72
ATOM     72  C   UNL A   1      44.988  28.350  33.457  1.00  0.00    -0.014 A 
ATOM     73  C   UNL A   1      44.887  27.323  34.409  1.00  0.00     0.009 A 
ATOM     74  C   UNL A   1      46.239  28.629  32.887  1.00  0.00     0.009 A 
ATOM     75  C   UNL A   1      46.024  26.616  34.805  1.00  0.00     0.001 A 
ATOM     76  C   UNL A   1      47.368  27.899  33.262  1.00  0.00     0.001 A 
ATOM     77  C   UNL A   1      47.261  26.900  34.228  1.00  0.00     0.000 A 
ENDBRANCH  59  72
ENDBRANCH  33  34
ENDBRANCH  25  28
ENDBRANCH  23  24
ENDBRANCH  22  23
ENDBRANCH   1  22
TORSDOF 14
ENDMDL
MODEL 3
REMARK VINA RESULT:      -9.6      1.635      2.819
REMARK SMILES C[C@@H](C(=O)NCCCNC(=O)c1ccc(-c2c3nc(c(-c4ccccc4)c4ccc([nH]4)c(-c4ccccc4)c4nc(c(-c5ccccc5)c5ccc2[nH]5)C=C4)C=C3)cc1)c1ccc(C[C@@H]2CCC[C@@H]2O)cc1
REMARK SMILES IDX 6 1 5 2 3 3 4 4 2 6 1 7 60 8 61 9 72 10 62 11 71 12 63 13
REMARK SMILES IDX 64 14 65 15 66 16 69 17 67 18 68 19 70 20 7 22 8 23 9 24
REMARK SMILES IDX 10 25 11 27 12 28 13 29 59 30 14 31 58 32 15 33 16 34 17 35
REMARK SMILES IDX 52 36 18 37 57 38 51 39 53 40 19 41 56 42 50 43 49 44 20 46
REMARK SMILES IDX 42 47 27 48 41 49 28 50 31 51 40 52 54 53 29 54 30 55 39 57
REMARK SMILES IDX 55 58 32 59 21 60 22 61 26 62 23 63 25 64 24 65 43 66 44 67
REMARK SMILES IDX 48 68 45 69 47 70 46 71 33 72 34 73 38 74 35 75 37 76 36 77
REMARK H PARENT 5 5 70 21 9 26 53 45 31 56
REMARK Flexibility Score: inf
ROOT
ATOM      1  C   UNL A   1      36.666  32.701  30.667  1.00  0.00     0.117 C 
ENDROOT
BRANCH   1   2
ATOM      2  N   UNL A   1      37.301  33.711  31.488  1.00  0.00    -0.356 N 
ATOM      3  C   UNL A   1      37.327  33.852  32.846  1.00  0.00     0.227 C 
ATOM      4  O   UNL A   1      37.541  34.998  33.243  1.00  0.00    -0.274 OA
ATOM      5  H   UNL A   1      37.789  34.404  30.989  1.00  0.00     0.163 HD
BRANCH   3   6
ATOM      6  C   UNL A   1      37.079  32.634  33.755  1.00  0.00     0.105 C 
ATOM      7  C   UNL A   1      36.983  33.082  35.216  1.00  0.00     0.023 C 
BRANCH   6   8
ATOM      8  C   UNL A   1      38.064  31.464  33.647  1.00  0.00    -0.036 A 
ATOM      9  C   UNL A   1      37.747  30.211  33.111  1.00  0.00     0.005 A 
ATOM     10  C   UNL A   1      39.386  31.658  34.088  1.00  0.00     0.005 A 
ATOM     11  C   UNL A   1      38.701  29.195  33.022  1.00  0.00     0.004 A 
ATOM     12  C   UNL A   1      40.341  30.641  34.003  1.00  0.00     0.004 A 
ATOM     13  C   UNL A   1      40.001  29.387  33.489  1.00  0.00    -0.048 A 
BRANCH  13  14
ATOM     14  C   UNL A   1      41.002  28.262  33.468  1.00  0.00     0.041 C 
BRANCH  14  15
ATOM     15  C   UNL A   1      41.956  28.126  34.676  1.00  0.00     0.022 C 
ATOM     16  C   UNL A   1      43.421  28.477  34.391  1.00  0.00     0.007 C 
ATOM     17  C   UNL A   1      42.069  26.744  35.328  1.00  0.00     0.117 C 
ATOM     18  C   UNL A   1      44.160  27.151  34.183  1.00  0.00     0.003 C 
ATOM     19  C   UNL A   1      43.186  26.041  34.568  1.00  0.00     0.032 C 
BRANCH  17  20
ATOM     20  O   UNL A   1      40.867  26.001  35.317  1.00  0.00    -0.393 OA
ATOM     21  H   UNL A   1      40.120  26.593  35.496  1.00  0.00     0.210 HD
ENDBRANCH  17  20
ENDBRANCH  14  15
ENDBRANCH  13  14
ENDBRANCH   6   8
ENDBRANCH   3   6
ENDBRANCH   1   2
BRANCH   1  22
ATOM     22  C   UNL A   1      35.275  33.153  30.218  1.00  0.00     0.042 C 
BRANCH  22  23
ATOM     23  C   UNL A   1      35.066  33.165  28.706  1.00  0.00     0.118 C 
BRANCH  23  24
ATOM     24  N   UNL A   1      34.176  32.108  28.252  1.00  0.00    -0.352 N 
ATOM     25  C   UNL A   1      34.455  30.800  27.945  1.00  0.00     0.251 C 
ATOM     26  H   UNL A   1      33.233  32.370  28.151  1.00  0.00     0.163 HD
ATOM     27  O   UNL A   1      33.596  30.107  27.401  1.00  0.00    -0.269 OA
BRANCH  25  28
ATOM     28  C   UNL A   1      35.784  30.224  28.239  1.00  0.00     0.039 A 
ATOM     29  C   UNL A   1      36.799  30.362  27.289  1.00  0.00     0.014 A 
ATOM     30  C   UNL A   1      36.029  29.532  29.428  1.00  0.00     0.014 A 
ATOM     31  C   UNL A   1      38.075  29.861  27.559  1.00  0.00     0.010 A 
ATOM     32  C   UNL A   1      37.319  29.100  29.727  1.00  0.00     0.010 A 
ATOM     33  C   UNL A   1      38.356  29.259  28.795  1.00  0.00    -0.014 A 
BRANCH  33  34
ATOM     34  C   UNL A   1      39.728  28.796  29.131  1.00  0.00     0.031 A 
ATOM     35  C   UNL A   1      40.683  29.707  29.855  1.00  0.00     0.074 A 
ATOM     36  C   UNL A   1      40.134  27.574  28.736  1.00  0.00     0.049 A 
ATOM     37  N   UNL A   1      41.933  29.498  30.184  1.00  0.00    -0.248 NA
ATOM     38  C   UNL A   1      40.172  31.032  30.240  1.00  0.00     0.031 C 
ATOM     39  C   UNL A   1      39.318  26.605  28.001  1.00  0.00     0.029 A 
ATOM     40  N   UNL A   1      41.341  26.939  28.893  1.00  0.00    -0.354 N 
ATOM     41  C   UNL A   1      42.360  30.666  30.802  1.00  0.00     0.074 A 
ATOM     42  C   UNL A   1      41.253  31.597  30.757  1.00  0.00     0.031 C 
ATOM     43  C   UNL A   1      40.038  25.490  27.797  1.00  0.00     0.029 A 
ATOM     44  C   UNL A   1      41.376  25.681  28.345  1.00  0.00     0.049 A 
ATOM     45  H   UNL A   1      42.109  27.348  29.355  1.00  0.00     0.167 HD
ATOM     46  C   UNL A   1      43.559  30.935  31.373  1.00  0.00     0.031 A 
ATOM     47  C   UNL A   1      42.377  24.781  28.282  1.00  0.00     0.031 A 
ATOM     48  C   UNL A   1      44.660  30.011  31.420  1.00  0.00     0.049 A 
ATOM     49  C   UNL A   1      43.708  25.116  28.893  1.00  0.00     0.074 A 
ATOM     50  C   UNL A   1      45.900  30.177  32.013  1.00  0.00     0.029 A 
ATOM     51  N   UNL A   1      44.657  28.749  30.846  1.00  0.00    -0.354 N 
ATOM     52  N   UNL A   1      44.077  26.204  29.524  1.00  0.00    -0.248 NA
ATOM     53  C   UNL A   1      44.758  24.093  28.790  1.00  0.00     0.031 C 
ATOM     54  C   UNL A   1      46.666  29.036  31.752  1.00  0.00     0.029 A 
ATOM     55  C   UNL A   1      45.881  28.135  31.049  1.00  0.00     0.049 A 
ATOM     56  H   UNL A   1      43.897  28.349  30.364  1.00  0.00     0.167 HD
ATOM     57  C   UNL A   1      45.391  25.985  29.919  1.00  0.00     0.074 A 
ATOM     58  C   UNL A   1      45.748  24.656  29.469  1.00  0.00     0.031 C 
ATOM     59  C   UNL A   1      46.225  26.812  30.595  1.00  0.00     0.031 A 
BRANCH  46  60
ATOM     60  C   UNL A   1      43.741  32.295  31.990  1.00  0.00    -0.014 A 
ATOM     61  C   UNL A   1      43.454  32.524  33.346  1.00  0.00     0.009 A 
ATOM     62  C   UNL A   1      44.240  33.354  31.216  1.00  0.00     0.009 A 
ATOM     63  C   UNL A   1      43.625  33.794  33.902  1.00  0.00     0.001 A 
ATOM     64  C   UNL A   1      44.440  34.615  31.782  1.00  0.00     0.001 A 
ATOM     65  C   UNL A   1      44.123  34.836  33.121  1.00  0.00     0.000 A 
ENDBRANCH  46  60
BRANCH  47  66
ATOM     66  C   UNL A   1      42.154  23.467  27.623  1.00  0.00    -0.014 A 
ATOM     67  C   UNL A   1      42.518  23.271  26.282  1.00  0.00     0.009 A 
ATOM     68  C   UNL A   1      41.571  22.403  28.329  1.00  0.00     0.009 A 
ATOM     69  C   UNL A   1      42.282  22.047  25.655  1.00  0.00     0.001 A 
ATOM     70  C   UNL A   1      41.363  21.169  27.707  1.00  0.00     0.001 A 
ATOM     71  C   UNL A   1      41.709  20.995  26.370  1.00  0.00     0.000 A 
ENDBRANCH  47  66
BRANCH  59  72
ATOM     72  C   UNL A   1      47.596  26.288  30.924  1.00  0.00    -0.014 A 
ATOM     73  C   UNL A   1      47.886  25.738  32.182  1.00  0.00     0.009 A 
ATOM     74  C   UNL A   1      48.598  26.308  29.942  1.00  0.00     0.009 A 
ATOM     75  C   UNL A   1      49.165  25.250  32.460  1.00  0.00     0.001 A 
ATOM     76  C   UNL A   1      49.866  25.791  30.213  1.00  0.00     0.001 A 
ATOM     77  C   UNL A   1      50.150  25.271  31.474  1.00  0.00     0.000 A 
ENDBRANCH  59  72
ENDBRANCH  33  34
ENDBRANCH  25  28
ENDBRANCH  23  24
ENDBRANCH  22  23
ENDBRANCH   1  22
TORSDOF 14
ENDMDL
