MODEL 1
REMARK VINA RESULT:     -10.4      0.000      0.000
REMARK SMILES CC(C)COc1ccc(CC(=O)NCCCNC(=O)c2ccc(-c3c4nc(c(-c5ccccc5)c5ccc([nH]5)c(-c5ccccc5)c5nc(c(-c6ccccc6)c6ccc3[nH]6)C=C5)C=C4)cc2)cc1
REMARK SMILES IDX 14 1 13 2 11 3 12 4 10 6 9 7 6 8 7 9 69 10 8 11 68 12 5 13
REMARK SMILES IDX 4 14 2 15 1 16 3 17 15 18 16 19 17 20 18 21 19 23 20 24
REMARK SMILES IDX 21 25 67 26 22 27 66 28 23 29 24 30 25 31 60 32 26 33 65 34
REMARK SMILES IDX 59 35 61 36 27 37 64 38 58 39 57 40 28 42 50 43 35 44 49 45
REMARK SMILES IDX 36 46 39 47 48 48 62 49 37 50 38 51 47 53 63 54 40 55 29 56
REMARK SMILES IDX 30 57 34 58 31 59 33 60 32 61 51 62 52 63 56 64 53 65 55 66
REMARK SMILES IDX 54 67 41 68 42 69 46 70 43 71 45 72 44 73
REMARK H PARENT 13 5 17 22 61 41 39 52
REMARK Flexibility Score: inf
ROOT
ATOM      1  C   UNL A   1      33.653  26.751  25.495  1.00  0.00     0.117 C 
ENDROOT
BRANCH   1   2
ATOM      2  N   UNL A   1      34.049  26.531  24.117  1.00  0.00    -0.356 N 
ATOM      3  C   UNL A   1      33.405  25.856  23.118  1.00  0.00     0.224 C 
ATOM      4  O   UNL A   1      33.981  25.750  22.033  1.00  0.00    -0.275 OA
ATOM      5  H   UNL A   1      34.912  26.929  23.862  1.00  0.00     0.163 HD
BRANCH   3   6
ATOM      6  C   UNL A   1      32.001  25.310  23.318  1.00  0.00     0.135 C 
BRANCH   6   7
ATOM      7  C   UNL A   1      30.909  26.347  23.232  1.00  0.00    -0.038 A 
ATOM      8  C   UNL A   1      28.814  28.197  23.081  1.00  0.00     0.119 A 
ATOM      9  C   UNL A   1      30.015  28.463  22.429  1.00  0.00     0.047 A 
ATOM     10  C   UNL A   1      28.625  26.980  23.715  1.00  0.00     0.047 A 
ATOM     11  C   UNL A   1      31.055  27.525  22.484  1.00  0.00     0.008 A 
ATOM     12  C   UNL A   1      29.694  26.115  23.883  1.00  0.00     0.008 A 
BRANCH   8  13
ATOM     13  O   UNL A   1      27.797  29.109  23.082  1.00  0.00    -0.493 OA
BRANCH  13  14
ATOM     14  C   UNL A   1      27.941  30.078  22.019  1.00  0.00     0.232 C 
BRANCH  14  15
ATOM     15  C   UNL A   1      27.787  31.548  22.491  1.00  0.00     0.020 C 
ATOM     16  C   UNL A   1      28.775  31.907  23.613  1.00  0.00     0.011 C 
ATOM     17  C   UNL A   1      28.035  32.528  21.343  1.00  0.00     0.011 C 
ENDBRANCH  14  15
ENDBRANCH  13  14
ENDBRANCH   8  13
ENDBRANCH   6   7
ENDBRANCH   3   6
ENDBRANCH   1   2
BRANCH   1  18
ATOM     18  C   UNL A   1      33.522  28.238  25.821  1.00  0.00     0.042 C 
BRANCH  18  19
ATOM     19  C   UNL A   1      33.531  28.539  27.311  1.00  0.00     0.118 C 
BRANCH  19  20
ATOM     20  N   UNL A   1      33.553  29.969  27.587  1.00  0.00    -0.352 N 
ATOM     21  C   UNL A   1      34.540  30.735  28.159  1.00  0.00     0.251 C 
ATOM     22  H   UNL A   1      32.741  30.459  27.325  1.00  0.00     0.163 HD
ATOM     23  O   UNL A   1      34.308  31.891  28.481  1.00  0.00    -0.269 OA
BRANCH  21  24
ATOM     24  C   UNL A   1      35.876  30.150  28.403  1.00  0.00     0.039 A 
ATOM     25  C   UNL A   1      36.825  30.175  27.377  1.00  0.00     0.014 A 
ATOM     26  C   UNL A   1      36.190  29.571  29.635  1.00  0.00     0.014 A 
ATOM     27  C   UNL A   1      38.110  29.676  27.608  1.00  0.00     0.010 A 
ATOM     28  C   UNL A   1      37.490  29.150  29.889  1.00  0.00     0.010 A 
ATOM     29  C   UNL A   1      38.461  29.192  28.877  1.00  0.00    -0.014 A 
BRANCH  29  30
ATOM     30  C   UNL A   1      39.827  28.694  29.179  1.00  0.00     0.031 A 
ATOM     31  C   UNL A   1      40.836  29.625  29.795  1.00  0.00     0.074 A 
ATOM     32  C   UNL A   1      40.186  27.446  28.823  1.00  0.00     0.049 A 
ATOM     33  N   UNL A   1      42.117  29.446  29.987  1.00  0.00    -0.248 NA
ATOM     34  C   UNL A   1      40.341  30.944  30.225  1.00  0.00     0.031 C 
ATOM     35  C   UNL A   1      39.310  26.452  28.199  1.00  0.00     0.029 A 
ATOM     36  N   UNL A   1      41.399  26.807  28.913  1.00  0.00    -0.354 N 
ATOM     37  C   UNL A   1      42.582  30.632  30.540  1.00  0.00     0.074 A 
ATOM     38  C   UNL A   1      41.460  31.542  30.604  1.00  0.00     0.031 C 
ATOM     39  C   UNL A   1      40.010  25.330  27.969  1.00  0.00     0.029 A 
ATOM     40  C   UNL A   1      41.395  25.541  28.379  1.00  0.00     0.049 A 
ATOM     41  H   UNL A   1      42.195  27.217  29.323  1.00  0.00     0.167 HD
ATOM     42  C   UNL A   1      43.828  30.932  30.978  1.00  0.00     0.031 A 
ATOM     43  C   UNL A   1      42.400  24.659  28.213  1.00  0.00     0.031 A 
ATOM     44  C   UNL A   1      44.942  30.025  30.921  1.00  0.00     0.049 A 
ATOM     45  C   UNL A   1      43.786  25.032  28.670  1.00  0.00     0.074 A 
ATOM     46  C   UNL A   1      46.239  30.226  31.359  1.00  0.00     0.029 A 
ATOM     47  N   UNL A   1      44.888  28.744  30.395  1.00  0.00    -0.354 N 
ATOM     48  N   UNL A   1      44.201  26.144  29.229  1.00  0.00    -0.248 NA
ATOM     49  C   UNL A   1      44.840  24.025  28.483  1.00  0.00     0.031 C 
ATOM     50  C   UNL A   1      46.982  29.081  31.057  1.00  0.00     0.029 A 
ATOM     51  C   UNL A   1      46.131  28.145  30.490  1.00  0.00     0.049 A 
ATOM     52  H   UNL A   1      44.084  28.322  30.012  1.00  0.00     0.167 HD
ATOM     53  C   UNL A   1      45.551  25.951  29.497  1.00  0.00     0.074 A 
ATOM     54  C   UNL A   1      45.883  24.616  29.048  1.00  0.00     0.031 C 
ATOM     55  C   UNL A   1      46.437  26.805  30.064  1.00  0.00     0.031 A 
BRANCH  42  56
ATOM     56  C   UNL A   1      44.049  32.298  31.563  1.00  0.00    -0.014 A 
ATOM     57  C   UNL A   1      43.900  32.528  32.940  1.00  0.00     0.009 A 
ATOM     58  C   UNL A   1      44.456  33.359  30.739  1.00  0.00     0.009 A 
ATOM     59  C   UNL A   1      44.123  33.798  33.474  1.00  0.00     0.001 A 
ATOM     60  C   UNL A   1      44.709  34.620  31.280  1.00  0.00     0.001 A 
ATOM     61  C   UNL A   1      44.533  34.842  32.646  1.00  0.00     0.000 A 
ENDBRANCH  42  56
BRANCH  43  62
ATOM     62  C   UNL A   1      42.149  23.341  27.570  1.00  0.00    -0.014 A 
ATOM     63  C   UNL A   1      42.402  23.151  26.202  1.00  0.00     0.009 A 
ATOM     64  C   UNL A   1      41.619  22.275  28.314  1.00  0.00     0.009 A 
ATOM     65  C   UNL A   1      42.088  21.937  25.585  1.00  0.00     0.001 A 
ATOM     66  C   UNL A   1      41.339  21.051  27.701  1.00  0.00     0.001 A 
ATOM     67  C   UNL A   1      41.559  20.888  26.335  1.00  0.00     0.000 A 
ENDBRANCH  43  62
BRANCH  55  68
ATOM     68  C   UNL A   1      47.833  26.303  30.304  1.00  0.00    -0.014 A 
ATOM     69  C   UNL A   1      48.821  26.376  29.311  1.00  0.00     0.009 A 
ATOM     70  C   UNL A   1      48.177  25.812  31.573  1.00  0.00     0.009 A 
ATOM     71  C   UNL A   1      50.122  25.944  29.580  1.00  0.00     0.001 A 
ATOM     72  C   UNL A   1      49.484  25.411  31.849  1.00  0.00     0.001 A 
ATOM     73  C   UNL A   1      50.454  25.471  30.849  1.00  0.00     0.000 A 
ENDBRANCH  55  68
ENDBRANCH  29  30
ENDBRANCH  21  24
ENDBRANCH  19  20
ENDBRANCH  18  19
ENDBRANCH   1  18
TORSDOF 14
ENDMDL
MODEL 2
REMARK VINA RESULT:     -10.3      2.776      7.639
REMARK SMILES CC(C)COc1ccc(CC(=O)NCCCNC(=O)c2ccc(-c3c4nc(c(-c5ccccc5)c5ccc([nH]5)c(-c5ccccc5)c5nc(c(-c6ccccc6)c6ccc3[nH]6)C=C5)C=C4)cc2)cc1
REMARK SMILES IDX 14 1 13 2 11 3 12 4 10 6 9 7 6 8 7 9 69 10 8 11 68 12 5 13
REMARK SMILES IDX 4 14 2 15 1 16 3 17 15 18 16 19 17 20 18 21 19 23 20 24
REMARK SMILES IDX 21 25 67 26 22 27 66 28 23 29 24 30 25 31 60 32 26 33 65 34
REMARK SMILES IDX 59 35 61 36 27 37 64 38 58 39 57 40 28 42 50 43 35 44 49 45
REMARK SMILES IDX 36 46 39 47 48 48 62 49 37 50 38 51 47 53 63 54 40 55 29 56
REMARK SMILES IDX 30 57 34 58 31 59 33 60 32 61 51 62 52 63 56 64 53 65 55 66
REMARK SMILES IDX 54 67 41 68 42 69 46 70 43 71 45 72 44 73
REMARK H PARENT 13 5 17 22 61 41 39 52
REMARK Flexibility Score: inf
ROOT
ATOM      1  C   UNL A   1      36.374  20.565  24.940  1.00  0.00     0.117 C 
ENDROOT
BRANCH   1   2
ATOM      2  N   UNL A   1      35.164  19.827  25.249  1.00  0.00    -0.356 N 
ATOM      3  C   UNL A   1      33.859  20.131  24.976  1.00  0.00     0.224 C 
ATOM      4  O   UNL A   1      32.991  19.367  25.404  1.00  0.00    -0.275 OA
ATOM      5  H   UNL A   1      35.303  18.978  25.727  1.00  0.00     0.163 HD
BRANCH   3   6
ATOM      6  C   UNL A   1      33.496  21.333  24.122  1.00  0.00     0.135 C 
BRANCH   6   7
ATOM      7  C   UNL A   1      32.957  22.511  24.896  1.00  0.00    -0.038 A 
ATOM      8  C   UNL A   1      31.887  24.707  26.261  1.00  0.00     0.119 A 
ATOM      9  C   UNL A   1      33.244  24.417  26.380  1.00  0.00     0.047 A 
ATOM     10  C   UNL A   1      31.096  23.972  25.394  1.00  0.00     0.047 A 
ATOM     11  C   UNL A   1      33.784  23.332  25.676  1.00  0.00     0.008 A 
ATOM     12  C   UNL A   1      31.598  22.823  24.805  1.00  0.00     0.008 A 
BRANCH   8  13
ATOM     13  O   UNL A   1      31.322  25.731  26.967  1.00  0.00    -0.493 OA
BRANCH  13  14
ATOM     14  C   UNL A   1      31.501  27.005  26.306  1.00  0.00     0.232 C 
BRANCH  14  15
ATOM     15  C   UNL A   1      32.502  27.945  27.026  1.00  0.00     0.020 C 
ATOM     16  C   UNL A   1      33.855  28.023  26.300  1.00  0.00     0.011 C 
ATOM     17  C   UNL A   1      31.958  29.371  27.116  1.00  0.00     0.011 C 
ENDBRANCH  14  15
ENDBRANCH  13  14
ENDBRANCH   8  13
ENDBRANCH   6   7
ENDBRANCH   3   6
ENDBRANCH   1   2
BRANCH   1  18
ATOM     18  C   UNL A   1      37.608  19.664  24.945  1.00  0.00     0.042 C 
BRANCH  18  19
ATOM     19  C   UNL A   1      38.815  20.287  25.627  1.00  0.00     0.118 C 
BRANCH  19  20
ATOM     20  N   UNL A   1      39.925  19.353  25.753  1.00  0.00    -0.352 N 
ATOM     21  C   UNL A   1      41.235  19.590  26.089  1.00  0.00     0.251 C 
ATOM     22  H   UNL A   1      39.703  18.411  25.569  1.00  0.00     0.163 HD
ATOM     23  O   UNL A   1      42.070  18.705  25.963  1.00  0.00    -0.269 OA
BRANCH  21  24
ATOM     24  C   UNL A   1      41.638  20.924  26.585  1.00  0.00     0.039 A 
ATOM     25  C   UNL A   1      42.173  21.849  25.684  1.00  0.00     0.014 A 
ATOM     26  C   UNL A   1      41.498  21.258  27.933  1.00  0.00     0.014 A 
ATOM     27  C   UNL A   1      42.508  23.132  26.124  1.00  0.00     0.010 A 
ATOM     28  C   UNL A   1      41.755  22.558  28.353  1.00  0.00     0.010 A 
ATOM     29  C   UNL A   1      42.269  23.506  27.455  1.00  0.00    -0.014 A 
BRANCH  29  30
ATOM     30  C   UNL A   1      42.569  24.872  27.954  1.00  0.00     0.031 A 
ATOM     31  C   UNL A   1      43.958  25.197  28.433  1.00  0.00     0.074 A 
ATOM     32  C   UNL A   1      41.584  25.785  28.060  1.00  0.00     0.049 A 
ATOM     33  N   UNL A   1      44.391  26.265  29.053  1.00  0.00    -0.248 NA
ATOM     34  C   UNL A   1      44.991  24.171  28.210  1.00  0.00     0.031 C 
ATOM     35  C   UNL A   1      40.193  25.588  27.652  1.00  0.00     0.029 A 
ATOM     36  N   UNL A   1      41.602  27.060  28.571  1.00  0.00    -0.354 N 
ATOM     37  C   UNL A   1      45.735  26.031  29.308  1.00  0.00     0.074 A 
ATOM     38  C   UNL A   1      46.036  24.702  28.826  1.00  0.00     0.031 C 
ATOM     39  C   UNL A   1      39.492  26.701  27.922  1.00  0.00     0.029 A 
ATOM     40  C   UNL A   1      40.371  27.670  28.569  1.00  0.00     0.049 A 
ATOM     41  H   UNL A   1      42.420  27.495  28.905  1.00  0.00     0.167 HD
ATOM     42  C   UNL A   1      46.646  26.857  29.875  1.00  0.00     0.031 A 
ATOM     43  C   UNL A   1      39.988  28.866  29.059  1.00  0.00     0.031 A 
ATOM     44  C   UNL A   1      46.348  28.182  30.347  1.00  0.00     0.049 A 
ATOM     45  C   UNL A   1      41.012  29.750  29.721  1.00  0.00     0.074 A 
ATOM     46  C   UNL A   1      47.207  29.107  30.915  1.00  0.00     0.029 A 
ATOM     47  N   UNL A   1      45.095  28.771  30.303  1.00  0.00    -0.354 N 
ATOM     48  N   UNL A   1      42.289  29.530  29.919  1.00  0.00    -0.248 NA
ATOM     49  C   UNL A   1      40.543  31.051  30.218  1.00  0.00     0.031 C 
ATOM     50  C   UNL A   1      46.462  30.240  31.256  1.00  0.00     0.029 A 
ATOM     51  C   UNL A   1      45.154  30.043  30.842  1.00  0.00     0.049 A 
ATOM     52  H   UNL A   1      44.282  28.346  29.941  1.00  0.00     0.167 HD
ATOM     53  C   UNL A   1      42.782  30.680  30.524  1.00  0.00     0.074 A 
ATOM     54  C   UNL A   1      41.669  31.597  30.652  1.00  0.00     0.031 C 
ATOM     55  C   UNL A   1      44.043  30.952  30.936  1.00  0.00     0.031 A 
BRANCH  42  56
ATOM     56  C   UNL A   1      48.055  26.352  30.007  1.00  0.00    -0.014 A 
ATOM     57  C   UNL A   1      48.488  25.713  31.180  1.00  0.00     0.009 A 
ATOM     58  C   UNL A   1      48.950  26.473  28.932  1.00  0.00     0.009 A 
ATOM     59  C   UNL A   1      49.795  25.235  31.286  1.00  0.00     0.001 A 
ATOM     60  C   UNL A   1      50.246  25.965  29.028  1.00  0.00     0.001 A 
ATOM     61  C   UNL A   1      50.671  25.355  30.208  1.00  0.00     0.000 A 
ENDBRANCH  42  56
BRANCH  43  62
ATOM     62  C   UNL A   1      38.568  29.300  28.962  1.00  0.00    -0.014 A 
ATOM     63  C   UNL A   1      37.697  29.151  30.053  1.00  0.00     0.009 A 
ATOM     64  C   UNL A   1      38.065  29.833  27.764  1.00  0.00     0.009 A 
ATOM     65  C   UNL A   1      36.345  29.484  29.932  1.00  0.00     0.001 A 
ATOM     66  C   UNL A   1      36.722  30.197  27.657  1.00  0.00     0.001 A 
ATOM     67  C   UNL A   1      35.860  30.009  28.736  1.00  0.00     0.000 A 
ENDBRANCH  43  62
BRANCH  55  68
ATOM     68  C   UNL A   1      44.313  32.321  31.498  1.00  0.00    -0.014 A 
ATOM     69  C   UNL A   1      44.661  33.399  30.671  1.00  0.00     0.009 A 
ATOM     70  C   UNL A   1      44.148  32.542  32.874  1.00  0.00     0.009 A 
ATOM     71  C   UNL A   1      44.860  34.669  31.218  1.00  0.00     0.001 A 
ATOM     72  C   UNL A   1      44.317  33.817  33.413  1.00  0.00     0.001 A 
ATOM     73  C   UNL A   1      44.680  34.878  32.584  1.00  0.00     0.000 A 
ENDBRANCH  55  68
ENDBRANCH  29  30
ENDBRANCH  21  24
ENDBRANCH  19  20
ENDBRANCH  18  19
ENDBRANCH   1  18
TORSDOF 14
ENDMDL
MODEL 3
REMARK VINA RESULT:     -10.2      1.985      4.092
REMARK SMILES CC(C)COc1ccc(CC(=O)NCCCNC(=O)c2ccc(-c3c4nc(c(-c5ccccc5)c5ccc([nH]5)c(-c5ccccc5)c5nc(c(-c6ccccc6)c6ccc3[nH]6)C=C5)C=C4)cc2)cc1
REMARK SMILES IDX 14 1 13 2 11 3 12 4 10 6 9 7 6 8 7 9 69 10 8 11 68 12 5 13
REMARK SMILES IDX 4 14 2 15 1 16 3 17 15 18 16 19 17 20 18 21 19 23 20 24
REMARK SMILES IDX 21 25 67 26 22 27 66 28 23 29 24 30 25 31 60 32 26 33 65 34
REMARK SMILES IDX 59 35 61 36 27 37 64 38 58 39 57 40 28 42 50 43 35 44 49 45
REMARK SMILES IDX 36 46 39 47 48 48 62 49 37 50 38 51 47 53 63 54 40 55 29 56
REMARK SMILES IDX 30 57 34 58 31 59 33 60 32 61 51 62 52 63 56 64 53 65 55 66
REMARK SMILES IDX 54 67 41 68 42 69 46 70 43 71 45 72 44 73
REMARK H PARENT 13 5 17 22 61 41 39 52
REMARK Flexibility Score: inf
ROOT
ATOM      1  C   UNL A   1      33.144  29.368  24.933  1.00  0.00     0.117 C 
ENDROOT
BRANCH   1   2
ATOM      2  N   UNL A   1      33.653  29.186  23.587  1.00  0.00    -0.356 N 
ATOM      3  C   UNL A   1      33.528  28.121  22.740  1.00  0.00     0.224 C 
ATOM      4  O   UNL A   1      34.113  28.178  21.656  1.00  0.00    -0.275 OA
ATOM      5  H   UNL A   1      34.167  29.945  23.229  1.00  0.00     0.163 HD
BRANCH   3   6
ATOM      6  C   UNL A   1      32.646  26.936  23.095  1.00  0.00     0.135 C 
BRANCH   6   7
ATOM      7  C   UNL A   1      33.399  25.668  23.409  1.00  0.00    -0.038 A 
ATOM      8  C   UNL A   1      34.861  23.368  24.050  1.00  0.00     0.119 A 
ATOM      9  C   UNL A   1      34.201  23.445  22.826  1.00  0.00     0.047 A 
ATOM     10  C   UNL A   1      34.874  24.462  24.899  1.00  0.00     0.047 A 
ATOM     11  C   UNL A   1      33.490  24.607  22.495  1.00  0.00     0.008 A 
ATOM     12  C   UNL A   1      34.065  25.554  24.633  1.00  0.00     0.008 A 
BRANCH   8  13
ATOM     13  O   UNL A   1      35.526  22.234  24.420  1.00  0.00    -0.493 OA
BRANCH  13  14
ATOM     14  C   UNL A   1      36.852  22.175  23.846  1.00  0.00     0.232 C 
BRANCH  14  15
ATOM     15  C   UNL A   1      37.966  21.867  24.880  1.00  0.00     0.020 C 
ATOM     16  C   UNL A   1      38.057  22.941  25.977  1.00  0.00     0.011 C 
ATOM     17  C   UNL A   1      37.719  20.530  25.580  1.00  0.00     0.011 C 
ENDBRANCH  14  15
ENDBRANCH  13  14
ENDBRANCH   8  13
ENDBRANCH   6   7
ENDBRANCH   3   6
ENDBRANCH   1   2
BRANCH   1  18
ATOM     18  C   UNL A   1      34.006  28.650  25.970  1.00  0.00     0.042 C 
BRANCH  18  19
ATOM     19  C   UNL A   1      33.556  28.883  27.404  1.00  0.00     0.118 C 
BRANCH  19  20
ATOM     20  N   UNL A   1      33.595  30.290  27.775  1.00  0.00    -0.352 N 
ATOM     21  C   UNL A   1      34.590  31.005  28.396  1.00  0.00     0.251 C 
ATOM     22  H   UNL A   1      32.788  30.807  27.546  1.00  0.00     0.163 HD
ATOM     23  O   UNL A   1      34.371  32.140  28.795  1.00  0.00    -0.269 OA
BRANCH  21  24
ATOM     24  C   UNL A   1      35.919  30.391  28.600  1.00  0.00     0.039 A 
ATOM     25  C   UNL A   1      36.845  30.414  27.553  1.00  0.00     0.014 A 
ATOM     26  C   UNL A   1      36.250  29.785  29.814  1.00  0.00     0.014 A 
ATOM     27  C   UNL A   1      38.124  29.886  27.745  1.00  0.00     0.010 A 
ATOM     28  C   UNL A   1      37.546  29.335  30.032  1.00  0.00     0.010 A 
ATOM     29  C   UNL A   1      38.494  29.374  28.998  1.00  0.00    -0.014 A 
BRANCH  29  30
ATOM     30  C   UNL A   1      39.857  28.844  29.260  1.00  0.00     0.031 A 
ATOM     31  C   UNL A   1      40.903  29.750  29.851  1.00  0.00     0.074 A 
ATOM     32  C   UNL A   1      40.178  27.590  28.890  1.00  0.00     0.049 A 
ATOM     33  N   UNL A   1      42.185  29.542  30.007  1.00  0.00    -0.248 NA
ATOM     34  C   UNL A   1      40.450  31.079  30.298  1.00  0.00     0.031 C 
ATOM     35  C   UNL A   1      39.262  26.619  28.288  1.00  0.00     0.029 A 
ATOM     36  N   UNL A   1      41.378  26.924  28.945  1.00  0.00    -0.354 N 
ATOM     37  C   UNL A   1      42.692  30.715  30.551  1.00  0.00     0.074 A 
ATOM     38  C   UNL A   1      41.593  31.649  30.649  1.00  0.00     0.031 C 
ATOM     39  C   UNL A   1      39.931  25.481  28.035  1.00  0.00     0.029 A 
ATOM     40  C   UNL A   1      41.331  25.660  28.407  1.00  0.00     0.049 A 
ATOM     41  H   UNL A   1      42.194  27.315  29.333  1.00  0.00     0.167 HD
ATOM     42  C   UNL A   1      43.956  30.986  30.954  1.00  0.00     0.031 A 
ATOM     43  C   UNL A   1      42.311  24.757  28.210  1.00  0.00     0.031 A 
ATOM     44  C   UNL A   1      45.047  30.054  30.863  1.00  0.00     0.049 A 
ATOM     45  C   UNL A   1      43.717  25.097  28.629  1.00  0.00     0.074 A 
ATOM     46  C   UNL A   1      46.360  30.224  31.265  1.00  0.00     0.029 A 
ATOM     47  N   UNL A   1      44.950  28.776  30.335  1.00  0.00    -0.354 N 
ATOM     48  N   UNL A   1      44.172  26.197  29.180  1.00  0.00    -0.248 NA
ATOM     49  C   UNL A   1      44.742  24.067  28.410  1.00  0.00     0.031 C 
ATOM     50  C   UNL A   1      47.068  29.063  30.940  1.00  0.00     0.029 A 
ATOM     51  C   UNL A   1      46.181  28.149  30.394  1.00  0.00     0.049 A 
ATOM     52  H   UNL A   1      44.126  28.374  29.973  1.00  0.00     0.167 HD
ATOM     53  C   UNL A   1      45.525  25.973  29.410  1.00  0.00     0.074 A 
ATOM     54  C   UNL A   1      45.813  24.632  28.948  1.00  0.00     0.031 C 
ATOM     55  C   UNL A   1      46.444  26.804  29.954  1.00  0.00     0.031 A 
BRANCH  42  56
ATOM     56  C   UNL A   1      44.224  32.344  31.538  1.00  0.00    -0.014 A 
ATOM     57  C   UNL A   1      44.168  32.560  32.924  1.00  0.00     0.009 A 
ATOM     58  C   UNL A   1      44.582  33.411  30.699  1.00  0.00     0.009 A 
ATOM     59  C   UNL A   1      44.433  33.824  33.455  1.00  0.00     0.001 A 
ATOM     60  C   UNL A   1      44.878  34.665  31.235  1.00  0.00     0.001 A 
ATOM     61  C   UNL A   1      44.795  34.873  32.611  1.00  0.00     0.000 A 
ENDBRANCH  42  56
BRANCH  43  62
ATOM     62  C   UNL A   1      42.012  23.447  27.570  1.00  0.00    -0.014 A 
ATOM     63  C   UNL A   1      41.519  22.375  28.331  1.00  0.00     0.009 A 
ATOM     64  C   UNL A   1      42.251  23.251  26.201  1.00  0.00     0.009 A 
ATOM     65  C   UNL A   1      41.316  21.123  27.744  1.00  0.00     0.001 A 
ATOM     66  C   UNL A   1      42.014  22.008  25.609  1.00  0.00     0.001 A 
ATOM     67  C   UNL A   1      41.561  20.941  26.384  1.00  0.00     0.000 A 
ENDBRANCH  43  62
BRANCH  55  68
ATOM     68  C   UNL A   1      47.836  26.271  30.154  1.00  0.00    -0.014 A 
ATOM     69  C   UNL A   1      48.249  25.737  31.383  1.00  0.00     0.009 A 
ATOM     70  C   UNL A   1      48.722  26.242  29.065  1.00  0.00     0.009 A 
ATOM     71  C   UNL A   1      49.534  25.207  31.523  1.00  0.00     0.001 A 
ATOM     72  C   UNL A   1      49.993  25.683  29.200  1.00  0.00     0.001 A 
ATOM     73  C   UNL A   1      50.400  25.172  30.431  1.00  0.00     0.000 A 
ENDBRANCH  55  68
ENDBRANCH  29  30
ENDBRANCH  21  24
ENDBRANCH  19  20
ENDBRANCH  18  19
ENDBRANCH   1  18
TORSDOF 14
ENDMDL
