MODEL 1
REMARK VINA RESULT:     -11.0      0.000      0.000
REMARK SMILES O=C(CC1(NC(=O)c2cc(Cl)ccc2Cl)CCC1)NCCCNC(=O)c1ccc(-c2c3nc(c(-c4ccccc4)c4ccc([nH]4)c(-c4ccccc4)c4nc(c(-c5ccccc5)c5ccc2[nH]5)C=C4)C=C3)cc1
REMARK SMILES IDX 20 1 19 2 1 3 2 4 3 6 4 7 16 8 18 9 17 10 5 11 6 12 7 14
REMARK SMILES IDX 8 15 9 16 14 17 10 18 13 19 15 20 11 21 12 22 21 23 22 24
REMARK SMILES IDX 23 25 24 26 25 28 26 29 27 30 73 31 28 32 72 33 29 34 30 35
REMARK SMILES IDX 31 36 66 37 32 38 71 39 65 40 67 41 33 42 70 43 64 44 63 45
REMARK SMILES IDX 34 47 56 48 41 49 55 50 42 51 45 52 54 53 68 54 43 55 44 56
REMARK SMILES IDX 53 58 69 59 46 60 35 61 36 62 40 63 37 64 39 65 38 66 57 67
REMARK SMILES IDX 58 68 62 69 59 70 61 71 60 72 47 73 48 74 52 75 49 76 51 77
REMARK SMILES IDX 50 78
REMARK H PARENT 19 5 5 13 23 27 67 46 45 57
REMARK Flexibility Score: inf
ROOT
ATOM      1  C   UNL A   1      38.332  21.515  25.375  1.00  0.00     0.117 C 
ENDROOT
BRANCH   1   2
ATOM      2  N   UNL A   1      37.094  21.687  24.650  1.00  0.00    -0.356 N 
ATOM      3  O   UNL A   1      36.103  23.172  26.087  1.00  0.00    -0.275 OA
ATOM      4  C   UNL A   1      36.035  22.422  25.122  1.00  0.00     0.222 C 
ATOM      5  H   UNL A   1      37.004  21.253  23.772  1.00  0.00     0.163 HD
BRANCH   4   6
ATOM      6  C   UNL A   1      34.782  22.212  24.305  1.00  0.00     0.128 C 
BRANCH   6   7
ATOM      7  C   UNL A   1      33.687  21.400  24.993  1.00  0.00     0.049 C 
ATOM      8  C   UNL A   1      32.323  21.251  24.232  1.00  0.00     0.029 C 
ATOM      9  C   UNL A   1      33.924  19.875  24.722  1.00  0.00     0.029 C 
ATOM     10  C   UNL A   1      32.519  19.738  24.139  1.00  0.00     0.005 C 
BRANCH   7  11
ATOM     11  N   UNL A   1      33.422  21.645  26.447  1.00  0.00    -0.346 N 
ATOM     12  C   UNL A   1      32.773  22.588  27.210  1.00  0.00     0.253 C 
ATOM     13  H   UNL A   1      33.821  20.942  27.009  1.00  0.00     0.164 HD
ATOM     14  O   UNL A   1      32.666  22.418  28.422  1.00  0.00    -0.269 OA
BRANCH  12  15
ATOM     15  C   UNL A   1      32.222  23.815  26.636  1.00  0.00     0.059 A 
ATOM     16  C   UNL A   1      33.099  24.830  26.237  1.00  0.00     0.036 A 
ATOM     17  C   UNL A   1      30.837  23.978  26.511  1.00  0.00     0.053 A 
ATOM     18  C   UNL A   1      32.577  26.053  25.819  1.00  0.00     0.041 A 
ATOM     19  C   UNL A   1      30.327  25.201  26.065  1.00  0.00     0.023 A 
ATOM     20  Cl  UNL A   1      29.713  22.744  26.944  1.00  0.00    -0.083 Cl
ATOM     21  Cl  UNL A   1      33.630  27.360  25.444  1.00  0.00    -0.084 Cl
ATOM     22  C   UNL A   1      31.197  26.246  25.744  1.00  0.00     0.022 A 
ENDBRANCH  12  15
ENDBRANCH   7  11
ENDBRANCH   6   7
ENDBRANCH   4   6
ENDBRANCH   1   2
BRANCH   1  23
ATOM     23  C   UNL A   1      38.909  20.128  25.115  1.00  0.00     0.042 C 
BRANCH  23  24
ATOM     24  C   UNL A   1      39.703  19.549  26.284  1.00  0.00     0.118 C 
BRANCH  24  25
ATOM     25  N   UNL A   1      41.014  19.053  25.895  1.00  0.00    -0.352 N 
ATOM     26  C   UNL A   1      42.221  19.708  25.870  1.00  0.00     0.251 C 
ATOM     27  H   UNL A   1      41.041  18.111  25.607  1.00  0.00     0.163 HD
ATOM     28  O   UNL A   1      43.198  19.179  25.362  1.00  0.00    -0.269 OA
BRANCH  26  29
ATOM     29  C   UNL A   1      42.321  21.068  26.437  1.00  0.00     0.039 A 
ATOM     30  C   UNL A   1      42.209  21.224  27.819  1.00  0.00     0.014 A 
ATOM     31  C   UNL A   1      42.533  22.178  25.613  1.00  0.00     0.014 A 
ATOM     32  C   UNL A   1      42.361  22.491  28.379  1.00  0.00     0.010 A 
ATOM     33  C   UNL A   1      42.771  23.425  26.182  1.00  0.00     0.010 A 
ATOM     34  C   UNL A   1      42.677  23.597  27.570  1.00  0.00    -0.014 A 
BRANCH  34  35
ATOM     35  C   UNL A   1      42.914  24.928  28.181  1.00  0.00     0.031 A 
ATOM     36  C   UNL A   1      44.299  25.350  28.590  1.00  0.00     0.074 A 
ATOM     37  C   UNL A   1      41.869  25.755  28.378  1.00  0.00     0.049 A 
ATOM     38  N   UNL A   1      44.700  26.500  29.071  1.00  0.00    -0.248 NA
ATOM     39  C   UNL A   1      45.368  24.347  28.468  1.00  0.00     0.031 C 
ATOM     40  C   UNL A   1      40.470  25.439  28.081  1.00  0.00     0.029 A 
ATOM     41  N   UNL A   1      41.823  27.040  28.859  1.00  0.00    -0.354 N 
ATOM     42  C   UNL A   1      46.060  26.356  29.311  1.00  0.00     0.074 A 
ATOM     43  C   UNL A   1      46.404  24.989  28.986  1.00  0.00     0.031 C 
ATOM     44  C   UNL A   1      39.712  26.518  28.331  1.00  0.00     0.029 A 
ATOM     45  C   UNL A   1      40.563  27.588  28.840  1.00  0.00     0.049 A 
ATOM     46  H   UNL A   1      42.617  27.522  29.185  1.00  0.00     0.167 HD
ATOM     47  C   UNL A   1      46.951  27.283  29.737  1.00  0.00     0.031 A 
ATOM     48  C   UNL A   1      40.143  28.820  29.182  1.00  0.00     0.031 A 
ATOM     49  C   UNL A   1      46.606  28.643  30.061  1.00  0.00     0.049 A 
ATOM     50  C   UNL A   1      41.151  29.831  29.649  1.00  0.00     0.074 A 
ATOM     51  C   UNL A   1      47.441  29.674  30.454  1.00  0.00     0.029 A 
ATOM     52  N   UNL A   1      45.319  29.157  30.037  1.00  0.00    -0.354 N 
ATOM     53  N   UNL A   1      42.449  29.704  29.787  1.00  0.00    -0.248 NA
ATOM     54  C   UNL A   1      40.636  31.165  29.984  1.00  0.00     0.031 C 
ATOM     55  C   UNL A   1      46.651  30.798  30.723  1.00  0.00     0.029 A 
ATOM     56  C   UNL A   1      45.333  30.485  30.431  1.00  0.00     0.049 A 
ATOM     57  H   UNL A   1      44.514  28.653  29.778  1.00  0.00     0.167 HD
ATOM     58  C   UNL A   1      42.909  30.949  30.199  1.00  0.00     0.074 A 
ATOM     59  C   UNL A   1      41.754  31.821  30.258  1.00  0.00     0.031 C 
ATOM     60  C   UNL A   1      44.174  31.336  30.499  1.00  0.00     0.031 A 
BRANCH  47  61
ATOM     61  C   UNL A   1      48.385  26.850  29.881  1.00  0.00    -0.014 A 
ATOM     62  C   UNL A   1      48.858  26.275  31.073  1.00  0.00     0.009 A 
ATOM     63  C   UNL A   1      49.270  26.988  28.801  1.00  0.00     0.009 A 
ATOM     64  C   UNL A   1      50.194  25.886  31.193  1.00  0.00     0.001 A 
ATOM     65  C   UNL A   1      50.597  26.567  28.912  1.00  0.00     0.001 A 
ATOM     66  C   UNL A   1      51.061  26.027  30.110  1.00  0.00     0.000 A 
ENDBRANCH  47  61
BRANCH  48  67
ATOM     67  C   UNL A   1      38.704  29.178  29.063  1.00  0.00    -0.014 A 
ATOM     68  C   UNL A   1      37.852  29.098  30.176  1.00  0.00     0.009 A 
ATOM     69  C   UNL A   1      38.173  29.592  27.832  1.00  0.00     0.009 A 
ATOM     70  C   UNL A   1      36.492  29.391  30.049  1.00  0.00     0.001 A 
ATOM     71  C   UNL A   1      36.819  29.917  27.716  1.00  0.00     0.001 A 
ATOM     72  C   UNL A   1      35.978  29.804  28.822  1.00  0.00     0.000 A 
ENDBRANCH  48  67
BRANCH  60  73
ATOM     73  C   UNL A   1      44.369  32.777  30.885  1.00  0.00    -0.014 A 
ATOM     74  C   UNL A   1      44.346  33.189  32.227  1.00  0.00     0.009 A 
ATOM     75  C   UNL A   1      44.577  33.740  29.885  1.00  0.00     0.009 A 
ATOM     76  C   UNL A   1      44.470  34.540  32.555  1.00  0.00     0.001 A 
ATOM     77  C   UNL A   1      44.738  35.086  30.217  1.00  0.00     0.001 A 
ATOM     78  C   UNL A   1      44.668  35.487  31.550  1.00  0.00     0.000 A 
ENDBRANCH  60  73
ENDBRANCH  34  35
ENDBRANCH  26  29
ENDBRANCH  24  25
ENDBRANCH  23  24
ENDBRANCH   1  23
TORSDOF 13
ENDMDL
MODEL 2
REMARK VINA RESULT:     -10.7      2.392      7.792
REMARK SMILES O=C(CC1(NC(=O)c2cc(Cl)ccc2Cl)CCC1)NCCCNC(=O)c1ccc(-c2c3nc(c(-c4ccccc4)c4ccc([nH]4)c(-c4ccccc4)c4nc(c(-c5ccccc5)c5ccc2[nH]5)C=C4)C=C3)cc1
REMARK SMILES IDX 20 1 19 2 1 3 2 4 3 6 4 7 16 8 18 9 17 10 5 11 6 12 7 14
REMARK SMILES IDX 8 15 9 16 14 17 10 18 13 19 15 20 11 21 12 22 21 23 22 24
REMARK SMILES IDX 23 25 24 26 25 28 26 29 27 30 73 31 28 32 72 33 29 34 30 35
REMARK SMILES IDX 31 36 66 37 32 38 71 39 65 40 67 41 33 42 70 43 64 44 63 45
REMARK SMILES IDX 34 47 56 48 41 49 55 50 42 51 45 52 54 53 68 54 43 55 44 56
REMARK SMILES IDX 53 58 69 59 46 60 35 61 36 62 40 63 37 64 39 65 38 66 57 67
REMARK SMILES IDX 58 68 62 69 59 70 61 71 60 72 47 73 48 74 52 75 49 76 51 77
REMARK SMILES IDX 50 78
REMARK H PARENT 19 5 5 13 23 27 67 46 45 57
REMARK Flexibility Score: inf
ROOT
ATOM      1  C   UNL A   1      31.975  29.142  25.660  1.00  0.00     0.117 C 
ENDROOT
BRANCH   1   2
ATOM      2  N   UNL A   1      31.394  27.998  24.996  1.00  0.00    -0.356 N 
ATOM      3  O   UNL A   1      31.038  26.711  26.858  1.00  0.00    -0.275 OA
ATOM      4  C   UNL A   1      31.069  26.830  25.641  1.00  0.00     0.222 C 
ATOM      5  H   UNL A   1      31.222  28.058  24.028  1.00  0.00     0.163 HD
BRANCH   4   6
ATOM      6  C   UNL A   1      30.741  25.714  24.677  1.00  0.00     0.128 C 
BRANCH   6   7
ATOM      7  C   UNL A   1      31.610  24.466  24.808  1.00  0.00     0.049 C 
ATOM      8  C   UNL A   1      31.507  23.400  23.661  1.00  0.00     0.029 C 
ATOM      9  C   UNL A   1      33.054  24.782  24.289  1.00  0.00     0.029 C 
ATOM     10  C   UNL A   1      32.975  23.622  23.297  1.00  0.00     0.005 C 
BRANCH   7  11
ATOM     11  N   UNL A   1      31.663  23.769  26.133  1.00  0.00    -0.346 N 
ATOM     12  C   UNL A   1      32.561  22.993  26.830  1.00  0.00     0.253 C 
ATOM     13  H   UNL A   1      30.832  23.900  26.643  1.00  0.00     0.164 HD
ATOM     14  O   UNL A   1      32.302  22.655  27.983  1.00  0.00    -0.269 OA
BRANCH  12  15
ATOM     15  C   UNL A   1      33.813  22.524  26.240  1.00  0.00     0.059 A 
ATOM     16  C   UNL A   1      34.965  23.309  26.378  1.00  0.00     0.036 A 
ATOM     17  C   UNL A   1      33.853  21.319  25.528  1.00  0.00     0.053 A 
ATOM     18  C   UNL A   1      36.126  22.936  25.703  1.00  0.00     0.041 A 
ATOM     19  C   UNL A   1      35.032  20.943  24.877  1.00  0.00     0.023 A 
ATOM     20  Cl  UNL A   1      32.478  20.290  25.365  1.00  0.00    -0.083 Cl
ATOM     21  Cl  UNL A   1      37.516  23.948  25.750  1.00  0.00    -0.084 Cl
ATOM     22  C   UNL A   1      36.159  21.765  24.944  1.00  0.00     0.022 A 
ENDBRANCH  12  15
ENDBRANCH   7  11
ENDBRANCH   6   7
ENDBRANCH   4   6
ENDBRANCH   1   2
BRANCH   1  23
ATOM     23  C   UNL A   1      33.475  28.941  25.843  1.00  0.00     0.042 C 
BRANCH  23  24
ATOM     24  C   UNL A   1      33.920  28.826  27.300  1.00  0.00     0.118 C 
BRANCH  24  25
ATOM     25  N   UNL A   1      33.940  30.105  27.994  1.00  0.00    -0.352 N 
ATOM     26  C   UNL A   1      34.951  30.685  28.721  1.00  0.00     0.251 C 
ATOM     27  H   UNL A   1      33.109  30.630  27.936  1.00  0.00     0.163 HD
ATOM     28  O   UNL A   1      34.739  31.697  29.371  1.00  0.00    -0.269 OA
BRANCH  26  29
ATOM     29  C   UNL A   1      36.289  30.059  28.732  1.00  0.00     0.039 A 
ATOM     30  C   UNL A   1      37.074  30.145  27.582  1.00  0.00     0.014 A 
ATOM     31  C   UNL A   1      36.768  29.403  29.869  1.00  0.00     0.014 A 
ATOM     32  C   UNL A   1      38.363  29.616  27.591  1.00  0.00     0.010 A 
ATOM     33  C   UNL A   1      38.084  28.953  29.905  1.00  0.00     0.010 A 
ATOM     34  C   UNL A   1      38.892  29.045  28.763  1.00  0.00    -0.014 A 
BRANCH  34  35
ATOM     35  C   UNL A   1      40.291  28.552  28.790  1.00  0.00     0.031 A 
ATOM     36  C   UNL A   1      40.610  27.126  28.433  1.00  0.00     0.074 A 
ATOM     37  C   UNL A   1      41.278  29.395  29.151  1.00  0.00     0.049 A 
ATOM     38  N   UNL A   1      41.779  26.544  28.333  1.00  0.00    -0.248 NA
ATOM     39  C   UNL A   1      39.472  26.229  28.178  1.00  0.00     0.031 C 
ATOM     40  C   UNL A   1      41.091  30.784  29.580  1.00  0.00     0.029 A 
ATOM     41  N   UNL A   1      42.637  29.213  29.200  1.00  0.00    -0.354 N 
ATOM     42  C   UNL A   1      41.515  25.219  28.010  1.00  0.00     0.074 A 
ATOM     43  C   UNL A   1      40.077  25.066  27.995  1.00  0.00     0.031 C 
ATOM     44  C   UNL A   1      42.293  31.343  29.791  1.00  0.00     0.029 A 
ATOM     45  C   UNL A   1      43.330  30.347  29.551  1.00  0.00     0.049 A 
ATOM     46  H   UNL A   1      43.073  28.353  29.002  1.00  0.00     0.167 HD
ATOM     47  C   UNL A   1      42.390  24.225  27.724  1.00  0.00     0.031 A 
ATOM     48  C   UNL A   1      44.654  30.562  29.653  1.00  0.00     0.031 A 
ATOM     49  C   UNL A   1      43.821  24.379  27.742  1.00  0.00     0.049 A 
ATOM     50  C   UNL A   1      45.603  29.443  29.328  1.00  0.00     0.074 A 
ATOM     51  C   UNL A   1      44.793  23.449  27.420  1.00  0.00     0.029 A 
ATOM     52  N   UNL A   1      44.483  25.540  28.109  1.00  0.00    -0.354 N 
ATOM     53  N   UNL A   1      45.338  28.219  28.939  1.00  0.00    -0.248 NA
ATOM     54  C   UNL A   1      47.036  29.747  29.434  1.00  0.00     0.031 C 
ATOM     55  C   UNL A   1      46.046  24.028  27.648  1.00  0.00     0.029 A 
ATOM     56  C   UNL A   1      45.853  25.342  28.045  1.00  0.00     0.049 A 
ATOM     57  H   UNL A   1      44.046  26.380  28.376  1.00  0.00     0.167 HD
ATOM     58  C   UNL A   1      46.571  27.615  28.727  1.00  0.00     0.074 A 
ATOM     59  C   UNL A   1      47.579  28.617  29.003  1.00  0.00     0.031 C 
ATOM     60  C   UNL A   1      46.844  26.345  28.337  1.00  0.00     0.031 A 
BRANCH  47  61
ATOM     61  C   UNL A   1      41.815  22.878  27.374  1.00  0.00    -0.014 A 
ATOM     62  C   UNL A   1      42.182  21.721  28.081  1.00  0.00     0.009 A 
ATOM     63  C   UNL A   1      40.868  22.768  26.344  1.00  0.00     0.009 A 
ATOM     64  C   UNL A   1      41.646  20.478  27.737  1.00  0.00     0.001 A 
ATOM     65  C   UNL A   1      40.307  21.530  26.025  1.00  0.00     0.001 A 
ATOM     66  C   UNL A   1      40.704  20.384  26.713  1.00  0.00     0.000 A 
ENDBRANCH  47  61
BRANCH  48  67
ATOM     67  C   UNL A   1      45.164  31.902  30.049  1.00  0.00    -0.014 A 
ATOM     68  C   UNL A   1      45.435  32.881  29.078  1.00  0.00     0.009 A 
ATOM     69  C   UNL A   1      45.394  32.207  31.399  1.00  0.00     0.009 A 
ATOM     70  C   UNL A   1      45.957  34.122  29.450  1.00  0.00     0.001 A 
ATOM     71  C   UNL A   1      45.884  33.461  31.770  1.00  0.00     0.001 A 
ATOM     72  C   UNL A   1      46.177  34.412  30.795  1.00  0.00     0.000 A 
ENDBRANCH  48  67
BRANCH  60  73
ATOM     73  C   UNL A   1      48.295  25.988  28.156  1.00  0.00    -0.014 A 
ATOM     74  C   UNL A   1      48.917  26.053  26.899  1.00  0.00     0.009 A 
ATOM     75  C   UNL A   1      49.051  25.577  29.265  1.00  0.00     0.009 A 
ATOM     76  C   UNL A   1      50.248  25.659  26.747  1.00  0.00     0.001 A 
ATOM     77  C   UNL A   1      50.392  25.220  29.118  1.00  0.00     0.001 A 
ATOM     78  C   UNL A   1      50.984  25.245  27.857  1.00  0.00     0.000 A 
ENDBRANCH  60  73
ENDBRANCH  34  35
ENDBRANCH  26  29
ENDBRANCH  24  25
ENDBRANCH  23  24
ENDBRANCH   1  23
TORSDOF 13
ENDMDL
MODEL 3
REMARK VINA RESULT:     -10.6      3.967      8.971
REMARK SMILES O=C(CC1(NC(=O)c2cc(Cl)ccc2Cl)CCC1)NCCCNC(=O)c1ccc(-c2c3nc(c(-c4ccccc4)c4ccc([nH]4)c(-c4ccccc4)c4nc(c(-c5ccccc5)c5ccc2[nH]5)C=C4)C=C3)cc1
REMARK SMILES IDX 20 1 19 2 1 3 2 4 3 6 4 7 16 8 18 9 17 10 5 11 6 12 7 14
REMARK SMILES IDX 8 15 9 16 14 17 10 18 13 19 15 20 11 21 12 22 21 23 22 24
REMARK SMILES IDX 23 25 24 26 25 28 26 29 27 30 73 31 28 32 72 33 29 34 30 35
REMARK SMILES IDX 31 36 66 37 32 38 71 39 65 40 67 41 33 42 70 43 64 44 63 45
REMARK SMILES IDX 34 47 56 48 41 49 55 50 42 51 45 52 54 53 68 54 43 55 44 56
REMARK SMILES IDX 53 58 69 59 46 60 35 61 36 62 40 63 37 64 39 65 38 66 57 67
REMARK SMILES IDX 58 68 62 69 59 70 61 71 60 72 47 73 48 74 52 75 49 76 51 77
REMARK SMILES IDX 50 78
REMARK H PARENT 19 5 5 13 23 27 67 46 45 57
REMARK Flexibility Score: inf
ROOT
ATOM      1  C   UNL A   1      33.100  30.285  27.296  1.00  0.00     0.117 C 
ENDROOT
BRANCH   1   2
ATOM      2  N   UNL A   1      32.320  29.154  26.848  1.00  0.00    -0.356 N 
ATOM      3  O   UNL A   1      33.771  28.398  25.243  1.00  0.00    -0.275 OA
ATOM      4  C   UNL A   1      32.674  28.363  25.783  1.00  0.00     0.222 C 
ATOM      5  H   UNL A   1      31.491  28.938  27.333  1.00  0.00     0.163 HD
BRANCH   4   6
ATOM      6  C   UNL A   1      31.558  27.434  25.364  1.00  0.00     0.128 C 
BRANCH   6   7
ATOM      7  C   UNL A   1      31.100  27.582  23.915  1.00  0.00     0.049 C 
ATOM      8  C   UNL A   1      29.648  27.098  23.572  1.00  0.00     0.029 C 
ATOM      9  C   UNL A   1      30.593  29.045  23.678  1.00  0.00     0.029 C 
ATOM     10  C   UNL A   1      29.243  28.521  23.189  1.00  0.00     0.005 C 
BRANCH   7  11
ATOM     11  N   UNL A   1      32.036  27.163  22.823  1.00  0.00    -0.346 N 
ATOM     12  C   UNL A   1      32.890  26.113  22.574  1.00  0.00     0.253 C 
ATOM     13  H   UNL A   1      32.043  27.813  22.084  1.00  0.00     0.164 HD
ATOM     14  O   UNL A   1      33.456  26.037  21.485  1.00  0.00    -0.269 OA
BRANCH  12  15
ATOM     15  C   UNL A   1      33.180  25.086  23.572  1.00  0.00     0.059 A 
ATOM     16  C   UNL A   1      34.406  25.123  24.248  1.00  0.00     0.036 A 
ATOM     17  C   UNL A   1      32.254  24.068  23.830  1.00  0.00     0.053 A 
ATOM     18  C   UNL A   1      34.744  24.072  25.099  1.00  0.00     0.041 A 
ATOM     19  C   UNL A   1      32.596  23.033  24.706  1.00  0.00     0.023 A 
ATOM     20  Cl  UNL A   1      30.712  23.998  23.061  1.00  0.00    -0.083 Cl
ATOM     21  Cl  UNL A   1      36.295  24.027  25.843  1.00  0.00    -0.084 Cl
ATOM     22  C   UNL A   1      33.851  23.023  25.319  1.00  0.00     0.022 A 
ENDBRANCH  12  15
ENDBRANCH   7  11
ENDBRANCH   6   7
ENDBRANCH   4   6
ENDBRANCH   1   2
BRANCH   1  23
ATOM     23  C   UNL A   1      32.242  31.546  27.310  1.00  0.00     0.042 C 
BRANCH  23  24
ATOM     24  C   UNL A   1      32.996  32.822  26.941  1.00  0.00     0.118 C 
BRANCH  24  25
ATOM     25  N   UNL A   1      32.593  33.974  27.734  1.00  0.00    -0.352 N 
ATOM     26  C   UNL A   1      33.185  34.511  28.851  1.00  0.00     0.251 C 
ATOM     27  H   UNL A   1      31.780  34.435  27.426  1.00  0.00     0.163 HD
ATOM     28  O   UNL A   1      32.620  35.389  29.484  1.00  0.00    -0.269 OA
BRANCH  26  29
ATOM     29  C   UNL A   1      34.497  33.998  29.296  1.00  0.00     0.039 A 
ATOM     30  C   UNL A   1      34.534  33.101  30.363  1.00  0.00     0.014 A 
ATOM     31  C   UNL A   1      35.678  34.392  28.659  1.00  0.00     0.014 A 
ATOM     32  C   UNL A   1      35.755  32.558  30.759  1.00  0.00     0.010 A 
ATOM     33  C   UNL A   1      36.882  33.783  28.999  1.00  0.00     0.010 A 
ATOM     34  C   UNL A   1      36.935  32.868  30.059  1.00  0.00    -0.014 A 
BRANCH  34  35
ATOM     35  C   UNL A   1      38.219  32.228  30.437  1.00  0.00     0.031 A 
ATOM     36  C   UNL A   1      39.098  32.836  31.496  1.00  0.00     0.074 A 
ATOM     37  C   UNL A   1      38.599  31.098  29.810  1.00  0.00     0.049 A 
ATOM     38  N   UNL A   1      40.215  32.376  32.001  1.00  0.00    -0.248 NA
ATOM     39  C   UNL A   1      38.685  34.137  32.042  1.00  0.00     0.031 C 
ATOM     40  C   UNL A   1      37.866  30.444  28.723  1.00  0.00     0.029 A 
ATOM     41  N   UNL A   1      39.690  30.288  30.007  1.00  0.00    -0.354 N 
ATOM     42  C   UNL A   1      40.637  33.331  32.917  1.00  0.00     0.074 A 
ATOM     43  C   UNL A   1      39.693  34.425  32.851  1.00  0.00     0.031 C 
ATOM     44  C   UNL A   1      38.495  29.306  28.390  1.00  0.00     0.029 A 
ATOM     45  C   UNL A   1      39.692  29.168  29.211  1.00  0.00     0.049 A 
ATOM     46  H   UNL A   1      40.400  30.491  30.658  1.00  0.00     0.167 HD
ATOM     47  C   UNL A   1      41.698  33.291  33.758  1.00  0.00     0.031 A 
ATOM     48  C   UNL A   1      40.557  28.138  29.159  1.00  0.00     0.031 A 
ATOM     49  C   UNL A   1      42.637  32.202  33.821  1.00  0.00     0.049 A 
ATOM     50  C   UNL A   1      41.724  28.116  30.104  1.00  0.00     0.074 A 
ATOM     51  C   UNL A   1      43.716  32.041  34.672  1.00  0.00     0.029 A 
ATOM     52  N   UNL A   1      42.610  31.090  32.994  1.00  0.00    -0.354 N 
ATOM     53  N   UNL A   1      42.061  28.987  31.026  1.00  0.00    -0.248 NA
ATOM     54  C   UNL A   1      42.618  26.954  30.017  1.00  0.00     0.031 C 
ATOM     55  C   UNL A   1      44.378  30.860  34.320  1.00  0.00     0.029 A 
ATOM     56  C   UNL A   1      43.669  30.250  33.297  1.00  0.00     0.049 A 
ATOM     57  H   UNL A   1      41.939  30.922  32.294  1.00  0.00     0.167 HD
ATOM     58  C   UNL A   1      43.189  28.465  31.646  1.00  0.00     0.074 A 
ATOM     59  C   UNL A   1      43.458  27.190  31.014  1.00  0.00     0.031 C 
ATOM     60  C   UNL A   1      43.933  28.991  32.649  1.00  0.00     0.031 A 
BRANCH  47  61
ATOM     61  C   UNL A   1      41.899  34.469  34.674  1.00  0.00    -0.014 A 
ATOM     62  C   UNL A   1      42.676  35.573  34.285  1.00  0.00     0.009 A 
ATOM     63  C   UNL A   1      41.277  34.491  35.932  1.00  0.00     0.009 A 
ATOM     64  C   UNL A   1      42.860  36.653  35.150  1.00  0.00     0.001 A 
ATOM     65  C   UNL A   1      41.434  35.588  36.782  1.00  0.00     0.001 A 
ATOM     66  C   UNL A   1      42.233  36.663  36.396  1.00  0.00     0.000 A 
ENDBRANCH  47  61
BRANCH  48  67
ATOM     67  C   UNL A   1      40.332  27.023  28.200  1.00  0.00    -0.014 A 
ATOM     68  C   UNL A   1      39.552  25.913  28.563  1.00  0.00     0.009 A 
ATOM     69  C   UNL A   1      40.906  27.058  26.920  1.00  0.00     0.009 A 
ATOM     70  C   UNL A   1      39.382  24.847  27.677  1.00  0.00     0.001 A 
ATOM     71  C   UNL A   1      40.706  26.005  26.024  1.00  0.00     0.001 A 
ATOM     72  C   UNL A   1      39.954  24.896  26.407  1.00  0.00     0.000 A 
ENDBRANCH  48  67
BRANCH  60  73
ATOM     73  C   UNL A   1      45.090  28.165  33.142  1.00  0.00    -0.014 A 
ATOM     74  C   UNL A   1      44.933  27.215  34.165  1.00  0.00     0.009 A 
ATOM     75  C   UNL A   1      46.361  28.343  32.573  1.00  0.00     0.009 A 
ATOM     76  C   UNL A   1      46.034  26.503  34.644  1.00  0.00     0.001 A 
ATOM     77  C   UNL A   1      47.453  27.604  33.028  1.00  0.00     0.001 A 
ATOM     78  C   UNL A   1      47.292  26.697  34.075  1.00  0.00     0.000 A 
ENDBRANCH  60  73
ENDBRANCH  34  35
ENDBRANCH  26  29
ENDBRANCH  24  25
ENDBRANCH  23  24
ENDBRANCH   1  23
TORSDOF 13
ENDMDL
