MODEL 1
REMARK VINA RESULT:     -12.1      0.000      0.000
REMARK SMILES CC[C@@H](Oc1ccccc1/C=C1/SC(Nc2ccc(F)cc2)=[NH+]C1=O)C(=O)NCCCNC(=O)c1ccc(-c2c3nc(c(-c4ccccc4)c4ccc([nH]4)c(-c4ccccc4)c4nc(c(-c5ccccc5)c5ccc2[nH]5)C=C4)C=C3)cc1
REMARK SMILES IDX 29 1 28 2 26 3 27 4 3 6 2 7 1 8 4 9 5 10 6 11 10 12 7 13
REMARK SMILES IDX 9 14 8 15 11 16 12 17 13 18 24 19 14 20 23 21 25 22 15 23
REMARK SMILES IDX 16 26 17 27 22 28 18 29 21 30 19 31 20 32 30 33 31 34 32 35
REMARK SMILES IDX 33 36 34 38 35 39 36 40 82 41 37 42 81 43 38 44 39 45 40 46
REMARK SMILES IDX 75 47 41 48 80 49 74 50 76 51 42 52 79 53 73 54 72 55 43 57
REMARK SMILES IDX 65 58 50 59 64 60 51 61 54 62 63 63 77 64 52 65 53 66 62 68
REMARK SMILES IDX 78 69 55 70 44 71 45 72 49 73 46 74 48 75 47 76 66 77 67 78
REMARK SMILES IDX 71 79 68 80 70 81 69 82 56 83 57 84 61 85 58 86 60 87 59 88
REMARK H PARENT 28 5 23 24 15 25 32 37 76 56 54 67
REMARK Flexibility Score: inf
ROOT
ATOM      1  C   UNL A   1      36.747  20.387  24.612  1.00  0.00     0.118 C 
ENDROOT
BRANCH   1   2
ATOM      2  N   UNL A   1      36.989  21.735  25.100  1.00  0.00    -0.353 N 
ATOM      3  C   UNL A   1      36.229  22.572  25.868  1.00  0.00     0.261 C 
ATOM      4  O   UNL A   1      36.791  23.594  26.280  1.00  0.00    -0.271 OA
ATOM      5  H   UNL A   1      37.857  22.112  24.829  1.00  0.00     0.163 HD
BRANCH   3   6
ATOM      6  C   UNL A   1      34.711  22.380  26.108  1.00  0.00     0.261 C 
BRANCH   6   7
ATOM      7  C   UNL A   1      34.445  22.705  27.591  1.00  0.00     0.052 C 
ATOM      8  C   UNL A   1      33.023  22.367  28.030  1.00  0.00     0.008 C 
ENDBRANCH   6   7
BRANCH   6   9
ATOM      9  O   UNL A   1      33.904  23.196  25.260  1.00  0.00    -0.480 OA
BRANCH   9  10
ATOM     10  C   UNL A   1      33.217  22.526  24.278  1.00  0.00     0.127 A 
ATOM     11  C   UNL A   1      32.789  21.219  24.513  1.00  0.00     0.047 A 
ATOM     12  C   UNL A   1      33.101  23.088  22.989  1.00  0.00     0.018 A 
ATOM     13  C   UNL A   1      32.203  20.485  23.479  1.00  0.00     0.004 A 
ATOM     14  C   UNL A   1      32.491  22.352  21.968  1.00  0.00     0.012 A 
ATOM     15  C   UNL A   1      32.047  21.052  22.213  1.00  0.00     0.001 A 
BRANCH  12  16
ATOM     16  C   UNL A   1      33.596  24.437  22.692  1.00  0.00     0.036 C 
ATOM     17  C   UNL A   1      32.862  25.548  22.833  1.00  0.00     0.110 C 
ATOM     18  S   UNL A   1      33.329  27.088  22.202  1.00  0.00     0.006 SA
ATOM     19  C   UNL A   1      31.514  25.659  23.466  1.00  0.00     0.346 C 
ATOM     20  C   UNL A   1      31.779  27.730  22.681  1.00  0.00     0.322 C 
ATOM     21  N   UNL A   1      30.993  26.910  23.299  1.00  0.00    -0.199 N 
ATOM     22  O   UNL A   1      30.947  24.766  24.081  1.00  0.00    -0.240 OA
ATOM     23  N   UNL A   1      31.479  29.024  22.347  1.00  0.00    -0.235 N 
ATOM     24  H   UNL A   1      30.098  27.166  23.621  1.00  0.00     0.316 HD
ATOM     25  H   UNL A   1      32.100  29.565  21.808  1.00  0.00     0.313 HD
BRANCH  23  26
ATOM     26  C   UNL A   1      30.258  29.559  22.796  1.00  0.00     0.125 A 
ATOM     27  C   UNL A   1      30.228  30.391  23.914  1.00  0.00     0.055 A 
ATOM     28  C   UNL A   1      29.127  29.489  21.973  1.00  0.00     0.055 A 
ATOM     29  C   UNL A   1      29.116  31.199  24.162  1.00  0.00     0.043 A 
ATOM     30  C   UNL A   1      27.992  30.248  22.257  1.00  0.00     0.043 A 
ATOM     31  C   UNL A   1      28.004  31.110  23.342  1.00  0.00     0.123 A 
ATOM     32  F   UNL A   1      26.941  31.887  23.587  1.00  0.00    -0.207 F 
ENDBRANCH  23  26
ENDBRANCH  12  16
ENDBRANCH   9  10
ENDBRANCH   6   9
ENDBRANCH   3   6
ENDBRANCH   1   2
BRANCH   1  33
ATOM     33  C   UNL A   1      37.812  19.385  25.044  1.00  0.00     0.042 C 
BRANCH  33  34
ATOM     34  C   UNL A   1      39.023  19.958  25.782  1.00  0.00     0.118 C 
BRANCH  34  35
ATOM     35  N   UNL A   1      40.229  19.134  25.731  1.00  0.00    -0.352 N 
ATOM     36  C   UNL A   1      41.539  19.353  26.100  1.00  0.00     0.251 C 
ATOM     37  H   UNL A   1      40.074  18.238  25.354  1.00  0.00     0.163 HD
ATOM     38  O   UNL A   1      42.349  18.439  25.953  1.00  0.00    -0.269 OA
BRANCH  36  39
ATOM     39  C   UNL A   1      42.039  20.673  26.569  1.00  0.00     0.039 A 
ATOM     40  C   UNL A   1      42.246  21.674  25.602  1.00  0.00     0.014 A 
ATOM     41  C   UNL A   1      42.298  20.967  27.905  1.00  0.00     0.014 A 
ATOM     42  C   UNL A   1      42.558  22.983  25.974  1.00  0.00     0.010 A 
ATOM     43  C   UNL A   1      42.607  22.274  28.286  1.00  0.00     0.010 A 
ATOM     44  C   UNL A   1      42.734  23.290  27.324  1.00  0.00    -0.014 A 
BRANCH  44  45
ATOM     45  C   UNL A   1      43.316  24.588  27.726  1.00  0.00     0.031 A 
ATOM     46  C   UNL A   1      42.358  25.656  28.169  1.00  0.00     0.074 A 
ATOM     47  C   UNL A   1      44.638  24.825  27.681  1.00  0.00     0.049 A 
ATOM     48  N   UNL A   1      42.581  26.914  28.441  1.00  0.00    -0.248 NA
ATOM     49  C   UNL A   1      40.951  25.243  28.308  1.00  0.00     0.031 C 
ATOM     50  C   UNL A   1      45.671  23.848  27.339  1.00  0.00     0.029 A 
ATOM     51  N   UNL A   1      45.337  25.983  27.919  1.00  0.00    -0.354 N 
ATOM     52  C   UNL A   1      41.338  27.445  28.762  1.00  0.00     0.074 A 
ATOM     53  C   UNL A   1      40.366  26.386  28.618  1.00  0.00     0.031 C 
ATOM     54  C   UNL A   1      46.873  24.452  27.380  1.00  0.00     0.029 A 
ATOM     55  C   UNL A   1      46.690  25.865  27.710  1.00  0.00     0.049 A 
ATOM     56  H   UNL A   1      44.908  26.819  28.213  1.00  0.00     0.167 HD
ATOM     57  C   UNL A   1      41.031  28.705  29.144  1.00  0.00     0.031 A 
ATOM     58  C   UNL A   1      47.658  26.801  27.761  1.00  0.00     0.031 A 
ATOM     59  C   UNL A   1      41.998  29.760  29.259  1.00  0.00     0.049 A 
ATOM     60  C   UNL A   1      47.283  28.223  28.102  1.00  0.00     0.074 A 
ATOM     61  C   UNL A   1      41.800  31.080  29.616  1.00  0.00     0.029 A 
ATOM     62  N   UNL A   1      43.354  29.608  29.008  1.00  0.00    -0.354 N 
ATOM     63  N   UNL A   1      46.105  28.721  28.399  1.00  0.00    -0.248 NA
ATOM     64  C   UNL A   1      48.371  29.212  28.116  1.00  0.00     0.031 C 
ATOM     65  C   UNL A   1      43.029  31.741  29.526  1.00  0.00     0.029 A 
ATOM     66  C   UNL A   1      44.003  30.817  29.179  1.00  0.00     0.049 A 
ATOM     67  H   UNL A   1      43.790  28.764  28.747  1.00  0.00     0.167 HD
ATOM     68  C   UNL A   1      46.316  30.069  28.666  1.00  0.00     0.074 A 
ATOM     69  C   UNL A   1      47.736  30.309  28.506  1.00  0.00     0.031 C 
ATOM     70  C   UNL A   1      45.420  31.025  29.017  1.00  0.00     0.031 A 
BRANCH  57  71
ATOM     71  C   UNL A   1      39.580  29.000  29.396  1.00  0.00    -0.014 A 
ATOM     72  C   UNL A   1      38.747  29.504  28.383  1.00  0.00     0.009 A 
ATOM     73  C   UNL A   1      39.050  28.815  30.683  1.00  0.00     0.009 A 
ATOM     74  C   UNL A   1      37.430  29.869  28.669  1.00  0.00     0.001 A 
ATOM     75  C   UNL A   1      37.723  29.149  30.955  1.00  0.00     0.001 A 
ATOM     76  C   UNL A   1      36.919  29.689  29.953  1.00  0.00     0.000 A 
ENDBRANCH  57  71
BRANCH  58  77
ATOM     77  C   UNL A   1      49.073  26.444  27.462  1.00  0.00    -0.014 A 
ATOM     78  C   UNL A   1      49.545  26.426  26.140  1.00  0.00     0.009 A 
ATOM     79  C   UNL A   1      49.954  26.089  28.497  1.00  0.00     0.009 A 
ATOM     80  C   UNL A   1      50.858  26.035  25.859  1.00  0.00     0.001 A 
ATOM     81  C   UNL A   1      51.274  25.727  28.216  1.00  0.00     0.001 A 
ATOM     82  C   UNL A   1      51.723  25.691  26.897  1.00  0.00     0.000 A 
ENDBRANCH  58  77
BRANCH  70  83
ATOM     83  C   UNL A   1      45.948  32.404  29.298  1.00  0.00    -0.014 A 
ATOM     84  C   UNL A   1      45.921  33.413  28.324  1.00  0.00     0.009 A 
ATOM     85  C   UNL A   1      46.413  32.715  30.586  1.00  0.00     0.009 A 
ATOM     86  C   UNL A   1      46.377  34.698  28.626  1.00  0.00     0.001 A 
ATOM     87  C   UNL A   1      46.838  34.007  30.895  1.00  0.00     0.001 A 
ATOM     88  C   UNL A   1      46.827  34.995  29.913  1.00  0.00     0.000 A 
ENDBRANCH  70  83
ENDBRANCH  44  45
ENDBRANCH  36  39
ENDBRANCH  34  35
ENDBRANCH  33  34
ENDBRANCH   1  33
TORSDOF 15
ENDMDL
MODEL 2
REMARK VINA RESULT:     -11.4      2.787      6.709
REMARK SMILES CC[C@@H](Oc1ccccc1/C=C1/SC(Nc2ccc(F)cc2)=[NH+]C1=O)C(=O)NCCCNC(=O)c1ccc(-c2c3nc(c(-c4ccccc4)c4ccc([nH]4)c(-c4ccccc4)c4nc(c(-c5ccccc5)c5ccc2[nH]5)C=C4)C=C3)cc1
REMARK SMILES IDX 29 1 28 2 26 3 27 4 3 6 2 7 1 8 4 9 5 10 6 11 10 12 7 13
REMARK SMILES IDX 9 14 8 15 11 16 12 17 13 18 24 19 14 20 23 21 25 22 15 23
REMARK SMILES IDX 16 26 17 27 22 28 18 29 21 30 19 31 20 32 30 33 31 34 32 35
REMARK SMILES IDX 33 36 34 38 35 39 36 40 82 41 37 42 81 43 38 44 39 45 40 46
REMARK SMILES IDX 75 47 41 48 80 49 74 50 76 51 42 52 79 53 73 54 72 55 43 57
REMARK SMILES IDX 65 58 50 59 64 60 51 61 54 62 63 63 77 64 52 65 53 66 62 68
REMARK SMILES IDX 78 69 55 70 44 71 45 72 49 73 46 74 48 75 47 76 66 77 67 78
REMARK SMILES IDX 71 79 68 80 70 81 69 82 56 83 57 84 61 85 58 86 60 87 59 88
REMARK H PARENT 28 5 23 24 15 25 32 37 76 56 54 67
REMARK Flexibility Score: inf
ROOT
ATOM      1  C   UNL A   1      34.409  20.898  25.644  1.00  0.00     0.118 C 
ENDROOT
BRANCH   1   2
ATOM      2  N   UNL A   1      34.050  21.577  26.879  1.00  0.00    -0.353 N 
ATOM      3  C   UNL A   1      33.056  22.467  27.169  1.00  0.00     0.261 C 
ATOM      4  O   UNL A   1      32.887  22.725  28.368  1.00  0.00    -0.271 OA
ATOM      5  H   UNL A   1      34.628  21.353  27.644  1.00  0.00     0.163 HD
BRANCH   3   6
ATOM      6  C   UNL A   1      32.264  23.254  26.095  1.00  0.00     0.261 C 
BRANCH   6   7
ATOM      7  C   UNL A   1      30.944  23.705  26.749  1.00  0.00     0.052 C 
ATOM      8  C   UNL A   1      29.863  22.629  26.714  1.00  0.00     0.008 C 
ENDBRANCH   6   7
BRANCH   6   9
ATOM      9  O   UNL A   1      32.982  24.376  25.583  1.00  0.00    -0.480 OA
BRANCH   9  10
ATOM     10  C   UNL A   1      32.721  24.694  24.272  1.00  0.00     0.127 A 
ATOM     11  C   UNL A   1      33.258  23.902  23.256  1.00  0.00     0.047 A 
ATOM     12  C   UNL A   1      32.066  25.903  23.957  1.00  0.00     0.018 A 
ATOM     13  C   UNL A   1      33.104  24.289  21.922  1.00  0.00     0.004 A 
ATOM     14  C   UNL A   1      31.897  26.267  22.617  1.00  0.00     0.012 A 
ATOM     15  C   UNL A   1      32.420  25.463  21.603  1.00  0.00     0.001 A 
BRANCH  12  16
ATOM     16  C   UNL A   1      31.543  26.789  25.003  1.00  0.00     0.036 C 
ATOM     17  C   UNL A   1      32.239  27.798  25.542  1.00  0.00     0.110 C 
ATOM     18  S   UNL A   1      31.750  28.641  26.970  1.00  0.00     0.006 SA
ATOM     19  C   UNL A   1      33.559  28.323  25.084  1.00  0.00     0.346 C 
ATOM     20  C   UNL A   1      33.262  29.510  26.949  1.00  0.00     0.322 C 
ATOM     21  N   UNL A   1      34.049  29.253  25.956  1.00  0.00    -0.199 N 
ATOM     22  O   UNL A   1      34.131  27.995  24.052  1.00  0.00    -0.240 OA
ATOM     23  N   UNL A   1      33.536  30.365  27.983  1.00  0.00    -0.235 N 
ATOM     24  H   UNL A   1      34.924  29.688  25.840  1.00  0.00     0.316 HD
ATOM     25  H   UNL A   1      32.919  30.452  28.746  1.00  0.00     0.313 HD
BRANCH  23  26
ATOM     26  C   UNL A   1      34.724  31.115  27.927  1.00  0.00     0.125 A 
ATOM     27  C   UNL A   1      34.671  32.508  27.897  1.00  0.00     0.055 A 
ATOM     28  C   UNL A   1      35.952  30.489  28.181  1.00  0.00     0.055 A 
ATOM     29  C   UNL A   1      35.808  33.264  28.193  1.00  0.00     0.043 A 
ATOM     30  C   UNL A   1      37.101  31.244  28.413  1.00  0.00     0.043 A 
ATOM     31  C   UNL A   1      37.014  32.627  28.433  1.00  0.00     0.123 A 
ATOM     32  F   UNL A   1      38.100  33.359  28.714  1.00  0.00    -0.207 F 
ENDBRANCH  23  26
ENDBRANCH  12  16
ENDBRANCH   9  10
ENDBRANCH   6   9
ENDBRANCH   3   6
ENDBRANCH   1   2
BRANCH   1  33
ATOM     33  C   UNL A   1      35.436  21.657  24.811  1.00  0.00     0.042 C 
BRANCH  33  34
ATOM     34  C   UNL A   1      36.688  22.136  25.549  1.00  0.00     0.118 C 
BRANCH  34  35
ATOM     35  N   UNL A   1      37.775  21.162  25.622  1.00  0.00    -0.352 N 
ATOM     36  C   UNL A   1      39.069  21.226  26.095  1.00  0.00     0.251 C 
ATOM     37  H   UNL A   1      37.535  20.280  25.258  1.00  0.00     0.163 HD
ATOM     38  O   UNL A   1      39.762  20.211  26.042  1.00  0.00    -0.269 OA
BRANCH  36  39
ATOM     39  C   UNL A   1      39.698  22.488  26.568  1.00  0.00     0.039 A 
ATOM     40  C   UNL A   1      39.198  23.699  26.057  1.00  0.00     0.014 A 
ATOM     41  C   UNL A   1      40.739  22.528  27.492  1.00  0.00     0.014 A 
ATOM     42  C   UNL A   1      39.621  24.928  26.568  1.00  0.00     0.010 A 
ATOM     43  C   UNL A   1      41.167  23.752  28.010  1.00  0.00     0.010 A 
ATOM     44  C   UNL A   1      40.607  24.958  27.555  1.00  0.00    -0.014 A 
BRANCH  44  45
ATOM     45  C   UNL A   1      41.258  26.234  27.924  1.00  0.00     0.031 A 
ATOM     46  C   UNL A   1      42.599  26.515  27.313  1.00  0.00     0.074 A 
ATOM     47  C   UNL A   1      40.696  27.101  28.784  1.00  0.00     0.049 A 
ATOM     48  N   UNL A   1      43.443  27.480  27.565  1.00  0.00    -0.248 NA
ATOM     49  C   UNL A   1      43.053  25.562  26.286  1.00  0.00     0.031 C 
ATOM     50  C   UNL A   1      39.369  26.973  29.384  1.00  0.00     0.029 A 
ATOM     51  N   UNL A   1      41.192  28.269  29.310  1.00  0.00    -0.354 N 
ATOM     52  C   UNL A   1      44.535  27.235  26.742  1.00  0.00     0.074 A 
ATOM     53  C   UNL A   1      44.262  26.019  26.012  1.00  0.00     0.031 C 
ATOM     54  C   UNL A   1      39.160  28.018  30.206  1.00  0.00     0.029 A 
ATOM     55  C   UNL A   1      40.353  28.865  30.219  1.00  0.00     0.049 A 
ATOM     56  H   UNL A   1      42.067  28.643  29.058  1.00  0.00     0.167 HD
ATOM     57  C   UNL A   1      45.668  27.961  26.604  1.00  0.00     0.031 A 
ATOM     58  C   UNL A   1      40.544  29.956  30.987  1.00  0.00     0.031 A 
ATOM     59  C   UNL A   1      45.946  29.153  27.353  1.00  0.00     0.049 A 
ATOM     60  C   UNL A   1      41.853  30.702  30.885  1.00  0.00     0.074 A 
ATOM     61  C   UNL A   1      47.068  29.958  27.313  1.00  0.00     0.029 A 
ATOM     62  N   UNL A   1      45.084  29.708  28.288  1.00  0.00    -0.354 N 
ATOM     63  N   UNL A   1      42.884  30.464  30.109  1.00  0.00    -0.248 NA
ATOM     64  C   UNL A   1      42.022  31.869  31.764  1.00  0.00     0.031 C 
ATOM     65  C   UNL A   1      46.909  30.969  28.267  1.00  0.00     0.029 A 
ATOM     66  C   UNL A   1      45.659  30.832  28.850  1.00  0.00     0.049 A 
ATOM     67  H   UNL A   1      44.193  29.353  28.517  1.00  0.00     0.167 HD
ATOM     68  C   UNL A   1      43.808  31.466  30.382  1.00  0.00     0.074 A 
ATOM     69  C   UNL A   1      43.210  32.321  31.388  1.00  0.00     0.031 C 
ATOM     70  C   UNL A   1      45.039  31.667  29.848  1.00  0.00     0.031 A 
BRANCH  57  71
ATOM     71  C   UNL A   1      46.700  27.427  25.652  1.00  0.00    -0.014 A 
ATOM     72  C   UNL A   1      47.644  26.468  26.054  1.00  0.00     0.009 A 
ATOM     73  C   UNL A   1      46.757  27.930  24.342  1.00  0.00     0.009 A 
ATOM     74  C   UNL A   1      48.657  26.065  25.182  1.00  0.00     0.001 A 
ATOM     75  C   UNL A   1      47.751  27.499  23.462  1.00  0.00     0.001 A 
ATOM     76  C   UNL A   1      48.708  26.580  23.887  1.00  0.00     0.000 A 
ENDBRANCH  57  71
BRANCH  58  77
ATOM     77  C   UNL A   1      39.490  30.407  31.938  1.00  0.00    -0.014 A 
ATOM     78  C   UNL A   1      39.471  29.940  33.262  1.00  0.00     0.009 A 
ATOM     79  C   UNL A   1      38.477  31.285  31.519  1.00  0.00     0.009 A 
ATOM     80  C   UNL A   1      38.447  30.320  34.136  1.00  0.00     0.001 A 
ATOM     81  C   UNL A   1      37.472  31.687  32.403  1.00  0.00     0.001 A 
ATOM     82  C   UNL A   1      37.452  31.197  33.708  1.00  0.00     0.000 A 
ENDBRANCH  58  77
BRANCH  70  83
ATOM     83  C   UNL A   1      45.804  32.879  30.301  1.00  0.00    -0.014 A 
ATOM     84  C   UNL A   1      45.698  34.107  29.632  1.00  0.00     0.009 A 
ATOM     85  C   UNL A   1      46.587  32.805  31.465  1.00  0.00     0.009 A 
ATOM     86  C   UNL A   1      46.385  35.228  30.102  1.00  0.00     0.001 A 
ATOM     87  C   UNL A   1      47.246  33.934  31.951  1.00  0.00     0.001 A 
ATOM     88  C   UNL A   1      47.151  35.143  31.264  1.00  0.00     0.000 A 
ENDBRANCH  70  83
ENDBRANCH  44  45
ENDBRANCH  36  39
ENDBRANCH  34  35
ENDBRANCH  33  34
ENDBRANCH   1  33
TORSDOF 15
ENDMDL
MODEL 3
REMARK VINA RESULT:     -11.2      5.196     10.604
REMARK SMILES CC[C@@H](Oc1ccccc1/C=C1/SC(Nc2ccc(F)cc2)=[NH+]C1=O)C(=O)NCCCNC(=O)c1ccc(-c2c3nc(c(-c4ccccc4)c4ccc([nH]4)c(-c4ccccc4)c4nc(c(-c5ccccc5)c5ccc2[nH]5)C=C4)C=C3)cc1
REMARK SMILES IDX 29 1 28 2 26 3 27 4 3 6 2 7 1 8 4 9 5 10 6 11 10 12 7 13
REMARK SMILES IDX 9 14 8 15 11 16 12 17 13 18 24 19 14 20 23 21 25 22 15 23
REMARK SMILES IDX 16 26 17 27 22 28 18 29 21 30 19 31 20 32 30 33 31 34 32 35
REMARK SMILES IDX 33 36 34 38 35 39 36 40 82 41 37 42 81 43 38 44 39 45 40 46
REMARK SMILES IDX 75 47 41 48 80 49 74 50 76 51 42 52 79 53 73 54 72 55 43 57
REMARK SMILES IDX 65 58 50 59 64 60 51 61 54 62 63 63 77 64 52 65 53 66 62 68
REMARK SMILES IDX 78 69 55 70 44 71 45 72 49 73 46 74 48 75 47 76 66 77 67 78
REMARK SMILES IDX 71 79 68 80 70 81 69 82 56 83 57 84 61 85 58 86 60 87 59 88
REMARK H PARENT 28 5 23 24 15 25 32 37 76 56 54 67
REMARK Flexibility Score: inf
ROOT
ATOM      1  C   UNL A   1      31.623  30.062  25.359  1.00  0.00     0.118 C 
ENDROOT
BRANCH   1   2
ATOM      2  N   UNL A   1      32.681  29.268  25.962  1.00  0.00    -0.353 N 
ATOM      3  C   UNL A   1      33.164  28.025  25.666  1.00  0.00     0.261 C 
ATOM      4  O   UNL A   1      34.207  27.693  26.243  1.00  0.00    -0.271 OA
ATOM      5  H   UNL A   1      33.131  29.706  26.720  1.00  0.00     0.163 HD
BRANCH   3   6
ATOM      6  C   UNL A   1      32.409  26.994  24.790  1.00  0.00     0.261 C 
BRANCH   6   7
ATOM      7  C   UNL A   1      32.500  27.488  23.334  1.00  0.00     0.052 C 
ATOM      8  C   UNL A   1      31.498  26.804  22.408  1.00  0.00     0.008 C 
ENDBRANCH   6   7
BRANCH   6   9
ATOM      9  O   UNL A   1      32.933  25.672  24.909  1.00  0.00    -0.480 OA
BRANCH   9  10
ATOM     10  C   UNL A   1      32.037  24.718  25.325  1.00  0.00     0.127 A 
ATOM     11  C   UNL A   1      30.984  25.089  26.164  1.00  0.00     0.047 A 
ATOM     12  C   UNL A   1      32.278  23.355  25.051  1.00  0.00     0.018 A 
ATOM     13  C   UNL A   1      30.143  24.108  26.694  1.00  0.00     0.004 A 
ATOM     14  C   UNL A   1      31.414  22.384  25.569  1.00  0.00     0.012 A 
ATOM     15  C   UNL A   1      30.352  22.761  26.392  1.00  0.00     0.001 A 
BRANCH  12  16
ATOM     16  C   UNL A   1      33.411  22.927  24.223  1.00  0.00     0.036 C 
ATOM     17  C   UNL A   1      34.635  22.682  24.705  1.00  0.00     0.110 C 
ATOM     18  S   UNL A   1      36.032  22.478  23.707  1.00  0.00     0.006 SA
ATOM     19  C   UNL A   1      35.039  22.617  26.141  1.00  0.00     0.346 C 
ATOM     20  C   UNL A   1      37.024  22.427  25.141  1.00  0.00     0.322 C 
ATOM     21  N   UNL A   1      36.394  22.500  26.268  1.00  0.00    -0.199 N 
ATOM     22  O   UNL A   1      34.270  22.636  27.093  1.00  0.00    -0.240 OA
ATOM     23  N   UNL A   1      38.383  22.353  24.991  1.00  0.00    -0.235 N 
ATOM     24  H   UNL A   1      36.850  22.475  27.139  1.00  0.00     0.316 HD
ATOM     25  H   UNL A   1      38.796  22.377  24.097  1.00  0.00     0.313 HD
BRANCH  23  26
ATOM     26  C   UNL A   1      39.173  22.241  26.148  1.00  0.00     0.125 A 
ATOM     27  C   UNL A   1      39.870  21.063  26.409  1.00  0.00     0.055 A 
ATOM     28  C   UNL A   1      39.485  23.390  26.888  1.00  0.00     0.055 A 
ATOM     29  C   UNL A   1      40.915  21.050  27.336  1.00  0.00     0.043 A 
ATOM     30  C   UNL A   1      40.484  23.361  27.860  1.00  0.00     0.043 A 
ATOM     31  C   UNL A   1      41.202  22.193  28.064  1.00  0.00     0.123 A 
ATOM     32  F   UNL A   1      42.203  22.173  28.953  1.00  0.00    -0.207 F 
ENDBRANCH  23  26
ENDBRANCH  12  16
ENDBRANCH   9  10
ENDBRANCH   6   9
ENDBRANCH   3   6
ENDBRANCH   1   2
BRANCH   1  33
ATOM     33  C   UNL A   1      31.325  31.351  26.116  1.00  0.00     0.042 C 
BRANCH  33  34
ATOM     34  C   UNL A   1      32.476  31.940  26.933  1.00  0.00     0.118 C 
BRANCH  34  35
ATOM     35  N   UNL A   1      32.296  33.330  27.347  1.00  0.00    -0.352 N 
ATOM     36  C   UNL A   1      33.017  34.172  28.167  1.00  0.00     0.251 C 
ATOM     37  H   UNL A   1      31.495  33.752  26.962  1.00  0.00     0.163 HD
ATOM     38  O   UNL A   1      32.621  35.327  28.314  1.00  0.00    -0.269 OA
BRANCH  36  39
ATOM     39  C   UNL A   1      34.189  33.719  28.964  1.00  0.00     0.039 A 
ATOM     40  C   UNL A   1      35.404  34.405  28.788  1.00  0.00     0.014 A 
ATOM     41  C   UNL A   1      34.138  32.666  29.874  1.00  0.00     0.014 A 
ATOM     42  C   UNL A   1      36.503  34.149  29.610  1.00  0.00     0.010 A 
ATOM     43  C   UNL A   1      35.232  32.406  30.703  1.00  0.00     0.010 A 
ATOM     44  C   UNL A   1      36.418  33.149  30.579  1.00  0.00    -0.014 A 
BRANCH  44  45
ATOM     45  C   UNL A   1      37.633  32.679  31.279  1.00  0.00     0.031 A 
ATOM     46  C   UNL A   1      38.502  31.696  30.550  1.00  0.00     0.074 A 
ATOM     47  C   UNL A   1      37.946  33.087  32.521  1.00  0.00     0.049 A 
ATOM     48  N   UNL A   1      39.539  31.025  30.976  1.00  0.00    -0.248 NA
ATOM     49  C   UNL A   1      38.135  31.426  29.149  1.00  0.00     0.031 C 
ATOM     50  C   UNL A   1      37.222  34.090  33.300  1.00  0.00     0.029 A 
ATOM     51  N   UNL A   1      38.965  32.687  33.350  1.00  0.00    -0.354 N 
ATOM     52  C   UNL A   1      39.932  30.239  29.900  1.00  0.00     0.074 A 
ATOM     53  C   UNL A   1      39.007  30.490  28.820  1.00  0.00     0.031 C 
ATOM     54  C   UNL A   1      37.815  34.221  34.501  1.00  0.00     0.029 A 
ATOM     55  C   UNL A   1      38.934  33.282  34.589  1.00  0.00     0.049 A 
ATOM     56  H   UNL A   1      39.653  32.037  33.082  1.00  0.00     0.167 HD
ATOM     57  C   UNL A   1      40.975  29.381  29.818  1.00  0.00     0.031 A 
ATOM     58  C   UNL A   1      39.710  33.069  35.670  1.00  0.00     0.031 A 
ATOM     59  C   UNL A   1      41.874  29.116  30.904  1.00  0.00     0.049 A 
ATOM     60  C   UNL A   1      40.813  32.042  35.588  1.00  0.00     0.074 A 
ATOM     61  C   UNL A   1      42.952  28.251  30.943  1.00  0.00     0.029 A 
ATOM     62  N   UNL A   1      41.791  29.714  32.153  1.00  0.00    -0.354 N 
ATOM     63  N   UNL A   1      41.178  31.298  34.571  1.00  0.00    -0.248 NA
ATOM     64  C   UNL A   1      41.613  31.828  36.803  1.00  0.00     0.031 C 
ATOM     65  C   UNL A   1      43.486  28.285  32.236  1.00  0.00     0.029 A 
ATOM     66  C   UNL A   1      42.783  29.221  32.980  1.00  0.00     0.049 A 
ATOM     67  H   UNL A   1      41.123  30.391  32.413  1.00  0.00     0.167 HD
ATOM     68  C   UNL A   1      42.266  30.553  35.012  1.00  0.00     0.074 A 
ATOM     69  C   UNL A   1      42.508  30.944  36.386  1.00  0.00     0.031 C 
ATOM     70  C   UNL A   1      43.004  29.631  34.343  1.00  0.00     0.031 A 
BRANCH  57  71
ATOM     71  C   UNL A   1      41.136  28.636  28.524  1.00  0.00    -0.014 A 
ATOM     72  C   UNL A   1      41.907  29.154  27.470  1.00  0.00     0.009 A 
ATOM     73  C   UNL A   1      40.465  27.417  28.340  1.00  0.00     0.009 A 
ATOM     74  C   UNL A   1      41.956  28.493  26.240  1.00  0.00     0.001 A 
ATOM     75  C   UNL A   1      40.545  26.742  27.121  1.00  0.00     0.001 A 
ATOM     76  C   UNL A   1      41.277  27.288  26.068  1.00  0.00     0.000 A 
ENDBRANCH  57  71
BRANCH  58  77
ATOM     77  C   UNL A   1      39.469  33.819  36.934  1.00  0.00    -0.014 A 
ATOM     78  C   UNL A   1      39.979  35.116  37.108  1.00  0.00     0.009 A 
ATOM     79  C   UNL A   1      38.751  33.231  37.988  1.00  0.00     0.009 A 
ATOM     80  C   UNL A   1      39.798  35.795  38.318  1.00  0.00     0.001 A 
ATOM     81  C   UNL A   1      38.546  33.924  39.185  1.00  0.00     0.001 A 
ATOM     82  C   UNL A   1      39.079  35.201  39.353  1.00  0.00     0.000 A 
ENDBRANCH  58  77
BRANCH  70  83
ATOM     83  C   UNL A   1      44.169  29.016  35.066  1.00  0.00    -0.014 A 
ATOM     84  C   UNL A   1      44.038  27.819  35.785  1.00  0.00     0.009 A 
ATOM     85  C   UNL A   1      45.438  29.611  34.962  1.00  0.00     0.009 A 
ATOM     86  C   UNL A   1      45.148  27.246  36.410  1.00  0.00     0.001 A 
ATOM     87  C   UNL A   1      46.550  29.020  35.559  1.00  0.00     0.001 A 
ATOM     88  C   UNL A   1      46.403  27.842  36.289  1.00  0.00     0.000 A 
ENDBRANCH  70  83
ENDBRANCH  44  45
ENDBRANCH  36  39
ENDBRANCH  34  35
ENDBRANCH  33  34
ENDBRANCH   1  33
TORSDOF 15
ENDMDL
