MODEL 1
REMARK VINA RESULT:     -11.7      0.000      0.000
REMARK SMILES COC(=O)c1ccc(C)c(NC(=O)[C@H]2CC=CC[C@H]2C(=O)NCCCNC(=O)c2ccc(-c3c4nc(c(-c5ccccc5)c5ccc([nH]5)c(-c5ccccc5)c5nc(c(-c6ccccc6)c6ccc3[nH]6)C=C5)C=C4)cc2)c1
REMARK SMILES IDX 23 1 22 2 20 3 21 4 19 6 14 7 15 8 16 9 18 10 17 11 12 12
REMARK SMILES IDX 11 13 13 15 10 16 5 17 6 18 77 19 7 20 8 21 9 22 3 23 4 24
REMARK SMILES IDX 2 25 1 26 24 27 25 28 26 29 27 30 28 32 29 33 30 34 76 35
REMARK SMILES IDX 31 36 75 37 32 38 33 39 34 40 69 41 35 42 74 43 68 44 70 45
REMARK SMILES IDX 36 46 73 47 67 48 66 49 37 51 59 52 44 53 58 54 45 55 48 56
REMARK SMILES IDX 57 57 71 58 46 59 47 60 56 62 72 63 49 64 38 65 39 66 43 67
REMARK SMILES IDX 40 68 42 69 41 70 60 71 61 72 65 73 62 74 64 75 63 76 50 77
REMARK SMILES IDX 51 78 55 79 52 80 54 81 53 82
REMARK H PARENT 22 5 11 14 26 31 70 50 48 61
REMARK Flexibility Score: inf
ROOT
ATOM      1  C   UNL A   1      37.609  21.182  24.894  1.00  0.00     0.117 C 
ENDROOT
BRANCH   1   2
ATOM      2  N   UNL A   1      37.098  22.544  24.952  1.00  0.00    -0.356 N 
ATOM      3  C   UNL A   1      35.897  23.083  24.618  1.00  0.00     0.224 C 
ATOM      4  O   UNL A   1      35.795  24.308  24.751  1.00  0.00    -0.275 OA
ATOM      5  H   UNL A   1      37.747  23.198  25.298  1.00  0.00     0.163 HD
BRANCH   3   6
ATOM      6  C   UNL A   1      34.692  22.279  24.120  1.00  0.00     0.095 C 
ATOM      7  C   UNL A   1      33.987  21.382  25.163  1.00  0.00     0.095 C 
ATOM      8  C   UNL A   1      32.596  20.866  24.735  1.00  0.00     0.041 C 
ATOM      9  C   UNL A   1      31.819  21.758  23.825  1.00  0.00    -0.030 C 
ATOM     10  C   UNL A   1      33.814  23.108  23.163  1.00  0.00     0.041 C 
ATOM     11  C   UNL A   1      32.364  22.758  23.127  1.00  0.00    -0.030 C 
BRANCH   7  12
ATOM     12  C   UNL A   1      33.898  21.933  26.557  1.00  0.00     0.228 C 
ATOM     13  N   UNL A   1      33.184  23.005  26.956  1.00  0.00    -0.326 N 
ATOM     14  H   UNL A   1      33.355  23.140  27.915  1.00  0.00     0.169 HD
ATOM     15  O   UNL A   1      34.509  21.364  27.476  1.00  0.00    -0.274 OA
BRANCH  13  16
ATOM     16  C   UNL A   1      32.286  24.009  26.532  1.00  0.00     0.044 A 
ATOM     17  C   UNL A   1      32.381  26.294  25.556  1.00  0.00     0.062 A 
ATOM     18  C   UNL A   1      31.002  26.351  25.508  1.00  0.00     0.016 A 
ATOM     19  C   UNL A   1      32.995  25.142  26.072  1.00  0.00     0.042 A 
ATOM     20  C   UNL A   1      30.272  25.251  25.961  1.00  0.00     0.006 A 
ATOM     21  C   UNL A   1      30.888  24.067  26.462  1.00  0.00    -0.027 A 
ATOM     22  C   UNL A   1      29.930  22.967  26.797  1.00  0.00     0.046 C 
BRANCH  17  23
ATOM     23  C   UNL A   1      33.196  27.385  24.950  1.00  0.00     0.337 C 
ATOM     24  O   UNL A   1      33.921  27.269  23.991  1.00  0.00    -0.246 OA
BRANCH  23  25
ATOM     25  O   UNL A   1      33.078  28.478  25.749  1.00  0.00    -0.465 OA
ATOM     26  C   UNL A   1      33.989  28.559  26.840  1.00  0.00     0.282 C 
ENDBRANCH  23  25
ENDBRANCH  17  23
ENDBRANCH  13  16
ENDBRANCH   7  12
ENDBRANCH   3   6
ENDBRANCH   1   2
BRANCH   1  27
ATOM     27  C   UNL A   1      38.971  21.057  25.564  1.00  0.00     0.042 C 
BRANCH  27  28
ATOM     28  C   UNL A   1      39.326  22.226  26.472  1.00  0.00     0.118 C 
BRANCH  28  29
ATOM     29  N   UNL A   1      40.733  22.610  26.312  1.00  0.00    -0.352 N 
ATOM     30  C   UNL A   1      41.342  23.841  26.463  1.00  0.00     0.251 C 
ATOM     31  H   UNL A   1      41.337  21.875  26.057  1.00  0.00     0.163 HD
ATOM     32  O   UNL A   1      42.559  23.964  26.425  1.00  0.00    -0.269 OA
BRANCH  30  33
ATOM     33  C   UNL A   1      40.482  24.992  26.778  1.00  0.00     0.039 A 
ATOM     34  C   UNL A   1      40.770  26.190  26.118  1.00  0.00     0.014 A 
ATOM     35  C   UNL A   1      39.754  24.960  27.964  1.00  0.00     0.014 A 
ATOM     36  C   UNL A   1      40.597  27.383  26.804  1.00  0.00     0.010 A 
ATOM     37  C   UNL A   1      39.651  26.142  28.667  1.00  0.00     0.010 A 
ATOM     38  C   UNL A   1      40.164  27.327  28.126  1.00  0.00    -0.014 A 
BRANCH  38  39
ATOM     39  C   UNL A   1      40.335  28.427  29.063  1.00  0.00     0.031 A 
ATOM     40  C   UNL A   1      39.263  29.418  29.207  1.00  0.00     0.074 A 
ATOM     41  C   UNL A   1      41.455  28.517  29.813  1.00  0.00     0.049 A 
ATOM     42  N   UNL A   1      39.451  30.651  29.531  1.00  0.00    -0.248 NA
ATOM     43  C   UNL A   1      37.876  29.097  28.902  1.00  0.00     0.031 C 
ATOM     44  C   UNL A   1      41.715  29.424  30.927  1.00  0.00     0.029 A 
ATOM     45  N   UNL A   1      42.693  27.925  29.550  1.00  0.00    -0.354 N 
ATOM     46  C   UNL A   1      38.212  31.191  29.781  1.00  0.00     0.074 A 
ATOM     47  C   UNL A   1      37.274  30.240  29.237  1.00  0.00     0.031 C 
ATOM     48  C   UNL A   1      43.044  29.552  31.078  1.00  0.00     0.029 A 
ATOM     49  C   UNL A   1      43.674  28.843  29.975  1.00  0.00     0.049 A 
ATOM     50  H   UNL A   1      42.850  27.041  29.147  1.00  0.00     0.167 HD
ATOM     51  C   UNL A   1      38.120  32.297  30.571  1.00  0.00     0.031 A 
ATOM     52  C   UNL A   1      44.545  29.401  29.084  1.00  0.00     0.031 A 
ATOM     53  C   UNL A   1      39.445  32.836  30.898  1.00  0.00     0.049 A 
ATOM     54  C   UNL A   1      44.430  30.906  28.990  1.00  0.00     0.074 A 
ATOM     55  C   UNL A   1      40.229  32.774  32.038  1.00  0.00     0.029 A 
ATOM     56  N   UNL A   1      40.275  33.283  29.874  1.00  0.00    -0.354 N 
ATOM     57  N   UNL A   1      43.393  31.588  29.395  1.00  0.00    -0.248 NA
ATOM     58  C   UNL A   1      45.460  31.756  28.399  1.00  0.00     0.031 C 
ATOM     59  C   UNL A   1      41.559  33.112  31.674  1.00  0.00     0.029 A 
ATOM     60  C   UNL A   1      41.576  33.416  30.324  1.00  0.00     0.049 A 
ATOM     61  H   UNL A   1      39.977  33.479  28.956  1.00  0.00     0.167 HD
ATOM     62  C   UNL A   1      43.584  32.918  29.127  1.00  0.00     0.074 A 
ATOM     63  C   UNL A   1      44.901  32.974  28.517  1.00  0.00     0.031 C 
ATOM     64  C   UNL A   1      42.635  33.856  29.421  1.00  0.00     0.031 A 
BRANCH  51  65
ATOM     65  C   UNL A   1      36.853  32.704  31.298  1.00  0.00    -0.014 A 
ATOM     66  C   UNL A   1      35.933  33.560  30.663  1.00  0.00     0.009 A 
ATOM     67  C   UNL A   1      36.538  32.365  32.626  1.00  0.00     0.009 A 
ATOM     68  C   UNL A   1      34.828  34.104  31.337  1.00  0.00     0.001 A 
ATOM     69  C   UNL A   1      35.448  32.916  33.315  1.00  0.00     0.001 A 
ATOM     70  C   UNL A   1      34.598  33.799  32.671  1.00  0.00     0.000 A 
ENDBRANCH  51  65
BRANCH  52  71
ATOM     71  C   UNL A   1      44.883  28.501  27.945  1.00  0.00    -0.014 A 
ATOM     72  C   UNL A   1      45.594  27.314  28.218  1.00  0.00     0.009 A 
ATOM     73  C   UNL A   1      44.210  28.610  26.721  1.00  0.00     0.009 A 
ATOM     74  C   UNL A   1      45.523  26.219  27.351  1.00  0.00     0.001 A 
ATOM     75  C   UNL A   1      44.157  27.515  25.847  1.00  0.00     0.001 A 
ATOM     76  C   UNL A   1      44.775  26.310  26.181  1.00  0.00     0.000 A 
ENDBRANCH  52  71
BRANCH  64  77
ATOM     77  C   UNL A   1      42.628  35.299  28.961  1.00  0.00    -0.014 A 
ATOM     78  C   UNL A   1      41.826  35.807  27.931  1.00  0.00     0.009 A 
ATOM     79  C   UNL A   1      43.391  36.247  29.683  1.00  0.00     0.009 A 
ATOM     80  C   UNL A   1      41.823  37.173  27.608  1.00  0.00     0.001 A 
ATOM     81  C   UNL A   1      43.353  37.615  29.399  1.00  0.00     0.001 A 
ATOM     82  C   UNL A   1      42.577  38.076  28.348  1.00  0.00     0.000 A 
ENDBRANCH  64  77
ENDBRANCH  38  39
ENDBRANCH  30  33
ENDBRANCH  28  29
ENDBRANCH  27  28
ENDBRANCH   1  27
TORSDOF 14
ENDMDL
MODEL 2
REMARK VINA RESULT:     -11.7      3.405      8.806
REMARK SMILES COC(=O)c1ccc(C)c(NC(=O)[C@H]2CC=CC[C@H]2C(=O)NCCCNC(=O)c2ccc(-c3c4nc(c(-c5ccccc5)c5ccc([nH]5)c(-c5ccccc5)c5nc(c(-c6ccccc6)c6ccc3[nH]6)C=C5)C=C4)cc2)c1
REMARK SMILES IDX 23 1 22 2 20 3 21 4 19 6 14 7 15 8 16 9 18 10 17 11 12 12
REMARK SMILES IDX 11 13 13 15 10 16 5 17 6 18 77 19 7 20 8 21 9 22 3 23 4 24
REMARK SMILES IDX 2 25 1 26 24 27 25 28 26 29 27 30 28 32 29 33 30 34 76 35
REMARK SMILES IDX 31 36 75 37 32 38 33 39 34 40 69 41 35 42 74 43 68 44 70 45
REMARK SMILES IDX 36 46 73 47 67 48 66 49 37 51 59 52 44 53 58 54 45 55 48 56
REMARK SMILES IDX 57 57 71 58 46 59 47 60 56 62 72 63 49 64 38 65 39 66 43 67
REMARK SMILES IDX 40 68 42 69 41 70 60 71 61 72 65 73 62 74 64 75 63 76 50 77
REMARK SMILES IDX 51 78 55 79 52 80 54 81 53 82
REMARK H PARENT 22 5 11 14 26 31 70 50 48 61
REMARK Flexibility Score: inf
ROOT
ATOM      1  C   UNL A   1      32.334  30.282  27.078  1.00  0.00     0.117 C 
ENDROOT
BRANCH   1   2
ATOM      2  N   UNL A   1      32.815  28.910  27.151  1.00  0.00    -0.356 N 
ATOM      3  C   UNL A   1      32.407  27.766  26.543  1.00  0.00     0.224 C 
ATOM      4  O   UNL A   1      33.014  26.736  26.859  1.00  0.00    -0.275 OA
ATOM      5  H   UNL A   1      33.580  28.788  27.759  1.00  0.00     0.163 HD
BRANCH   3   6
ATOM      6  C   UNL A   1      31.286  27.688  25.502  1.00  0.00     0.095 C 
ATOM      7  C   UNL A   1      31.553  28.389  24.151  1.00  0.00     0.095 C 
ATOM      8  C   UNL A   1      30.574  28.004  23.020  1.00  0.00     0.041 C 
ATOM      9  C   UNL A   1      30.015  26.622  23.081  1.00  0.00    -0.030 C 
ATOM     10  C   UNL A   1      30.631  26.294  25.479  1.00  0.00     0.041 C 
ATOM     11  C   UNL A   1      30.044  25.861  24.177  1.00  0.00    -0.030 C 
BRANCH   7  12
ATOM     12  C   UNL A   1      32.959  28.310  23.631  1.00  0.00     0.228 C 
ATOM     13  N   UNL A   1      33.601  27.202  23.209  1.00  0.00    -0.326 N 
ATOM     14  H   UNL A   1      34.518  27.460  22.964  1.00  0.00     0.169 HD
ATOM     15  O   UNL A   1      33.633  29.349  23.539  1.00  0.00    -0.274 OA
BRANCH  13  16
ATOM     16  C   UNL A   1      33.469  25.815  22.982  1.00  0.00     0.044 A 
ATOM     17  C   UNL A   1      33.757  23.690  24.243  1.00  0.00     0.062 A 
ATOM     18  C   UNL A   1      33.357  22.960  23.140  1.00  0.00     0.016 A 
ATOM     19  C   UNL A   1      33.816  25.089  24.144  1.00  0.00     0.042 A 
ATOM     20  C   UNL A   1      33.014  23.646  21.974  1.00  0.00     0.006 A 
ATOM     21  C   UNL A   1      33.047  25.067  21.874  1.00  0.00    -0.027 A 
ATOM     22  C   UNL A   1      32.541  25.607  20.573  1.00  0.00     0.046 C 
BRANCH  17  23
ATOM     23  C   UNL A   1      33.992  23.007  25.546  1.00  0.00     0.337 C 
ATOM     24  O   UNL A   1      35.073  22.779  26.034  1.00  0.00    -0.246 OA
BRANCH  23  25
ATOM     25  O   UNL A   1      32.789  22.574  26.005  1.00  0.00    -0.465 OA
ATOM     26  C   UNL A   1      32.236  23.299  27.100  1.00  0.00     0.282 C 
ENDBRANCH  23  25
ENDBRANCH  17  23
ENDBRANCH  13  16
ENDBRANCH   7  12
ENDBRANCH   3   6
ENDBRANCH   1   2
BRANCH   1  27
ATOM     27  C   UNL A   1      33.389  31.279  27.539  1.00  0.00     0.042 C 
BRANCH  27  28
ATOM     28  C   UNL A   1      34.793  30.698  27.634  1.00  0.00     0.118 C 
BRANCH  28  29
ATOM     29  N   UNL A   1      35.621  31.472  28.566  1.00  0.00    -0.352 N 
ATOM     30  C   UNL A   1      36.851  31.173  29.122  1.00  0.00     0.251 C 
ATOM     31  H   UNL A   1      35.242  32.338  28.838  1.00  0.00     0.163 HD
ATOM     32  O   UNL A   1      37.474  31.994  29.781  1.00  0.00    -0.269 OA
BRANCH  30  33
ATOM     33  C   UNL A   1      37.440  29.862  28.806  1.00  0.00     0.039 A 
ATOM     34  C   UNL A   1      37.580  28.966  29.869  1.00  0.00     0.014 A 
ATOM     35  C   UNL A   1      38.189  29.745  27.639  1.00  0.00     0.014 A 
ATOM     36  C   UNL A   1      38.689  28.132  29.892  1.00  0.00     0.010 A 
ATOM     37  C   UNL A   1      39.326  28.967  27.700  1.00  0.00     0.010 A 
ATOM     38  C   UNL A   1      39.620  28.246  28.863  1.00  0.00    -0.014 A 
BRANCH  38  39
ATOM     39  C   UNL A   1      40.985  27.754  28.973  1.00  0.00     0.031 A 
ATOM     40  C   UNL A   1      41.294  26.393  28.522  1.00  0.00     0.074 A 
ATOM     41  C   UNL A   1      41.962  28.552  29.456  1.00  0.00     0.049 A 
ATOM     42  N   UNL A   1      42.229  25.657  29.018  1.00  0.00    -0.248 NA
ATOM     43  C   UNL A   1      40.491  25.718  27.512  1.00  0.00     0.031 C 
ATOM     44  C   UNL A   1      43.401  28.304  29.459  1.00  0.00     0.029 A 
ATOM     45  N   UNL A   1      41.802  29.683  30.262  1.00  0.00    -0.354 N 
ATOM     46  C   UNL A   1      42.352  24.561  28.196  1.00  0.00     0.074 A 
ATOM     47  C   UNL A   1      41.165  24.575  27.376  1.00  0.00     0.031 C 
ATOM     48  C   UNL A   1      43.965  29.050  30.424  1.00  0.00     0.029 A 
ATOM     49  C   UNL A   1      42.887  29.690  31.161  1.00  0.00     0.049 A 
ATOM     50  H   UNL A   1      41.075  30.344  30.211  1.00  0.00     0.167 HD
ATOM     51  C   UNL A   1      43.525  23.869  28.189  1.00  0.00     0.031 A 
ATOM     52  C   UNL A   1      42.683  29.572  32.506  1.00  0.00     0.031 A 
ATOM     53  C   UNL A   1      44.438  24.346  29.233  1.00  0.00     0.049 A 
ATOM     54  C   UNL A   1      43.326  28.343  33.107  1.00  0.00     0.074 A 
ATOM     55  C   UNL A   1      45.563  25.154  29.201  1.00  0.00     0.029 A 
ATOM     56  N   UNL A   1      44.059  24.254  30.569  1.00  0.00    -0.354 N 
ATOM     57  N   UNL A   1      43.703  27.301  32.417  1.00  0.00    -0.248 NA
ATOM     58  C   UNL A   1      43.559  28.176  34.539  1.00  0.00     0.031 C 
ATOM     59  C   UNL A   1      45.810  25.613  30.521  1.00  0.00     0.029 A 
ATOM     60  C   UNL A   1      44.862  25.055  31.361  1.00  0.00     0.049 A 
ATOM     61  H   UNL A   1      43.321  23.695  30.905  1.00  0.00     0.167 HD
ATOM     62  C   UNL A   1      44.204  26.345  33.262  1.00  0.00     0.074 A 
ATOM     63  C   UNL A   1      44.105  26.947  34.580  1.00  0.00     0.031 C 
ATOM     64  C   UNL A   1      44.643  25.136  32.802  1.00  0.00     0.031 A 
BRANCH  51  65
ATOM     65  C   UNL A   1      43.964  22.977  27.043  1.00  0.00    -0.014 A 
ATOM     66  C   UNL A   1      43.128  21.926  26.622  1.00  0.00     0.009 A 
ATOM     67  C   UNL A   1      45.210  23.048  26.394  1.00  0.00     0.009 A 
ATOM     68  C   UNL A   1      43.543  20.968  25.684  1.00  0.00     0.001 A 
ATOM     69  C   UNL A   1      45.643  22.087  25.470  1.00  0.00     0.001 A 
ATOM     70  C   UNL A   1      44.811  21.036  25.123  1.00  0.00     0.000 A 
ENDBRANCH  51  65
BRANCH  52  71
ATOM     71  C   UNL A   1      41.397  30.170  32.965  1.00  0.00    -0.014 A 
ATOM     72  C   UNL A   1      41.189  31.550  32.756  1.00  0.00     0.009 A 
ATOM     73  C   UNL A   1      40.286  29.361  33.236  1.00  0.00     0.009 A 
ATOM     74  C   UNL A   1      39.895  32.078  32.690  1.00  0.00     0.001 A 
ATOM     75  C   UNL A   1      38.993  29.899  33.187  1.00  0.00     0.001 A 
ATOM     76  C   UNL A   1      38.797  31.244  32.872  1.00  0.00     0.000 A 
ENDBRANCH  52  71
BRANCH  64  77
ATOM     77  C   UNL A   1      44.986  23.927  33.647  1.00  0.00    -0.014 A 
ATOM     78  C   UNL A   1      44.093  22.897  33.969  1.00  0.00     0.009 A 
ATOM     79  C   UNL A   1      46.328  23.740  34.055  1.00  0.00     0.009 A 
ATOM     80  C   UNL A   1      44.503  21.771  34.700  1.00  0.00     0.001 A 
ATOM     81  C   UNL A   1      46.753  22.597  34.737  1.00  0.00     0.001 A 
ATOM     82  C   UNL A   1      45.833  21.616  35.073  1.00  0.00     0.000 A 
ENDBRANCH  64  77
ENDBRANCH  38  39
ENDBRANCH  30  33
ENDBRANCH  28  29
ENDBRANCH  27  28
ENDBRANCH   1  27
TORSDOF 14
ENDMDL
MODEL 3
REMARK VINA RESULT:     -11.7      1.776      3.792
REMARK SMILES COC(=O)c1ccc(C)c(NC(=O)[C@H]2CC=CC[C@H]2C(=O)NCCCNC(=O)c2ccc(-c3c4nc(c(-c5ccccc5)c5ccc([nH]5)c(-c5ccccc5)c5nc(c(-c6ccccc6)c6ccc3[nH]6)C=C5)C=C4)cc2)c1
REMARK SMILES IDX 23 1 22 2 20 3 21 4 19 6 14 7 15 8 16 9 18 10 17 11 12 12
REMARK SMILES IDX 11 13 13 15 10 16 5 17 6 18 77 19 7 20 8 21 9 22 3 23 4 24
REMARK SMILES IDX 2 25 1 26 24 27 25 28 26 29 27 30 28 32 29 33 30 34 76 35
REMARK SMILES IDX 31 36 75 37 32 38 33 39 34 40 69 41 35 42 74 43 68 44 70 45
REMARK SMILES IDX 36 46 73 47 67 48 66 49 37 51 59 52 44 53 58 54 45 55 48 56
REMARK SMILES IDX 57 57 71 58 46 59 47 60 56 62 72 63 49 64 38 65 39 66 43 67
REMARK SMILES IDX 40 68 42 69 41 70 60 71 61 72 65 73 62 74 64 75 63 76 50 77
REMARK SMILES IDX 51 78 55 79 52 80 54 81 53 82
REMARK H PARENT 22 5 11 14 26 31 70 50 48 61
REMARK Flexibility Score: inf
ROOT
ATOM      1  C   UNL A   1      36.665  21.359  24.961  1.00  0.00     0.117 C 
ENDROOT
BRANCH   1   2
ATOM      2  N   UNL A   1      35.975  21.778  26.173  1.00  0.00    -0.356 N 
ATOM      3  C   UNL A   1      35.063  22.756  26.412  1.00  0.00     0.224 C 
ATOM      4  O   UNL A   1      34.695  22.882  27.586  1.00  0.00    -0.275 OA
ATOM      5  H   UNL A   1      36.216  21.254  26.971  1.00  0.00     0.163 HD
BRANCH   3   6
ATOM      6  C   UNL A   1      34.466  23.669  25.336  1.00  0.00     0.095 C 
ATOM      7  C   UNL A   1      33.306  23.079  24.502  1.00  0.00     0.095 C 
ATOM      8  C   UNL A   1      32.508  24.118  23.684  1.00  0.00     0.041 C 
ATOM      9  C   UNL A   1      32.427  25.489  24.268  1.00  0.00    -0.030 C 
ATOM     10  C   UNL A   1      34.338  25.121  25.834  1.00  0.00     0.041 C 
ATOM     11  C   UNL A   1      33.242  25.933  25.227  1.00  0.00    -0.030 C 
BRANCH   7  12
ATOM     12  C   UNL A   1      32.345  22.192  25.238  1.00  0.00     0.228 C 
ATOM     13  N   UNL A   1      32.042  20.912  24.944  1.00  0.00    -0.326 N 
ATOM     14  H   UNL A   1      31.355  20.611  25.581  1.00  0.00     0.169 HD
ATOM     15  O   UNL A   1      31.760  22.630  26.242  1.00  0.00    -0.274 OA
BRANCH  13  16
ATOM     16  C   UNL A   1      32.328  19.834  24.077  1.00  0.00     0.044 A 
ATOM     17  C   UNL A   1      33.041  17.457  24.241  1.00  0.00     0.062 A 
ATOM     18  C   UNL A   1      32.993  17.329  22.866  1.00  0.00     0.016 A 
ATOM     19  C   UNL A   1      32.721  18.696  24.818  1.00  0.00     0.042 A 
ATOM     20  C   UNL A   1      32.614  18.436  22.105  1.00  0.00     0.006 A 
ATOM     21  C   UNL A   1      32.264  19.690  22.685  1.00  0.00    -0.027 A 
ATOM     22  C   UNL A   1      31.787  20.712  21.702  1.00  0.00     0.046 C 
BRANCH  17  23
ATOM     23  C   UNL A   1      33.299  16.263  25.095  1.00  0.00     0.337 C 
ATOM     24  O   UNL A   1      32.701  15.981  26.105  1.00  0.00    -0.246 OA
BRANCH  23  25
ATOM     25  O   UNL A   1      34.404  15.641  24.606  1.00  0.00    -0.465 OA
ATOM     26  C   UNL A   1      35.581  15.735  25.402  1.00  0.00     0.282 C 
ENDBRANCH  23  25
ENDBRANCH  17  23
ENDBRANCH  13  16
ENDBRANCH   7  12
ENDBRANCH   3   6
ENDBRANCH   1   2
BRANCH   1  27
ATOM     27  C   UNL A   1      38.177  21.471  25.101  1.00  0.00     0.042 C 
BRANCH  27  28
ATOM     28  C   UNL A   1      38.631  22.314  26.283  1.00  0.00     0.118 C 
BRANCH  28  29
ATOM     29  N   UNL A   1      40.082  22.530  26.251  1.00  0.00    -0.352 N 
ATOM     30  C   UNL A   1      40.819  23.668  26.519  1.00  0.00     0.251 C 
ATOM     31  H   UNL A   1      40.614  21.740  25.999  1.00  0.00     0.163 HD
ATOM     32  O   UNL A   1      42.041  23.642  26.579  1.00  0.00    -0.269 OA
BRANCH  30  33
ATOM     33  C   UNL A   1      40.079  24.899  26.837  1.00  0.00     0.039 A 
ATOM     34  C   UNL A   1      40.513  26.071  26.211  1.00  0.00     0.014 A 
ATOM     35  C   UNL A   1      39.319  24.923  28.002  1.00  0.00     0.014 A 
ATOM     36  C   UNL A   1      40.450  27.263  26.919  1.00  0.00     0.010 A 
ATOM     37  C   UNL A   1      39.323  26.095  28.729  1.00  0.00     0.010 A 
ATOM     38  C   UNL A   1      39.976  27.228  28.227  1.00  0.00    -0.014 A 
BRANCH  38  39
ATOM     39  C   UNL A   1      40.237  28.285  29.193  1.00  0.00     0.031 A 
ATOM     40  C   UNL A   1      39.207  29.298  29.442  1.00  0.00     0.074 A 
ATOM     41  C   UNL A   1      41.404  28.315  29.873  1.00  0.00     0.049 A 
ATOM     42  N   UNL A   1      39.451  30.512  29.800  1.00  0.00    -0.248 NA
ATOM     43  C   UNL A   1      37.794  29.027  29.214  1.00  0.00     0.031 C 
ATOM     44  C   UNL A   1      41.760  29.170  31.002  1.00  0.00     0.029 A 
ATOM     45  N   UNL A   1      42.606  27.700  29.509  1.00  0.00    -0.354 N 
ATOM     46  C   UNL A   1      38.246  31.075  30.149  1.00  0.00     0.074 A 
ATOM     47  C   UNL A   1      37.248  30.171  29.630  1.00  0.00     0.031 C 
ATOM     48  C   UNL A   1      43.099  29.256  31.072  1.00  0.00     0.029 A 
ATOM     49  C   UNL A   1      43.638  28.575  29.905  1.00  0.00     0.049 A 
ATOM     50  H   UNL A   1      42.711  26.829  29.064  1.00  0.00     0.167 HD
ATOM     51  C   UNL A   1      38.236  32.151  30.985  1.00  0.00     0.031 A 
ATOM     52  C   UNL A   1      44.468  29.144  28.983  1.00  0.00     0.031 A 
ATOM     53  C   UNL A   1      39.594  32.640  31.247  1.00  0.00     0.049 A 
ATOM     54  C   UNL A   1      44.391  30.653  28.953  1.00  0.00     0.074 A 
ATOM     55  C   UNL A   1      40.446  32.512  32.332  1.00  0.00     0.029 A 
ATOM     56  N   UNL A   1      40.371  33.105  30.190  1.00  0.00    -0.354 N 
ATOM     57  N   UNL A   1      43.402  31.346  29.448  1.00  0.00    -0.248 NA
ATOM     58  C   UNL A   1      45.406  31.498  28.331  1.00  0.00     0.031 C 
ATOM     59  C   UNL A   1      41.760  32.827  31.896  1.00  0.00     0.029 A 
ATOM     60  C   UNL A   1      41.701  33.184  30.560  1.00  0.00     0.049 A 
ATOM     61  H   UNL A   1      40.023  33.345  29.301  1.00  0.00     0.167 HD
ATOM     62  C   UNL A   1      43.615  32.681  29.220  1.00  0.00     0.074 A 
ATOM     63  C   UNL A   1      44.893  32.725  28.530  1.00  0.00     0.031 C 
ATOM     64  C   UNL A   1      42.714  33.632  29.609  1.00  0.00     0.031 A 
BRANCH  51  65
ATOM     65  C   UNL A   1      37.029  32.563  31.806  1.00  0.00    -0.014 A 
ATOM     66  C   UNL A   1      35.943  33.195  31.173  1.00  0.00     0.009 A 
ATOM     67  C   UNL A   1      36.924  32.446  33.203  1.00  0.00     0.009 A 
ATOM     68  C   UNL A   1      34.872  33.746  31.896  1.00  0.00     0.001 A 
ATOM     69  C   UNL A   1      35.870  33.009  33.937  1.00  0.00     0.001 A 
ATOM     70  C   UNL A   1      34.848  33.672  33.282  1.00  0.00     0.000 A 
ENDBRANCH  51  65
BRANCH  52  71
ATOM     71  C   UNL A   1      44.707  28.281  27.790  1.00  0.00    -0.014 A 
ATOM     72  C   UNL A   1      45.281  27.008  27.991  1.00  0.00     0.009 A 
ATOM     73  C   UNL A   1      44.053  28.536  26.578  1.00  0.00     0.009 A 
ATOM     74  C   UNL A   1      45.091  25.981  27.060  1.00  0.00     0.001 A 
ATOM     75  C   UNL A   1      43.882  27.508  25.640  1.00  0.00     0.001 A 
ATOM     76  C   UNL A   1      44.362  26.224  25.901  1.00  0.00     0.000 A 
ENDBRANCH  52  71
BRANCH  64  77
ATOM     77  C   UNL A   1      42.721  35.091  29.206  1.00  0.00    -0.014 A 
ATOM     78  C   UNL A   1      43.519  36.080  29.796  1.00  0.00     0.009 A 
ATOM     79  C   UNL A   1      41.965  35.490  28.078  1.00  0.00     0.009 A 
ATOM     80  C   UNL A   1      43.524  37.401  29.320  1.00  0.00     0.001 A 
ATOM     81  C   UNL A   1      42.006  36.791  27.568  1.00  0.00     0.001 A 
ATOM     82  C   UNL A   1      42.777  37.752  28.202  1.00  0.00     0.000 A 
ENDBRANCH  64  77
ENDBRANCH  38  39
ENDBRANCH  30  33
ENDBRANCH  28  29
ENDBRANCH  27  28
ENDBRANCH   1  27
TORSDOF 14
ENDMDL
