MODEL 1
REMARK VINA RESULT:     -13.0      0.000      0.000
REMARK SMILES Cc1nc(-c2ccc3c(c2)CCN3S(=O)(=O)c2ccc(F)c(C(=O)NCCCNC(=O)c3ccc(-c4c5nc(c(-c6ccccc6)c6ccc([nH]6)c(-c6ccccc6)c6nc(c(-c7ccccc7)c7ccc4[nH]7)C=C6)C=C5)cc3)c2)cs1
REMARK SMILES IDX 26 1 25 2 23 3 24 4 22 6 17 7 18 8 80 9 19 10 20 11 21 12
REMARK SMILES IDX 14 13 15 14 16 15 13 16 5 17 6 18 10 19 7 20 9 21 8 22 11 23
REMARK SMILES IDX 12 24 4 25 1 26 2 27 3 28 82 29 81 30 27 31 28 32 29 33
REMARK SMILES IDX 30 34 31 36 32 37 33 38 79 39 34 40 78 41 35 42 36 43 37 44
REMARK SMILES IDX 72 45 38 46 77 47 71 48 73 49 39 50 76 51 70 52 69 53 40 55
REMARK SMILES IDX 62 56 47 57 61 58 48 59 51 60 60 61 74 62 49 63 50 64 59 66
REMARK SMILES IDX 75 67 52 68 41 69 42 70 46 71 43 72 45 73 44 74 63 75 64 76
REMARK SMILES IDX 68 77 65 78 67 79 66 80 53 81 54 82 58 83 55 84 57 85 56 86
REMARK H PARENT 25 5 29 35 73 54 51 65
REMARK Flexibility Score: inf
ROOT
ATOM      1  C   UNL A   1      31.776  30.556  25.767  1.00  0.00     0.118 C 
ENDROOT
BRANCH   1   2
ATOM      2  N   UNL A   1      33.036  29.972  26.184  1.00  0.00    -0.352 N 
ATOM      3  C   UNL A   1      33.522  28.703  26.315  1.00  0.00     0.254 C 
ATOM      4  O   UNL A   1      34.716  28.638  26.626  1.00  0.00    -0.269 OA
ATOM      5  H   UNL A   1      33.701  30.655  26.433  1.00  0.00     0.163 HD
BRANCH   3   6
ATOM      6  C   UNL A   1      32.789  27.419  26.106  1.00  0.00     0.076 A 
ATOM      7  C   UNL A   1      32.850  25.241  24.985  1.00  0.00     0.089 A 
ATOM      8  C   UNL A   1      31.639  24.878  25.577  1.00  0.00     0.025 A 
ATOM      9  C   UNL A   1      33.440  26.479  25.270  1.00  0.00     0.039 A 
ATOM     10  C   UNL A   1      30.985  25.794  26.391  1.00  0.00     0.041 A 
ATOM     11  C   UNL A   1      31.561  27.041  26.660  1.00  0.00     0.136 A 
ATOM     12  F   UNL A   1      30.876  27.813  27.506  1.00  0.00    -0.206 F 
BRANCH   7  13
ATOM     13  S   UNL A   1      33.602  24.098  23.859  1.00  0.00     0.264 S 
ATOM     14  O   UNL A   1      34.687  24.817  23.223  1.00  0.00    -0.201 OA
ATOM     15  O   UNL A   1      32.549  23.521  23.043  1.00  0.00    -0.201 OA
BRANCH  13  16
ATOM     16  N   UNL A   1      34.266  22.829  24.790  1.00  0.00    -0.266 N 
ATOM     17  C   UNL A   1      38.256  21.851  25.755  1.00  0.00     0.001 A 
ATOM     18  C   UNL A   1      37.867  23.195  25.863  1.00  0.00     0.012 A 
ATOM     19  C   UNL A   1      37.316  20.898  25.341  1.00  0.00     0.016 A 
ATOM     20  C   UNL A   1      36.568  23.597  25.542  1.00  0.00     0.028 A 
ATOM     21  C   UNL A   1      36.029  21.325  25.011  1.00  0.00    -0.021 A 
ATOM     22  C   UNL A   1      35.669  22.672  25.040  1.00  0.00     0.055 A 
ATOM     23  C   UNL A   1      34.832  20.458  24.778  1.00  0.00     0.060 C 
ATOM     24  C   UNL A   1      33.775  21.476  24.327  1.00  0.00     0.140 C 
BRANCH  17  25
ATOM     25  C   UNL A   1      39.590  21.482  26.195  1.00  0.00     0.081 A 
ATOM     26  C   UNL A   1      42.184  18.915  26.207  1.00  0.00     0.079 C 
ATOM     27  C   UNL A   1      41.323  20.116  26.381  1.00  0.00     0.090 A 
ATOM     28  N   UNL A   1      40.109  20.233  25.891  1.00  0.00    -0.242 NA
ATOM     29  S   UNL A   1      41.889  21.470  27.276  1.00  0.00    -0.127 S 
ATOM     30  C   UNL A   1      40.412  22.286  26.956  1.00  0.00     0.095 A 
ENDBRANCH  17  25
ENDBRANCH  13  16
ENDBRANCH   7  13
ENDBRANCH   3   6
ENDBRANCH   1   2
BRANCH   1  31
ATOM     31  C   UNL A   1      31.431  31.794  26.597  1.00  0.00     0.042 C 
BRANCH  31  32
ATOM     32  C   UNL A   1      32.659  32.432  27.252  1.00  0.00     0.118 C 
BRANCH  32  33
ATOM     33  N   UNL A   1      32.451  33.847  27.549  1.00  0.00    -0.352 N 
ATOM     34  C   UNL A   1      33.031  34.662  28.489  1.00  0.00     0.251 C 
ATOM     35  H   UNL A   1      31.782  34.292  26.979  1.00  0.00     0.163 HD
ATOM     36  O   UNL A   1      32.520  35.746  28.754  1.00  0.00    -0.269 OA
BRANCH  34  37
ATOM     37  C   UNL A   1      34.262  34.241  29.185  1.00  0.00     0.039 A 
ATOM     38  C   UNL A   1      34.164  33.644  30.445  1.00  0.00     0.014 A 
ATOM     39  C   UNL A   1      35.513  34.461  28.607  1.00  0.00     0.014 A 
ATOM     40  C   UNL A   1      35.318  33.190  31.085  1.00  0.00     0.010 A 
ATOM     41  C   UNL A   1      36.651  33.934  29.205  1.00  0.00     0.010 A 
ATOM     42  C   UNL A   1      36.565  33.287  30.446  1.00  0.00    -0.014 A 
BRANCH  42  43
ATOM     43  C   UNL A   1      37.790  32.697  31.038  1.00  0.00     0.031 A 
ATOM     44  C   UNL A   1      38.426  31.487  30.413  1.00  0.00     0.074 A 
ATOM     45  C   UNL A   1      38.274  33.198  32.192  1.00  0.00     0.049 A 
ATOM     46  N   UNL A   1      39.433  30.771  30.841  1.00  0.00    -0.248 NA
ATOM     47  C   UNL A   1      37.835  31.001  29.155  1.00  0.00     0.031 C 
ATOM     48  C   UNL A   1      37.722  34.346  32.915  1.00  0.00     0.029 A 
ATOM     49  N   UNL A   1      39.332  32.796  32.967  1.00  0.00    -0.354 N 
ATOM     50  C   UNL A   1      39.584  29.744  29.919  1.00  0.00     0.074 A 
ATOM     51  C   UNL A   1      38.533  29.898  28.937  1.00  0.00     0.031 C 
ATOM     52  C   UNL A   1      38.463  34.573  34.011  1.00  0.00     0.029 A 
ATOM     53  C   UNL A   1      39.505  33.556  34.099  1.00  0.00     0.049 A 
ATOM     54  H   UNL A   1      39.913  32.036  32.734  1.00  0.00     0.167 HD
ATOM     55  C   UNL A   1      40.524  28.770  29.883  1.00  0.00     0.031 A 
ATOM     56  C   UNL A   1      40.392  33.437  35.105  1.00  0.00     0.031 A 
ATOM     57  C   UNL A   1      41.568  28.621  30.861  1.00  0.00     0.049 A 
ATOM     58  C   UNL A   1      41.398  32.322  35.061  1.00  0.00     0.074 A 
ATOM     59  C   UNL A   1      42.601  27.701  30.886  1.00  0.00     0.029 A 
ATOM     60  N   UNL A   1      41.705  29.409  31.993  1.00  0.00    -0.354 N 
ATOM     61  N   UNL A   1      41.573  31.402  34.144  1.00  0.00    -0.248 NA
ATOM     62  C   UNL A   1      42.333  32.231  36.192  1.00  0.00     0.031 C 
ATOM     63  C   UNL A   1      43.326  27.891  32.065  1.00  0.00     0.029 A 
ATOM     64  C   UNL A   1      42.786  28.973  32.742  1.00  0.00     0.049 A 
ATOM     65  H   UNL A   1      41.121  30.165  32.231  1.00  0.00     0.167 HD
ATOM     66  C   UNL A   1      42.653  30.640  34.573  1.00  0.00     0.074 A 
ATOM     67  C   UNL A   1      43.104  31.218  35.822  1.00  0.00     0.031 C 
ATOM     68  C   UNL A   1      43.220  29.559  33.984  1.00  0.00     0.031 A 
BRANCH  55  69
ATOM     69  C   UNL A   1      40.457  27.781  28.751  1.00  0.00    -0.014 A 
ATOM     70  C   UNL A   1      39.711  26.596  28.862  1.00  0.00     0.009 A 
ATOM     71  C   UNL A   1      41.117  28.053  27.544  1.00  0.00     0.009 A 
ATOM     72  C   UNL A   1      39.661  25.687  27.802  1.00  0.00     0.001 A 
ATOM     73  C   UNL A   1      41.038  27.160  26.473  1.00  0.00     0.001 A 
ATOM     74  C   UNL A   1      40.321  25.973  26.607  1.00  0.00     0.000 A 
ENDBRANCH  55  69
BRANCH  56  75
ATOM     75  C   UNL A   1      40.370  34.400  36.238  1.00  0.00    -0.014 A 
ATOM     76  C   UNL A   1      41.108  35.592  36.173  1.00  0.00     0.009 A 
ATOM     77  C   UNL A   1      39.618  34.132  37.392  1.00  0.00     0.009 A 
ATOM     78  C   UNL A   1      41.117  36.479  37.252  1.00  0.00     0.001 A 
ATOM     79  C   UNL A   1      39.603  35.036  38.456  1.00  0.00     0.001 A 
ATOM     80  C   UNL A   1      40.361  36.204  38.390  1.00  0.00     0.000 A 
ENDBRANCH  56  75
BRANCH  68  81
ATOM     81  C   UNL A   1      44.411  28.947  34.667  1.00  0.00    -0.014 A 
ATOM     82  C   UNL A   1      44.267  27.894  35.582  1.00  0.00     0.009 A 
ATOM     83  C   UNL A   1      45.702  29.397  34.344  1.00  0.00     0.009 A 
ATOM     84  C   UNL A   1      45.390  27.321  36.182  1.00  0.00     0.001 A 
ATOM     85  C   UNL A   1      46.824  28.801  34.920  1.00  0.00     0.001 A 
ATOM     86  C   UNL A   1      46.667  27.769  35.844  1.00  0.00     0.000 A 
ENDBRANCH  68  81
ENDBRANCH  42  43
ENDBRANCH  34  37
ENDBRANCH  32  33
ENDBRANCH  31  32
ENDBRANCH   1  31
TORSDOF 13
ENDMDL
MODEL 2
REMARK VINA RESULT:     -12.9      4.210     10.011
REMARK SMILES Cc1nc(-c2ccc3c(c2)CCN3S(=O)(=O)c2ccc(F)c(C(=O)NCCCNC(=O)c3ccc(-c4c5nc(c(-c6ccccc6)c6ccc([nH]6)c(-c6ccccc6)c6nc(c(-c7ccccc7)c7ccc4[nH]7)C=C6)C=C5)cc3)c2)cs1
REMARK SMILES IDX 26 1 25 2 23 3 24 4 22 6 17 7 18 8 80 9 19 10 20 11 21 12
REMARK SMILES IDX 14 13 15 14 16 15 13 16 5 17 6 18 10 19 7 20 9 21 8 22 11 23
REMARK SMILES IDX 12 24 4 25 1 26 2 27 3 28 82 29 81 30 27 31 28 32 29 33
REMARK SMILES IDX 30 34 31 36 32 37 33 38 79 39 34 40 78 41 35 42 36 43 37 44
REMARK SMILES IDX 72 45 38 46 77 47 71 48 73 49 39 50 76 51 70 52 69 53 40 55
REMARK SMILES IDX 62 56 47 57 61 58 48 59 51 60 60 61 74 62 49 63 50 64 59 66
REMARK SMILES IDX 75 67 52 68 41 69 42 70 46 71 43 72 45 73 44 74 63 75 64 76
REMARK SMILES IDX 68 77 65 78 67 79 66 80 53 81 54 82 58 83 55 84 57 85 56 86
REMARK H PARENT 25 5 29 35 73 54 51 65
REMARK Flexibility Score: inf
ROOT
ATOM      1  C   UNL A   1      32.924  34.296  28.491  1.00  0.00     0.118 C 
ENDROOT
BRANCH   1   2
ATOM      2  N   UNL A   1      32.986  35.745  28.503  1.00  0.00    -0.352 N 
ATOM      3  C   UNL A   1      33.283  36.697  29.435  1.00  0.00     0.254 C 
ATOM      4  O   UNL A   1      33.306  37.854  29.001  1.00  0.00    -0.269 OA
ATOM      5  H   UNL A   1      32.759  36.135  27.628  1.00  0.00     0.163 HD
BRANCH   3   6
ATOM      6  C   UNL A   1      33.597  36.493  30.880  1.00  0.00     0.076 A 
ATOM      7  C   UNL A   1      34.482  34.912  32.531  1.00  0.00     0.089 A 
ATOM      8  C   UNL A   1      34.328  35.856  33.548  1.00  0.00     0.025 A 
ATOM      9  C   UNL A   1      34.156  35.232  31.207  1.00  0.00     0.039 A 
ATOM     10  C   UNL A   1      33.773  37.091  33.244  1.00  0.00     0.041 A 
ATOM     11  C   UNL A   1      33.424  37.407  31.925  1.00  0.00     0.136 A 
ATOM     12  F   UNL A   1      32.961  38.644  31.740  1.00  0.00    -0.206 F 
BRANCH   7  13
ATOM     13  S   UNL A   1      35.083  33.304  32.969  1.00  0.00     0.264 S 
ATOM     14  O   UNL A   1      34.303  32.359  32.197  1.00  0.00    -0.201 OA
ATOM     15  O   UNL A   1      35.091  33.213  34.418  1.00  0.00    -0.201 OA
BRANCH  13  16
ATOM     16  N   UNL A   1      36.709  33.212  32.453  1.00  0.00    -0.266 N 
ATOM     17  C   UNL A   1      39.823  30.548  33.460  1.00  0.00     0.001 A 
ATOM     18  C   UNL A   1      38.559  30.003  33.187  1.00  0.00     0.012 A 
ATOM     19  C   UNL A   1      40.001  31.935  33.386  1.00  0.00     0.016 A 
ATOM     20  C   UNL A   1      37.475  30.825  32.865  1.00  0.00     0.028 A 
ATOM     21  C   UNL A   1      38.901  32.737  33.078  1.00  0.00    -0.021 A 
ATOM     22  C   UNL A   1      37.628  32.200  32.887  1.00  0.00     0.055 A 
ATOM     23  C   UNL A   1      38.926  34.190  32.722  1.00  0.00     0.060 C 
ATOM     24  C   UNL A   1      37.431  34.528  32.630  1.00  0.00     0.140 C 
BRANCH  17  25
ATOM     25  C   UNL A   1      40.930  29.637  33.694  1.00  0.00     0.081 A 
ATOM     26  C   UNL A   1      44.520  29.298  34.259  1.00  0.00     0.079 C 
ATOM     27  C   UNL A   1      43.058  29.129  34.035  1.00  0.00     0.090 A 
ATOM     28  N   UNL A   1      42.221  30.122  33.828  1.00  0.00    -0.242 NA
ATOM     29  S   UNL A   1      42.355  27.560  34.028  1.00  0.00    -0.127 S 
ATOM     30  C   UNL A   1      40.812  28.264  33.760  1.00  0.00     0.095 A 
ENDBRANCH  17  25
ENDBRANCH  13  16
ENDBRANCH   7  13
ENDBRANCH   3   6
ENDBRANCH   1   2
BRANCH   1  31
ATOM     31  C   UNL A   1      34.243  33.683  28.020  1.00  0.00     0.042 C 
BRANCH  31  32
ATOM     32  C   UNL A   1      34.664  32.468  28.851  1.00  0.00     0.118 C 
BRANCH  32  33
ATOM     33  N   UNL A   1      34.097  31.224  28.334  1.00  0.00    -0.352 N 
ATOM     34  C   UNL A   1      34.703  30.065  27.918  1.00  0.00     0.251 C 
ATOM     35  H   UNL A   1      33.113  31.216  28.273  1.00  0.00     0.163 HD
ATOM     36  O   UNL A   1      34.066  29.245  27.264  1.00  0.00    -0.269 OA
BRANCH  34  37
ATOM     37  C   UNL A   1      36.116  29.802  28.250  1.00  0.00     0.039 A 
ATOM     38  C   UNL A   1      36.440  29.311  29.517  1.00  0.00     0.014 A 
ATOM     39  C   UNL A   1      37.123  30.067  27.321  1.00  0.00     0.014 A 
ATOM     40  C   UNL A   1      37.768  29.004  29.821  1.00  0.00     0.010 A 
ATOM     41  C   UNL A   1      38.431  29.683  27.592  1.00  0.00     0.010 A 
ATOM     42  C   UNL A   1      38.766  29.141  28.842  1.00  0.00    -0.014 A 
BRANCH  42  43
ATOM     43  C   UNL A   1      40.160  28.700  29.087  1.00  0.00     0.031 A 
ATOM     44  C   UNL A   1      41.168  29.660  29.655  1.00  0.00     0.074 A 
ATOM     45  C   UNL A   1      40.537  27.462  28.711  1.00  0.00     0.049 A 
ATOM     46  N   UNL A   1      42.452  29.492  29.841  1.00  0.00    -0.248 NA
ATOM     47  C   UNL A   1      40.675  30.993  30.037  1.00  0.00     0.031 C 
ATOM     48  C   UNL A   1      39.660  26.452  28.115  1.00  0.00     0.029 A 
ATOM     49  N   UNL A   1      41.762  26.847  28.763  1.00  0.00    -0.354 N 
ATOM     50  C   UNL A   1      42.921  30.698  30.344  1.00  0.00     0.074 A 
ATOM     51  C   UNL A   1      41.796  31.607  30.383  1.00  0.00     0.031 C 
ATOM     52  C   UNL A   1      40.368  25.336  27.883  1.00  0.00     0.029 A 
ATOM     53  C   UNL A   1      41.757  25.568  28.260  1.00  0.00     0.049 A 
ATOM     54  H   UNL A   1      42.569  27.281  29.126  1.00  0.00     0.167 HD
ATOM     55  C   UNL A   1      44.172  31.017  30.752  1.00  0.00     0.031 A 
ATOM     56  C   UNL A   1      42.763  24.686  28.104  1.00  0.00     0.031 A 
ATOM     57  C   UNL A   1      45.288  30.110  30.712  1.00  0.00     0.049 A 
ATOM     58  C   UNL A   1      44.150  25.079  28.527  1.00  0.00     0.074 A 
ATOM     59  C   UNL A   1      46.583  30.317  31.152  1.00  0.00     0.029 A 
ATOM     60  N   UNL A   1      45.241  28.825  30.192  1.00  0.00    -0.354 N 
ATOM     61  N   UNL A   1      44.563  26.200  29.068  1.00  0.00    -0.248 NA
ATOM     62  C   UNL A   1      45.211  24.083  28.320  1.00  0.00     0.031 C 
ATOM     63  C   UNL A   1      47.336  29.181  30.841  1.00  0.00     0.029 A 
ATOM     64  C   UNL A   1      46.494  28.240  30.269  1.00  0.00     0.049 A 
ATOM     65  H   UNL A   1      44.437  28.393  29.823  1.00  0.00     0.167 HD
ATOM     66  C   UNL A   1      45.924  26.034  29.291  1.00  0.00     0.074 A 
ATOM     67  C   UNL A   1      46.262  24.698  28.844  1.00  0.00     0.031 C 
ATOM     68  C   UNL A   1      46.813  26.910  29.818  1.00  0.00     0.031 A 
BRANCH  55  69
ATOM     69  C   UNL A   1      44.401  32.411  31.268  1.00  0.00    -0.014 A 
ATOM     70  C   UNL A   1      44.147  32.744  32.608  1.00  0.00     0.009 A 
ATOM     71  C   UNL A   1      44.912  33.398  30.411  1.00  0.00     0.009 A 
ATOM     72  C   UNL A   1      44.362  34.046  33.069  1.00  0.00     0.001 A 
ATOM     73  C   UNL A   1      45.159  34.690  30.882  1.00  0.00     0.001 A 
ATOM     74  C   UNL A   1      44.873  35.015  32.206  1.00  0.00     0.000 A 
ENDBRANCH  55  69
BRANCH  56  75
ATOM     75  C   UNL A   1      42.495  23.344  27.522  1.00  0.00    -0.014 A 
ATOM     76  C   UNL A   1      42.667  23.117  26.148  1.00  0.00     0.009 A 
ATOM     77  C   UNL A   1      42.061  22.284  28.334  1.00  0.00     0.009 A 
ATOM     78  C   UNL A   1      42.381  21.867  25.595  1.00  0.00     0.001 A 
ATOM     79  C   UNL A   1      41.807  21.026  27.783  1.00  0.00     0.001 A 
ATOM     80  C   UNL A   1      41.956  20.822  26.413  1.00  0.00     0.000 A 
ENDBRANCH  56  75
BRANCH  68  81
ATOM     81  C   UNL A   1      48.234  26.443  29.972  1.00  0.00    -0.014 A 
ATOM     82  C   UNL A   1      49.190  26.673  28.971  1.00  0.00     0.009 A 
ATOM     83  C   UNL A   1      48.631  25.812  31.162  1.00  0.00     0.009 A 
ATOM     84  C   UNL A   1      50.511  26.256  29.148  1.00  0.00     0.001 A 
ATOM     85  C   UNL A   1      49.959  25.426  31.349  1.00  0.00     0.001 A 
ATOM     86  C   UNL A   1      50.895  25.641  30.339  1.00  0.00     0.000 A 
ENDBRANCH  68  81
ENDBRANCH  42  43
ENDBRANCH  34  37
ENDBRANCH  32  33
ENDBRANCH  31  32
ENDBRANCH   1  31
TORSDOF 13
ENDMDL
MODEL 3
REMARK VINA RESULT:     -12.7      0.598      5.693
REMARK SMILES Cc1nc(-c2ccc3c(c2)CCN3S(=O)(=O)c2ccc(F)c(C(=O)NCCCNC(=O)c3ccc(-c4c5nc(c(-c6ccccc6)c6ccc([nH]6)c(-c6ccccc6)c6nc(c(-c7ccccc7)c7ccc4[nH]7)C=C6)C=C5)cc3)c2)cs1
REMARK SMILES IDX 26 1 25 2 23 3 24 4 22 6 17 7 18 8 80 9 19 10 20 11 21 12
REMARK SMILES IDX 14 13 15 14 16 15 13 16 5 17 6 18 10 19 7 20 9 21 8 22 11 23
REMARK SMILES IDX 12 24 4 25 1 26 2 27 3 28 82 29 81 30 27 31 28 32 29 33
REMARK SMILES IDX 30 34 31 36 32 37 33 38 79 39 34 40 78 41 35 42 36 43 37 44
REMARK SMILES IDX 72 45 38 46 77 47 71 48 73 49 39 50 76 51 70 52 69 53 40 55
REMARK SMILES IDX 62 56 47 57 61 58 48 59 51 60 60 61 74 62 49 63 50 64 59 66
REMARK SMILES IDX 75 67 52 68 41 69 42 70 46 71 43 72 45 73 44 74 63 75 64 76
REMARK SMILES IDX 68 77 65 78 67 79 66 80 53 81 54 82 58 83 55 84 57 85 56 86
REMARK H PARENT 25 5 29 35 73 54 51 65
REMARK Flexibility Score: inf
ROOT
ATOM      1  C   UNL A   1      31.599  30.848  25.831  1.00  0.00     0.118 C 
ENDROOT
BRANCH   1   2
ATOM      2  N   UNL A   1      32.880  30.270  26.186  1.00  0.00    -0.352 N 
ATOM      3  C   UNL A   1      33.373  29.003  26.308  1.00  0.00     0.254 C 
ATOM      4  O   UNL A   1      34.583  28.942  26.555  1.00  0.00    -0.269 OA
ATOM      5  H   UNL A   1      33.556  30.956  26.389  1.00  0.00     0.163 HD
BRANCH   3   6
ATOM      6  C   UNL A   1      32.631  27.716  26.158  1.00  0.00     0.076 A 
ATOM      7  C   UNL A   1      32.622  25.531  25.048  1.00  0.00     0.089 A 
ATOM      8  C   UNL A   1      31.455  25.169  25.723  1.00  0.00     0.025 A 
ATOM      9  C   UNL A   1      33.227  26.772  25.284  1.00  0.00     0.039 A 
ATOM     10  C   UNL A   1      30.856  26.088  26.575  1.00  0.00     0.041 A 
ATOM     11  C   UNL A   1      31.445  27.339  26.796  1.00  0.00     0.136 A 
ATOM     12  F   UNL A   1      30.818  28.113  27.683  1.00  0.00    -0.206 F 
BRANCH   7  13
ATOM     13  S   UNL A   1      33.298  24.384  23.879  1.00  0.00     0.264 S 
ATOM     14  O   UNL A   1      34.415  25.060  23.252  1.00  0.00    -0.201 OA
ATOM     15  O   UNL A   1      32.207  23.891  23.058  1.00  0.00    -0.201 OA
BRANCH  13  16
ATOM     16  N   UNL A   1      33.900  23.052  24.764  1.00  0.00    -0.266 N 
ATOM     17  C   UNL A   1      37.838  21.841  25.675  1.00  0.00     0.001 A 
ATOM     18  C   UNL A   1      37.519  23.198  25.829  1.00  0.00     0.012 A 
ATOM     19  C   UNL A   1      36.849  20.951  25.234  1.00  0.00     0.016 A 
ATOM     20  C   UNL A   1      36.241  23.676  25.528  1.00  0.00     0.028 A 
ATOM     21  C   UNL A   1      35.585  21.454  24.925  1.00  0.00    -0.021 A 
ATOM     22  C   UNL A   1      35.294  22.816  25.001  1.00  0.00     0.055 A 
ATOM     23  C   UNL A   1      34.344  20.657  24.671  1.00  0.00     0.060 C 
ATOM     24  C   UNL A   1      33.339  21.742  24.259  1.00  0.00     0.140 C 
BRANCH  17  25
ATOM     25  C   UNL A   1      39.154  21.390  26.094  1.00  0.00     0.081 A 
ATOM     26  C   UNL A   1      42.243  22.238  27.843  1.00  0.00     0.079 C 
ATOM     27  C   UNL A   1      41.127  21.627  27.070  1.00  0.00     0.090 A 
ATOM     28  N   UNL A   1      39.998  22.239  26.791  1.00  0.00    -0.242 NA
ATOM     29  S   UNL A   1      41.262  20.023  26.468  1.00  0.00    -0.127 S 
ATOM     30  C   UNL A   1      39.679  20.145  25.814  1.00  0.00     0.095 A 
ENDBRANCH  17  25
ENDBRANCH  13  16
ENDBRANCH   7  13
ENDBRANCH   3   6
ENDBRANCH   1   2
BRANCH   1  31
ATOM     31  C   UNL A   1      31.374  32.187  26.534  1.00  0.00     0.042 C 
BRANCH  31  32
ATOM     32  C   UNL A   1      32.647  32.738  27.183  1.00  0.00     0.118 C 
BRANCH  32  33
ATOM     33  N   UNL A   1      32.484  34.121  27.626  1.00  0.00    -0.352 N 
ATOM     34  C   UNL A   1      33.046  34.799  28.679  1.00  0.00     0.251 C 
ATOM     35  H   UNL A   1      31.867  34.658  27.077  1.00  0.00     0.163 HD
ATOM     36  O   UNL A   1      32.569  35.871  29.038  1.00  0.00    -0.269 OA
BRANCH  34  37
ATOM     37  C   UNL A   1      34.218  34.245  29.383  1.00  0.00     0.039 A 
ATOM     38  C   UNL A   1      34.026  33.513  30.558  1.00  0.00     0.014 A 
ATOM     39  C   UNL A   1      35.507  34.471  28.900  1.00  0.00     0.014 A 
ATOM     40  C   UNL A   1      35.123  32.936  31.200  1.00  0.00     0.010 A 
ATOM     41  C   UNL A   1      36.588  33.827  29.489  1.00  0.00     0.010 A 
ATOM     42  C   UNL A   1      36.407  33.047  30.641  1.00  0.00    -0.014 A 
BRANCH  42  43
ATOM     43  C   UNL A   1      37.572  32.337  31.223  1.00  0.00     0.031 A 
ATOM     44  C   UNL A   1      38.232  32.859  32.468  1.00  0.00     0.074 A 
ATOM     45  C   UNL A   1      38.089  31.275  30.575  1.00  0.00     0.049 A 
ATOM     46  N   UNL A   1      39.317  32.439  33.064  1.00  0.00    -0.248 NA
ATOM     47  C   UNL A   1      37.605  34.025  33.113  1.00  0.00     0.031 C 
ATOM     48  C   UNL A   1      37.559  30.697  29.337  1.00  0.00     0.029 A 
ATOM     49  N   UNL A   1      39.184  30.501  30.860  1.00  0.00    -0.354 N 
ATOM     50  C   UNL A   1      39.513  33.295  34.139  1.00  0.00     0.074 A 
ATOM     51  C   UNL A   1      38.466  34.291  34.084  1.00  0.00     0.031 C 
ATOM     52  C   UNL A   1      38.314  29.643  28.987  1.00  0.00     0.029 A 
ATOM     53  C   UNL A   1      39.409  29.505  29.939  1.00  0.00     0.049 A 
ATOM     54  H   UNL A   1      39.755  30.644  31.650  1.00  0.00     0.167 HD
ATOM     55  C   UNL A   1      40.469  33.247  35.097  1.00  0.00     0.031 A 
ATOM     56  C   UNL A   1      40.397  28.594  29.862  1.00  0.00     0.031 A 
ATOM     57  C   UNL A   1      41.508  32.254  35.149  1.00  0.00     0.049 A 
ATOM     58  C   UNL A   1      41.469  28.588  30.915  1.00  0.00     0.074 A 
ATOM     59  C   UNL A   1      42.492  32.085  36.107  1.00  0.00     0.029 A 
ATOM     60  N   UNL A   1      41.703  31.267  34.196  1.00  0.00    -0.354 N 
ATOM     61  N   UNL A   1      41.599  29.361  31.966  1.00  0.00    -0.248 NA
ATOM     62  C   UNL A   1      42.531  27.581  30.771  1.00  0.00     0.031 C 
ATOM     63  C   UNL A   1      43.321  31.036  35.701  1.00  0.00     0.029 A 
ATOM     64  C   UNL A   1      42.813  30.506  34.525  1.00  0.00     0.049 A 
ATOM     65  H   UNL A   1      41.137  31.126  33.402  1.00  0.00     0.167 HD
ATOM     66  C   UNL A   1      42.739  28.917  32.623  1.00  0.00     0.074 A 
ATOM     67  C   UNL A   1      43.252  27.796  31.862  1.00  0.00     0.031 C 
ATOM     68  C   UNL A   1      43.310  29.395  33.755  1.00  0.00     0.031 A 
BRANCH  55  69
ATOM     69  C   UNL A   1      40.440  34.310  36.162  1.00  0.00    -0.014 A 
ATOM     70  C   UNL A   1      39.666  34.156  37.324  1.00  0.00     0.009 A 
ATOM     71  C   UNL A   1      41.225  35.464  36.020  1.00  0.00     0.009 A 
ATOM     72  C   UNL A   1      39.648  35.155  38.302  1.00  0.00     0.001 A 
ATOM     73  C   UNL A   1      41.232  36.445  37.014  1.00  0.00     0.001 A 
ATOM     74  C   UNL A   1      40.436  36.295  38.147  1.00  0.00     0.000 A 
ENDBRANCH  55  69
BRANCH  56  75
ATOM     75  C   UNL A   1      40.419  27.610  28.746  1.00  0.00    -0.014 A 
ATOM     76  C   UNL A   1      41.127  27.886  27.567  1.00  0.00     0.009 A 
ATOM     77  C   UNL A   1      39.728  26.392  28.851  1.00  0.00     0.009 A 
ATOM     78  C   UNL A   1      41.118  26.979  26.506  1.00  0.00     0.001 A 
ATOM     79  C   UNL A   1      39.747  25.473  27.801  1.00  0.00     0.001 A 
ATOM     80  C   UNL A   1      40.433  25.771  26.625  1.00  0.00     0.000 A 
ENDBRANCH  56  75
BRANCH  68  81
ATOM     81  C   UNL A   1      44.537  28.689  34.261  1.00  0.00    -0.014 A 
ATOM     82  C   UNL A   1      45.825  29.115  33.901  1.00  0.00     0.009 A 
ATOM     83  C   UNL A   1      44.401  27.617  35.157  1.00  0.00     0.009 A 
ATOM     84  C   UNL A   1      46.951  28.463  34.406  1.00  0.00     0.001 A 
ATOM     85  C   UNL A   1      45.529  26.987  35.685  1.00  0.00     0.001 A 
ATOM     86  C   UNL A   1      46.802  27.406  35.303  1.00  0.00     0.000 A 
ENDBRANCH  68  81
ENDBRANCH  42  43
ENDBRANCH  34  37
ENDBRANCH  32  33
ENDBRANCH  31  32
ENDBRANCH   1  31
TORSDOF 13
ENDMDL
