MODEL 1
REMARK VINA RESULT:      -9.8      0.000      0.000
REMARK SMILES Cc1csc(C[N@H+]2CCC[C@@H](CC(=O)NCCCNC(=O)c3ccc(-c4c5nc(c(-c6ccccc6)c6ccc([nH]6)c(-c6ccccc6)c6nc(c(-c7ccccc7)c7ccc4[nH]7)C=C6)C=C5)cc3)C2)n1
REMARK SMILES IDX 16 1 15 2 13 3 14 4 12 6 11 7 7 8 8 9 70 10 9 12 10 13 6 14
REMARK SMILES IDX 5 15 1 16 2 17 3 18 71 19 4 20 17 21 18 22 19 23 20 24 21 26
REMARK SMILES IDX 22 27 23 28 69 29 24 30 68 31 25 32 26 33 27 34 62 35 28 36
REMARK SMILES IDX 67 37 61 38 63 39 29 40 66 41 60 42 59 43 30 45 52 46 37 47
REMARK SMILES IDX 51 48 38 49 41 50 50 51 64 52 39 53 40 54 49 56 65 57 42 58
REMARK SMILES IDX 31 59 32 60 36 61 33 62 35 63 34 64 53 65 54 66 58 67 55 68
REMARK SMILES IDX 57 69 56 70 43 71 44 72 48 73 45 74 47 75 46 76
REMARK H PARENT 15 5 7 11 19 25 63 44 41 55
REMARK Flexibility Score: inf
ROOT
ATOM      1  C   UNL A   1      34.013  36.215  31.796  1.00  0.00     0.117 C 
ENDROOT
BRANCH   1   2
ATOM      2  N   UNL A   1      33.457  34.946  32.233  1.00  0.00    -0.356 N 
ATOM      3  C   UNL A   1      33.866  34.080  33.200  1.00  0.00     0.220 C 
ATOM      4  O   UNL A   1      33.218  33.047  33.369  1.00  0.00    -0.275 OA
ATOM      5  H   UNL A   1      32.649  34.664  31.748  1.00  0.00     0.163 HD
BRANCH   3   6
ATOM      6  C   UNL A   1      35.092  34.379  34.031  1.00  0.00     0.109 C 
BRANCH   6   7
ATOM      7  C   UNL A   1      36.333  33.509  33.749  1.00  0.00     0.054 C 
ATOM      8  N   UNL A   1      38.556  32.821  34.786  1.00  0.00    -0.329 N 
ATOM      9  C   UNL A   1      38.338  31.445  34.316  1.00  0.00     0.262 C 
ATOM     10  C   UNL A   1      37.327  33.624  34.927  1.00  0.00     0.266 C 
ATOM     11  H   UNL A   1      39.093  33.280  34.050  1.00  0.00     0.348 HD
ATOM     12  C   UNL A   1      37.367  31.346  33.147  1.00  0.00     0.062 C 
ATOM     13  C   UNL A   1      36.055  32.020  33.522  1.00  0.00     0.016 C 
BRANCH   8  14
ATOM     14  C   UNL A   1      39.339  32.818  36.061  1.00  0.00     0.331 C 
BRANCH  14  15
ATOM     15  C   UNL A   1      38.500  32.811  37.330  1.00  0.00     0.147 A 
ATOM     16  C   UNL A   1      36.482  30.866  39.578  1.00  0.00     0.067 C 
ATOM     17  C   UNL A   1      37.277  31.968  38.981  1.00  0.00     0.049 A 
ATOM     18  C   UNL A   1      37.729  33.113  39.607  1.00  0.00     0.090 A 
ATOM     19  N   UNL A   1      37.660  31.848  37.659  1.00  0.00    -0.240 NA
ATOM     20  S   UNL A   1      38.678  34.044  38.522  1.00  0.00    -0.121 S 
ENDBRANCH  14  15
ENDBRANCH   8  14
ENDBRANCH   6   7
ENDBRANCH   3   6
ENDBRANCH   1   2
BRANCH   1  21
ATOM     21  C   UNL A   1      33.182  36.915  30.719  1.00  0.00     0.042 C 
BRANCH  21  22
ATOM     22  C   UNL A   1      33.597  36.606  29.281  1.00  0.00     0.118 C 
BRANCH  22  23
ATOM     23  N   UNL A   1      32.750  35.590  28.677  1.00  0.00    -0.352 N 
ATOM     24  C   UNL A   1      33.081  34.327  28.252  1.00  0.00     0.251 C 
ATOM     25  H   UNL A   1      31.807  35.843  28.555  1.00  0.00     0.163 HD
ATOM     26  O   UNL A   1      32.291  33.691  27.555  1.00  0.00    -0.269 OA
BRANCH  24  27
ATOM     27  C   UNL A   1      34.382  33.721  28.617  1.00  0.00     0.039 A 
ATOM     28  C   UNL A   1      34.438  32.849  29.708  1.00  0.00     0.014 A 
ATOM     29  C   UNL A   1      35.555  34.058  27.933  1.00  0.00     0.014 A 
ATOM     30  C   UNL A   1      35.660  32.287  30.092  1.00  0.00     0.010 A 
ATOM     31  C   UNL A   1      36.765  33.457  28.286  1.00  0.00     0.010 A 
ATOM     32  C   UNL A   1      36.832  32.573  29.375  1.00  0.00    -0.014 A 
BRANCH  32  33
ATOM     33  C   UNL A   1      38.141  31.987  29.770  1.00  0.00     0.031 A 
ATOM     34  C   UNL A   1      39.089  32.773  30.636  1.00  0.00     0.074 A 
ATOM     35  C   UNL A   1      38.499  30.767  29.326  1.00  0.00     0.049 A 
ATOM     36  N   UNL A   1      40.306  32.472  31.014  1.00  0.00    -0.248 NA
ATOM     37  C   UNL A   1      38.612  34.077  31.129  1.00  0.00     0.031 C 
ATOM     38  C   UNL A   1      37.684  29.898  28.476  1.00  0.00     0.029 A 
ATOM     39  N   UNL A   1      39.653  30.049  29.524  1.00  0.00    -0.354 N 
ATOM     40  C   UNL A   1      40.744  33.549  31.776  1.00  0.00     0.074 A 
ATOM     41  C   UNL A   1      39.678  34.528  31.774  1.00  0.00     0.031 C 
ATOM     42  C   UNL A   1      38.357  28.760  28.238  1.00  0.00     0.029 A 
ATOM     43  C   UNL A   1      39.663  28.833  28.885  1.00  0.00     0.049 A 
ATOM     44  H   UNL A   1      40.403  30.375  30.073  1.00  0.00     0.167 HD
ATOM     45  C   UNL A   1      41.917  33.705  32.434  1.00  0.00     0.031 A 
ATOM     46  C   UNL A   1      40.619  27.888  28.818  1.00  0.00     0.031 A 
ATOM     47  C   UNL A   1      42.978  32.734  32.453  1.00  0.00     0.049 A 
ATOM     48  C   UNL A   1      41.925  28.099  29.535  1.00  0.00     0.074 A 
ATOM     49  C   UNL A   1      44.199  32.803  33.104  1.00  0.00     0.029 A 
ATOM     50  N   UNL A   1      42.940  31.514  31.800  1.00  0.00    -0.354 N 
ATOM     51  N   UNL A   1      42.310  29.115  30.267  1.00  0.00    -0.248 NA
ATOM     52  C   UNL A   1      42.923  27.024  29.421  1.00  0.00     0.031 C 
ATOM     53  C   UNL A   1      44.912  31.633  32.821  1.00  0.00     0.029 A 
ATOM     54  C   UNL A   1      44.118  30.821  32.029  1.00  0.00     0.049 A 
ATOM     55  H   UNL A   1      42.189  31.187  31.254  1.00  0.00     0.167 HD
ATOM     56  C   UNL A   1      43.579  28.787  30.728  1.00  0.00     0.074 A 
ATOM     57  C   UNL A   1      43.894  27.476  30.202  1.00  0.00     0.031 C 
ATOM     58  C   UNL A   1      44.410  29.510  31.516  1.00  0.00     0.031 A 
BRANCH  45  59
ATOM     59  C   UNL A   1      42.116  34.981  33.201  1.00  0.00    -0.014 A 
ATOM     60  C   UNL A   1      41.495  35.178  34.444  1.00  0.00     0.009 A 
ATOM     61  C   UNL A   1      42.972  35.976  32.702  1.00  0.00     0.009 A 
ATOM     62  C   UNL A   1      41.706  36.356  35.161  1.00  0.00     0.001 A 
ATOM     63  C   UNL A   1      43.200  37.143  33.433  1.00  0.00     0.001 A 
ATOM     64  C   UNL A   1      42.562  37.336  34.658  1.00  0.00     0.000 A 
ENDBRANCH  45  59
BRANCH  46  65
ATOM     65  C   UNL A   1      40.390  26.641  28.041  1.00  0.00    -0.014 A 
ATOM     66  C   UNL A   1      40.896  26.511  26.739  1.00  0.00     0.009 A 
ATOM     67  C   UNL A   1      39.630  25.593  28.583  1.00  0.00     0.009 A 
ATOM     68  C   UNL A   1      40.616  25.371  25.982  1.00  0.00     0.001 A 
ATOM     69  C   UNL A   1      39.375  24.443  27.834  1.00  0.00     0.001 A 
ATOM     70  C   UNL A   1      39.858  24.338  26.531  1.00  0.00     0.000 A 
ENDBRANCH  46  65
BRANCH  58  71
ATOM     71  C   UNL A   1      45.715  28.878  31.904  1.00  0.00    -0.014 A 
ATOM     72  C   UNL A   1      46.834  28.940  31.061  1.00  0.00     0.009 A 
ATOM     73  C   UNL A   1      45.834  28.245  33.151  1.00  0.00     0.009 A 
ATOM     74  C   UNL A   1      48.041  28.355  31.448  1.00  0.00     0.001 A 
ATOM     75  C   UNL A   1      47.048  27.681  33.546  1.00  0.00     0.001 A 
ATOM     76  C   UNL A   1      48.148  27.729  32.691  1.00  0.00     0.000 A 
ENDBRANCH  58  71
ENDBRANCH  32  33
ENDBRANCH  24  27
ENDBRANCH  22  23
ENDBRANCH  21  22
ENDBRANCH   1  21
TORSDOF 13
ENDMDL
MODEL 2
REMARK VINA RESULT:      -9.7      5.288     11.016
REMARK SMILES Cc1csc(C[N@H+]2CCC[C@@H](CC(=O)NCCCNC(=O)c3ccc(-c4c5nc(c(-c6ccccc6)c6ccc([nH]6)c(-c6ccccc6)c6nc(c(-c7ccccc7)c7ccc4[nH]7)C=C6)C=C5)cc3)C2)n1
REMARK SMILES IDX 16 1 15 2 13 3 14 4 12 6 11 7 7 8 8 9 70 10 9 12 10 13 6 14
REMARK SMILES IDX 5 15 1 16 2 17 3 18 71 19 4 20 17 21 18 22 19 23 20 24 21 26
REMARK SMILES IDX 22 27 23 28 69 29 24 30 68 31 25 32 26 33 27 34 62 35 28 36
REMARK SMILES IDX 67 37 61 38 63 39 29 40 66 41 60 42 59 43 30 45 52 46 37 47
REMARK SMILES IDX 51 48 38 49 41 50 50 51 64 52 39 53 40 54 49 56 65 57 42 58
REMARK SMILES IDX 31 59 32 60 36 61 33 62 35 63 34 64 53 65 54 66 58 67 55 68
REMARK SMILES IDX 57 69 56 70 43 71 44 72 48 73 45 74 47 75 46 76
REMARK H PARENT 15 5 7 11 19 25 63 44 41 55
REMARK Flexibility Score: inf
ROOT
ATOM      1  C   UNL A   1      36.418  20.695  24.643  1.00  0.00     0.117 C 
ENDROOT
BRANCH   1   2
ATOM      2  N   UNL A   1      35.584  20.863  25.820  1.00  0.00    -0.356 N 
ATOM      3  C   UNL A   1      35.075  21.985  26.398  1.00  0.00     0.220 C 
ATOM      4  O   UNL A   1      34.395  21.858  27.417  1.00  0.00    -0.275 OA
ATOM      5  H   UNL A   1      35.346  20.025  26.277  1.00  0.00     0.163 HD
BRANCH   3   6
ATOM      6  C   UNL A   1      35.352  23.348  25.808  1.00  0.00     0.109 C 
BRANCH   6   7
ATOM      7  C   UNL A   1      34.311  23.876  24.799  1.00  0.00     0.054 C 
ATOM      8  N   UNL A   1      33.457  26.047  23.778  1.00  0.00    -0.329 N 
ATOM      9  C   UNL A   1      33.373  25.386  22.468  1.00  0.00     0.262 C 
ATOM     10  C   UNL A   1      34.396  25.417  24.725  1.00  0.00     0.266 C 
ATOM     11  H   UNL A   1      32.535  25.937  24.201  1.00  0.00     0.348 HD
ATOM     12  C   UNL A   1      33.277  23.869  22.554  1.00  0.00     0.062 C 
ATOM     13  C   UNL A   1      34.445  23.335  23.373  1.00  0.00     0.016 C 
BRANCH   8  14
ATOM     14  C   UNL A   1      33.768  27.502  23.609  1.00  0.00     0.331 C 
BRANCH  14  15
ATOM     15  C   UNL A   1      33.013  28.433  24.545  1.00  0.00     0.147 A 
ATOM     16  C   UNL A   1      33.240  30.853  27.191  1.00  0.00     0.067 C 
ATOM     17  C   UNL A   1      32.723  29.997  26.094  1.00  0.00     0.049 A 
ATOM     18  C   UNL A   1      31.513  30.112  25.438  1.00  0.00     0.090 A 
ATOM     19  N   UNL A   1      33.535  28.984  25.624  1.00  0.00    -0.240 NA
ATOM     20  S   UNL A   1      31.406  28.943  24.187  1.00  0.00    -0.121 S 
ENDBRANCH  14  15
ENDBRANCH   8  14
ENDBRANCH   6   7
ENDBRANCH   3   6
ENDBRANCH   1   2
BRANCH   1  21
ATOM     21  C   UNL A   1      37.588  19.730  24.849  1.00  0.00     0.042 C 
BRANCH  21  22
ATOM     22  C   UNL A   1      38.741  20.282  25.686  1.00  0.00     0.118 C 
BRANCH  22  23
ATOM     23  N   UNL A   1      39.849  19.345  25.771  1.00  0.00    -0.352 N 
ATOM     24  C   UNL A   1      41.172  19.590  26.045  1.00  0.00     0.251 C 
ATOM     25  H   UNL A   1      39.619  18.402  25.609  1.00  0.00     0.163 HD
ATOM     26  O   UNL A   1      42.010  18.710  25.847  1.00  0.00    -0.269 OA
BRANCH  24  27
ATOM     27  C   UNL A   1      41.606  20.905  26.569  1.00  0.00     0.039 A 
ATOM     28  C   UNL A   1      41.552  21.133  27.948  1.00  0.00     0.014 A 
ATOM     29  C   UNL A   1      42.003  21.933  25.708  1.00  0.00     0.014 A 
ATOM     30  C   UNL A   1      41.929  22.376  28.466  1.00  0.00     0.010 A 
ATOM     31  C   UNL A   1      42.426  23.157  26.231  1.00  0.00     0.010 A 
ATOM     32  C   UNL A   1      42.383  23.395  27.614  1.00  0.00    -0.014 A 
BRANCH  32  33
ATOM     33  C   UNL A   1      42.785  24.724  28.147  1.00  0.00     0.031 A 
ATOM     34  C   UNL A   1      41.745  25.786  28.387  1.00  0.00     0.074 A 
ATOM     35  C   UNL A   1      44.083  24.996  28.382  1.00  0.00     0.049 A 
ATOM     36  N   UNL A   1      41.906  27.030  28.764  1.00  0.00    -0.248 NA
ATOM     37  C   UNL A   1      40.341  25.404  28.159  1.00  0.00     0.031 C 
ATOM     38  C   UNL A   1      45.196  24.066  28.187  1.00  0.00     0.029 A 
ATOM     39  N   UNL A   1      44.686  26.147  28.830  1.00  0.00    -0.354 N 
ATOM     40  C   UNL A   1      40.630  27.581  28.806  1.00  0.00     0.074 A 
ATOM     41  C   UNL A   1      39.710  26.548  28.380  1.00  0.00     0.031 C 
ATOM     42  C   UNL A   1      46.343  24.677  28.527  1.00  0.00     0.029 A 
ATOM     43  C   UNL A   1      46.053  26.050  28.928  1.00  0.00     0.049 A 
ATOM     44  H   UNL A   1      44.186  26.963  29.060  1.00  0.00     0.167 HD
ATOM     45  C   UNL A   1      40.253  28.825  29.183  1.00  0.00     0.031 A 
ATOM     46  C   UNL A   1      46.971  26.967  29.287  1.00  0.00     0.031 A 
ATOM     47  C   UNL A   1      41.156  29.856  29.620  1.00  0.00     0.049 A 
ATOM     48  C   UNL A   1      46.527  28.352  29.674  1.00  0.00     0.074 A 
ATOM     49  C   UNL A   1      40.860  31.145  30.032  1.00  0.00     0.029 A 
ATOM     50  N   UNL A   1      42.530  29.711  29.712  1.00  0.00    -0.354 N 
ATOM     51  N   UNL A   1      45.315  28.846  29.727  1.00  0.00    -0.248 NA
ATOM     52  C   UNL A   1      47.582  29.302  30.058  1.00  0.00     0.031 C 
ATOM     53  C   UNL A   1      42.061  31.790  30.348  1.00  0.00     0.029 A 
ATOM     54  C   UNL A   1      43.098  30.888  30.171  1.00  0.00     0.049 A 
ATOM     55  H   UNL A   1      43.029  28.894  29.484  1.00  0.00     0.167 HD
ATOM     56  C   UNL A   1      45.459  30.150  30.183  1.00  0.00     0.074 A 
ATOM     57  C   UNL A   1      46.873  30.368  30.400  1.00  0.00     0.031 C 
ATOM     58  C   UNL A   1      44.503  31.084  30.401  1.00  0.00     0.031 A 
BRANCH  45  59
ATOM     59  C   UNL A   1      38.785  29.145  29.144  1.00  0.00    -0.014 A 
ATOM     60  C   UNL A   1      37.994  29.028  30.297  1.00  0.00     0.009 A 
ATOM     61  C   UNL A   1      38.198  29.617  27.960  1.00  0.00     0.009 A 
ATOM     62  C   UNL A   1      36.637  29.352  30.258  1.00  0.00     0.001 A 
ATOM     63  C   UNL A   1      36.846  29.963  27.930  1.00  0.00     0.001 A 
ATOM     64  C   UNL A   1      36.065  29.823  29.077  1.00  0.00     0.000 A 
ENDBRANCH  45  59
BRANCH  46  65
ATOM     65  C   UNL A   1      48.416  26.617  29.304  1.00  0.00    -0.014 A 
ATOM     66  C   UNL A   1      49.014  26.124  30.473  1.00  0.00     0.009 A 
ATOM     67  C   UNL A   1      49.210  26.814  28.164  1.00  0.00     0.009 A 
ATOM     68  C   UNL A   1      50.386  25.867  30.512  1.00  0.00     0.001 A 
ATOM     69  C   UNL A   1      50.577  26.529  28.197  1.00  0.00     0.001 A 
ATOM     70  C   UNL A   1      51.165  26.068  29.374  1.00  0.00     0.000 A 
ENDBRANCH  46  65
BRANCH  58  71
ATOM     71  C   UNL A   1      44.947  32.409  30.952  1.00  0.00    -0.014 A 
ATOM     72  C   UNL A   1      45.285  33.474  30.105  1.00  0.00     0.009 A 
ATOM     73  C   UNL A   1      44.989  32.600  32.342  1.00  0.00     0.009 A 
ATOM     74  C   UNL A   1      45.684  34.700  30.640  1.00  0.00     0.001 A 
ATOM     75  C   UNL A   1      45.366  33.834  32.875  1.00  0.00     0.001 A 
ATOM     76  C   UNL A   1      45.721  34.880  32.024  1.00  0.00     0.000 A 
ENDBRANCH  58  71
ENDBRANCH  32  33
ENDBRANCH  24  27
ENDBRANCH  22  23
ENDBRANCH  21  22
ENDBRANCH   1  21
TORSDOF 13
ENDMDL
MODEL 3
REMARK VINA RESULT:      -9.7      6.223     12.196
REMARK SMILES Cc1csc(C[N@H+]2CCC[C@@H](CC(=O)NCCCNC(=O)c3ccc(-c4c5nc(c(-c6ccccc6)c6ccc([nH]6)c(-c6ccccc6)c6nc(c(-c7ccccc7)c7ccc4[nH]7)C=C6)C=C5)cc3)C2)n1
REMARK SMILES IDX 16 1 15 2 13 3 14 4 12 6 11 7 7 8 8 9 70 10 9 12 10 13 6 14
REMARK SMILES IDX 5 15 1 16 2 17 3 18 71 19 4 20 17 21 18 22 19 23 20 24 21 26
REMARK SMILES IDX 22 27 23 28 69 29 24 30 68 31 25 32 26 33 27 34 62 35 28 36
REMARK SMILES IDX 67 37 61 38 63 39 29 40 66 41 60 42 59 43 30 45 52 46 37 47
REMARK SMILES IDX 51 48 38 49 41 50 50 51 64 52 39 53 40 54 49 56 65 57 42 58
REMARK SMILES IDX 31 59 32 60 36 61 33 62 35 63 34 64 53 65 54 66 58 67 55 68
REMARK SMILES IDX 57 69 56 70 43 71 44 72 48 73 45 74 47 75 46 76
REMARK H PARENT 15 5 7 11 19 25 63 44 41 55
REMARK Flexibility Score: inf
ROOT
ATOM      1  C   UNL A   1      37.568  20.775  24.606  1.00  0.00     0.117 C 
ENDROOT
BRANCH   1   2
ATOM      2  N   UNL A   1      38.055  22.046  25.115  1.00  0.00    -0.356 N 
ATOM      3  C   UNL A   1      37.394  23.088  25.688  1.00  0.00     0.220 C 
ATOM      4  O   UNL A   1      38.045  24.075  26.028  1.00  0.00    -0.275 OA
ATOM      5  H   UNL A   1      39.027  22.175  25.031  1.00  0.00     0.163 HD
BRANCH   3   6
ATOM      6  C   UNL A   1      35.896  23.032  25.886  1.00  0.00     0.109 C 
BRANCH   6   7
ATOM      7  C   UNL A   1      35.067  22.564  24.673  1.00  0.00     0.054 C 
ATOM      8  N   UNL A   1      33.306  20.846  24.013  1.00  0.00    -0.329 N 
ATOM      9  C   UNL A   1      32.621  21.871  23.212  1.00  0.00     0.262 C 
ATOM     10  C   UNL A   1      34.166  21.379  25.087  1.00  0.00     0.266 C 
ATOM     11  H   UNL A   1      33.941  20.374  23.370  1.00  0.00     0.348 HD
ATOM     12  C   UNL A   1      33.523  23.027  22.800  1.00  0.00     0.062 C 
ATOM     13  C   UNL A   1      34.169  23.630  24.039  1.00  0.00     0.016 C 
BRANCH   8  14
ATOM     14  C   UNL A   1      32.317  19.866  24.562  1.00  0.00     0.331 C 
BRANCH  14  15
ATOM     15  C   UNL A   1      32.880  18.486  24.867  1.00  0.00     0.147 A 
ATOM     16  C   UNL A   1      32.161  15.102  25.834  1.00  0.00     0.067 C 
ATOM     17  C   UNL A   1      32.861  16.321  25.357  1.00  0.00     0.049 A 
ATOM     18  C   UNL A   1      34.096  16.395  24.744  1.00  0.00     0.090 A 
ATOM     19  N   UNL A   1      32.214  17.534  25.490  1.00  0.00    -0.240 NA
ATOM     20  S   UNL A   1      34.439  18.017  24.301  1.00  0.00    -0.121 S 
ENDBRANCH  14  15
ENDBRANCH   8  14
ENDBRANCH   6   7
ENDBRANCH   3   6
ENDBRANCH   1   2
BRANCH   1  21
ATOM     21  C   UNL A   1      38.438  19.579  25.000  1.00  0.00     0.042 C 
BRANCH  21  22
ATOM     22  C   UNL A   1      39.426  19.845  26.135  1.00  0.00     0.118 C 
BRANCH  22  23
ATOM     23  N   UNL A   1      40.677  19.128  25.947  1.00  0.00    -0.352 N 
ATOM     24  C   UNL A   1      41.962  19.610  25.960  1.00  0.00     0.251 C 
ATOM     25  H   UNL A   1      40.590  18.161  25.788  1.00  0.00     0.163 HD
ATOM     26  O   UNL A   1      42.884  18.903  25.553  1.00  0.00    -0.269 OA
BRANCH  24  27
ATOM     27  C   UNL A   1      42.254  20.977  26.450  1.00  0.00     0.039 A 
ATOM     28  C   UNL A   1      42.248  21.215  27.828  1.00  0.00     0.014 A 
ATOM     29  C   UNL A   1      42.468  22.035  25.562  1.00  0.00     0.014 A 
ATOM     30  C   UNL A   1      42.492  22.502  28.316  1.00  0.00     0.010 A 
ATOM     31  C   UNL A   1      42.760  23.310  26.052  1.00  0.00     0.010 A 
ATOM     32  C   UNL A   1      42.765  23.559  27.433  1.00  0.00    -0.014 A 
BRANCH  32  33
ATOM     33  C   UNL A   1      43.023  24.935  27.934  1.00  0.00     0.031 A 
ATOM     34  C   UNL A   1      44.426  25.368  28.265  1.00  0.00     0.074 A 
ATOM     35  C   UNL A   1      41.998  25.788  28.128  1.00  0.00     0.049 A 
ATOM     36  N   UNL A   1      44.842  26.492  28.792  1.00  0.00    -0.248 NA
ATOM     37  C   UNL A   1      45.502  24.404  27.979  1.00  0.00     0.031 C 
ATOM     38  C   UNL A   1      40.589  25.502  27.858  1.00  0.00     0.029 A 
ATOM     39  N   UNL A   1      41.989  27.075  28.611  1.00  0.00    -0.354 N 
ATOM     40  C   UNL A   1      46.221  26.367  28.913  1.00  0.00     0.074 A 
ATOM     41  C   UNL A   1      46.568  25.043  28.440  1.00  0.00     0.031 C 
ATOM     42  C   UNL A   1      39.854  26.584  28.164  1.00  0.00     0.029 A 
ATOM     43  C   UNL A   1      40.733  27.626  28.686  1.00  0.00     0.049 A 
ATOM     44  H   UNL A   1      42.805  27.557  28.876  1.00  0.00     0.167 HD
ATOM     45  C   UNL A   1      47.123  27.273  29.358  1.00  0.00     0.031 A 
ATOM     46  C   UNL A   1      40.331  28.830  29.137  1.00  0.00     0.031 A 
ATOM     47  C   UNL A   1      46.792  28.595  29.819  1.00  0.00     0.049 A 
ATOM     48  C   UNL A   1      41.350  29.808  29.652  1.00  0.00     0.074 A 
ATOM     49  C   UNL A   1      47.643  29.587  30.278  1.00  0.00     0.029 A 
ATOM     50  N   UNL A   1      45.509  29.114  29.869  1.00  0.00    -0.354 N 
ATOM     51  N   UNL A   1      42.651  29.678  29.738  1.00  0.00    -0.248 NA
ATOM     52  C   UNL A   1      40.842  31.105  30.126  1.00  0.00     0.031 C 
ATOM     53  C   UNL A   1      46.870  30.698  30.632  1.00  0.00     0.029 A 
ATOM     54  C   UNL A   1      45.544  30.410  30.354  1.00  0.00     0.049 A 
ATOM     55  H   UNL A   1      44.693  28.632  29.601  1.00  0.00     0.167 HD
ATOM     56  C   UNL A   1      43.118  30.885  30.241  1.00  0.00     0.074 A 
ATOM     57  C   UNL A   1      41.965  31.738  30.433  1.00  0.00     0.031 C 
ATOM     58  C   UNL A   1      44.392  31.253  30.521  1.00  0.00     0.031 A 
BRANCH  45  59
ATOM     59  C   UNL A   1      48.569  26.867  29.363  1.00  0.00    -0.014 A 
ATOM     60  C   UNL A   1      49.123  26.194  30.463  1.00  0.00     0.009 A 
ATOM     61  C   UNL A   1      49.373  27.111  28.239  1.00  0.00     0.009 A 
ATOM     62  C   UNL A   1      50.461  25.797  30.448  1.00  0.00     0.001 A 
ATOM     63  C   UNL A   1      50.704  26.692  28.217  1.00  0.00     0.001 A 
ATOM     64  C   UNL A   1      51.249  26.042  29.325  1.00  0.00     0.000 A 
ENDBRANCH  45  59
BRANCH  46  65
ATOM     65  C   UNL A   1      38.889  29.193  29.124  1.00  0.00    -0.014 A 
ATOM     66  C   UNL A   1      38.319  29.802  27.996  1.00  0.00     0.009 A 
ATOM     67  C   UNL A   1      38.088  28.971  30.255  1.00  0.00     0.009 A 
ATOM     68  C   UNL A   1      36.984  30.213  28.013  1.00  0.00     0.001 A 
ATOM     69  C   UNL A   1      36.746  29.358  30.258  1.00  0.00     0.001 A 
ATOM     70  C   UNL A   1      36.199  29.988  29.142  1.00  0.00     0.000 A 
ENDBRANCH  46  65
BRANCH  58  71
ATOM     71  C   UNL A   1      44.611  32.655  31.011  1.00  0.00    -0.014 A 
ATOM     72  C   UNL A   1      44.816  33.717  30.118  1.00  0.00     0.009 A 
ATOM     73  C   UNL A   1      44.571  32.920  32.389  1.00  0.00     0.009 A 
ATOM     74  C   UNL A   1      45.006  35.014  30.597  1.00  0.00     0.001 A 
ATOM     75  C   UNL A   1      44.738  34.222  32.865  1.00  0.00     0.001 A 
ATOM     76  C   UNL A   1      44.963  35.266  31.969  1.00  0.00     0.000 A 
ENDBRANCH  58  71
ENDBRANCH  32  33
ENDBRANCH  24  27
ENDBRANCH  22  23
ENDBRANCH  21  22
ENDBRANCH   1  21
TORSDOF 13
ENDMDL
