MODEL 1
REMARK VINA RESULT:     -12.4      0.000      0.000
REMARK SMILES COc1cc2c(cc1OC)[C@H](C(=O)NCCCNC(=O)c1ccc(-c3c4nc(c(-c5ccccc5)c5ccc([nH]5)c(-c5ccccc5)c5nc(c(-c6ccccc6)c6ccc3[nH]6)C=C5)C=C4)cc1)[C@H](c1cccc(Cl)c1)N(C)C2=O
REMARK SMILES IDX 16 1 15 2 14 3 12 4 13 5 11 7 3 8 4 9 8 10 5 11 7 12 6 13
REMARK SMILES IDX 79 14 77 15 80 16 69 17 78 18 2 19 1 20 9 21 10 22 70 23
REMARK SMILES IDX 71 24 76 25 72 26 74 27 73 28 75 29 17 30 18 31 19 32 20 34
REMARK SMILES IDX 21 35 22 36 68 37 23 38 67 39 24 40 25 41 26 42 61 43 27 44
REMARK SMILES IDX 66 45 60 46 62 47 28 48 65 49 59 50 58 51 29 53 51 54 36 55
REMARK SMILES IDX 50 56 37 57 40 58 49 59 63 60 38 61 39 62 48 64 64 65 41 66
REMARK SMILES IDX 30 67 31 68 35 69 32 70 34 71 33 72 52 73 53 74 57 75 54 76
REMARK SMILES IDX 56 77 55 78 42 79 43 80 47 81 44 82 46 83 45 84
REMARK H PARENT 14 6 18 33 62 52 40 63
REMARK Flexibility Score: inf
ROOT
ATOM      1  C   UNL A   1      33.808  30.944  26.749  1.00  0.00     0.042 C 
ENDROOT
BRANCH   1   2
ATOM      2  C   UNL A   1      34.257  29.534  27.105  1.00  0.00     0.117 C 
BRANCH   2   3
ATOM      3  N   UNL A   1      33.169  28.773  27.693  1.00  0.00    -0.355 N 
ATOM      4  C   UNL A   1      32.401  27.786  27.150  1.00  0.00     0.230 C 
ATOM      5  O   UNL A   1      31.337  27.564  27.725  1.00  0.00    -0.274 OA
ATOM      6  H   UNL A   1      32.952  29.006  28.625  1.00  0.00     0.163 HD
BRANCH   4   7
ATOM      7  C   UNL A   1      32.816  27.124  25.846  1.00  0.00     0.136 C 
ATOM      8  C   UNL A   1      32.021  22.920  25.079  1.00  0.00     0.161 A 
ATOM      9  C   UNL A   1      32.666  23.737  24.140  1.00  0.00     0.064 A 
ATOM     10  C   UNL A   1      31.589  23.478  26.292  1.00  0.00     0.161 A 
ATOM     11  C   UNL A   1      32.901  25.089  24.416  1.00  0.00     0.048 A 
ATOM     12  C   UNL A   1      31.801  24.842  26.543  1.00  0.00     0.056 A 
ATOM     13  C   UNL A   1      32.489  25.653  25.635  1.00  0.00    -0.016 A 
ATOM     14  C   UNL A   1      33.519  25.962  23.366  1.00  0.00     0.254 C 
ATOM     15  N   UNL A   1      33.282  27.337  23.479  1.00  0.00    -0.333 N 
ATOM     16  O   UNL A   1      34.162  25.453  22.455  1.00  0.00    -0.269 OA
ATOM     17  C   UNL A   1      32.395  27.874  24.548  1.00  0.00     0.132 C 
ATOM     18  C   UNL A   1      33.779  28.236  22.455  1.00  0.00     0.147 C 
BRANCH   8  19
ATOM     19  O   UNL A   1      31.701  21.620  24.794  1.00  0.00    -0.493 OA
ATOM     20  C   UNL A   1      32.679  20.655  25.167  1.00  0.00     0.278 C 
ENDBRANCH   8  19
BRANCH  10  21
ATOM     21  O   UNL A   1      30.945  22.856  27.330  1.00  0.00    -0.493 OA
ATOM     22  C   UNL A   1      29.527  22.775  27.288  1.00  0.00     0.278 C 
ENDBRANCH  10  21
BRANCH  17  23
ATOM     23  C   UNL A   1      30.902  27.789  24.168  1.00  0.00    -0.023 A 
ATOM     24  C   UNL A   1      30.141  26.656  24.503  1.00  0.00     0.006 A 
ATOM     25  C   UNL A   1      30.234  28.813  23.467  1.00  0.00     0.026 A 
ATOM     26  C   UNL A   1      28.817  26.501  24.079  1.00  0.00     0.002 A 
ATOM     27  C   UNL A   1      28.905  28.667  23.059  1.00  0.00     0.041 A 
ATOM     28  C   UNL A   1      28.199  27.504  23.345  1.00  0.00     0.020 A 
ATOM     29  Cl  UNL A   1      28.136  29.938  22.191  1.00  0.00    -0.084 Cl
ENDBRANCH  17  23
ENDBRANCH   4   7
ENDBRANCH   2   3
ENDBRANCH   1   2
BRANCH   1  30
ATOM     30  C   UNL A   1      32.459  31.334  27.340  1.00  0.00     0.118 C 
BRANCH  30  31
ATOM     31  N   UNL A   1      32.242  32.774  27.368  1.00  0.00    -0.352 N 
ATOM     32  C   UNL A   1      32.994  33.752  27.970  1.00  0.00     0.251 C 
ATOM     33  H   UNL A   1      31.443  33.090  26.888  1.00  0.00     0.163 HD
ATOM     34  O   UNL A   1      32.581  34.906  28.025  1.00  0.00    -0.269 OA
BRANCH  32  35
ATOM     35  C   UNL A   1      34.292  33.400  28.579  1.00  0.00     0.039 A 
ATOM     36  C   UNL A   1      34.304  32.719  29.798  1.00  0.00     0.014 A 
ATOM     37  C   UNL A   1      35.492  33.717  27.935  1.00  0.00     0.014 A 
ATOM     38  C   UNL A   1      35.518  32.291  30.336  1.00  0.00     0.010 A 
ATOM     39  C   UNL A   1      36.692  33.221  28.431  1.00  0.00     0.010 A 
ATOM     40  C   UNL A   1      36.718  32.503  29.636  1.00  0.00    -0.014 A 
BRANCH  40  41
ATOM     41  C   UNL A   1      38.010  31.978  30.145  1.00  0.00     0.031 A 
ATOM     42  C   UNL A   1      38.562  30.687  29.606  1.00  0.00     0.074 A 
ATOM     43  C   UNL A   1      38.648  32.624  31.142  1.00  0.00     0.049 A 
ATOM     44  N   UNL A   1      39.634  30.031  29.976  1.00  0.00    -0.248 NA
ATOM     45  C   UNL A   1      37.799  30.030  28.531  1.00  0.00     0.031 C 
ATOM     46  C   UNL A   1      38.192  33.860  31.784  1.00  0.00     0.029 A 
ATOM     47  N   UNL A   1      39.814  32.322  31.799  1.00  0.00    -0.354 N 
ATOM     48  C   UNL A   1      39.655  28.877  29.202  1.00  0.00     0.074 A 
ATOM     49  C   UNL A   1      38.474  28.901  28.369  1.00  0.00     0.031 C 
ATOM     50  C   UNL A   1      39.080  34.221  32.725  1.00  0.00     0.029 A 
ATOM     51  C   UNL A   1      40.144  33.225  32.781  1.00  0.00     0.049 A 
ATOM     52  H   UNL A   1      40.362  31.532  31.587  1.00  0.00     0.167 HD
ATOM     53  C   UNL A   1      40.586  27.895  29.174  1.00  0.00     0.031 A 
ATOM     54  C   UNL A   1      41.182  33.242  33.640  1.00  0.00     0.031 A 
ATOM     55  C   UNL A   1      41.780  27.889  29.975  1.00  0.00     0.049 A 
ATOM     56  C   UNL A   1      42.203  32.140  33.577  1.00  0.00     0.074 A 
ATOM     57  C   UNL A   1      42.822  26.978  29.957  1.00  0.00     0.029 A 
ATOM     58  N   UNL A   1      42.090  28.836  30.937  1.00  0.00    -0.354 N 
ATOM     59  N   UNL A   1      42.254  31.103  32.777  1.00  0.00    -0.248 NA
ATOM     60  C   UNL A   1      43.320  32.219  34.530  1.00  0.00     0.031 C 
ATOM     61  C   UNL A   1      43.741  27.347  30.943  1.00  0.00     0.029 A 
ATOM     62  C   UNL A   1      43.296  28.517  31.537  1.00  0.00     0.049 A 
ATOM     63  H   UNL A   1      41.536  29.619  31.159  1.00  0.00     0.167 HD
ATOM     64  C   UNL A   1      43.421  30.428  33.107  1.00  0.00     0.074 A 
ATOM     65  C   UNL A   1      44.057  31.179  34.168  1.00  0.00     0.031 C 
ATOM     66  C   UNL A   1      43.922  29.284  32.580  1.00  0.00     0.031 A 
BRANCH  53  67
ATOM     67  C   UNL A   1      40.358  26.737  28.245  1.00  0.00    -0.014 A 
ATOM     68  C   UNL A   1      39.578  25.637  28.631  1.00  0.00     0.009 A 
ATOM     69  C   UNL A   1      40.871  26.782  26.939  1.00  0.00     0.009 A 
ATOM     70  C   UNL A   1      39.333  24.595  27.734  1.00  0.00     0.001 A 
ATOM     71  C   UNL A   1      40.602  25.752  26.036  1.00  0.00     0.001 A 
ATOM     72  C   UNL A   1      39.838  24.658  26.436  1.00  0.00     0.000 A 
ENDBRANCH  53  67
BRANCH  54  73
ATOM     73  C   UNL A   1      41.320  34.337  34.637  1.00  0.00    -0.014 A 
ATOM     74  C   UNL A   1      40.736  34.220  35.908  1.00  0.00     0.009 A 
ATOM     75  C   UNL A   1      41.997  35.520  34.308  1.00  0.00     0.009 A 
ATOM     76  C   UNL A   1      40.791  35.283  36.812  1.00  0.00     0.001 A 
ATOM     77  C   UNL A   1      42.078  36.570  35.226  1.00  0.00     0.001 A 
ATOM     78  C   UNL A   1      41.463  36.456  36.471  1.00  0.00     0.000 A 
ENDBRANCH  54  73
BRANCH  66  79
ATOM     79  C   UNL A   1      45.243  28.803  33.109  1.00  0.00    -0.014 A 
ATOM     80  C   UNL A   1      46.455  29.266  32.575  1.00  0.00     0.009 A 
ATOM     81  C   UNL A   1      45.270  27.904  34.187  1.00  0.00     0.009 A 
ATOM     82  C   UNL A   1      47.670  28.812  33.091  1.00  0.00     0.001 A 
ATOM     83  C   UNL A   1      46.486  27.476  34.720  1.00  0.00     0.001 A 
ATOM     84  C   UNL A   1      47.685  27.922  34.165  1.00  0.00     0.000 A 
ENDBRANCH  66  79
ENDBRANCH  40  41
ENDBRANCH  32  35
ENDBRANCH  30  31
ENDBRANCH   1  30
TORSDOF 13
ENDMDL
MODEL 2
REMARK VINA RESULT:     -12.3      0.306      5.768
REMARK SMILES COc1cc2c(cc1OC)[C@H](C(=O)NCCCNC(=O)c1ccc(-c3c4nc(c(-c5ccccc5)c5ccc([nH]5)c(-c5ccccc5)c5nc(c(-c6ccccc6)c6ccc3[nH]6)C=C5)C=C4)cc1)[C@H](c1cccc(Cl)c1)N(C)C2=O
REMARK SMILES IDX 16 1 15 2 14 3 12 4 13 5 11 7 3 8 4 9 8 10 5 11 7 12 6 13
REMARK SMILES IDX 79 14 77 15 80 16 69 17 78 18 2 19 1 20 9 21 10 22 70 23
REMARK SMILES IDX 71 24 76 25 72 26 74 27 73 28 75 29 17 30 18 31 19 32 20 34
REMARK SMILES IDX 21 35 22 36 68 37 23 38 67 39 24 40 25 41 26 42 61 43 27 44
REMARK SMILES IDX 66 45 60 46 62 47 28 48 65 49 59 50 58 51 29 53 51 54 36 55
REMARK SMILES IDX 50 56 37 57 40 58 49 59 63 60 38 61 39 62 48 64 64 65 41 66
REMARK SMILES IDX 30 67 31 68 35 69 32 70 34 71 33 72 52 73 53 74 57 75 54 76
REMARK SMILES IDX 56 77 55 78 42 79 43 80 47 81 44 82 46 83 45 84
REMARK H PARENT 14 6 18 33 62 52 40 63
REMARK Flexibility Score: inf
ROOT
ATOM      1  C   UNL A   1      33.591  31.003  26.620  1.00  0.00     0.042 C 
ENDROOT
BRANCH   1   2
ATOM      2  C   UNL A   1      34.131  29.671  27.120  1.00  0.00     0.117 C 
BRANCH   2   3
ATOM      3  N   UNL A   1      33.073  28.868  27.709  1.00  0.00    -0.355 N 
ATOM      4  C   UNL A   1      32.339  27.856  27.164  1.00  0.00     0.230 C 
ATOM      5  O   UNL A   1      31.286  27.593  27.742  1.00  0.00    -0.274 OA
ATOM      6  H   UNL A   1      32.853  29.088  28.643  1.00  0.00     0.163 HD
BRANCH   4   7
ATOM      7  C   UNL A   1      32.771  27.217  25.854  1.00  0.00     0.136 C 
ATOM      8  C   UNL A   1      32.055  23.009  25.035  1.00  0.00     0.161 A 
ATOM      9  C   UNL A   1      32.689  23.848  24.108  1.00  0.00     0.064 A 
ATOM     10  C   UNL A   1      31.607  23.545  26.253  1.00  0.00     0.161 A 
ATOM     11  C   UNL A   1      32.899  25.201  24.401  1.00  0.00     0.048 A 
ATOM     12  C   UNL A   1      31.794  24.910  26.520  1.00  0.00     0.056 A 
ATOM     13  C   UNL A   1      32.471  25.744  25.625  1.00  0.00    -0.016 A 
ATOM     14  C   UNL A   1      33.505  26.097  23.363  1.00  0.00     0.254 C 
ATOM     15  N   UNL A   1      33.243  27.466  23.492  1.00  0.00    -0.333 N 
ATOM     16  O   UNL A   1      34.161  25.610  22.449  1.00  0.00    -0.269 OA
ATOM     17  C   UNL A   1      32.342  27.974  24.563  1.00  0.00     0.132 C 
ATOM     18  C   UNL A   1      33.728  28.386  22.480  1.00  0.00     0.147 C 
BRANCH   8  19
ATOM     19  O   UNL A   1      31.759  21.707  24.733  1.00  0.00    -0.493 OA
ATOM     20  C   UNL A   1      32.720  20.749  25.163  1.00  0.00     0.278 C 
ENDBRANCH   8  19
BRANCH  10  21
ATOM     21  O   UNL A   1      30.971  22.899  27.280  1.00  0.00    -0.493 OA
ATOM     22  C   UNL A   1      29.551  22.835  27.255  1.00  0.00     0.278 C 
ENDBRANCH  10  21
BRANCH  17  23
ATOM     23  C   UNL A   1      30.852  27.868  24.175  1.00  0.00    -0.023 A 
ATOM     24  C   UNL A   1      30.115  26.709  24.477  1.00  0.00     0.006 A 
ATOM     25  C   UNL A   1      30.164  28.895  23.500  1.00  0.00     0.026 A 
ATOM     26  C   UNL A   1      28.796  26.537  24.045  1.00  0.00     0.002 A 
ATOM     27  C   UNL A   1      28.840  28.731  23.083  1.00  0.00     0.041 A 
ATOM     28  C   UNL A   1      28.159  27.546  23.336  1.00  0.00     0.020 A 
ATOM     29  Cl  UNL A   1      28.045  30.008  22.246  1.00  0.00    -0.084 Cl
ENDBRANCH  17  23
ENDBRANCH   4   7
ENDBRANCH   2   3
ENDBRANCH   1   2
BRANCH   1  30
ATOM     30  C   UNL A   1      32.324  31.466  27.329  1.00  0.00     0.118 C 
BRANCH  30  31
ATOM     31  N   UNL A   1      32.203  32.916  27.393  1.00  0.00    -0.352 N 
ATOM     32  C   UNL A   1      33.013  33.827  28.024  1.00  0.00     0.251 C 
ATOM     33  H   UNL A   1      31.430  33.296  26.916  1.00  0.00     0.163 HD
ATOM     34  O   UNL A   1      32.677  35.004  28.106  1.00  0.00    -0.269 OA
BRANCH  32  35
ATOM     35  C   UNL A   1      34.281  33.374  28.631  1.00  0.00     0.039 A 
ATOM     36  C   UNL A   1      34.243  32.716  29.861  1.00  0.00     0.014 A 
ATOM     37  C   UNL A   1      35.498  33.576  27.975  1.00  0.00     0.014 A 
ATOM     38  C   UNL A   1      35.420  32.194  30.400  1.00  0.00     0.010 A 
ATOM     39  C   UNL A   1      36.655  32.987  28.472  1.00  0.00     0.010 A 
ATOM     40  C   UNL A   1      36.628  32.290  29.689  1.00  0.00    -0.014 A 
BRANCH  40  41
ATOM     41  C   UNL A   1      37.874  31.664  30.200  1.00  0.00     0.031 A 
ATOM     42  C   UNL A   1      38.678  32.354  31.268  1.00  0.00     0.074 A 
ATOM     43  C   UNL A   1      38.319  30.517  29.651  1.00  0.00     0.049 A 
ATOM     44  N   UNL A   1      39.829  32.004  31.788  1.00  0.00    -0.248 NA
ATOM     45  C   UNL A   1      38.137  33.613  31.806  1.00  0.00     0.031 C 
ATOM     46  C   UNL A   1      37.657  29.775  28.574  1.00  0.00     0.029 A 
ATOM     47  N   UNL A   1      39.444  29.778  29.917  1.00  0.00    -0.354 N 
ATOM     48  C   UNL A   1      40.158  33.011  32.686  1.00  0.00     0.074 A 
ATOM     49  C   UNL A   1      39.110  34.003  32.617  1.00  0.00     0.031 C 
ATOM     50  C   UNL A   1      38.375  28.677  28.290  1.00  0.00     0.029 A 
ATOM     51  C   UNL A   1      39.567  28.656  29.131  1.00  0.00     0.049 A 
ATOM     52  H   UNL A   1      40.102  30.027  30.605  1.00  0.00     0.167 HD
ATOM     53  C   UNL A   1      41.229  33.092  33.509  1.00  0.00     0.031 A 
ATOM     54  C   UNL A   1      40.536  27.722  29.085  1.00  0.00     0.031 A 
ATOM     55  C   UNL A   1      42.254  32.089  33.606  1.00  0.00     0.049 A 
ATOM     56  C   UNL A   1      41.709  27.838  30.020  1.00  0.00     0.074 A 
ATOM     57  C   UNL A   1      43.335  32.044  34.469  1.00  0.00     0.029 A 
ATOM     58  N   UNL A   1      42.325  30.955  32.813  1.00  0.00    -0.354 N 
ATOM     59  N   UNL A   1      41.959  28.751  30.925  1.00  0.00    -0.248 NA
ATOM     60  C   UNL A   1      42.730  26.783  29.932  1.00  0.00     0.031 C 
ATOM     61  C   UNL A   1      44.088  30.907  34.166  1.00  0.00     0.029 A 
ATOM     62  C   UNL A   1      43.447  30.217  33.150  1.00  0.00     0.049 A 
ATOM     63  H   UNL A   1      41.675  30.711  32.115  1.00  0.00     0.167 HD
ATOM     64  C   UNL A   1      43.144  28.363  31.536  1.00  0.00     0.074 A 
ATOM     65  C   UNL A   1      43.556  27.125  30.911  1.00  0.00     0.031 C 
ATOM     66  C   UNL A   1      43.833  28.980  32.528  1.00  0.00     0.031 A 
BRANCH  53  67
ATOM     67  C   UNL A   1      41.355  34.310  34.380  1.00  0.00    -0.014 A 
ATOM     68  C   UNL A   1      42.037  35.454  33.937  1.00  0.00     0.009 A 
ATOM     69  C   UNL A   1      40.720  34.339  35.631  1.00  0.00     0.009 A 
ATOM     70  C   UNL A   1      42.097  36.595  34.740  1.00  0.00     0.001 A 
ATOM     71  C   UNL A   1      40.760  35.490  36.420  1.00  0.00     0.001 A 
ATOM     72  C   UNL A   1      41.452  36.614  35.976  1.00  0.00     0.000 A 
ENDBRANCH  53  67
BRANCH  54  73
ATOM     73  C   UNL A   1      40.450  26.589  28.126  1.00  0.00    -0.014 A 
ATOM     74  C   UNL A   1      40.997  26.704  26.838  1.00  0.00     0.009 A 
ATOM     75  C   UNL A   1      39.783  25.407  28.477  1.00  0.00     0.009 A 
ATOM     76  C   UNL A   1      40.840  25.673  25.908  1.00  0.00     0.001 A 
ATOM     77  C   UNL A   1      39.655  24.365  27.555  1.00  0.00     0.001 A 
ATOM     78  C   UNL A   1      40.170  24.505  26.268  1.00  0.00     0.000 A 
ENDBRANCH  54  73
BRANCH  66  79
ATOM     79  C   UNL A   1      45.075  28.299  33.029  1.00  0.00    -0.014 A 
ATOM     80  C   UNL A   1      45.020  27.344  34.055  1.00  0.00     0.009 A 
ATOM     81  C   UNL A   1      46.311  28.592  32.432  1.00  0.00     0.009 A 
ATOM     82  C   UNL A   1      46.187  26.717  34.496  1.00  0.00     0.001 A 
ATOM     83  C   UNL A   1      47.471  27.941  32.855  1.00  0.00     0.001 A 
ATOM     84  C   UNL A   1      47.410  27.013  33.893  1.00  0.00     0.000 A 
ENDBRANCH  66  79
ENDBRANCH  40  41
ENDBRANCH  32  35
ENDBRANCH  30  31
ENDBRANCH   1  30
TORSDOF 13
ENDMDL
MODEL 3
REMARK VINA RESULT:     -12.2      3.680      8.423
REMARK SMILES COc1cc2c(cc1OC)[C@H](C(=O)NCCCNC(=O)c1ccc(-c3c4nc(c(-c5ccccc5)c5ccc([nH]5)c(-c5ccccc5)c5nc(c(-c6ccccc6)c6ccc3[nH]6)C=C5)C=C4)cc1)[C@H](c1cccc(Cl)c1)N(C)C2=O
REMARK SMILES IDX 16 1 15 2 14 3 12 4 13 5 11 7 3 8 4 9 8 10 5 11 7 12 6 13
REMARK SMILES IDX 79 14 77 15 80 16 69 17 78 18 2 19 1 20 9 21 10 22 70 23
REMARK SMILES IDX 71 24 76 25 72 26 74 27 73 28 75 29 17 30 18 31 19 32 20 34
REMARK SMILES IDX 21 35 22 36 68 37 23 38 67 39 24 40 25 41 26 42 61 43 27 44
REMARK SMILES IDX 66 45 60 46 62 47 28 48 65 49 59 50 58 51 29 53 51 54 36 55
REMARK SMILES IDX 50 56 37 57 40 58 49 59 63 60 38 61 39 62 48 64 64 65 41 66
REMARK SMILES IDX 30 67 31 68 35 69 32 70 34 71 33 72 52 73 53 74 57 75 54 76
REMARK SMILES IDX 56 77 55 78 42 79 43 80 47 81 44 82 46 83 45 84
REMARK H PARENT 14 6 18 33 62 52 40 63
REMARK Flexibility Score: inf
ROOT
ATOM      1  C   UNL A   1      38.224  21.621  26.261  1.00  0.00     0.042 C 
ENDROOT
BRANCH   1   2
ATOM      2  C   UNL A   1      37.878  23.069  25.945  1.00  0.00     0.117 C 
BRANCH   2   3
ATOM      3  N   UNL A   1      37.579  23.238  24.534  1.00  0.00    -0.355 N 
ATOM      4  C   UNL A   1      36.377  23.389  23.908  1.00  0.00     0.230 C 
ATOM      5  O   UNL A   1      36.373  23.154  22.701  1.00  0.00    -0.274 OA
ATOM      6  H   UNL A   1      38.364  23.244  23.939  1.00  0.00     0.163 HD
BRANCH   4   7
ATOM      7  C   UNL A   1      35.127  23.698  24.716  1.00  0.00     0.136 C 
ATOM      8  C   UNL A   1      31.863  26.032  23.046  1.00  0.00     0.161 A 
ATOM      9  C   UNL A   1      31.819  25.522  24.351  1.00  0.00     0.064 A 
ATOM     10  C   UNL A   1      32.978  25.758  22.239  1.00  0.00     0.161 A 
ATOM     11  C   UNL A   1      32.885  24.768  24.857  1.00  0.00     0.048 A 
ATOM     12  C   UNL A   1      34.025  24.973  22.746  1.00  0.00     0.056 A 
ATOM     13  C   UNL A   1      34.014  24.504  24.063  1.00  0.00    -0.016 A 
ATOM     14  C   UNL A   1      32.781  24.165  26.225  1.00  0.00     0.254 C 
ATOM     15  N   UNL A   1      33.598  23.058  26.481  1.00  0.00    -0.333 N 
ATOM     16  O   UNL A   1      31.986  24.629  27.034  1.00  0.00    -0.269 OA
ATOM     17  C   UNL A   1      34.456  22.478  25.412  1.00  0.00     0.132 C 
ATOM     18  C   UNL A   1      33.493  22.371  27.755  1.00  0.00     0.147 C 
BRANCH   8  19
ATOM     19  O   UNL A   1      30.794  26.693  22.501  1.00  0.00    -0.493 OA
ATOM     20  C   UNL A   1      30.861  28.114  22.565  1.00  0.00     0.278 C 
ENDBRANCH   8  19
BRANCH  10  21
ATOM     21  O   UNL A   1      33.210  26.159  20.949  1.00  0.00    -0.493 OA
ATOM     22  C   UNL A   1      32.582  25.436  19.899  1.00  0.00     0.278 C 
ENDBRANCH  10  21
BRANCH  17  23
ATOM     23  C   UNL A   1      33.676  21.514  24.492  1.00  0.00    -0.023 A 
ATOM     24  C   UNL A   1      32.970  22.002  23.379  1.00  0.00     0.006 A 
ATOM     25  C   UNL A   1      33.618  20.125  24.718  1.00  0.00     0.026 A 
ATOM     26  C   UNL A   1      32.167  21.173  22.590  1.00  0.00     0.002 A 
ATOM     27  C   UNL A   1      32.830  19.292  23.918  1.00  0.00     0.041 A 
ATOM     28  C   UNL A   1      32.086  19.814  22.867  1.00  0.00     0.020 A 
ATOM     29  Cl  UNL A   1      32.776  17.602  24.242  1.00  0.00    -0.084 Cl
ENDBRANCH  17  23
ENDBRANCH   4   7
ENDBRANCH   2   3
ENDBRANCH   1   2
BRANCH   1  30
ATOM     30  C   UNL A   1      38.745  20.832  25.066  1.00  0.00     0.118 C 
BRANCH  30  31
ATOM     31  N   UNL A   1      39.611  19.725  25.447  1.00  0.00    -0.352 N 
ATOM     32  C   UNL A   1      40.829  19.755  26.080  1.00  0.00     0.251 C 
ATOM     33  H   UNL A   1      39.275  18.828  25.217  1.00  0.00     0.163 HD
ATOM     34  O   UNL A   1      41.497  18.732  26.187  1.00  0.00    -0.269 OA
BRANCH  32  35
ATOM     35  C   UNL A   1      41.344  21.035  26.606  1.00  0.00     0.039 A 
ATOM     36  C   UNL A   1      41.890  21.960  25.714  1.00  0.00     0.014 A 
ATOM     37  C   UNL A   1      41.262  21.330  27.970  1.00  0.00     0.014 A 
ATOM     38  C   UNL A   1      42.289  23.214  26.181  1.00  0.00     0.010 A 
ATOM     39  C   UNL A   1      41.585  22.606  28.418  1.00  0.00     0.010 A 
ATOM     40  C   UNL A   1      42.101  23.560  27.529  1.00  0.00    -0.014 A 
BRANCH  40  41
ATOM     41  C   UNL A   1      42.434  24.918  28.029  1.00  0.00     0.031 A 
ATOM     42  C   UNL A   1      43.844  25.242  28.444  1.00  0.00     0.074 A 
ATOM     43  C   UNL A   1      41.457  25.834  28.179  1.00  0.00     0.049 A 
ATOM     44  N   UNL A   1      44.314  26.344  28.974  1.00  0.00    -0.248 NA
ATOM     45  C   UNL A   1      44.853  24.184  28.268  1.00  0.00     0.031 C 
ATOM     46  C   UNL A   1      40.041  25.628  27.860  1.00  0.00     0.029 A 
ATOM     47  N   UNL A   1      41.504  27.121  28.652  1.00  0.00    -0.354 N 
ATOM     48  C   UNL A   1      45.660  26.099  29.219  1.00  0.00     0.074 A 
ATOM     49  C   UNL A   1      45.926  24.737  28.816  1.00  0.00     0.031 C 
ATOM     50  C   UNL A   1      39.362  26.756  28.123  1.00  0.00     0.029 A 
ATOM     51  C   UNL A   1      40.281  27.749  28.668  1.00  0.00     0.049 A 
ATOM     52  H   UNL A   1      42.336  27.554  28.953  1.00  0.00     0.167 HD
ATOM     53  C   UNL A   1      46.595  26.942  29.717  1.00  0.00     0.031 A 
ATOM     54  C   UNL A   1      39.938  28.983  29.084  1.00  0.00     0.031 A 
ATOM     55  C   UNL A   1      46.340  28.308  30.083  1.00  0.00     0.049 A 
ATOM     56  C   UNL A   1      41.003  29.897  29.624  1.00  0.00     0.074 A 
ATOM     57  C   UNL A   1      47.242  29.263  30.520  1.00  0.00     0.029 A 
ATOM     58  N   UNL A   1      45.095  28.913  30.057  1.00  0.00    -0.354 N 
ATOM     59  N   UNL A   1      42.287  29.679  29.765  1.00  0.00    -0.248 NA
ATOM     60  C   UNL A   1      40.569  31.236  30.052  1.00  0.00     0.031 C 
ATOM     61  C   UNL A   1      46.533  30.434  30.804  1.00  0.00     0.029 A 
ATOM     62  C   UNL A   1      45.200  30.223  30.493  1.00  0.00     0.049 A 
ATOM     63  H   UNL A   1      44.260  28.478  29.769  1.00  0.00     0.167 HD
ATOM     64  C   UNL A   1      42.818  30.860  30.264  1.00  0.00     0.074 A 
ATOM     65  C   UNL A   1      41.722  31.797  30.388  1.00  0.00     0.031 C 
ATOM     66  C   UNL A   1      44.102  31.145  30.595  1.00  0.00     0.031 A 
BRANCH  53  67
ATOM     67  C   UNL A   1      47.990  26.414  29.897  1.00  0.00    -0.014 A 
ATOM     68  C   UNL A   1      48.393  25.819  31.102  1.00  0.00     0.009 A 
ATOM     69  C   UNL A   1      48.890  26.449  28.821  1.00  0.00     0.009 A 
ATOM     70  C   UNL A   1      49.677  25.287  31.232  1.00  0.00     0.001 A 
ATOM     71  C   UNL A   1      50.164  25.893  28.946  1.00  0.00     0.001 A 
ATOM     72  C   UNL A   1      50.558  25.317  30.152  1.00  0.00     0.000 A 
ENDBRANCH  53  67
BRANCH  54  73
ATOM     73  C   UNL A   1      38.524  29.440  29.010  1.00  0.00    -0.014 A 
ATOM     74  C   UNL A   1      37.676  29.314  30.122  1.00  0.00     0.009 A 
ATOM     75  C   UNL A   1      38.004  29.961  27.816  1.00  0.00     0.009 A 
ATOM     76  C   UNL A   1      36.327  29.661  30.025  1.00  0.00     0.001 A 
ATOM     77  C   UNL A   1      36.662  30.337  27.732  1.00  0.00     0.001 A 
ATOM     78  C   UNL A   1      35.821  30.174  28.832  1.00  0.00     0.000 A 
ENDBRANCH  54  73
BRANCH  66  79
ATOM     79  C   UNL A   1      44.397  32.538  31.074  1.00  0.00    -0.014 A 
ATOM     80  C   UNL A   1      44.369  32.860  32.440  1.00  0.00     0.009 A 
ATOM     81  C   UNL A   1      44.748  33.529  30.145  1.00  0.00     0.009 A 
ATOM     82  C   UNL A   1      44.657  34.160  32.862  1.00  0.00     0.001 A 
ATOM     83  C   UNL A   1      45.065  34.818  30.572  1.00  0.00     0.001 A 
ATOM     84  C   UNL A   1      45.010  35.136  31.929  1.00  0.00     0.000 A 
ENDBRANCH  66  79
ENDBRANCH  40  41
ENDBRANCH  32  35
ENDBRANCH  30  31
ENDBRANCH   1  30
TORSDOF 13
ENDMDL
