MODEL 1
REMARK VINA RESULT:     -11.4      0.000      0.000
REMARK SMILES CC[C@@H]1CCCC[N@H+]1Cc1c(C(=O)NCCCNC(=O)c2ccc(-c3c4nc(c(-c5ccccc5)c5ccc([nH]5)c(-c5ccccc5)c5nc(c(-c6ccccc6)c6ccc3[nH]6)C=C5)C=C4)cc2)oc2ccccc12
REMARK SMILES IDX 15 1 14 2 12 3 13 4 11 6 10 7 75 8 69 9 70 10 74 11 71 12
REMARK SMILES IDX 73 13 72 14 9 15 8 16 3 17 4 18 5 19 7 20 6 22 2 23 1 24
REMARK SMILES IDX 16 25 17 26 18 27 19 28 20 30 21 31 22 32 68 33 23 34 67 35
REMARK SMILES IDX 24 36 25 37 26 38 61 39 27 40 66 41 60 42 62 43 28 44 65 45
REMARK SMILES IDX 59 46 58 47 29 49 51 50 36 51 50 52 37 53 40 54 49 55 63 56
REMARK SMILES IDX 38 57 39 58 48 60 64 61 41 62 30 63 31 64 35 65 32 66 34 67
REMARK SMILES IDX 33 68 52 69 53 70 57 71 54 72 56 73 55 74 42 75 43 76 47 77
REMARK SMILES IDX 44 78 46 79 45 80
REMARK H PARENT 14 5 8 21 18 29 62 48 40 59
REMARK Flexibility Score: inf
ROOT
ATOM      1  C   UNL A   1      33.910  29.373  25.013  1.00  0.00     0.118 C 
ENDROOT
BRANCH   1   2
ATOM      2  N   UNL A   1      34.196  28.962  23.651  1.00  0.00    -0.349 N 
ATOM      3  C   UNL A   1      33.382  28.469  22.659  1.00  0.00     0.287 C 
ATOM      4  O   UNL A   1      33.965  28.102  21.640  1.00  0.00    -0.266 OA
ATOM      5  H   UNL A   1      35.141  29.053  23.391  1.00  0.00     0.163 HD
BRANCH   3   6
ATOM      6  C   UNL A   1      31.937  28.431  22.824  1.00  0.00     0.201 A 
ATOM      7  C   UNL A   1      31.046  27.353  22.947  1.00  0.00     0.066 A 
ATOM      8  C   UNL A   1      29.729  27.969  23.053  1.00  0.00     0.030 A 
ATOM      9  O   UNL A   1      31.258  29.606  22.897  1.00  0.00    -0.450 OA
ATOM     10  C   UNL A   1      29.943  29.339  22.982  1.00  0.00     0.135 A 
ATOM     11  C   UNL A   1      28.377  27.585  23.191  1.00  0.00     0.012 A 
ATOM     12  C   UNL A   1      28.949  30.321  22.995  1.00  0.00     0.048 A 
ATOM     13  C   UNL A   1      27.343  28.535  23.181  1.00  0.00     0.001 A 
ATOM     14  C   UNL A   1      27.627  29.888  23.077  1.00  0.00     0.004 A 
BRANCH   7  15
ATOM     15  C   UNL A   1      31.508  25.909  22.988  1.00  0.00     0.304 C 
BRANCH  15  16
ATOM     16  N   UNL A   1      32.374  25.497  24.099  1.00  0.00    -0.329 N 
ATOM     17  C   UNL A   1      31.781  24.664  25.152  1.00  0.00     0.184 C 
ATOM     18  C   UNL A   1      32.822  24.310  26.247  1.00  0.00     0.065 C 
ATOM     19  C   UNL A   1      34.103  23.735  25.663  1.00  0.00     0.012 C 
ATOM     20  C   UNL A   1      33.686  25.060  23.595  1.00  0.00     0.262 C 
ATOM     21  H   UNL A   1      32.522  26.341  24.651  1.00  0.00     0.348 HD
ATOM     22  C   UNL A   1      34.693  24.740  24.696  1.00  0.00     0.062 C 
BRANCH  17  23
ATOM     23  C   UNL A   1      30.560  25.286  25.905  1.00  0.00     0.061 C 
ATOM     24  C   UNL A   1      30.628  26.683  26.522  1.00  0.00     0.010 C 
ENDBRANCH  17  23
ENDBRANCH  15  16
ENDBRANCH   7  15
ENDBRANCH   3   6
ENDBRANCH   1   2
BRANCH   1  25
ATOM     25  C   UNL A   1      33.991  28.182  25.962  1.00  0.00     0.042 C 
BRANCH  25  26
ATOM     26  C   UNL A   1      33.585  28.543  27.390  1.00  0.00     0.118 C 
BRANCH  26  27
ATOM     27  N   UNL A   1      33.652  29.980  27.630  1.00  0.00    -0.352 N 
ATOM     28  C   UNL A   1      34.632  30.734  28.222  1.00  0.00     0.251 C 
ATOM     29  H   UNL A   1      32.870  30.489  27.318  1.00  0.00     0.163 HD
ATOM     30  O   UNL A   1      34.395  31.886  28.569  1.00  0.00    -0.269 OA
BRANCH  28  31
ATOM     31  C   UNL A   1      35.972  30.158  28.443  1.00  0.00     0.039 A 
ATOM     32  C   UNL A   1      36.894  30.161  27.394  1.00  0.00     0.014 A 
ATOM     33  C   UNL A   1      36.308  29.593  29.677  1.00  0.00     0.014 A 
ATOM     34  C   UNL A   1      38.178  29.657  27.604  1.00  0.00     0.010 A 
ATOM     35  C   UNL A   1      37.610  29.165  29.908  1.00  0.00     0.010 A 
ATOM     36  C   UNL A   1      38.558  29.193  28.874  1.00  0.00    -0.014 A 
BRANCH  36  37
ATOM     37  C   UNL A   1      39.942  28.741  29.149  1.00  0.00     0.031 A 
ATOM     38  C   UNL A   1      40.926  29.670  29.803  1.00  0.00     0.074 A 
ATOM     39  C   UNL A   1      40.331  27.515  28.746  1.00  0.00     0.049 A 
ATOM     40  N   UNL A   1      42.199  29.487  30.045  1.00  0.00    -0.248 NA
ATOM     41  C   UNL A   1      40.418  30.986  30.222  1.00  0.00     0.031 C 
ATOM     42  C   UNL A   1      39.477  26.528  28.080  1.00  0.00     0.029 A 
ATOM     43  N   UNL A   1      41.551  26.892  28.833  1.00  0.00    -0.354 N 
ATOM     44  C   UNL A   1      42.644  30.663  30.634  1.00  0.00     0.074 A 
ATOM     45  C   UNL A   1      41.520  31.573  30.664  1.00  0.00     0.031 C 
ATOM     46  C   UNL A   1      40.191  25.416  27.844  1.00  0.00     0.029 A 
ATOM     47  C   UNL A   1      41.563  25.629  28.293  1.00  0.00     0.049 A 
ATOM     48  H   UNL A   1      42.341  27.311  29.243  1.00  0.00     0.167 HD
ATOM     49  C   UNL A   1      43.871  30.952  31.127  1.00  0.00     0.031 A 
ATOM     50  C   UNL A   1      42.570  24.746  28.163  1.00  0.00     0.031 A 
ATOM     51  C   UNL A   1      44.990  30.047  31.093  1.00  0.00     0.049 A 
ATOM     52  C   UNL A   1      43.939  25.118  28.663  1.00  0.00     0.074 A 
ATOM     53  C   UNL A   1      46.266  30.236  31.593  1.00  0.00     0.029 A 
ATOM     54  N   UNL A   1      44.965  28.785  30.522  1.00  0.00    -0.354 N 
ATOM     55  N   UNL A   1      44.330  26.214  29.267  1.00  0.00    -0.248 NA
ATOM     56  C   UNL A   1      45.004  24.125  28.466  1.00  0.00     0.031 C 
ATOM     57  C   UNL A   1      47.031  29.109  31.275  1.00  0.00     0.029 A 
ATOM     58  C   UNL A   1      46.212  28.192  30.635  1.00  0.00     0.049 A 
ATOM     59  H   UNL A   1      44.178  28.370  30.100  1.00  0.00     0.167 HD
ATOM     60  C   UNL A   1      45.677  26.029  29.552  1.00  0.00     0.074 A 
ATOM     61  C   UNL A   1      46.029  24.708  29.073  1.00  0.00     0.031 C 
ATOM     62  C   UNL A   1      46.544  26.876  30.156  1.00  0.00     0.031 A 
BRANCH  49  63
ATOM     63  C   UNL A   1      44.069  32.310  31.744  1.00  0.00    -0.014 A 
ATOM     64  C   UNL A   1      43.868  32.518  33.119  1.00  0.00     0.009 A 
ATOM     65  C   UNL A   1      44.502  33.385  30.952  1.00  0.00     0.009 A 
ATOM     66  C   UNL A   1      44.063  33.782  33.680  1.00  0.00     0.001 A 
ATOM     67  C   UNL A   1      44.727  34.639  31.523  1.00  0.00     0.001 A 
ATOM     68  C   UNL A   1      44.498  34.839  32.883  1.00  0.00     0.000 A 
ENDBRANCH  49  63
BRANCH  50  69
ATOM     69  C   UNL A   1      42.334  23.421  27.530  1.00  0.00    -0.014 A 
ATOM     70  C   UNL A   1      41.872  22.339  28.296  1.00  0.00     0.009 A 
ATOM     71  C   UNL A   1      42.597  23.220  26.165  1.00  0.00     0.009 A 
ATOM     72  C   UNL A   1      41.716  21.077  27.720  1.00  0.00     0.001 A 
ATOM     73  C   UNL A   1      42.407  21.964  25.584  1.00  0.00     0.001 A 
ATOM     74  C   UNL A   1      41.981  20.891  26.365  1.00  0.00     0.000 A 
ENDBRANCH  50  69
BRANCH  62  75
ATOM     75  C   UNL A   1      47.949  26.383  30.369  1.00  0.00    -0.014 A 
ATOM     76  C   UNL A   1      48.332  25.757  31.566  1.00  0.00     0.009 A 
ATOM     77  C   UNL A   1      48.896  26.519  29.341  1.00  0.00     0.009 A 
ATOM     78  C   UNL A   1      49.643  25.311  31.741  1.00  0.00     0.001 A 
ATOM     79  C   UNL A   1      50.196  26.041  29.505  1.00  0.00     0.001 A 
ATOM     80  C   UNL A   1      50.571  25.448  30.709  1.00  0.00     0.000 A 
ENDBRANCH  62  75
ENDBRANCH  36  37
ENDBRANCH  28  31
ENDBRANCH  26  27
ENDBRANCH  25  26
ENDBRANCH   1  25
TORSDOF 13
ENDMDL
MODEL 2
REMARK VINA RESULT:     -11.0      1.483      3.470
REMARK SMILES CC[C@@H]1CCCC[N@H+]1Cc1c(C(=O)NCCCNC(=O)c2ccc(-c3c4nc(c(-c5ccccc5)c5ccc([nH]5)c(-c5ccccc5)c5nc(c(-c6ccccc6)c6ccc3[nH]6)C=C5)C=C4)cc2)oc2ccccc12
REMARK SMILES IDX 15 1 14 2 12 3 13 4 11 6 10 7 75 8 69 9 70 10 74 11 71 12
REMARK SMILES IDX 73 13 72 14 9 15 8 16 3 17 4 18 5 19 7 20 6 22 2 23 1 24
REMARK SMILES IDX 16 25 17 26 18 27 19 28 20 30 21 31 22 32 68 33 23 34 67 35
REMARK SMILES IDX 24 36 25 37 26 38 61 39 27 40 66 41 60 42 62 43 28 44 65 45
REMARK SMILES IDX 59 46 58 47 29 49 51 50 36 51 50 52 37 53 40 54 49 55 63 56
REMARK SMILES IDX 38 57 39 58 48 60 64 61 41 62 30 63 31 64 35 65 32 66 34 67
REMARK SMILES IDX 33 68 52 69 53 70 57 71 54 72 56 73 55 74 42 75 43 76 47 77
REMARK SMILES IDX 44 78 46 79 45 80
REMARK H PARENT 14 5 8 21 18 29 62 48 40 59
REMARK Flexibility Score: inf
ROOT
ATOM      1  C   UNL A   1      33.726  26.891  24.801  1.00  0.00     0.118 C 
ENDROOT
BRANCH   1   2
ATOM      2  N   UNL A   1      33.492  26.713  23.379  1.00  0.00    -0.349 N 
ATOM      3  C   UNL A   1      33.690  25.633  22.553  1.00  0.00     0.287 C 
ATOM      4  O   UNL A   1      33.499  25.849  21.357  1.00  0.00    -0.266 OA
ATOM      5  H   UNL A   1      33.127  27.508  22.927  1.00  0.00     0.163 HD
BRANCH   3   6
ATOM      6  C   UNL A   1      34.065  24.334  23.092  1.00  0.00     0.201 A 
ATOM      7  C   UNL A   1      33.291  23.218  23.444  1.00  0.00     0.066 A 
ATOM      8  C   UNL A   1      34.251  22.245  23.951  1.00  0.00     0.030 A 
ATOM      9  O   UNL A   1      35.382  24.074  23.305  1.00  0.00    -0.450 OA
ATOM     10  C   UNL A   1      35.495  22.854  23.861  1.00  0.00     0.135 A 
ATOM     11  C   UNL A   1      34.268  20.936  24.482  1.00  0.00     0.012 A 
ATOM     12  C   UNL A   1      36.706  22.302  24.283  1.00  0.00     0.048 A 
ATOM     13  C   UNL A   1      35.457  20.351  24.944  1.00  0.00     0.001 A 
ATOM     14  C   UNL A   1      36.663  21.030  24.852  1.00  0.00     0.004 A 
BRANCH   7  15
ATOM     15  C   UNL A   1      31.789  23.166  23.243  1.00  0.00     0.304 C 
BRANCH  15  16
ATOM     16  N   UNL A   1      30.951  23.986  24.127  1.00  0.00    -0.329 N 
ATOM     17  C   UNL A   1      31.386  24.149  25.520  1.00  0.00     0.184 C 
ATOM     18  C   UNL A   1      30.402  25.044  26.318  1.00  0.00     0.065 C 
ATOM     19  C   UNL A   1      30.112  26.359  25.613  1.00  0.00     0.012 C 
ATOM     20  C   UNL A   1      30.524  25.215  23.439  1.00  0.00     0.262 C 
ATOM     21  H   UNL A   1      30.118  23.426  24.302  1.00  0.00     0.348 HD
ATOM     22  C   UNL A   1      29.541  26.061  24.241  1.00  0.00     0.062 C 
BRANCH  17  23
ATOM     23  C   UNL A   1      31.535  22.830  26.345  1.00  0.00     0.061 C 
ATOM     24  C   UNL A   1      32.672  22.639  27.349  1.00  0.00     0.010 C 
ENDBRANCH  17  23
ENDBRANCH  15  16
ENDBRANCH   7  15
ENDBRANCH   3   6
ENDBRANCH   1   2
BRANCH   1  25
ATOM     25  C   UNL A   1      33.582  28.359  25.190  1.00  0.00     0.042 C 
BRANCH  25  26
ATOM     26  C   UNL A   1      33.653  28.573  26.700  1.00  0.00     0.118 C 
BRANCH  26  27
ATOM     27  N   UNL A   1      33.659  29.989  27.051  1.00  0.00    -0.352 N 
ATOM     28  C   UNL A   1      34.544  30.708  27.811  1.00  0.00     0.251 C 
ATOM     29  H   UNL A   1      32.909  30.511  26.684  1.00  0.00     0.163 HD
ATOM     30  O   UNL A   1      34.242  31.828  28.210  1.00  0.00    -0.269 OA
BRANCH  28  31
ATOM     31  C   UNL A   1      35.860  30.134  28.152  1.00  0.00     0.039 A 
ATOM     32  C   UNL A   1      36.879  30.161  27.198  1.00  0.00     0.014 A 
ATOM     33  C   UNL A   1      36.078  29.547  29.402  1.00  0.00     0.014 A 
ATOM     34  C   UNL A   1      38.140  29.659  27.522  1.00  0.00     0.010 A 
ATOM     35  C   UNL A   1      37.353  29.121  29.751  1.00  0.00     0.010 A 
ATOM     36  C   UNL A   1      38.397  29.173  28.815  1.00  0.00    -0.014 A 
BRANCH  36  37
ATOM     37  C   UNL A   1      39.751  28.722  29.215  1.00  0.00     0.031 A 
ATOM     38  C   UNL A   1      40.650  29.632  30.004  1.00  0.00     0.074 A 
ATOM     39  C   UNL A   1      40.195  27.516  28.807  1.00  0.00     0.049 A 
ATOM     40  N   UNL A   1      41.893  29.450  30.370  1.00  0.00    -0.248 NA
ATOM     41  C   UNL A   1      40.084  30.926  30.419  1.00  0.00     0.031 C 
ATOM     42  C   UNL A   1      39.428  26.550  28.017  1.00  0.00     0.029 A 
ATOM     43  N   UNL A   1      41.407  26.901  28.996  1.00  0.00    -0.354 N 
ATOM     44  C   UNL A   1      42.259  30.605  31.048  1.00  0.00     0.074 A 
ATOM     45  C   UNL A   1      41.128  31.504  30.996  1.00  0.00     0.031 C 
ATOM     46  C   UNL A   1      40.176  25.454  27.814  1.00  0.00     0.029 A 
ATOM     47  C   UNL A   1      41.491  25.660  28.412  1.00  0.00     0.049 A 
ATOM     48  H   UNL A   1      42.145  27.309  29.502  1.00  0.00     0.167 HD
ATOM     49  C   UNL A   1      43.425  30.885  31.677  1.00  0.00     0.031 A 
ATOM     50  C   UNL A   1      42.518  24.792  28.353  1.00  0.00     0.031 A 
ATOM     51  C   UNL A   1      44.553  29.992  31.725  1.00  0.00     0.049 A 
ATOM     52  C   UNL A   1      43.822  25.156  29.007  1.00  0.00     0.074 A 
ATOM     53  C   UNL A   1      45.767  30.171  32.362  1.00  0.00     0.029 A 
ATOM     54  N   UNL A   1      44.603  28.753  31.106  1.00  0.00    -0.354 N 
ATOM     55  N   UNL A   1      44.134  26.229  29.691  1.00  0.00    -0.248 NA
ATOM     56  C   UNL A   1      44.915  24.180  28.884  1.00  0.00     0.031 C 
ATOM     57  C   UNL A   1      46.575  29.064  32.083  1.00  0.00     0.029 A 
ATOM     58  C   UNL A   1      45.839  28.167  31.324  1.00  0.00     0.049 A 
ATOM     59  H   UNL A   1      43.870  28.349  30.587  1.00  0.00     0.167 HD
ATOM     60  C   UNL A   1      45.446  26.044  30.108  1.00  0.00     0.074 A 
ATOM     61  C   UNL A   1      45.863  24.747  29.617  1.00  0.00     0.031 C 
ATOM     62  C   UNL A   1      46.236  26.874  30.832  1.00  0.00     0.031 A 
BRANCH  49  63
ATOM     63  C   UNL A   1      43.540  32.218  32.364  1.00  0.00    -0.014 A 
ATOM     64  C   UNL A   1      43.177  32.373  33.712  1.00  0.00     0.009 A 
ATOM     65  C   UNL A   1      44.058  33.323  31.670  1.00  0.00     0.009 A 
ATOM     66  C   UNL A   1      43.297  33.615  34.340  1.00  0.00     0.001 A 
ATOM     67  C   UNL A   1      44.206  34.555  32.310  1.00  0.00     0.001 A 
ATOM     68  C   UNL A   1      43.817  34.702  33.641  1.00  0.00     0.000 A 
ENDBRANCH  49  63
BRANCH  50  69
ATOM     69  C   UNL A   1      42.365  23.491  27.648  1.00  0.00    -0.014 A 
ATOM     70  C   UNL A   1      42.707  23.373  26.291  1.00  0.00     0.009 A 
ATOM     71  C   UNL A   1      41.848  22.370  28.315  1.00  0.00     0.009 A 
ATOM     72  C   UNL A   1      42.498  22.173  25.609  1.00  0.00     0.001 A 
ATOM     73  C   UNL A   1      41.673  21.160  27.639  1.00  0.00     0.001 A 
ATOM     74  C   UNL A   1      41.985  21.067  26.284  1.00  0.00     0.000 A 
ENDBRANCH  50  69
BRANCH  62  75
ATOM     75  C   UNL A   1      47.617  26.385  31.172  1.00  0.00    -0.014 A 
ATOM     76  C   UNL A   1      47.881  25.716  32.377  1.00  0.00     0.009 A 
ATOM     77  C   UNL A   1      48.663  26.568  30.253  1.00  0.00     0.009 A 
ATOM     78  C   UNL A   1      49.173  25.275  32.670  1.00  0.00     0.001 A 
ATOM     79  C   UNL A   1      49.945  26.095  30.533  1.00  0.00     0.001 A 
ATOM     80  C   UNL A   1      50.201  25.458  31.747  1.00  0.00     0.000 A 
ENDBRANCH  62  75
ENDBRANCH  36  37
ENDBRANCH  28  31
ENDBRANCH  26  27
ENDBRANCH  25  26
ENDBRANCH   1  25
TORSDOF 13
ENDMDL
MODEL 3
REMARK VINA RESULT:     -10.9      2.829      7.492
REMARK SMILES CC[C@@H]1CCCC[N@H+]1Cc1c(C(=O)NCCCNC(=O)c2ccc(-c3c4nc(c(-c5ccccc5)c5ccc([nH]5)c(-c5ccccc5)c5nc(c(-c6ccccc6)c6ccc3[nH]6)C=C5)C=C4)cc2)oc2ccccc12
REMARK SMILES IDX 15 1 14 2 12 3 13 4 11 6 10 7 75 8 69 9 70 10 74 11 71 12
REMARK SMILES IDX 73 13 72 14 9 15 8 16 3 17 4 18 5 19 7 20 6 22 2 23 1 24
REMARK SMILES IDX 16 25 17 26 18 27 19 28 20 30 21 31 22 32 68 33 23 34 67 35
REMARK SMILES IDX 24 36 25 37 26 38 61 39 27 40 66 41 60 42 62 43 28 44 65 45
REMARK SMILES IDX 59 46 58 47 29 49 51 50 36 51 50 52 37 53 40 54 49 55 63 56
REMARK SMILES IDX 38 57 39 58 48 60 64 61 41 62 30 63 31 64 35 65 32 66 34 67
REMARK SMILES IDX 33 68 52 69 53 70 57 71 54 72 56 73 55 74 42 75 43 76 47 77
REMARK SMILES IDX 44 78 46 79 45 80
REMARK H PARENT 14 5 8 21 18 29 62 48 40 59
REMARK Flexibility Score: inf
ROOT
ATOM      1  C   UNL A   1      35.139  23.354  23.960  1.00  0.00     0.118 C 
ENDROOT
BRANCH   1   2
ATOM      2  N   UNL A   1      34.697  24.131  22.817  1.00  0.00    -0.349 N 
ATOM      3  C   UNL A   1      33.844  25.205  22.721  1.00  0.00     0.287 C 
ATOM      4  O   UNL A   1      33.584  25.565  21.574  1.00  0.00    -0.266 OA
ATOM      5  H   UNL A   1      35.076  23.837  21.957  1.00  0.00     0.163 HD
BRANCH   3   6
ATOM      6  C   UNL A   1      33.332  25.865  23.913  1.00  0.00     0.201 A 
ATOM      7  C   UNL A   1      32.240  25.566  24.741  1.00  0.00     0.066 A 
ATOM      8  C   UNL A   1      32.235  26.620  25.747  1.00  0.00     0.030 A 
ATOM      9  O   UNL A   1      33.982  26.965  24.378  1.00  0.00    -0.450 OA
ATOM     10  C   UNL A   1      33.306  27.447  25.437  1.00  0.00     0.135 A 
ATOM     11  C   UNL A   1      31.487  27.017  26.878  1.00  0.00     0.012 A 
ATOM     12  C   UNL A   1      33.655  28.619  26.113  1.00  0.00     0.048 A 
ATOM     13  C   UNL A   1      31.783  28.201  27.571  1.00  0.00     0.001 A 
ATOM     14  C   UNL A   1      32.852  28.997  27.187  1.00  0.00     0.004 A 
BRANCH   7  15
ATOM     15  C   UNL A   1      31.363  24.345  24.533  1.00  0.00     0.304 C 
BRANCH  15  16
ATOM     16  N   UNL A   1      32.011  23.028  24.540  1.00  0.00    -0.329 N 
ATOM     17  C   UNL A   1      31.977  22.258  25.790  1.00  0.00     0.184 C 
ATOM     18  C   UNL A   1      32.696  20.893  25.633  1.00  0.00     0.065 C 
ATOM     19  C   UNL A   1      32.201  20.113  24.425  1.00  0.00     0.012 C 
ATOM     20  C   UNL A   1      31.675  22.281  23.316  1.00  0.00     0.262 C 
ATOM     21  H   UNL A   1      33.012  23.220  24.518  1.00  0.00     0.348 HD
ATOM     22  C   UNL A   1      32.414  20.954  23.183  1.00  0.00     0.062 C 
BRANCH  17  23
ATOM     23  C   UNL A   1      32.630  22.949  27.031  1.00  0.00     0.061 C 
ATOM     24  C   UNL A   1      34.089  22.695  27.412  1.00  0.00     0.010 C 
ENDBRANCH  17  23
ENDBRANCH  15  16
ENDBRANCH   7  15
ENDBRANCH   3   6
ENDBRANCH   1   2
BRANCH   1  25
ATOM     25  C   UNL A   1      36.662  23.287  24.007  1.00  0.00     0.042 C 
BRANCH  25  26
ATOM     26  C   UNL A   1      37.215  23.518  25.413  1.00  0.00     0.118 C 
BRANCH  26  27
ATOM     27  N   UNL A   1      38.383  22.688  25.684  1.00  0.00    -0.352 N 
ATOM     28  C   UNL A   1      39.607  23.025  26.202  1.00  0.00     0.251 C 
ATOM     29  H   UNL A   1      38.276  21.736  25.459  1.00  0.00     0.163 HD
ATOM     30  O   UNL A   1      40.547  22.244  26.110  1.00  0.00    -0.269 OA
BRANCH  28  31
ATOM     31  C   UNL A   1      39.792  24.329  26.866  1.00  0.00     0.039 A 
ATOM     32  C   UNL A   1      39.300  24.507  28.161  1.00  0.00     0.014 A 
ATOM     33  C   UNL A   1      40.429  25.382  26.202  1.00  0.00     0.014 A 
ATOM     34  C   UNL A   1      39.506  25.721  28.816  1.00  0.00     0.010 A 
ATOM     35  C   UNL A   1      40.703  26.561  26.883  1.00  0.00     0.010 A 
ATOM     36  C   UNL A   1      40.244  26.743  28.196  1.00  0.00    -0.014 A 
BRANCH  36  37
ATOM     37  C   UNL A   1      40.559  28.007  28.904  1.00  0.00     0.031 A 
ATOM     38  C   UNL A   1      41.881  28.177  29.597  1.00  0.00     0.074 A 
ATOM     39  C   UNL A   1      39.623  28.974  28.980  1.00  0.00     0.049 A 
ATOM     40  N   UNL A   1      42.303  29.170  30.339  1.00  0.00    -0.248 NA
ATOM     41  C   UNL A   1      42.850  27.078  29.456  1.00  0.00     0.031 C 
ATOM     42  C   UNL A   1      38.293  28.920  28.370  1.00  0.00     0.029 A 
ATOM     43  N   UNL A   1      39.649  30.192  29.611  1.00  0.00    -0.354 N 
ATOM     44  C   UNL A   1      43.578  28.812  30.757  1.00  0.00     0.074 A 
ATOM     45  C   UNL A   1      43.841  27.490  30.235  1.00  0.00     0.031 C 
ATOM     46  C   UNL A   1      37.641  30.064  28.632  1.00  0.00     0.029 A 
ATOM     47  C   UNL A   1      38.484  30.909  29.472  1.00  0.00     0.049 A 
ATOM     48  H   UNL A   1      40.427  30.522  30.116  1.00  0.00     0.167 HD
ATOM     49  C   UNL A   1      44.460  29.529  31.493  1.00  0.00     0.031 A 
ATOM     50  C   UNL A   1      38.131  32.106  29.975  1.00  0.00     0.031 A 
ATOM     51  C   UNL A   1      44.197  30.844  32.016  1.00  0.00     0.049 A 
ATOM     52  C   UNL A   1      39.109  32.852  30.840  1.00  0.00     0.074 A 
ATOM     53  C   UNL A   1      45.037  31.665  32.746  1.00  0.00     0.029 A 
ATOM     54  N   UNL A   1      43.000  31.526  31.866  1.00  0.00    -0.354 N 
ATOM     55  N   UNL A   1      40.331  32.524  31.182  1.00  0.00    -0.248 NA
ATOM     56  C   UNL A   1      38.656  34.141  31.384  1.00  0.00     0.031 C 
ATOM     57  C   UNL A   1      44.330  32.822  33.088  1.00  0.00     0.029 A 
ATOM     58  C   UNL A   1      43.070  32.748  32.514  1.00  0.00     0.049 A 
ATOM     59  H   UNL A   1      42.216  31.192  31.373  1.00  0.00     0.167 HD
ATOM     60  C   UNL A   1      40.804  33.579  31.952  1.00  0.00     0.074 A 
ATOM     61  C   UNL A   1      39.745  34.565  32.010  1.00  0.00     0.031 C 
ATOM     62  C   UNL A   1      42.008  33.719  32.558  1.00  0.00     0.031 A 
BRANCH  49  63
ATOM     63  C   UNL A   1      45.797  28.902  31.777  1.00  0.00    -0.014 A 
ATOM     64  C   UNL A   1      46.891  29.104  30.919  1.00  0.00     0.009 A 
ATOM     65  C   UNL A   1      45.980  28.135  32.939  1.00  0.00     0.009 A 
ATOM     66  C   UNL A   1      48.129  28.522  31.200  1.00  0.00     0.001 A 
ATOM     67  C   UNL A   1      47.228  27.581  33.233  1.00  0.00     0.001 A 
ATOM     68  C   UNL A   1      48.298  27.767  32.359  1.00  0.00     0.000 A 
ENDBRANCH  49  63
BRANCH  50  69
ATOM     69  C   UNL A   1      36.792  32.681  29.681  1.00  0.00    -0.014 A 
ATOM     70  C   UNL A   1      36.589  33.462  28.533  1.00  0.00     0.009 A 
ATOM     71  C   UNL A   1      35.716  32.480  30.561  1.00  0.00     0.009 A 
ATOM     72  C   UNL A   1      35.352  34.061  28.291  1.00  0.00     0.001 A 
ATOM     73  C   UNL A   1      34.469  33.052  30.299  1.00  0.00     0.001 A 
ATOM     74  C   UNL A   1      34.292  33.853  29.172  1.00  0.00     0.000 A 
ENDBRANCH  50  69
BRANCH  62  75
ATOM     75  C   UNL A   1      42.258  35.002  33.302  1.00  0.00    -0.014 A 
ATOM     76  C   UNL A   1      41.765  35.204  34.600  1.00  0.00     0.009 A 
ATOM     77  C   UNL A   1      43.029  36.012  32.703  1.00  0.00     0.009 A 
ATOM     78  C   UNL A   1      42.008  36.406  35.268  1.00  0.00     0.001 A 
ATOM     79  C   UNL A   1      43.299  37.197  33.386  1.00  0.00     0.001 A 
ATOM     80  C   UNL A   1      42.780  37.397  34.664  1.00  0.00     0.000 A 
ENDBRANCH  62  75
ENDBRANCH  36  37
ENDBRANCH  28  31
ENDBRANCH  26  27
ENDBRANCH  25  26
ENDBRANCH   1  25
TORSDOF 13
ENDMDL
