MODEL 1
REMARK VINA RESULT:     -11.5      0.000      0.000
REMARK SMILES Cc1ccc(C)c(N2C(=O)C[C@@H](SCC(=O)NCCCNC(=O)c3ccc(-c4c5nc(c(-c6ccccc6)c6ccc([nH]6)c(-c6ccccc6)c6nc(c(-c7ccccc7)c7ccc4[nH]7)C=C6)C=C5)cc3)C2=O)c1
REMARK SMILES IDX 18 1 17 2 15 3 16 4 14 6 13 7 12 8 8 9 9 10 72 11 10 12
REMARK SMILES IDX 11 13 73 14 7 15 1 16 2 17 3 18 74 19 4 20 5 21 6 22 19 23
REMARK SMILES IDX 20 24 21 25 22 26 23 28 24 29 25 30 71 31 26 32 70 33 27 34
REMARK SMILES IDX 28 35 29 36 64 37 30 38 69 39 63 40 65 41 31 42 68 43 62 44
REMARK SMILES IDX 61 45 32 47 54 48 39 49 53 50 40 51 43 52 52 53 66 54 41 55
REMARK SMILES IDX 42 56 51 58 67 59 44 60 33 61 34 62 38 63 35 64 37 65 36 66
REMARK SMILES IDX 55 67 56 68 60 69 57 70 59 71 58 72 45 73 46 74 50 75 47 76
REMARK SMILES IDX 49 77 48 78
REMARK H PARENT 17 5 21 27 65 46 43 57
REMARK Flexibility Score: inf
ROOT
ATOM      1  C   UNL A   1      31.836  27.894  25.683  1.00  0.00     0.117 C 
ENDROOT
BRANCH   1   2
ATOM      2  N   UNL A   1      31.150  27.282  24.553  1.00  0.00    -0.355 N 
ATOM      3  C   UNL A   1      31.361  26.081  23.943  1.00  0.00     0.230 C 
ATOM      4  O   UNL A   1      30.682  25.802  22.951  1.00  0.00    -0.274 OA
ATOM      5  H   UNL A   1      30.420  27.820  24.171  1.00  0.00     0.163 HD
BRANCH   3   6
ATOM      6  C   UNL A   1      32.418  25.123  24.451  1.00  0.00     0.170 C 
BRANCH   6   7
ATOM      7  S   UNL A   1      33.852  25.015  23.342  1.00  0.00    -0.138 SA
BRANCH   7   8
ATOM      8  C   UNL A   1      34.265  23.226  23.476  1.00  0.00     0.146 C 
ATOM      9  N   UNL A   1      36.009  22.815  24.979  1.00  0.00    -0.249 N 
ATOM     10  C   UNL A   1      34.872  22.413  25.636  1.00  0.00     0.235 C 
ATOM     11  C   UNL A   1      35.761  23.122  23.664  1.00  0.00     0.247 C 
ATOM     12  O   UNL A   1      34.763  21.984  26.775  1.00  0.00    -0.274 OA
ATOM     13  C   UNL A   1      33.698  22.553  24.711  1.00  0.00     0.125 C 
ATOM     14  O   UNL A   1      36.567  23.269  22.753  1.00  0.00    -0.273 OA
BRANCH   9  15
ATOM     15  C   UNL A   1      37.304  22.804  25.551  1.00  0.00     0.055 A 
ATOM     16  C   UNL A   1      39.535  25.238  27.483  1.00  0.00     0.044 C 
ATOM     17  C   UNL A   1      39.043  24.003  26.789  1.00  0.00    -0.049 A 
ATOM     18  C   UNL A   1      39.841  22.859  26.762  1.00  0.00     0.004 A 
ATOM     19  C   UNL A   1      37.788  23.973  26.164  1.00  0.00     0.030 A 
ATOM     20  C   UNL A   1      39.389  21.703  26.128  1.00  0.00     0.006 A 
ATOM     21  C   UNL A   1      38.127  21.657  25.511  1.00  0.00    -0.027 A 
ATOM     22  C   UNL A   1      37.781  20.387  24.780  1.00  0.00     0.046 C 
ENDBRANCH   9  15
ENDBRANCH   7   8
ENDBRANCH   6   7
ENDBRANCH   3   6
ENDBRANCH   1   2
BRANCH   1  23
ATOM     23  C   UNL A   1      33.103  28.675  25.305  1.00  0.00     0.042 C 
BRANCH  23  24
ATOM     24  C   UNL A   1      34.042  29.041  26.454  1.00  0.00     0.118 C 
BRANCH  24  25
ATOM     25  N   UNL A   1      34.017  30.471  26.796  1.00  0.00    -0.352 N 
ATOM     26  C   UNL A   1      34.784  31.275  27.626  1.00  0.00     0.251 C 
ATOM     27  H   UNL A   1      33.301  30.965  26.335  1.00  0.00     0.163 HD
ATOM     28  O   UNL A   1      34.347  32.364  27.964  1.00  0.00    -0.269 OA
BRANCH  26  29
ATOM     29  C   UNL A   1      36.120  30.848  28.104  1.00  0.00     0.039 A 
ATOM     30  C   UNL A   1      37.008  31.715  28.752  1.00  0.00     0.014 A 
ATOM     31  C   UNL A   1      36.536  29.556  27.846  1.00  0.00     0.014 A 
ATOM     32  C   UNL A   1      38.293  31.250  29.053  1.00  0.00     0.010 A 
ATOM     33  C   UNL A   1      37.607  29.008  28.477  1.00  0.00     0.010 A 
ATOM     34  C   UNL A   1      38.580  29.890  28.872  1.00  0.00    -0.014 A 
BRANCH  34  35
ATOM     35  C   UNL A   1      39.892  29.305  29.052  1.00  0.00     0.031 A 
ATOM     36  C   UNL A   1      40.187  28.915  30.433  1.00  0.00     0.074 A 
ATOM     37  C   UNL A   1      40.684  28.872  28.046  1.00  0.00     0.049 A 
ATOM     38  N   UNL A   1      40.949  29.540  31.261  1.00  0.00    -0.248 NA
ATOM     39  C   UNL A   1      39.447  27.783  31.003  1.00  0.00     0.031 C 
ATOM     40  C   UNL A   1      40.403  28.777  26.607  1.00  0.00     0.029 A 
ATOM     41  N   UNL A   1      41.921  28.316  28.147  1.00  0.00    -0.354 N 
ATOM     42  C   UNL A   1      40.947  28.771  32.412  1.00  0.00     0.074 A 
ATOM     43  C   UNL A   1      39.859  27.833  32.271  1.00  0.00     0.031 C 
ATOM     44  C   UNL A   1      41.360  28.028  26.009  1.00  0.00     0.029 A 
ATOM     45  C   UNL A   1      42.392  27.724  26.985  1.00  0.00     0.049 A 
ATOM     46  H   UNL A   1      42.442  28.331  28.983  1.00  0.00     0.167 HD
ATOM     47  C   UNL A   1      42.000  28.799  33.271  1.00  0.00     0.031 A 
ATOM     48  C   UNL A   1      43.542  27.018  26.856  1.00  0.00     0.031 A 
ATOM     49  C   UNL A   1      42.913  29.876  32.965  1.00  0.00     0.049 A 
ATOM     50  C   UNL A   1      44.417  27.380  27.997  1.00  0.00     0.074 A 
ATOM     51  C   UNL A   1      42.794  31.248  32.847  1.00  0.00     0.029 A 
ATOM     52  N   UNL A   1      44.074  29.545  32.304  1.00  0.00    -0.354 N 
ATOM     53  N   UNL A   1      44.964  28.553  28.139  1.00  0.00    -0.248 NA
ATOM     54  C   UNL A   1      44.356  26.575  29.206  1.00  0.00     0.031 C 
ATOM     55  C   UNL A   1      43.612  31.596  31.729  1.00  0.00     0.029 A 
ATOM     56  C   UNL A   1      44.228  30.432  31.267  1.00  0.00     0.049 A 
ATOM     57  H   UNL A   1      44.684  28.807  32.533  1.00  0.00     0.167 HD
ATOM     58  C   UNL A   1      44.905  28.810  29.503  1.00  0.00     0.074 A 
ATOM     59  C   UNL A   1      44.640  27.512  30.117  1.00  0.00     0.031 C 
ATOM     60  C   UNL A   1      44.788  30.087  29.976  1.00  0.00     0.031 A 
BRANCH  47  61
ATOM     61  C   UNL A   1      42.405  27.627  34.122  1.00  0.00    -0.014 A 
ATOM     62  C   UNL A   1      43.244  26.651  33.558  1.00  0.00     0.009 A 
ATOM     63  C   UNL A   1      41.806  27.312  35.356  1.00  0.00     0.009 A 
ATOM     64  C   UNL A   1      43.420  25.405  34.168  1.00  0.00     0.001 A 
ATOM     65  C   UNL A   1      42.018  26.088  35.993  1.00  0.00     0.001 A 
ATOM     66  C   UNL A   1      42.804  25.122  35.383  1.00  0.00     0.000 A 
ENDBRANCH  47  61
BRANCH  48  67
ATOM     67  C   UNL A   1      43.873  25.909  25.938  1.00  0.00    -0.014 A 
ATOM     68  C   UNL A   1      45.208  25.628  25.602  1.00  0.00     0.009 A 
ATOM     69  C   UNL A   1      42.898  24.951  25.605  1.00  0.00     0.009 A 
ATOM     70  C   UNL A   1      45.558  24.410  25.001  1.00  0.00     0.001 A 
ATOM     71  C   UNL A   1      43.248  23.738  25.002  1.00  0.00     0.001 A 
ATOM     72  C   UNL A   1      44.581  23.460  24.717  1.00  0.00     0.000 A 
ENDBRANCH  48  67
BRANCH  60  73
ATOM     73  C   UNL A   1      44.987  31.223  28.998  1.00  0.00    -0.014 A 
ATOM     74  C   UNL A   1      43.968  31.695  28.152  1.00  0.00     0.009 A 
ATOM     75  C   UNL A   1      46.199  31.930  29.029  1.00  0.00     0.009 A 
ATOM     76  C   UNL A   1      44.168  32.813  27.334  1.00  0.00     0.001 A 
ATOM     77  C   UNL A   1      46.392  33.061  28.231  1.00  0.00     0.001 A 
ATOM     78  C   UNL A   1      45.381  33.497  27.377  1.00  0.00     0.000 A 
ENDBRANCH  60  73
ENDBRANCH  34  35
ENDBRANCH  26  29
ENDBRANCH  24  25
ENDBRANCH  23  24
ENDBRANCH   1  23
TORSDOF 13
ENDMDL
MODEL 2
REMARK VINA RESULT:     -11.3      1.880      2.828
REMARK SMILES Cc1ccc(C)c(N2C(=O)C[C@@H](SCC(=O)NCCCNC(=O)c3ccc(-c4c5nc(c(-c6ccccc6)c6ccc([nH]6)c(-c6ccccc6)c6nc(c(-c7ccccc7)c7ccc4[nH]7)C=C6)C=C5)cc3)C2=O)c1
REMARK SMILES IDX 18 1 17 2 15 3 16 4 14 6 13 7 12 8 8 9 9 10 72 11 10 12
REMARK SMILES IDX 11 13 73 14 7 15 1 16 2 17 3 18 74 19 4 20 5 21 6 22 19 23
REMARK SMILES IDX 20 24 21 25 22 26 23 28 24 29 25 30 71 31 26 32 70 33 27 34
REMARK SMILES IDX 28 35 29 36 64 37 30 38 69 39 63 40 65 41 31 42 68 43 62 44
REMARK SMILES IDX 61 45 32 47 54 48 39 49 53 50 40 51 43 52 52 53 66 54 41 55
REMARK SMILES IDX 42 56 51 58 67 59 44 60 33 61 34 62 38 63 35 64 37 65 36 66
REMARK SMILES IDX 55 67 56 68 60 69 57 70 59 71 58 72 45 73 46 74 50 75 47 76
REMARK SMILES IDX 49 77 48 78
REMARK H PARENT 17 5 21 27 65 46 43 57
REMARK Flexibility Score: inf
ROOT
ATOM      1  C   UNL A   1      33.417  30.311  26.784  1.00  0.00     0.117 C 
ENDROOT
BRANCH   1   2
ATOM      2  N   UNL A   1      32.428  29.541  27.527  1.00  0.00    -0.355 N 
ATOM      3  C   UNL A   1      31.973  28.271  27.330  1.00  0.00     0.230 C 
ATOM      4  O   UNL A   1      31.074  27.851  28.063  1.00  0.00    -0.274 OA
ATOM      5  H   UNL A   1      32.024  30.013  28.291  1.00  0.00     0.163 HD
BRANCH   3   6
ATOM      6  C   UNL A   1      32.536  27.405  26.223  1.00  0.00     0.170 C 
BRANCH   6   7
ATOM      7  S   UNL A   1      31.539  27.474  24.706  1.00  0.00    -0.138 SA
BRANCH   7   8
ATOM      8  C   UNL A   1      30.887  25.754  24.636  1.00  0.00     0.146 C 
ATOM      9  N   UNL A   1      32.443  24.171  25.372  1.00  0.00    -0.249 N 
ATOM     10  C   UNL A   1      31.534  24.277  26.396  1.00  0.00     0.235 C 
ATOM     11  C   UNL A   1      32.037  24.852  24.251  1.00  0.00     0.247 C 
ATOM     12  O   UNL A   1      31.545  23.720  27.483  1.00  0.00    -0.274 OA
ATOM     13  C   UNL A   1      30.435  25.211  25.977  1.00  0.00     0.125 C 
ATOM     14  O   UNL A   1      32.472  24.765  23.109  1.00  0.00    -0.273 OA
BRANCH   9  15
ATOM     15  C   UNL A   1      33.604  23.362  25.419  1.00  0.00     0.055 A 
ATOM     16  C   UNL A   1      37.334  23.852  26.114  1.00  0.00     0.044 C 
ATOM     17  C   UNL A   1      36.020  23.208  25.789  1.00  0.00    -0.049 A 
ATOM     18  C   UNL A   1      35.954  21.829  25.589  1.00  0.00     0.004 A 
ATOM     19  C   UNL A   1      34.846  23.967  25.681  1.00  0.00     0.030 A 
ATOM     20  C   UNL A   1      34.737  21.219  25.295  1.00  0.00     0.006 A 
ATOM     21  C   UNL A   1      33.552  21.969  25.199  1.00  0.00    -0.027 A 
ATOM     22  C   UNL A   1      32.313  21.219  24.788  1.00  0.00     0.046 C 
ENDBRANCH   9  15
ENDBRANCH   7   8
ENDBRANCH   6   7
ENDBRANCH   3   6
ENDBRANCH   1   2
BRANCH   1  23
ATOM     23  C   UNL A   1      34.645  30.723  27.609  1.00  0.00     0.042 C 
BRANCH  23  24
ATOM     24  C   UNL A   1      34.791  32.213  27.910  1.00  0.00     0.118 C 
BRANCH  24  25
ATOM     25  N   UNL A   1      34.549  32.551  29.321  1.00  0.00    -0.352 N 
ATOM     26  C   UNL A   1      35.120  32.148  30.519  1.00  0.00     0.251 C 
ATOM     27  H   UNL A   1      33.823  33.206  29.441  1.00  0.00     0.163 HD
ATOM     28  O   UNL A   1      34.515  32.349  31.561  1.00  0.00    -0.269 OA
BRANCH  26  29
ATOM     29  C   UNL A   1      36.447  31.489  30.564  1.00  0.00     0.039 A 
ATOM     30  C   UNL A   1      37.650  32.195  30.443  1.00  0.00     0.014 A 
ATOM     31  C   UNL A   1      36.501  30.112  30.668  1.00  0.00     0.014 A 
ATOM     32  C   UNL A   1      38.844  31.468  30.373  1.00  0.00     0.010 A 
ATOM     33  C   UNL A   1      37.650  29.463  30.990  1.00  0.00     0.010 A 
ATOM     34  C   UNL A   1      38.812  30.089  30.617  1.00  0.00    -0.014 A 
BRANCH  34  35
ATOM     35  C   UNL A   1      39.956  29.212  30.479  1.00  0.00     0.031 A 
ATOM     36  C   UNL A   1      40.637  28.917  31.742  1.00  0.00     0.074 A 
ATOM     37  C   UNL A   1      40.235  28.482  29.376  1.00  0.00     0.049 A 
ATOM     38  N   UNL A   1      41.752  29.415  32.148  1.00  0.00    -0.248 NA
ATOM     39  C   UNL A   1      39.936  28.082  32.725  1.00  0.00     0.031 C 
ATOM     40  C   UNL A   1      39.449  28.302  28.149  1.00  0.00     0.029 A 
ATOM     41  N   UNL A   1      41.288  27.644  29.184  1.00  0.00    -0.354 N 
ATOM     42  C   UNL A   1      42.004  28.805  33.365  1.00  0.00     0.074 A 
ATOM     43  C   UNL A   1      40.772  28.167  33.761  1.00  0.00     0.031 C 
ATOM     44  C   UNL A   1      39.960  27.271  27.434  1.00  0.00     0.029 A 
ATOM     45  C   UNL A   1      41.187  26.825  28.069  1.00  0.00     0.049 A 
ATOM     46  H   UNL A   1      42.064  27.618  29.791  1.00  0.00     0.167 HD
ATOM     47  C   UNL A   1      43.276  28.660  33.822  1.00  0.00     0.031 A 
ATOM     48  C   UNL A   1      42.049  25.839  27.720  1.00  0.00     0.031 A 
ATOM     49  C   UNL A   1      44.217  29.427  33.040  1.00  0.00     0.049 A 
ATOM     50  C   UNL A   1      43.326  26.091  28.430  1.00  0.00     0.074 A 
ATOM     51  C   UNL A   1      44.343  30.762  32.704  1.00  0.00     0.029 A 
ATOM     52  N   UNL A   1      44.977  28.739  32.120  1.00  0.00    -0.354 N 
ATOM     53  N   UNL A   1      44.111  27.094  28.163  1.00  0.00    -0.248 NA
ATOM     54  C   UNL A   1      43.537  25.468  29.727  1.00  0.00     0.031 C 
ATOM     55  C   UNL A   1      44.763  30.763  31.339  1.00  0.00     0.029 A 
ATOM     56  C   UNL A   1      44.928  29.435  30.939  1.00  0.00     0.049 A 
ATOM     57  H   UNL A   1      45.466  27.900  32.281  1.00  0.00     0.167 HD
ATOM     58  C   UNL A   1      44.593  27.508  29.398  1.00  0.00     0.074 A 
ATOM     59  C   UNL A   1      44.308  26.397  30.302  1.00  0.00     0.031 C 
ATOM     60  C   UNL A   1      44.912  28.817  29.628  1.00  0.00     0.031 A 
BRANCH  47  61
ATOM     61  C   UNL A   1      43.712  27.525  34.709  1.00  0.00    -0.014 A 
ATOM     62  C   UNL A   1      43.646  26.218  34.200  1.00  0.00     0.009 A 
ATOM     63  C   UNL A   1      43.945  27.658  36.091  1.00  0.00     0.009 A 
ATOM     64  C   UNL A   1      43.745  25.105  35.042  1.00  0.00     0.001 A 
ATOM     65  C   UNL A   1      44.093  26.550  36.927  1.00  0.00     0.001 A 
ATOM     66  C   UNL A   1      43.964  25.272  36.406  1.00  0.00     0.000 A 
ENDBRANCH  47  61
BRANCH  48  67
ATOM     67  C   UNL A   1      41.802  24.587  26.975  1.00  0.00    -0.014 A 
ATOM     68  C   UNL A   1      42.696  24.153  25.983  1.00  0.00     0.009 A 
ATOM     69  C   UNL A   1      40.832  23.674  27.428  1.00  0.00     0.009 A 
ATOM     70  C   UNL A   1      42.652  22.837  25.499  1.00  0.00     0.001 A 
ATOM     71  C   UNL A   1      40.787  22.363  26.942  1.00  0.00     0.001 A 
ATOM     72  C   UNL A   1      41.709  21.939  25.990  1.00  0.00     0.000 A 
ENDBRANCH  48  67
BRANCH  60  73
ATOM     73  C   UNL A   1      44.975  29.748  28.439  1.00  0.00    -0.014 A 
ATOM     74  C   UNL A   1      43.844  30.390  27.905  1.00  0.00     0.009 A 
ATOM     75  C   UNL A   1      46.234  30.097  27.926  1.00  0.00     0.009 A 
ATOM     76  C   UNL A   1      43.964  31.320  26.866  1.00  0.00     0.001 A 
ATOM     77  C   UNL A   1      46.358  31.043  26.905  1.00  0.00     0.001 A 
ATOM     78  C   UNL A   1      45.222  31.648  26.369  1.00  0.00     0.000 A 
ENDBRANCH  60  73
ENDBRANCH  34  35
ENDBRANCH  26  29
ENDBRANCH  24  25
ENDBRANCH  23  24
ENDBRANCH   1  23
TORSDOF 13
ENDMDL
MODEL 3
REMARK VINA RESULT:     -11.3      2.299      8.089
REMARK SMILES Cc1ccc(C)c(N2C(=O)C[C@@H](SCC(=O)NCCCNC(=O)c3ccc(-c4c5nc(c(-c6ccccc6)c6ccc([nH]6)c(-c6ccccc6)c6nc(c(-c7ccccc7)c7ccc4[nH]7)C=C6)C=C5)cc3)C2=O)c1
REMARK SMILES IDX 18 1 17 2 15 3 16 4 14 6 13 7 12 8 8 9 9 10 72 11 10 12
REMARK SMILES IDX 11 13 73 14 7 15 1 16 2 17 3 18 74 19 4 20 5 21 6 22 19 23
REMARK SMILES IDX 20 24 21 25 22 26 23 28 24 29 25 30 71 31 26 32 70 33 27 34
REMARK SMILES IDX 28 35 29 36 64 37 30 38 69 39 63 40 65 41 31 42 68 43 62 44
REMARK SMILES IDX 61 45 32 47 54 48 39 49 53 50 40 51 43 52 52 53 66 54 41 55
REMARK SMILES IDX 42 56 51 58 67 59 44 60 33 61 34 62 38 63 35 64 37 65 36 66
REMARK SMILES IDX 55 67 56 68 60 69 57 70 59 71 58 72 45 73 46 74 50 75 47 76
REMARK SMILES IDX 49 77 48 78
REMARK H PARENT 17 5 21 27 65 46 43 57
REMARK Flexibility Score: inf
ROOT
ATOM      1  C   UNL A   1      38.002  22.248  25.849  1.00  0.00     0.117 C 
ENDROOT
BRANCH   1   2
ATOM      2  N   UNL A   1      37.727  22.844  24.548  1.00  0.00    -0.355 N 
ATOM      3  C   UNL A   1      36.608  22.781  23.772  1.00  0.00     0.230 C 
ATOM      4  O   UNL A   1      36.633  23.327  22.665  1.00  0.00    -0.274 OA
ATOM      5  H   UNL A   1      38.464  23.376  24.172  1.00  0.00     0.163 HD
BRANCH   3   6
ATOM      6  C   UNL A   1      35.374  22.040  24.241  1.00  0.00     0.170 C 
BRANCH   6   7
ATOM      7  S   UNL A   1      34.204  23.117  25.118  1.00  0.00    -0.138 SA
BRANCH   7   8
ATOM      8  C   UNL A   1      32.844  23.236  23.884  1.00  0.00     0.146 C 
ATOM      9  N   UNL A   1      32.253  25.448  23.405  1.00  0.00    -0.249 N 
ATOM     10  C   UNL A   1      32.963  25.026  22.309  1.00  0.00     0.235 C 
ATOM     11  C   UNL A   1      31.985  24.417  24.272  1.00  0.00     0.247 C 
ATOM     12  O   UNL A   1      33.278  25.663  21.315  1.00  0.00    -0.274 OA
ATOM     13  C   UNL A   1      33.311  23.575  22.482  1.00  0.00     0.125 C 
ATOM     14  O   UNL A   1      31.181  24.392  25.197  1.00  0.00    -0.273 OA
BRANCH   9  15
ATOM     15  C   UNL A   1      31.753  26.762  23.572  1.00  0.00     0.055 A 
ATOM     16  C   UNL A   1      28.533  28.658  22.751  1.00  0.00     0.044 C 
ATOM     17  C   UNL A   1      29.912  28.345  23.249  1.00  0.00    -0.049 A 
ATOM     18  C   UNL A   1      30.653  29.328  23.905  1.00  0.00     0.004 A 
ATOM     19  C   UNL A   1      30.477  27.074  23.068  1.00  0.00     0.030 A 
ATOM     20  C   UNL A   1      31.932  29.044  24.379  1.00  0.00     0.006 A 
ATOM     21  C   UNL A   1      32.502  27.769  24.217  1.00  0.00    -0.027 A 
ATOM     22  C   UNL A   1      33.922  27.603  24.688  1.00  0.00     0.046 C 
ENDBRANCH   9  15
ENDBRANCH   7   8
ENDBRANCH   6   7
ENDBRANCH   3   6
ENDBRANCH   1   2
BRANCH   1  23
ATOM     23  C   UNL A   1      39.004  21.084  25.810  1.00  0.00     0.042 C 
BRANCH  23  24
ATOM     24  C   UNL A   1      40.163  21.155  26.803  1.00  0.00     0.118 C 
BRANCH  24  25
ATOM     25  N   UNL A   1      41.447  21.509  26.179  1.00  0.00    -0.352 N 
ATOM     26  C   UNL A   1      42.088  22.709  25.909  1.00  0.00     0.251 C 
ATOM     27  H   UNL A   1      41.964  20.722  25.889  1.00  0.00     0.163 HD
ATOM     28  O   UNL A   1      43.002  22.723  25.099  1.00  0.00    -0.269 OA
BRANCH  26  29
ATOM     29  C   UNL A   1      41.697  23.968  26.587  1.00  0.00     0.039 A 
ATOM     30  C   UNL A   1      40.525  24.667  26.273  1.00  0.00     0.014 A 
ATOM     31  C   UNL A   1      42.553  24.511  27.525  1.00  0.00     0.014 A 
ATOM     32  C   UNL A   1      40.307  25.908  26.880  1.00  0.00     0.010 A 
ATOM     33  C   UNL A   1      42.154  25.491  28.377  1.00  0.00     0.010 A 
ATOM     34  C   UNL A   1      41.163  26.316  27.912  1.00  0.00    -0.014 A 
BRANCH  34  35
ATOM     35  C   UNL A   1      41.105  27.615  28.550  1.00  0.00     0.031 A 
ATOM     36  C   UNL A   1      41.971  28.622  27.933  1.00  0.00     0.074 A 
ATOM     37  C   UNL A   1      40.156  27.993  29.436  1.00  0.00     0.049 A 
ATOM     38  N   UNL A   1      43.095  29.052  28.389  1.00  0.00    -0.248 NA
ATOM     39  C   UNL A   1      41.619  29.106  26.592  1.00  0.00     0.031 C 
ATOM     40  C   UNL A   1      38.948  27.282  29.874  1.00  0.00     0.029 A 
ATOM     41  N   UNL A   1      40.045  29.192  30.068  1.00  0.00    -0.354 N 
ATOM     42  C   UNL A   1      43.510  30.018  27.488  1.00  0.00     0.074 A 
ATOM     43  C   UNL A   1      42.683  29.860  26.315  1.00  0.00     0.031 C 
ATOM     44  C   UNL A   1      38.140  28.138  30.544  1.00  0.00     0.029 A 
ATOM     45  C   UNL A   1      38.836  29.400  30.715  1.00  0.00     0.049 A 
ATOM     46  H   UNL A   1      40.767  29.862  30.065  1.00  0.00     0.167 HD
ATOM     47  C   UNL A   1      44.325  31.033  27.879  1.00  0.00     0.031 A 
ATOM     48  C   UNL A   1      38.443  30.546  31.325  1.00  0.00     0.031 A 
ATOM     49  C   UNL A   1      44.869  30.804  29.198  1.00  0.00     0.049 A 
ATOM     50  C   UNL A   1      39.661  31.346  31.598  1.00  0.00     0.074 A 
ATOM     51  C   UNL A   1      45.613  29.796  29.782  1.00  0.00     0.029 A 
ATOM     52  N   UNL A   1      44.297  31.497  30.241  1.00  0.00    -0.354 N 
ATOM     53  N   UNL A   1      40.567  31.003  32.468  1.00  0.00    -0.248 NA
ATOM     54  C   UNL A   1      40.092  32.321  30.608  1.00  0.00     0.031 C 
ATOM     55  C   UNL A   1      45.064  29.643  31.092  1.00  0.00     0.029 A 
ATOM     56  C   UNL A   1      44.062  30.601  31.254  1.00  0.00     0.049 A 
ATOM     57  H   UNL A   1      44.094  32.460  30.258  1.00  0.00     0.167 HD
ATOM     58  C   UNL A   1      41.775  31.359  31.883  1.00  0.00     0.074 A 
ATOM     59  C   UNL A   1      41.413  32.275  30.805  1.00  0.00     0.031 C 
ATOM     60  C   UNL A   1      42.918  30.656  32.142  1.00  0.00     0.031 A 
BRANCH  47  61
ATOM     61  C   UNL A   1      44.309  32.398  27.247  1.00  0.00    -0.014 A 
ATOM     62  C   UNL A   1      43.769  33.467  27.983  1.00  0.00     0.009 A 
ATOM     63  C   UNL A   1      44.567  32.632  25.884  1.00  0.00     0.009 A 
ATOM     64  C   UNL A   1      43.448  34.682  27.368  1.00  0.00     0.001 A 
ATOM     65  C   UNL A   1      44.293  33.858  25.277  1.00  0.00     0.001 A 
ATOM     66  C   UNL A   1      43.706  34.876  26.015  1.00  0.00     0.000 A 
ENDBRANCH  47  61
BRANCH  48  67
ATOM     67  C   UNL A   1      37.086  31.096  31.517  1.00  0.00    -0.014 A 
ATOM     68  C   UNL A   1      36.663  31.541  32.780  1.00  0.00     0.009 A 
ATOM     69  C   UNL A   1      36.298  31.442  30.404  1.00  0.00     0.009 A 
ATOM     70  C   UNL A   1      35.521  32.344  32.917  1.00  0.00     0.001 A 
ATOM     71  C   UNL A   1      35.157  32.239  30.541  1.00  0.00     0.001 A 
ATOM     72  C   UNL A   1      34.779  32.706  31.796  1.00  0.00     0.000 A 
ENDBRANCH  48  67
BRANCH  60  73
ATOM     73  C   UNL A   1      42.889  29.653  33.273  1.00  0.00    -0.014 A 
ATOM     74  C   UNL A   1      43.246  29.974  34.594  1.00  0.00     0.009 A 
ATOM     75  C   UNL A   1      42.354  28.379  33.025  1.00  0.00     0.009 A 
ATOM     76  C   UNL A   1      43.110  29.040  35.627  1.00  0.00     0.001 A 
ATOM     77  C   UNL A   1      42.195  27.453  34.060  1.00  0.00     0.001 A 
ATOM     78  C   UNL A   1      42.581  27.780  35.359  1.00  0.00     0.000 A 
ENDBRANCH  60  73
ENDBRANCH  34  35
ENDBRANCH  26  29
ENDBRANCH  24  25
ENDBRANCH  23  24
ENDBRANCH   1  23
TORSDOF 13
ENDMDL
