MODEL 1
REMARK VINA RESULT:     -10.1      0.000      0.000
REMARK SMILES COc1cc(C(=O)NCCCNC(=O)c2ccc(-c3c4nc(c(-c5ccccc5)c5ccc([nH]5)c(-c5ccccc5)c5nc(c(-c6ccccc6)c6ccc3[nH]6)C=C5)C=C4)cc2)c([N+](=O)[O-])cc1OCC[NH+](C)C
REMARK SMILES IDX 9 1 8 2 6 3 7 4 5 6 3 7 4 8 68 9 67 10 63 11 2 12 1 13 69 14
REMARK SMILES IDX 70 15 71 16 72 17 73 18 74 19 64 21 65 22 66 23 10 24 11 25
REMARK SMILES IDX 12 26 13 27 14 29 15 30 16 31 62 32 17 33 61 34 18 35 19 36
REMARK SMILES IDX 20 37 55 38 21 39 60 40 54 41 56 42 22 43 59 44 53 45 52 46
REMARK SMILES IDX 23 48 45 49 30 50 44 51 31 52 34 53 43 54 57 55 32 56 33 57
REMARK SMILES IDX 42 59 58 60 35 61 24 62 25 63 29 64 26 65 28 66 27 67 46 68
REMARK SMILES IDX 47 69 51 70 48 71 50 72 49 73 36 74 37 75 41 76 38 77 40 78
REMARK SMILES IDX 39 79
REMARK H PARENT 8 5 72 20 12 28 56 47 34 58
REMARK Flexibility Score: inf
ROOT
ATOM      1  C   UNL A   1      31.720  27.657  25.574  1.00  0.00     0.118 C 
ENDROOT
BRANCH   1   2
ATOM      2  N   UNL A   1      32.634  28.158  24.557  1.00  0.00    -0.352 N 
ATOM      3  C   UNL A   1      33.462  27.507  23.674  1.00  0.00     0.258 C 
ATOM      4  O   UNL A   1      34.159  28.168  22.908  1.00  0.00    -0.269 OA
ATOM      5  H   UNL A   1      32.664  29.141  24.490  1.00  0.00     0.163 HD
BRANCH   3   6
ATOM      6  C   UNL A   1      33.599  26.033  23.673  1.00  0.00     0.121 A 
ATOM      7  C   UNL A   1      34.516  24.057  24.776  1.00  0.00     0.162 A 
ATOM      8  C   UNL A   1      34.376  25.451  24.694  1.00  0.00     0.071 A 
ATOM      9  C   UNL A   1      33.838  23.237  23.867  1.00  0.00     0.168 A 
ATOM     10  C   UNL A   1      33.029  23.803  22.885  1.00  0.00     0.136 A 
ATOM     11  C   UNL A   1      33.001  25.190  22.735  1.00  0.00     0.286 A 
BRANCH   7  12
ATOM     12  O   UNL A   1      35.203  23.509  25.828  1.00  0.00    -0.493 OA
ATOM     13  C   UNL A   1      36.611  23.728  25.743  1.00  0.00     0.278 C 
ENDBRANCH   7  12
BRANCH   9  14
ATOM     14  O   UNL A   1      33.901  21.875  23.823  1.00  0.00    -0.484 OA
BRANCH  14  15
ATOM     15  C   UNL A   1      32.641  21.199  23.955  1.00  0.00     0.291 C 
BRANCH  15  16
ATOM     16  C   UNL A   1      32.550  19.997  24.939  1.00  0.00     0.303 C 
BRANCH  16  17
ATOM     17  N   UNL A   1      32.685  18.659  24.325  1.00  0.00    -0.337 N 
ATOM     18  C   UNL A   1      32.305  18.648  22.909  1.00  0.00     0.332 C 
ATOM     19  C   UNL A   1      34.052  18.140  24.437  1.00  0.00     0.332 C 
ATOM     20  H   UNL A   1      32.045  18.060  24.846  1.00  0.00     0.347 HD
ENDBRANCH  16  17
ENDBRANCH  15  16
ENDBRANCH  14  15
ENDBRANCH   9  14
BRANCH  11  21
ATOM     21  N   UNL A   1      32.459  25.698  21.488  1.00  0.00     0.063 N 
ATOM     22  O   UNL A   1      31.335  26.210  21.515  1.00  0.00    -0.258 OA
ATOM     23  O   UNL A   1      33.180  25.609  20.483  1.00  0.00    -0.258 OA
ENDBRANCH  11  21
ENDBRANCH   3   6
ENDBRANCH   1   2
BRANCH   1  24
ATOM     24  C   UNL A   1      31.854  28.322  26.929  1.00  0.00     0.042 C 
BRANCH  24  25
ATOM     25  C   UNL A   1      33.274  28.709  27.303  1.00  0.00     0.118 C 
BRANCH  25  26
ATOM     26  N   UNL A   1      33.420  30.104  27.701  1.00  0.00    -0.352 N 
ATOM     27  C   UNL A   1      34.482  30.800  28.239  1.00  0.00     0.251 C 
ATOM     28  H   UNL A   1      32.613  30.649  27.559  1.00  0.00     0.163 HD
ATOM     29  O   UNL A   1      34.327  31.957  28.598  1.00  0.00    -0.269 OA
BRANCH  27  30
ATOM     30  C   UNL A   1      35.797  30.144  28.431  1.00  0.00     0.039 A 
ATOM     31  C   UNL A   1      36.730  30.177  27.387  1.00  0.00     0.014 A 
ATOM     32  C   UNL A   1      36.123  29.500  29.620  1.00  0.00     0.014 A 
ATOM     33  C   UNL A   1      38.014  29.663  27.586  1.00  0.00     0.010 A 
ATOM     34  C   UNL A   1      37.435  29.115  29.865  1.00  0.00     0.010 A 
ATOM     35  C   UNL A   1      38.398  29.185  28.848  1.00  0.00    -0.014 A 
BRANCH  35  36
ATOM     36  C   UNL A   1      39.787  28.737  29.138  1.00  0.00     0.031 A 
ATOM     37  C   UNL A   1      40.757  29.677  29.806  1.00  0.00     0.074 A 
ATOM     38  C   UNL A   1      40.204  27.524  28.724  1.00  0.00     0.049 A 
ATOM     39  N   UNL A   1      42.038  29.521  30.033  1.00  0.00    -0.248 NA
ATOM     40  C   UNL A   1      40.228  30.981  30.240  1.00  0.00     0.031 C 
ATOM     41  C   UNL A   1      39.382  26.531  28.027  1.00  0.00     0.029 A 
ATOM     42  N   UNL A   1      41.434  26.920  28.823  1.00  0.00    -0.354 N 
ATOM     43  C   UNL A   1      42.465  30.712  30.607  1.00  0.00     0.074 A 
ATOM     44  C   UNL A   1      41.328  31.604  30.634  1.00  0.00     0.031 C 
ATOM     45  C   UNL A   1      40.119  25.431  27.798  1.00  0.00     0.029 A 
ATOM     46  C   UNL A   1      41.476  25.658  28.281  1.00  0.00     0.049 A 
ATOM     47  H   UNL A   1      42.213  27.352  29.244  1.00  0.00     0.167 HD
ATOM     48  C   UNL A   1      43.687  31.031  31.097  1.00  0.00     0.031 A 
ATOM     49  C   UNL A   1      42.495  24.784  28.176  1.00  0.00     0.031 A 
ATOM     50  C   UNL A   1      44.812  30.137  31.096  1.00  0.00     0.049 A 
ATOM     51  C   UNL A   1      43.846  25.166  28.714  1.00  0.00     0.074 A 
ATOM     52  C   UNL A   1      46.077  30.342  31.620  1.00  0.00     0.029 A 
ATOM     53  N   UNL A   1      44.806  28.864  30.549  1.00  0.00    -0.354 N 
ATOM     54  N   UNL A   1      44.217  26.273  29.309  1.00  0.00    -0.248 NA
ATOM     55  C   UNL A   1      44.919  24.170  28.573  1.00  0.00     0.031 C 
ATOM     56  C   UNL A   1      46.851  29.211  31.345  1.00  0.00     0.029 A 
ATOM     57  C   UNL A   1      46.051  28.279  30.704  1.00  0.00     0.049 A 
ATOM     58  H   UNL A   1      44.031  28.439  30.115  1.00  0.00     0.167 HD
ATOM     59  C   UNL A   1      45.553  26.096  29.642  1.00  0.00     0.074 A 
ATOM     60  C   UNL A   1      45.923  24.768  29.196  1.00  0.00     0.031 C 
ATOM     61  C   UNL A   1      46.399  26.954  30.261  1.00  0.00     0.031 A 
BRANCH  48  62
ATOM     62  C   UNL A   1      43.863  32.407  31.680  1.00  0.00    -0.014 A 
ATOM     63  C   UNL A   1      44.264  33.489  30.879  1.00  0.00     0.009 A 
ATOM     64  C   UNL A   1      43.598  32.631  33.039  1.00  0.00     0.009 A 
ATOM     65  C   UNL A   1      44.438  34.756  31.437  1.00  0.00     0.001 A 
ATOM     66  C   UNL A   1      43.740  33.907  33.587  1.00  0.00     0.001 A 
ATOM     67  C   UNL A   1      44.170  34.966  32.789  1.00  0.00     0.000 A 
ENDBRANCH  48  62
BRANCH  49  68
ATOM     68  C   UNL A   1      42.280  23.450  27.553  1.00  0.00    -0.014 A 
ATOM     69  C   UNL A   1      42.598  23.239  26.202  1.00  0.00     0.009 A 
ATOM     70  C   UNL A   1      41.741  22.388  28.294  1.00  0.00     0.009 A 
ATOM     71  C   UNL A   1      42.349  22.003  25.599  1.00  0.00     0.001 A 
ATOM     72  C   UNL A   1      41.522  21.144  27.697  1.00  0.00     0.001 A 
ATOM     73  C   UNL A   1      41.814  20.956  26.347  1.00  0.00     0.000 A 
ENDBRANCH  49  68
BRANCH  61  74
ATOM     74  C   UNL A   1      47.794  26.469  30.538  1.00  0.00    -0.014 A 
ATOM     75  C   UNL A   1      48.133  25.879  31.765  1.00  0.00     0.009 A 
ATOM     76  C   UNL A   1      48.771  26.562  29.534  1.00  0.00     0.009 A 
ATOM     77  C   UNL A   1      49.433  25.420  31.991  1.00  0.00     0.001 A 
ATOM     78  C   UNL A   1      50.060  26.075  29.751  1.00  0.00     0.001 A 
ATOM     79  C   UNL A   1      50.393  25.513  30.983  1.00  0.00     0.000 A 
ENDBRANCH  61  74
ENDBRANCH  35  36
ENDBRANCH  27  30
ENDBRANCH  25  26
ENDBRANCH  24  25
ENDBRANCH   1  24
TORSDOF 16
ENDMDL
MODEL 2
REMARK VINA RESULT:     -10.1      2.035      7.437
REMARK SMILES COc1cc(C(=O)NCCCNC(=O)c2ccc(-c3c4nc(c(-c5ccccc5)c5ccc([nH]5)c(-c5ccccc5)c5nc(c(-c6ccccc6)c6ccc3[nH]6)C=C5)C=C4)cc2)c([N+](=O)[O-])cc1OCC[NH+](C)C
REMARK SMILES IDX 9 1 8 2 6 3 7 4 5 6 3 7 4 8 68 9 67 10 63 11 2 12 1 13 69 14
REMARK SMILES IDX 70 15 71 16 72 17 73 18 74 19 64 21 65 22 66 23 10 24 11 25
REMARK SMILES IDX 12 26 13 27 14 29 15 30 16 31 62 32 17 33 61 34 18 35 19 36
REMARK SMILES IDX 20 37 55 38 21 39 60 40 54 41 56 42 22 43 59 44 53 45 52 46
REMARK SMILES IDX 23 48 45 49 30 50 44 51 31 52 34 53 43 54 57 55 32 56 33 57
REMARK SMILES IDX 42 59 58 60 35 61 24 62 25 63 29 64 26 65 28 66 27 67 46 68
REMARK SMILES IDX 47 69 51 70 48 71 50 72 49 73 36 74 37 75 41 76 38 77 40 78
REMARK SMILES IDX 39 79
REMARK H PARENT 8 5 72 20 12 28 56 47 34 58
REMARK Flexibility Score: inf
ROOT
ATOM      1  C   UNL A   1      35.951  20.986  25.374  1.00  0.00     0.118 C 
ENDROOT
BRANCH   1   2
ATOM      2  N   UNL A   1      34.792  20.396  24.719  1.00  0.00    -0.352 N 
ATOM      3  C   UNL A   1      33.558  20.915  24.407  1.00  0.00     0.258 C 
ATOM      4  O   UNL A   1      32.729  20.197  23.854  1.00  0.00    -0.269 OA
ATOM      5  H   UNL A   1      34.914  19.456  24.450  1.00  0.00     0.163 HD
BRANCH   3   6
ATOM      6  C   UNL A   1      33.169  22.292  24.790  1.00  0.00     0.121 A 
ATOM      7  C   UNL A   1      31.833  23.712  26.261  1.00  0.00     0.162 A 
ATOM      8  C   UNL A   1      32.218  22.436  25.820  1.00  0.00     0.071 A 
ATOM      9  C   UNL A   1      32.435  24.848  25.708  1.00  0.00     0.168 A 
ATOM     10  C   UNL A   1      33.412  24.712  24.724  1.00  0.00     0.136 A 
ATOM     11  C   UNL A   1      33.691  23.447  24.206  1.00  0.00     0.286 A 
BRANCH   7  12
ATOM     12  O   UNL A   1      30.974  23.828  27.321  1.00  0.00    -0.493 OA
ATOM     13  C   UNL A   1      29.804  23.024  27.176  1.00  0.00     0.278 C 
ENDBRANCH   7  12
BRANCH   9  14
ATOM     14  O   UNL A   1      32.142  26.141  26.029  1.00  0.00    -0.484 OA
BRANCH  14  15
ATOM     15  C   UNL A   1      30.874  26.618  25.554  1.00  0.00     0.291 C 
BRANCH  15  16
ATOM     16  C   UNL A   1      30.773  27.094  24.075  1.00  0.00     0.303 C 
BRANCH  16  17
ATOM     17  N   UNL A   1      30.958  28.544  23.859  1.00  0.00    -0.337 N 
ATOM     18  C   UNL A   1      31.374  29.246  25.077  1.00  0.00     0.332 C 
ATOM     19  C   UNL A   1      31.946  28.821  22.811  1.00  0.00     0.332 C 
ATOM     20  H   UNL A   1      30.043  28.890  23.572  1.00  0.00     0.347 HD
ENDBRANCH  16  17
ENDBRANCH  15  16
ENDBRANCH  14  15
ENDBRANCH   9  14
BRANCH  11  21
ATOM     21  N   UNL A   1      34.419  23.405  22.950  1.00  0.00     0.063 N 
ATOM     22  O   UNL A   1      33.760  23.353  21.905  1.00  0.00    -0.258 OA
ATOM     23  O   UNL A   1      35.655  23.454  23.013  1.00  0.00    -0.258 OA
ENDBRANCH  11  21
ENDBRANCH   3   6
ENDBRANCH   1   2
BRANCH   1  24
ATOM     24  C   UNL A   1      37.287  20.568  24.794  1.00  0.00     0.042 C 
BRANCH  24  25
ATOM     25  C   UNL A   1      38.481  20.859  25.687  1.00  0.00     0.118 C 
BRANCH  25  26
ATOM     26  N   UNL A   1      39.508  19.825  25.656  1.00  0.00    -0.352 N 
ATOM     27  C   UNL A   1      40.845  19.846  25.994  1.00  0.00     0.251 C 
ATOM     28  H   UNL A   1      39.188  18.950  25.335  1.00  0.00     0.163 HD
ATOM     29  O   UNL A   1      41.540  18.867  25.773  1.00  0.00    -0.269 OA
BRANCH  27  30
ATOM     30  C   UNL A   1      41.457  21.062  26.578  1.00  0.00     0.039 A 
ATOM     31  C   UNL A   1      41.949  22.053  25.720  1.00  0.00     0.014 A 
ATOM     32  C   UNL A   1      41.553  21.240  27.954  1.00  0.00     0.014 A 
ATOM     33  C   UNL A   1      42.428  23.256  26.248  1.00  0.00     0.010 A 
ATOM     34  C   UNL A   1      41.898  22.482  28.473  1.00  0.00     0.010 A 
ATOM     35  C   UNL A   1      42.348  23.506  27.627  1.00  0.00    -0.014 A 
BRANCH  35  36
ATOM     36  C   UNL A   1      42.736  24.813  28.219  1.00  0.00     0.031 A 
ATOM     37  C   UNL A   1      41.695  25.882  28.432  1.00  0.00     0.074 A 
ATOM     38  C   UNL A   1      44.032  25.075  28.484  1.00  0.00     0.049 A 
ATOM     39  N   UNL A   1      41.851  27.124  28.820  1.00  0.00    -0.248 NA
ATOM     40  C   UNL A   1      40.299  25.522  28.132  1.00  0.00     0.031 C 
ATOM     41  C   UNL A   1      45.148  24.146  28.285  1.00  0.00     0.029 A 
ATOM     42  N   UNL A   1      44.633  26.209  28.973  1.00  0.00    -0.354 N 
ATOM     43  C   UNL A   1      40.584  27.691  28.781  1.00  0.00     0.074 A 
ATOM     44  C   UNL A   1      39.682  26.684  28.271  1.00  0.00     0.031 C 
ATOM     45  C   UNL A   1      46.288  24.735  28.684  1.00  0.00     0.029 A 
ATOM     46  C   UNL A   1      45.995  26.096  29.116  1.00  0.00     0.049 A 
ATOM     47  H   UNL A   1      44.133  27.027  29.199  1.00  0.00     0.167 HD
ATOM     48  C   UNL A   1      40.194  28.931  29.163  1.00  0.00     0.031 A 
ATOM     49  C   UNL A   1      46.908  26.991  29.539  1.00  0.00     0.031 A 
ATOM     50  C   UNL A   1      41.084  29.926  29.695  1.00  0.00     0.049 A 
ATOM     51  C   UNL A   1      46.453  28.366  29.942  1.00  0.00     0.074 A 
ATOM     52  C   UNL A   1      40.781  31.192  30.165  1.00  0.00     0.029 A 
ATOM     53  N   UNL A   1      42.453  29.764  29.835  1.00  0.00    -0.354 N 
ATOM     54  N   UNL A   1      45.241  28.866  29.957  1.00  0.00    -0.248 NA
ATOM     55  C   UNL A   1      47.495  29.299  30.398  1.00  0.00     0.031 C 
ATOM     56  C   UNL A   1      41.973  31.815  30.542  1.00  0.00     0.029 A 
ATOM     57  C   UNL A   1      43.012  30.914  30.364  1.00  0.00     0.049 A 
ATOM     58  H   UNL A   1      42.954  28.951  29.594  1.00  0.00     0.167 HD
ATOM     59  C   UNL A   1      45.370  30.157  30.452  1.00  0.00     0.074 A 
ATOM     60  C   UNL A   1      46.775  30.358  30.741  1.00  0.00     0.031 C 
ATOM     61  C   UNL A   1      44.411  31.094  30.652  1.00  0.00     0.031 A 
BRANCH  48  62
ATOM     62  C   UNL A   1      38.736  29.275  29.019  1.00  0.00    -0.014 A 
ATOM     63  C   UNL A   1      38.208  29.699  27.789  1.00  0.00     0.009 A 
ATOM     64  C   UNL A   1      37.875  29.146  30.119  1.00  0.00     0.009 A 
ATOM     65  C   UNL A   1      36.856  30.028  27.675  1.00  0.00     0.001 A 
ATOM     66  C   UNL A   1      36.517  29.443  29.993  1.00  0.00     0.001 A 
ATOM     67  C   UNL A   1      36.010  29.895  28.776  1.00  0.00     0.000 A 
ENDBRANCH  48  62
BRANCH  49  68
ATOM     68  C   UNL A   1      48.345  26.616  29.623  1.00  0.00    -0.014 A 
ATOM     69  C   UNL A   1      48.852  26.002  30.780  1.00  0.00     0.009 A 
ATOM     70  C   UNL A   1      49.222  26.884  28.561  1.00  0.00     0.009 A 
ATOM     71  C   UNL A   1      50.211  25.696  30.883  1.00  0.00     0.001 A 
ATOM     72  C   UNL A   1      50.574  26.548  28.655  1.00  0.00     0.001 A 
ATOM     73  C   UNL A   1      51.070  25.966  29.820  1.00  0.00     0.000 A 
ENDBRANCH  49  68
BRANCH  61  74
ATOM     74  C   UNL A   1      44.839  32.403  31.252  1.00  0.00    -0.014 A 
ATOM     75  C   UNL A   1      45.209  33.490  30.447  1.00  0.00     0.009 A 
ATOM     76  C   UNL A   1      44.825  32.562  32.647  1.00  0.00     0.009 A 
ATOM     77  C   UNL A   1      45.587  34.702  31.029  1.00  0.00     0.001 A 
ATOM     78  C   UNL A   1      45.174  33.783  33.225  1.00  0.00     0.001 A 
ATOM     79  C   UNL A   1      45.564  34.849  32.416  1.00  0.00     0.000 A 
ENDBRANCH  61  74
ENDBRANCH  35  36
ENDBRANCH  27  30
ENDBRANCH  25  26
ENDBRANCH  24  25
ENDBRANCH   1  24
TORSDOF 16
ENDMDL
MODEL 3
REMARK VINA RESULT:      -9.9      2.522      3.954
REMARK SMILES COc1cc(C(=O)NCCCNC(=O)c2ccc(-c3c4nc(c(-c5ccccc5)c5ccc([nH]5)c(-c5ccccc5)c5nc(c(-c6ccccc6)c6ccc3[nH]6)C=C5)C=C4)cc2)c([N+](=O)[O-])cc1OCC[NH+](C)C
REMARK SMILES IDX 9 1 8 2 6 3 7 4 5 6 3 7 4 8 68 9 67 10 63 11 2 12 1 13 69 14
REMARK SMILES IDX 70 15 71 16 72 17 73 18 74 19 64 21 65 22 66 23 10 24 11 25
REMARK SMILES IDX 12 26 13 27 14 29 15 30 16 31 62 32 17 33 61 34 18 35 19 36
REMARK SMILES IDX 20 37 55 38 21 39 60 40 54 41 56 42 22 43 59 44 53 45 52 46
REMARK SMILES IDX 23 48 45 49 30 50 44 51 31 52 34 53 43 54 57 55 32 56 33 57
REMARK SMILES IDX 42 59 58 60 35 61 24 62 25 63 29 64 26 65 28 66 27 67 46 68
REMARK SMILES IDX 47 69 51 70 48 71 50 72 49 73 36 74 37 75 41 76 38 77 40 78
REMARK SMILES IDX 39 79
REMARK H PARENT 8 5 72 20 12 28 56 47 34 58
REMARK Flexibility Score: inf
ROOT
ATOM      1  C   UNL A   1      31.745  30.334  25.872  1.00  0.00     0.118 C 
ENDROOT
BRANCH   1   2
ATOM      2  N   UNL A   1      30.992  30.053  24.657  1.00  0.00    -0.352 N 
ATOM      3  C   UNL A   1      30.857  28.905  23.912  1.00  0.00     0.258 C 
ATOM      4  O   UNL A   1      30.162  28.927  22.900  1.00  0.00    -0.269 OA
ATOM      5  H   UNL A   1      30.489  30.824  24.306  1.00  0.00     0.163 HD
BRANCH   3   6
ATOM      6  C   UNL A   1      31.591  27.664  24.249  1.00  0.00     0.121 A 
ATOM      7  C   UNL A   1      31.724  25.682  25.670  1.00  0.00     0.162 A 
ATOM      8  C   UNL A   1      31.101  26.891  25.321  1.00  0.00     0.071 A 
ATOM      9  C   UNL A   1      32.809  25.218  24.918  1.00  0.00     0.168 A 
ATOM     10  C   UNL A   1      33.267  25.953  23.828  1.00  0.00     0.136 A 
ATOM     11  C   UNL A   1      32.723  27.211  23.571  1.00  0.00     0.286 A 
BRANCH   7  12
ATOM     12  O   UNL A   1      31.179  24.903  26.656  1.00  0.00    -0.493 OA
ATOM     13  C   UNL A   1      29.897  24.382  26.304  1.00  0.00     0.278 C 
ENDBRANCH   7  12
BRANCH   9  14
ATOM     14  O   UNL A   1      33.514  24.076  25.159  1.00  0.00    -0.484 OA
BRANCH  14  15
ATOM     15  C   UNL A   1      34.461  24.156  26.236  1.00  0.00     0.291 C 
BRANCH  15  16
ATOM     16  C   UNL A   1      35.709  23.228  26.190  1.00  0.00     0.303 C 
BRANCH  16  17
ATOM     17  N   UNL A   1      35.471  21.820  26.571  1.00  0.00    -0.337 N 
ATOM     18  C   UNL A   1      34.279  21.658  27.408  1.00  0.00     0.332 C 
ATOM     19  C   UNL A   1      35.329  20.951  25.398  1.00  0.00     0.332 C 
ATOM     20  H   UNL A   1      36.294  21.546  27.107  1.00  0.00     0.347 HD
ENDBRANCH  16  17
ENDBRANCH  15  16
ENDBRANCH  14  15
ENDBRANCH   9  14
BRANCH  11  21
ATOM     21  N   UNL A   1      33.477  28.077  22.682  1.00  0.00     0.063 N 
ATOM     22  O   UNL A   1      33.854  27.608  21.603  1.00  0.00    -0.258 OA
ATOM     23  O   UNL A   1      33.665  29.244  23.058  1.00  0.00    -0.258 OA
ENDBRANCH  11  21
ENDBRANCH   3   6
ENDBRANCH   1   2
BRANCH   1  24
ATOM     24  C   UNL A   1      31.511  31.712  26.457  1.00  0.00     0.042 C 
BRANCH  24  25
ATOM     25  C   UNL A   1      32.732  32.335  27.110  1.00  0.00     0.118 C 
BRANCH  25  26
ATOM     26  N   UNL A   1      32.496  33.664  27.660  1.00  0.00    -0.352 N 
ATOM     27  C   UNL A   1      33.201  34.420  28.573  1.00  0.00     0.251 C 
ATOM     28  H   UNL A   1      31.683  34.101  27.318  1.00  0.00     0.163 HD
ATOM     29  O   UNL A   1      32.737  35.478  28.968  1.00  0.00    -0.269 OA
BRANCH  27  30
ATOM     30  C   UNL A   1      34.494  33.940  29.113  1.00  0.00     0.039 A 
ATOM     31  C   UNL A   1      34.495  33.153  30.271  1.00  0.00     0.014 A 
ATOM     32  C   UNL A   1      35.702  34.254  28.498  1.00  0.00     0.014 A 
ATOM     33  C   UNL A   1      35.692  32.597  30.733  1.00  0.00     0.010 A 
ATOM     34  C   UNL A   1      36.865  33.594  28.873  1.00  0.00     0.010 A 
ATOM     35  C   UNL A   1      36.878  32.761  30.001  1.00  0.00    -0.014 A 
BRANCH  35  36
ATOM     36  C   UNL A   1      38.149  32.093  30.391  1.00  0.00     0.031 A 
ATOM     37  C   UNL A   1      39.097  32.775  31.344  1.00  0.00     0.074 A 
ATOM     38  C   UNL A   1      38.494  30.919  29.825  1.00  0.00     0.049 A 
ATOM     39  N   UNL A   1      40.302  32.416  31.710  1.00  0.00    -0.248 NA
ATOM     40  C   UNL A   1      38.648  34.049  31.932  1.00  0.00     0.031 C 
ATOM     41  C   UNL A   1      37.691  30.171  28.854  1.00  0.00     0.029 A 
ATOM     42  N   UNL A   1      39.622  30.150  29.979  1.00  0.00    -0.354 N 
ATOM     43  C   UNL A   1      40.758  33.430  32.543  1.00  0.00     0.074 A 
ATOM     44  C   UNL A   1      39.732  34.448  32.577  1.00  0.00     0.031 C 
ATOM     45  C   UNL A   1      38.333  29.036  28.532  1.00  0.00     0.029 A 
ATOM     46  C   UNL A   1      39.614  28.999  29.227  1.00  0.00     0.049 A 
ATOM     47  H   UNL A   1      40.367  30.401  30.572  1.00  0.00     0.167 HD
ATOM     48  C   UNL A   1      41.915  33.500  33.245  1.00  0.00     0.031 A 
ATOM     49  C   UNL A   1      40.538  28.028  29.106  1.00  0.00     0.031 A 
ATOM     50  C   UNL A   1      42.925  32.478  33.234  1.00  0.00     0.049 A 
ATOM     51  C   UNL A   1      41.821  28.135  29.882  1.00  0.00     0.074 A 
ATOM     52  C   UNL A   1      44.107  32.426  33.953  1.00  0.00     0.029 A 
ATOM     53  N   UNL A   1      42.869  31.324  32.470  1.00  0.00    -0.354 N 
ATOM     54  N   UNL A   1      42.209  29.072  30.713  1.00  0.00    -0.248 NA
ATOM     55  C   UNL A   1      42.791  27.043  29.710  1.00  0.00     0.031 C 
ATOM     56  C   UNL A   1      44.790  31.263  33.586  1.00  0.00     0.029 A 
ATOM     57  C   UNL A   1      44.005  30.562  32.684  1.00  0.00     0.049 A 
ATOM     58  H   UNL A   1      42.132  31.081  31.865  1.00  0.00     0.167 HD
ATOM     59  C   UNL A   1      43.451  28.667  31.186  1.00  0.00     0.074 A 
ATOM     60  C   UNL A   1      43.743  27.393  30.562  1.00  0.00     0.031 C 
ATOM     61  C   UNL A   1      44.276  29.293  32.060  1.00  0.00     0.031 A 
BRANCH  48  62
ATOM     62  C   UNL A   1      42.143  34.727  34.086  1.00  0.00    -0.014 A 
ATOM     63  C   UNL A   1      41.770  34.760  35.439  1.00  0.00     0.009 A 
ATOM     64  C   UNL A   1      42.764  35.854  33.526  1.00  0.00     0.009 A 
ATOM     65  C   UNL A   1      41.975  35.910  36.202  1.00  0.00     0.001 A 
ATOM     66  C   UNL A   1      42.999  36.991  34.302  1.00  0.00     0.001 A 
ATOM     67  C   UNL A   1      42.594  37.023  35.635  1.00  0.00     0.000 A 
ENDBRANCH  48  62
BRANCH  49  68
ATOM     68  C   UNL A   1      40.283  26.854  28.227  1.00  0.00    -0.014 A 
ATOM     69  C   UNL A   1      40.808  26.814  26.926  1.00  0.00     0.009 A 
ATOM     70  C   UNL A   1      39.500  25.778  28.674  1.00  0.00     0.009 A 
ATOM     71  C   UNL A   1      40.527  25.738  26.081  1.00  0.00     0.001 A 
ATOM     72  C   UNL A   1      39.247  24.689  27.837  1.00  0.00     0.001 A 
ATOM     73  C   UNL A   1      39.750  24.675  26.537  1.00  0.00     0.000 A 
ENDBRANCH  49  68
BRANCH  61  74
ATOM     74  C   UNL A   1      45.550  28.589  32.431  1.00  0.00    -0.014 A 
ATOM     75  C   UNL A   1      46.742  28.815  31.726  1.00  0.00     0.009 A 
ATOM     76  C   UNL A   1      45.566  27.722  33.535  1.00  0.00     0.009 A 
ATOM     77  C   UNL A   1      47.918  28.161  32.101  1.00  0.00     0.001 A 
ATOM     78  C   UNL A   1      46.748  27.094  33.927  1.00  0.00     0.001 A 
ATOM     79  C   UNL A   1      47.921  27.306  33.204  1.00  0.00     0.000 A 
ENDBRANCH  61  74
ENDBRANCH  35  36
ENDBRANCH  27  30
ENDBRANCH  25  26
ENDBRANCH  24  25
ENDBRANCH   1  24
TORSDOF 16
ENDMDL
