MODEL 1
REMARK VINA RESULT:     -12.3      0.000      0.000
REMARK SMILES O=C(NCCCNC(=O)c1ccc(-c2c3nc(c(-c4ccccc4)c4ccc([nH]4)c(-c4ccccc4)c4nc(c(-c5ccccc5)c5ccc2[nH]5)C=C4)C=C3)cc1)C1=Cc2cc(S(F)(F)(F)(F)F)ccc2O[C@H]1C(F)(F)F
REMARK SMILES IDX 5 1 4 2 3 3 1 4 2 5 58 7 59 8 73 9 60 10 72 11 61 12 71 13
REMARK SMILES IDX 62 14 70 15 69 16 74 17 75 18 76 19 77 20 63 21 64 22 65 23
REMARK SMILES IDX 66 24 67 25 68 26 6 27 7 28 8 29 9 31 10 32 11 33 57 34
REMARK SMILES IDX 12 35 56 36 13 37 14 38 15 39 50 40 16 41 55 42 49 43 51 44
REMARK SMILES IDX 17 45 54 46 48 47 47 48 18 50 40 51 25 52 39 53 26 54 29 55
REMARK SMILES IDX 38 56 52 57 27 58 28 59 37 61 53 62 30 63 19 64 20 65 24 66
REMARK SMILES IDX 21 67 23 68 22 69 41 70 42 71 46 72 43 73 45 74 44 75 31 76
REMARK SMILES IDX 32 77 36 78 33 79 35 80 34 81
REMARK H PARENT 3 6 7 30 51 49 29 60
REMARK Flexibility Score: inf
ROOT
ATOM      1  C   UNL A   1      33.765  28.828  25.919  1.00  0.00     0.042 C 
ENDROOT
BRANCH   1   2
ATOM      2  C   UNL A   1      33.373  27.438  25.443  1.00  0.00     0.118 C 
BRANCH   2   3
ATOM      3  N   UNL A   1      32.317  26.902  26.313  1.00  0.00    -0.352 N 
ATOM      4  O   UNL A   1      30.468  25.429  26.549  1.00  0.00    -0.270 OA
ATOM      5  C   UNL A   1      31.381  25.892  25.796  1.00  0.00     0.251 C 
ATOM      6  H   UNL A   1      32.236  27.219  27.241  1.00  0.00     0.163 HD
BRANCH   5   7
ATOM      7  C   UNL A   1      31.507  25.402  24.363  1.00  0.00     0.067 C 
ATOM      8  C   UNL A   1      32.480  24.512  24.032  1.00  0.00     0.025 C 
ATOM      9  C   UNL A   1      30.546  25.909  23.300  1.00  0.00     0.314 C 
ATOM     10  C   UNL A   1      33.442  24.007  25.095  1.00  0.00     0.019 A 
ATOM     11  O   UNL A   1      31.556  23.997  26.542  1.00  0.00    -0.475 OA
ATOM     12  C   UNL A   1      34.791  23.822  24.843  1.00  0.00     0.036 A 
ATOM     13  C   UNL A   1      32.902  23.649  26.254  1.00  0.00     0.128 A 
ATOM     14  C   UNL A   1      35.440  22.979  25.778  1.00  0.00     0.107 A 
ATOM     15  C   UNL A   1      33.635  22.945  27.179  1.00  0.00     0.048 A 
ATOM     16  C   UNL A   1      34.960  22.676  26.970  1.00  0.00     0.028 A 
BRANCH   9  17
ATOM     17  C   UNL A   1      29.565  26.885  23.927  1.00  0.00     0.429 C 
ATOM     18  F   UNL A   1      30.225  27.797  24.635  1.00  0.00    -0.167 F 
ATOM     19  F   UNL A   1      28.864  27.489  22.971  1.00  0.00    -0.167 F 
ATOM     20  F   UNL A   1      28.738  26.215  24.725  1.00  0.00    -0.167 F 
ENDBRANCH   9  17
BRANCH  14  21
ATOM     21  S   UNL A   1      37.037  22.271  25.306  1.00  0.00     0.310 S 
ATOM     22  F   UNL A   1      37.045  23.045  23.922  1.00  0.00    -0.094 F 
ATOM     23  F   UNL A   1      36.268  21.109  24.572  1.00  0.00    -0.094 F 
ATOM     24  F   UNL A   1      38.408  21.658  24.902  1.00  0.00    -0.094 F 
ATOM     25  F   UNL A   1      37.785  23.517  25.925  1.00  0.00    -0.094 F 
ATOM     26  F   UNL A   1      35.652  22.963  25.625  1.00  0.00    -0.094 F 
ENDBRANCH  14  21
ENDBRANCH   5   7
ENDBRANCH   2   3
ENDBRANCH   1   2
BRANCH   1  27
ATOM     27  C   UNL A   1      33.766  28.861  27.438  1.00  0.00     0.118 C 
BRANCH  27  28
ATOM     28  N   UNL A   1      33.545  30.239  27.899  1.00  0.00    -0.352 N 
ATOM     29  C   UNL A   1      34.663  31.019  28.447  1.00  0.00     0.251 C 
ATOM     30  H   UNL A   1      32.647  30.640  27.839  1.00  0.00     0.163 HD
ATOM     31  O   UNL A   1      34.472  32.211  28.845  1.00  0.00    -0.269 OA
BRANCH  29  32
ATOM     32  C   UNL A   1      36.049  30.401  28.538  1.00  0.00     0.039 A 
ATOM     33  C   UNL A   1      36.995  30.483  27.528  1.00  0.00     0.014 A 
ATOM     34  C   UNL A   1      36.346  29.874  29.719  1.00  0.00     0.014 A 
ATOM     35  C   UNL A   1      38.155  29.711  27.767  1.00  0.00     0.010 A 
ATOM     36  C   UNL A   1      37.556  29.253  29.924  1.00  0.00     0.010 A 
ATOM     37  C   UNL A   1      38.515  29.245  28.950  1.00  0.00    -0.014 A 
BRANCH  37  38
ATOM     38  C   UNL A   1      39.918  28.723  29.213  1.00  0.00     0.031 A 
ATOM     39  C   UNL A   1      40.832  29.653  29.709  1.00  0.00     0.074 A 
ATOM     40  C   UNL A   1      40.254  27.436  28.830  1.00  0.00     0.049 A 
ATOM     41  N   UNL A   1      42.136  29.475  29.929  1.00  0.00    -0.248 NA
ATOM     42  C   UNL A   1      40.485  31.032  30.085  1.00  0.00     0.031 C 
ATOM     43  C   UNL A   1      39.335  26.488  28.336  1.00  0.00     0.029 A 
ATOM     44  N   UNL A   1      41.498  26.846  28.849  1.00  0.00    -0.354 N 
ATOM     45  C   UNL A   1      42.676  30.590  30.426  1.00  0.00     0.074 A 
ATOM     46  C   UNL A   1      41.622  31.609  30.528  1.00  0.00     0.031 C 
ATOM     47  C   UNL A   1      40.018  25.348  28.052  1.00  0.00     0.029 A 
ATOM     48  C   UNL A   1      41.374  25.562  28.364  1.00  0.00     0.049 A 
ATOM     49  H   UNL A   1      42.332  27.268  29.157  1.00  0.00     0.167 HD
ATOM     50  C   UNL A   1      44.006  30.796  30.800  1.00  0.00     0.031 A 
ATOM     51  C   UNL A   1      42.375  24.620  28.193  1.00  0.00     0.031 A 
ATOM     52  C   UNL A   1      44.998  29.837  30.669  1.00  0.00     0.049 A 
ATOM     53  C   UNL A   1      43.716  24.845  28.512  1.00  0.00     0.074 A 
ATOM     54  C   UNL A   1      46.340  30.027  31.049  1.00  0.00     0.029 A 
ATOM     55  N   UNL A   1      44.878  28.563  30.160  1.00  0.00    -0.354 N 
ATOM     56  N   UNL A   1      44.248  25.946  29.046  1.00  0.00    -0.248 NA
ATOM     57  C   UNL A   1      44.790  23.865  28.305  1.00  0.00     0.031 C 
ATOM     58  C   UNL A   1      47.023  28.886  30.764  1.00  0.00     0.029 A 
ATOM     59  C   UNL A   1      46.118  27.965  30.201  1.00  0.00     0.049 A 
ATOM     60  H   UNL A   1      44.049  28.151  29.826  1.00  0.00     0.167 HD
ATOM     61  C   UNL A   1      45.560  25.781  29.227  1.00  0.00     0.074 A 
ATOM     62  C   UNL A   1      45.929  24.443  28.746  1.00  0.00     0.031 C 
ATOM     63  C   UNL A   1      46.463  26.692  29.777  1.00  0.00     0.031 A 
BRANCH  50  64
ATOM     64  C   UNL A   1      44.385  32.147  31.384  1.00  0.00    -0.014 A 
ATOM     65  C   UNL A   1      44.237  32.302  32.753  1.00  0.00     0.009 A 
ATOM     66  C   UNL A   1      44.753  33.163  30.611  1.00  0.00     0.009 A 
ATOM     67  C   UNL A   1      44.221  33.651  33.179  1.00  0.00     0.001 A 
ATOM     68  C   UNL A   1      44.848  34.433  31.125  1.00  0.00     0.001 A 
ATOM     69  C   UNL A   1      44.657  34.669  32.459  1.00  0.00     0.000 A 
ENDBRANCH  50  64
BRANCH  51  70
ATOM     70  C   UNL A   1      41.992  23.263  27.625  1.00  0.00    -0.014 A 
ATOM     71  C   UNL A   1      42.160  23.106  26.259  1.00  0.00     0.009 A 
ATOM     72  C   UNL A   1      41.586  22.255  28.388  1.00  0.00     0.009 A 
ATOM     73  C   UNL A   1      41.595  21.916  25.743  1.00  0.00     0.001 A 
ATOM     74  C   UNL A   1      41.174  21.071  27.824  1.00  0.00     0.001 A 
ATOM     75  C   UNL A   1      41.258  20.869  26.474  1.00  0.00     0.000 A 
ENDBRANCH  51  70
BRANCH  63  76
ATOM     76  C   UNL A   1      47.914  26.261  29.919  1.00  0.00    -0.014 A 
ATOM     77  C   UNL A   1      48.820  26.382  28.878  1.00  0.00     0.009 A 
ATOM     78  C   UNL A   1      48.288  25.807  31.108  1.00  0.00     0.009 A 
ATOM     79  C   UNL A   1      50.050  25.721  29.108  1.00  0.00     0.001 A 
ATOM     80  C   UNL A   1      49.551  25.299  31.297  1.00  0.00     0.001 A 
ATOM     81  C   UNL A   1      50.480  25.332  30.295  1.00  0.00     0.000 A 
ENDBRANCH  63  76
ENDBRANCH  37  38
ENDBRANCH  29  32
ENDBRANCH  27  28
ENDBRANCH   1  27
TORSDOF 12
ENDMDL
MODEL 2
REMARK VINA RESULT:     -12.2      3.036      7.910
REMARK SMILES O=C(NCCCNC(=O)c1ccc(-c2c3nc(c(-c4ccccc4)c4ccc([nH]4)c(-c4ccccc4)c4nc(c(-c5ccccc5)c5ccc2[nH]5)C=C4)C=C3)cc1)C1=Cc2cc(S(F)(F)(F)(F)F)ccc2O[C@H]1C(F)(F)F
REMARK SMILES IDX 5 1 4 2 3 3 1 4 2 5 58 7 59 8 73 9 60 10 72 11 61 12 71 13
REMARK SMILES IDX 62 14 70 15 69 16 74 17 75 18 76 19 77 20 63 21 64 22 65 23
REMARK SMILES IDX 66 24 67 25 68 26 6 27 7 28 8 29 9 31 10 32 11 33 57 34
REMARK SMILES IDX 12 35 56 36 13 37 14 38 15 39 50 40 16 41 55 42 49 43 51 44
REMARK SMILES IDX 17 45 54 46 48 47 47 48 18 50 40 51 25 52 39 53 26 54 29 55
REMARK SMILES IDX 38 56 52 57 27 58 28 59 37 61 53 62 30 63 19 64 20 65 24 66
REMARK SMILES IDX 21 67 23 68 22 69 41 70 42 71 46 72 43 73 45 74 44 75 31 76
REMARK SMILES IDX 32 77 36 78 33 79 35 80 34 81
REMARK H PARENT 3 6 7 30 51 49 29 60
REMARK Flexibility Score: inf
ROOT
ATOM      1  C   UNL A   1      36.216  23.368  26.105  1.00  0.00     0.042 C 
ENDROOT
BRANCH   1   2
ATOM      2  C   UNL A   1      34.975  24.040  25.540  1.00  0.00     0.118 C 
BRANCH   2   3
ATOM      3  N   UNL A   1      35.054  24.061  24.072  1.00  0.00    -0.352 N 
ATOM      4  O   UNL A   1      33.892  24.048  22.000  1.00  0.00    -0.270 OA
ATOM      5  C   UNL A   1      33.823  24.031  23.269  1.00  0.00     0.251 C 
ATOM      6  H   UNL A   1      35.932  24.094  23.627  1.00  0.00     0.163 HD
BRANCH   5   7
ATOM      7  C   UNL A   1      32.468  23.980  23.957  1.00  0.00     0.067 C 
ATOM      8  C   UNL A   1      31.943  25.106  24.508  1.00  0.00     0.025 C 
ATOM      9  C   UNL A   1      31.701  22.670  24.029  1.00  0.00     0.314 C 
ATOM     10  C   UNL A   1      32.711  26.417  24.437  1.00  0.00     0.019 A 
ATOM     11  O   UNL A   1      33.327  25.730  22.247  1.00  0.00    -0.475 OA
ATOM     12  C   UNL A   1      32.758  27.304  25.500  1.00  0.00     0.036 A 
ATOM     13  C   UNL A   1      33.250  26.719  23.263  1.00  0.00     0.128 A 
ATOM     14  C   UNL A   1      33.148  28.615  25.136  1.00  0.00     0.107 A 
ATOM     15  C   UNL A   1      33.736  27.982  23.021  1.00  0.00     0.048 A 
ATOM     16  C   UNL A   1      33.760  28.928  24.009  1.00  0.00     0.028 A 
BRANCH   9  17
ATOM     17  C   UNL A   1      32.502  21.575  23.342  1.00  0.00     0.429 C 
ATOM     18  F   UNL A   1      32.527  21.789  22.030  1.00  0.00    -0.167 F 
ATOM     19  F   UNL A   1      33.746  21.571  23.814  1.00  0.00    -0.167 F 
ATOM     20  F   UNL A   1      31.930  20.400  23.590  1.00  0.00    -0.167 F 
ENDBRANCH   9  17
BRANCH  14  21
ATOM     21  S   UNL A   1      32.783  29.954  26.297  1.00  0.00     0.310 S 
ATOM     22  F   UNL A   1      31.981  28.987  27.264  1.00  0.00    -0.094 F 
ATOM     23  F   UNL A   1      31.428  30.203  25.535  1.00  0.00    -0.094 F 
ATOM     24  F   UNL A   1      32.468  31.108  27.291  1.00  0.00    -0.094 F 
ATOM     25  F   UNL A   1      34.076  29.598  27.132  1.00  0.00    -0.094 F 
ATOM     26  F   UNL A   1      33.060  28.709  25.364  1.00  0.00    -0.094 F 
ENDBRANCH  14  21
ENDBRANCH   5   7
ENDBRANCH   2   3
ENDBRANCH   1   2
BRANCH   1  27
ATOM     27  C   UNL A   1      37.409  23.677  25.216  1.00  0.00     0.118 C 
BRANCH  27  28
ATOM     28  N   UNL A   1      38.430  22.634  25.385  1.00  0.00    -0.352 N 
ATOM     29  C   UNL A   1      39.583  22.870  26.265  1.00  0.00     0.251 C 
ATOM     30  H   UNL A   1      38.341  21.776  24.910  1.00  0.00     0.163 HD
ATOM     31  O   UNL A   1      40.467  21.968  26.412  1.00  0.00    -0.269 OA
BRANCH  29  32
ATOM     32  C   UNL A   1      39.721  24.194  27.000  1.00  0.00     0.039 A 
ATOM     33  C   UNL A   1      39.266  24.407  28.292  1.00  0.00     0.014 A 
ATOM     34  C   UNL A   1      40.429  25.114  26.359  1.00  0.00     0.014 A 
ATOM     35  C   UNL A   1      39.365  25.751  28.719  1.00  0.00     0.010 A 
ATOM     36  C   UNL A   1      40.601  26.367  26.899  1.00  0.00     0.010 A 
ATOM     37  C   UNL A   1      40.127  26.665  28.146  1.00  0.00    -0.014 A 
BRANCH  37  38
ATOM     38  C   UNL A   1      40.457  27.979  28.834  1.00  0.00     0.031 A 
ATOM     39  C   UNL A   1      41.672  28.023  29.519  1.00  0.00     0.074 A 
ATOM     40  C   UNL A   1      39.511  28.990  28.872  1.00  0.00     0.049 A 
ATOM     41  N   UNL A   1      42.144  29.014  30.277  1.00  0.00    -0.248 NA
ATOM     42  C   UNL A   1      42.664  26.937  29.508  1.00  0.00     0.031 C 
ATOM     43  C   UNL A   1      38.285  28.958  28.177  1.00  0.00     0.029 A 
ATOM     44  N   UNL A   1      39.570  30.178  29.567  1.00  0.00    -0.354 N 
ATOM     45  C   UNL A   1      43.351  28.697  30.752  1.00  0.00     0.074 A 
ATOM     46  C   UNL A   1      43.699  27.354  30.268  1.00  0.00     0.031 C 
ATOM     47  C   UNL A   1      37.612  30.105  28.458  1.00  0.00     0.029 A 
ATOM     48  C   UNL A   1      38.404  30.873  29.332  1.00  0.00     0.049 A 
ATOM     49  H   UNL A   1      40.317  30.478  30.134  1.00  0.00     0.167 HD
ATOM     50  C   UNL A   1      44.175  29.475  31.566  1.00  0.00     0.031 A 
ATOM     51  C   UNL A   1      38.034  32.106  29.844  1.00  0.00     0.031 A 
ATOM     52  C   UNL A   1      43.822  30.728  32.042  1.00  0.00     0.049 A 
ATOM     53  C   UNL A   1      38.833  32.859  30.706  1.00  0.00     0.074 A 
ATOM     54  C   UNL A   1      44.645  31.528  32.858  1.00  0.00     0.029 A 
ATOM     55  N   UNL A   1      42.646  31.411  31.827  1.00  0.00    -0.354 N 
ATOM     56  N   UNL A   1      40.056  32.560  31.147  1.00  0.00    -0.248 NA
ATOM     57  C   UNL A   1      38.437  34.152  31.280  1.00  0.00     0.031 C 
ATOM     58  C   UNL A   1      43.970  32.675  33.138  1.00  0.00     0.029 A 
ATOM     59  C   UNL A   1      42.715  32.609  32.503  1.00  0.00     0.049 A 
ATOM     60  H   UNL A   1      41.887  31.098  31.284  1.00  0.00     0.167 HD
ATOM     61  C   UNL A   1      40.510  33.533  31.940  1.00  0.00     0.074 A 
ATOM     62  C   UNL A   1      39.473  34.569  32.042  1.00  0.00     0.031 C 
ATOM     63  C   UNL A   1      41.749  33.601  32.577  1.00  0.00     0.031 A 
BRANCH  50  64
ATOM     64  C   UNL A   1      45.536  28.919  31.951  1.00  0.00    -0.014 A 
ATOM     65  C   UNL A   1      46.570  29.112  31.049  1.00  0.00     0.009 A 
ATOM     66  C   UNL A   1      45.709  28.199  33.054  1.00  0.00     0.009 A 
ATOM     67  C   UNL A   1      47.680  28.259  31.259  1.00  0.00     0.001 A 
ATOM     68  C   UNL A   1      46.873  27.499  33.257  1.00  0.00     0.001 A 
ATOM     69  C   UNL A   1      47.915  27.597  32.377  1.00  0.00     0.000 A 
ENDBRANCH  50  64
BRANCH  51  70
ATOM     70  C   UNL A   1      36.680  32.670  29.445  1.00  0.00    -0.014 A 
ATOM     71  C   UNL A   1      35.631  32.402  30.309  1.00  0.00     0.009 A 
ATOM     72  C   UNL A   1      36.510  33.436  28.373  1.00  0.00     0.009 A 
ATOM     73  C   UNL A   1      34.360  32.756  29.797  1.00  0.00     0.001 A 
ATOM     74  C   UNL A   1      35.255  33.858  28.007  1.00  0.00     0.001 A 
ATOM     75  C   UNL A   1      34.165  33.580  28.783  1.00  0.00     0.000 A 
ENDBRANCH  51  70
BRANCH  63  76
ATOM     76  C   UNL A   1      42.061  34.839  33.403  1.00  0.00    -0.014 A 
ATOM     77  C   UNL A   1      41.603  34.988  34.703  1.00  0.00     0.009 A 
ATOM     78  C   UNL A   1      42.836  35.755  32.838  1.00  0.00     0.009 A 
ATOM     79  C   UNL A   1      41.785  36.288  35.230  1.00  0.00     0.001 A 
ATOM     80  C   UNL A   1      43.083  36.950  33.470  1.00  0.00     0.001 A 
ATOM     81  C   UNL A   1      42.613  37.188  34.731  1.00  0.00     0.000 A 
ENDBRANCH  63  76
ENDBRANCH  37  38
ENDBRANCH  29  32
ENDBRANCH  27  28
ENDBRANCH   1  27
TORSDOF 12
ENDMDL
MODEL 3
REMARK VINA RESULT:     -12.1      0.828      1.258
REMARK SMILES O=C(NCCCNC(=O)c1ccc(-c2c3nc(c(-c4ccccc4)c4ccc([nH]4)c(-c4ccccc4)c4nc(c(-c5ccccc5)c5ccc2[nH]5)C=C4)C=C3)cc1)C1=Cc2cc(S(F)(F)(F)(F)F)ccc2O[C@H]1C(F)(F)F
REMARK SMILES IDX 5 1 4 2 3 3 1 4 2 5 58 7 59 8 73 9 60 10 72 11 61 12 71 13
REMARK SMILES IDX 62 14 70 15 69 16 74 17 75 18 76 19 77 20 63 21 64 22 65 23
REMARK SMILES IDX 66 24 67 25 68 26 6 27 7 28 8 29 9 31 10 32 11 33 57 34
REMARK SMILES IDX 12 35 56 36 13 37 14 38 15 39 50 40 16 41 55 42 49 43 51 44
REMARK SMILES IDX 17 45 54 46 48 47 47 48 18 50 40 51 25 52 39 53 26 54 29 55
REMARK SMILES IDX 38 56 52 57 27 58 28 59 37 61 53 62 30 63 19 64 20 65 24 66
REMARK SMILES IDX 21 67 23 68 22 69 41 70 42 71 46 72 43 73 45 74 44 75 31 76
REMARK SMILES IDX 32 77 36 78 33 79 35 80 34 81
REMARK H PARENT 3 6 7 30 51 49 29 60
REMARK Flexibility Score: inf
ROOT
ATOM      1  C   UNL A   1      33.652  28.274  25.755  1.00  0.00     0.042 C 
ENDROOT
BRANCH   1   2
ATOM      2  C   UNL A   1      33.383  26.797  25.518  1.00  0.00     0.118 C 
BRANCH   2   3
ATOM      3  N   UNL A   1      32.344  26.332  26.448  1.00  0.00    -0.352 N 
ATOM      4  O   UNL A   1      30.423  24.978  26.797  1.00  0.00    -0.270 OA
ATOM      5  C   UNL A   1      31.321  25.380  25.992  1.00  0.00     0.251 C 
ATOM      6  H   UNL A   1      32.334  26.659  27.377  1.00  0.00     0.163 HD
BRANCH   5   7
ATOM      7  C   UNL A   1      31.338  24.875  24.558  1.00  0.00     0.067 C 
ATOM      8  C   UNL A   1      32.196  23.884  24.197  1.00  0.00     0.025 C 
ATOM      9  C   UNL A   1      30.396  25.478  23.529  1.00  0.00     0.314 C 
ATOM     10  C   UNL A   1      33.139  23.282  25.226  1.00  0.00     0.019 A 
ATOM     11  O   UNL A   1      31.321  23.479  26.744  1.00  0.00    -0.475 OA
ATOM     12  C   UNL A   1      34.450  22.952  24.924  1.00  0.00     0.036 A 
ATOM     13  C   UNL A   1      32.610  22.987  26.407  1.00  0.00     0.128 A 
ATOM     14  C   UNL A   1      35.040  22.048  25.839  1.00  0.00     0.107 A 
ATOM     15  C   UNL A   1      33.298  22.212  27.309  1.00  0.00     0.048 A 
ATOM     16  C   UNL A   1      34.577  21.801  27.051  1.00  0.00     0.028 A 
BRANCH   9  17
ATOM     17  C   UNL A   1      29.551  26.556  24.186  1.00  0.00     0.429 C 
ATOM     18  F   UNL A   1      28.722  26.006  25.068  1.00  0.00    -0.167 F 
ATOM     19  F   UNL A   1      30.342  27.427  24.807  1.00  0.00    -0.167 F 
ATOM     20  F   UNL A   1      28.847  27.186  23.249  1.00  0.00    -0.167 F 
ENDBRANCH   9  17
BRANCH  14  21
ATOM     21  S   UNL A   1      36.533  21.171  25.312  1.00  0.00     0.310 S 
ATOM     22  F   UNL A   1      36.539  21.894  23.900  1.00  0.00    -0.094 F 
ATOM     23  F   UNL A   1      35.616  20.066  24.664  1.00  0.00    -0.094 F 
ATOM     24  F   UNL A   1      37.813  20.413  24.860  1.00  0.00    -0.094 F 
ATOM     25  F   UNL A   1      37.431  22.357  25.842  1.00  0.00    -0.094 F 
ATOM     26  F   UNL A   1      35.241  22.006  25.676  1.00  0.00    -0.094 F 
ENDBRANCH  14  21
ENDBRANCH   5   7
ENDBRANCH   2   3
ENDBRANCH   1   2
BRANCH   1  27
ATOM     27  C   UNL A   1      33.533  28.579  27.239  1.00  0.00     0.118 C 
BRANCH  27  28
ATOM     28  N   UNL A   1      33.327  30.021  27.428  1.00  0.00    -0.352 N 
ATOM     29  C   UNL A   1      34.438  30.870  27.880  1.00  0.00     0.251 C 
ATOM     30  H   UNL A   1      32.444  30.420  27.252  1.00  0.00     0.163 HD
ATOM     31  O   UNL A   1      34.260  32.118  28.044  1.00  0.00    -0.269 OA
BRANCH  29  32
ATOM     32  C   UNL A   1      35.802  30.256  28.152  1.00  0.00     0.039 A 
ATOM     33  C   UNL A   1      36.841  30.254  27.234  1.00  0.00     0.014 A 
ATOM     34  C   UNL A   1      35.980  29.823  29.393  1.00  0.00     0.014 A 
ATOM     35  C   UNL A   1      37.965  29.499  27.643  1.00  0.00     0.010 A 
ATOM     36  C   UNL A   1      37.157  29.216  29.761  1.00  0.00     0.010 A 
ATOM     37  C   UNL A   1      38.205  29.126  28.887  1.00  0.00    -0.014 A 
BRANCH  37  38
ATOM     38  C   UNL A   1      39.570  28.622  29.324  1.00  0.00     0.031 A 
ATOM     39  C   UNL A   1      40.348  29.520  30.056  1.00  0.00     0.074 A 
ATOM     40  C   UNL A   1      40.024  27.394  28.873  1.00  0.00     0.049 A 
ATOM     41  N   UNL A   1      41.606  29.359  30.469  1.00  0.00    -0.248 NA
ATOM     42  C   UNL A   1      39.879  30.839  30.508  1.00  0.00     0.031 C 
ATOM     43  C   UNL A   1      39.243  26.478  28.141  1.00  0.00     0.029 A 
ATOM     44  N   UNL A   1      41.276  26.844  29.037  1.00  0.00    -0.354 N 
ATOM     45  C   UNL A   1      42.006  30.429  31.159  1.00  0.00     0.074 A 
ATOM     46  C   UNL A   1      40.902  31.399  31.189  1.00  0.00     0.031 C 
ATOM     47  C   UNL A   1      40.016  25.397  27.859  1.00  0.00     0.029 A 
ATOM     48  C   UNL A   1      41.293  25.617  28.409  1.00  0.00     0.049 A 
ATOM     49  H   UNL A   1      42.028  27.255  29.520  1.00  0.00     0.167 HD
ATOM     50  C   UNL A   1      43.246  30.634  31.767  1.00  0.00     0.031 A 
ATOM     51  C   UNL A   1      42.352  24.729  28.311  1.00  0.00     0.031 A 
ATOM     52  C   UNL A   1      44.291  29.725  31.705  1.00  0.00     0.049 A 
ATOM     53  C   UNL A   1      43.611  24.960  28.868  1.00  0.00     0.074 A 
ATOM     54  C   UNL A   1      45.544  29.914  32.318  1.00  0.00     0.029 A 
ATOM     55  N   UNL A   1      44.315  28.511  31.055  1.00  0.00    -0.354 N 
ATOM     56  N   UNL A   1      43.997  26.012  29.592  1.00  0.00    -0.248 NA
ATOM     57  C   UNL A   1      44.750  24.040  28.742  1.00  0.00     0.031 C 
ATOM     58  C   UNL A   1      46.317  28.831  32.035  1.00  0.00     0.029 A 
ATOM     59  C   UNL A   1      45.559  27.950  31.240  1.00  0.00     0.049 A 
ATOM     60  H   UNL A   1      43.572  28.112  30.549  1.00  0.00     0.167 HD
ATOM     61  C   UNL A   1      45.270  25.868  29.969  1.00  0.00     0.074 A 
ATOM     62  C   UNL A   1      45.774  24.601  29.422  1.00  0.00     0.031 C 
ATOM     63  C   UNL A   1      46.028  26.741  30.750  1.00  0.00     0.031 A 
BRANCH  50  64
ATOM     64  C   UNL A   1      43.462  31.924  32.540  1.00  0.00    -0.014 A 
ATOM     65  C   UNL A   1      43.988  32.996  31.836  1.00  0.00     0.009 A 
ATOM     66  C   UNL A   1      43.248  31.998  33.848  1.00  0.00     0.009 A 
ATOM     67  C   UNL A   1      44.526  34.014  32.658  1.00  0.00     0.001 A 
ATOM     68  C   UNL A   1      43.682  33.085  34.568  1.00  0.00     0.001 A 
ATOM     69  C   UNL A   1      44.263  34.155  33.945  1.00  0.00     0.000 A 
ENDBRANCH  50  64
BRANCH  51  70
ATOM     70  C   UNL A   1      42.130  23.431  27.552  1.00  0.00    -0.014 A 
ATOM     71  C   UNL A   1      41.564  22.394  28.275  1.00  0.00     0.009 A 
ATOM     72  C   UNL A   1      42.390  23.305  26.256  1.00  0.00     0.009 A 
ATOM     73  C   UNL A   1      41.575  21.151  27.599  1.00  0.00     0.001 A 
ATOM     74  C   UNL A   1      42.250  22.090  25.629  1.00  0.00     0.001 A 
ATOM     75  C   UNL A   1      41.752  21.007  26.298  1.00  0.00     0.000 A 
ENDBRANCH  51  70
BRANCH  63  76
ATOM     76  C   UNL A   1      47.456  26.341  31.086  1.00  0.00    -0.014 A 
ATOM     77  C   UNL A   1      48.503  26.551  30.202  1.00  0.00     0.009 A 
ATOM     78  C   UNL A   1      47.665  25.824  32.290  1.00  0.00     0.009 A 
ATOM     79  C   UNL A   1      49.708  25.911  30.578  1.00  0.00     0.001 A 
ATOM     80  C   UNL A   1      48.903  25.339  32.638  1.00  0.00     0.001 A 
ATOM     81  C   UNL A   1      49.969  25.460  31.791  1.00  0.00     0.000 A 
ENDBRANCH  63  76
ENDBRANCH  37  38
ENDBRANCH  29  32
ENDBRANCH  27  28
ENDBRANCH   1  27
TORSDOF 12
ENDMDL
