MODEL 1
REMARK VINA RESULT:     -11.9      0.000      0.000
REMARK SMILES COc1cccc(NC(=O)[C@@H]2[C@@H](C(=O)NCCCNC(=O)c3ccc(-c4c5nc(c(-c6ccccc6)c6ccc([nH]6)c(-c6ccccc6)c6nc(c(-c7ccccc7)c7ccc4[nH]7)C=C6)C=C5)cc3)[C@H]3C=C[C@@H]2C3)c1
REMARK SMILES IDX 16 1 15 2 13 3 14 4 12 6 11 7 73 8 70 9 72 10 74 11 71 12
REMARK SMILES IDX 9 13 8 14 10 16 7 17 3 18 4 19 75 20 5 21 6 22 2 23 1 24
REMARK SMILES IDX 17 25 18 26 19 27 20 28 21 30 22 31 23 32 69 33 24 34 68 35
REMARK SMILES IDX 25 36 26 37 27 38 62 39 28 40 67 41 61 42 63 43 29 44 66 45
REMARK SMILES IDX 60 46 59 47 30 49 52 50 37 51 51 52 38 53 41 54 50 55 64 56
REMARK SMILES IDX 39 57 40 58 49 60 65 61 42 62 31 63 32 64 36 65 33 66 35 67
REMARK SMILES IDX 34 68 53 69 54 70 58 71 55 72 57 73 56 74 43 75 44 76 48 77
REMARK SMILES IDX 45 78 47 79 46 80
REMARK H PARENT 15 5 8 15 19 29 63 48 41 59
REMARK Flexibility Score: inf
ROOT
ATOM      1  C   UNL A   1      37.157  20.938  24.588  1.00  0.00     0.117 C 
ENDROOT
BRANCH   1   2
ATOM      2  N   UNL A   1      37.604  22.150  25.245  1.00  0.00    -0.356 N 
ATOM      3  C   UNL A   1      36.941  23.186  25.819  1.00  0.00     0.224 C 
ATOM      4  O   UNL A   1      37.658  24.071  26.301  1.00  0.00    -0.275 OA
ATOM      5  H   UNL A   1      38.584  22.240  25.282  1.00  0.00     0.163 HD
BRANCH   3   6
ATOM      6  C   UNL A   1      35.423  23.229  25.993  1.00  0.00     0.098 C 
ATOM      7  C   UNL A   1      34.553  22.045  25.450  1.00  0.00     0.099 C 
ATOM      8  C   UNL A   1      33.528  22.752  24.526  1.00  0.00     0.025 C 
ATOM      9  C   UNL A   1      34.836  24.432  25.189  1.00  0.00     0.025 C 
ATOM     10  C   UNL A   1      34.289  23.211  23.306  1.00  0.00    -0.027 C 
ATOM     11  C   UNL A   1      33.344  24.104  25.221  1.00  0.00     0.017 C 
ATOM     12  C   UNL A   1      35.078  24.219  23.703  1.00  0.00    -0.027 C 
BRANCH   7  13
ATOM     13  C   UNL A   1      33.824  21.258  26.523  1.00  0.00     0.228 C 
ATOM     14  N   UNL A   1      33.207  20.069  26.263  1.00  0.00    -0.326 N 
ATOM     15  H   UNL A   1      32.699  19.736  27.037  1.00  0.00     0.169 HD
ATOM     16  O   UNL A   1      33.747  21.677  27.682  1.00  0.00    -0.274 OA
BRANCH  14  17
ATOM     17  C   UNL A   1      33.123  19.201  25.155  1.00  0.00     0.044 A 
ATOM     18  C   UNL A   1      33.823  17.051  24.229  1.00  0.00     0.120 A 
ATOM     19  C   UNL A   1      33.120  17.325  23.060  1.00  0.00     0.046 A 
ATOM     20  C   UNL A   1      33.843  17.998  25.260  1.00  0.00     0.072 A 
ATOM     21  C   UNL A   1      32.417  18.517  22.934  1.00  0.00     0.006 A 
ATOM     22  C   UNL A   1      32.417  19.446  23.979  1.00  0.00     0.026 A 
BRANCH  18  23
ATOM     23  O   UNL A   1      34.473  15.849  24.242  1.00  0.00    -0.497 OA
ATOM     24  C   UNL A   1      35.459  15.685  25.255  1.00  0.00     0.278 C 
ENDBRANCH  18  23
ENDBRANCH  14  17
ENDBRANCH   7  13
ENDBRANCH   3   6
ENDBRANCH   1   2
BRANCH   1  25
ATOM     25  C   UNL A   1      38.067  19.750  24.906  1.00  0.00     0.042 C 
BRANCH  25  26
ATOM     26  C   UNL A   1      39.060  19.997  26.036  1.00  0.00     0.118 C 
BRANCH  26  27
ATOM     27  N   UNL A   1      40.293  19.249  25.866  1.00  0.00    -0.352 N 
ATOM     28  C   UNL A   1      41.600  19.656  25.962  1.00  0.00     0.251 C 
ATOM     29  H   UNL A   1      40.172  18.296  25.648  1.00  0.00     0.163 HD
ATOM     30  O   UNL A   1      42.492  18.894  25.591  1.00  0.00    -0.269 OA
BRANCH  28  31
ATOM     31  C   UNL A   1      41.963  20.996  26.486  1.00  0.00     0.039 A 
ATOM     32  C   UNL A   1      41.965  21.189  27.872  1.00  0.00     0.014 A 
ATOM     33  C   UNL A   1      42.227  22.078  25.641  1.00  0.00     0.014 A 
ATOM     34  C   UNL A   1      42.276  22.442  28.409  1.00  0.00     0.010 A 
ATOM     35  C   UNL A   1      42.601  23.311  26.177  1.00  0.00     0.010 A 
ATOM     36  C   UNL A   1      42.620  23.509  27.566  1.00  0.00    -0.014 A 
BRANCH  36  37
ATOM     37  C   UNL A   1      42.987  24.839  28.119  1.00  0.00     0.031 A 
ATOM     38  C   UNL A   1      41.930  25.883  28.358  1.00  0.00     0.074 A 
ATOM     39  C   UNL A   1      44.280  25.129  28.361  1.00  0.00     0.049 A 
ATOM     40  N   UNL A   1      42.068  27.117  28.773  1.00  0.00    -0.248 NA
ATOM     41  C   UNL A   1      40.539  25.497  28.074  1.00  0.00     0.031 C 
ATOM     42  C   UNL A   1      45.408  24.220  28.151  1.00  0.00     0.029 A 
ATOM     43  N   UNL A   1      44.863  26.280  28.831  1.00  0.00    -0.354 N 
ATOM     44  C   UNL A   1      40.788  27.660  28.778  1.00  0.00     0.074 A 
ATOM     45  C   UNL A   1      39.893  26.633  28.292  1.00  0.00     0.031 C 
ATOM     46  C   UNL A   1      46.544  24.841  28.509  1.00  0.00     0.029 A 
ATOM     47  C   UNL A   1      46.230  26.200  28.940  1.00  0.00     0.049 A 
ATOM     48  H   UNL A   1      44.350  27.086  29.069  1.00  0.00     0.167 HD
ATOM     49  C   UNL A   1      40.390  28.896  29.164  1.00  0.00     0.031 A 
ATOM     50  C   UNL A   1      47.133  27.117  29.334  1.00  0.00     0.031 A 
ATOM     51  C   UNL A   1      41.271  29.915  29.667  1.00  0.00     0.049 A 
ATOM     52  C   UNL A   1      46.666  28.481  29.757  1.00  0.00     0.074 A 
ATOM     53  C   UNL A   1      40.951  31.178  30.136  1.00  0.00     0.029 A 
ATOM     54  N   UNL A   1      42.647  29.788  29.771  1.00  0.00    -0.354 N 
ATOM     55  N   UNL A   1      45.447  28.960  29.803  1.00  0.00    -0.248 NA
ATOM     56  C   UNL A   1      47.703  29.430  30.190  1.00  0.00     0.031 C 
ATOM     57  C   UNL A   1      42.138  31.829  30.487  1.00  0.00     0.029 A 
ATOM     58  C   UNL A   1      43.193  30.955  30.278  1.00  0.00     0.049 A 
ATOM     59  H   UNL A   1      43.161  28.986  29.521  1.00  0.00     0.167 HD
ATOM     60  C   UNL A   1      45.567  30.253  30.292  1.00  0.00     0.074 A 
ATOM     61  C   UNL A   1      46.976  30.482  30.539  1.00  0.00     0.031 C 
ATOM     62  C   UNL A   1      44.594  31.168  30.520  1.00  0.00     0.031 A 
BRANCH  49  63
ATOM     63  C   UNL A   1      38.928  29.217  29.048  1.00  0.00    -0.014 A 
ATOM     64  C   UNL A   1      38.369  29.639  27.831  1.00  0.00     0.009 A 
ATOM     65  C   UNL A   1      38.089  29.062  30.163  1.00  0.00     0.009 A 
ATOM     66  C   UNL A   1      37.008  29.932  27.742  1.00  0.00     0.001 A 
ATOM     67  C   UNL A   1      36.723  29.333  30.064  1.00  0.00     0.001 A 
ATOM     68  C   UNL A   1      36.185  29.776  28.857  1.00  0.00     0.000 A 
ENDBRANCH  49  63
BRANCH  50  69
ATOM     69  C   UNL A   1      48.576  26.769  29.365  1.00  0.00    -0.014 A 
ATOM     70  C   UNL A   1      49.390  27.020  28.250  1.00  0.00     0.009 A 
ATOM     71  C   UNL A   1      49.145  26.185  30.506  1.00  0.00     0.009 A 
ATOM     72  C   UNL A   1      50.742  26.676  28.272  1.00  0.00     0.001 A 
ATOM     73  C   UNL A   1      50.504  25.863  30.533  1.00  0.00     0.001 A 
ATOM     74  C   UNL A   1      51.299  26.102  29.414  1.00  0.00     0.000 A 
ENDBRANCH  50  69
BRANCH  62  75
ATOM     75  C   UNL A   1      45.016  32.490  31.092  1.00  0.00    -0.014 A 
ATOM     76  C   UNL A   1      45.337  33.573  30.260  1.00  0.00     0.009 A 
ATOM     77  C   UNL A   1      45.054  32.664  32.484  1.00  0.00     0.009 A 
ATOM     78  C   UNL A   1      45.713  34.799  30.813  1.00  0.00     0.001 A 
ATOM     79  C   UNL A   1      45.409  33.897  33.034  1.00  0.00     0.001 A 
ATOM     80  C   UNL A   1      45.745  34.961  32.198  1.00  0.00     0.000 A 
ENDBRANCH  62  75
ENDBRANCH  36  37
ENDBRANCH  28  31
ENDBRANCH  26  27
ENDBRANCH  25  26
ENDBRANCH   1  25
TORSDOF 13
ENDMDL
MODEL 2
REMARK VINA RESULT:     -11.9      0.499      5.935
REMARK SMILES COc1cccc(NC(=O)[C@@H]2[C@@H](C(=O)NCCCNC(=O)c3ccc(-c4c5nc(c(-c6ccccc6)c6ccc([nH]6)c(-c6ccccc6)c6nc(c(-c7ccccc7)c7ccc4[nH]7)C=C6)C=C5)cc3)[C@H]3C=C[C@@H]2C3)c1
REMARK SMILES IDX 16 1 15 2 13 3 14 4 12 6 11 7 73 8 70 9 72 10 74 11 71 12
REMARK SMILES IDX 9 13 8 14 10 16 7 17 3 18 4 19 75 20 5 21 6 22 2 23 1 24
REMARK SMILES IDX 17 25 18 26 19 27 20 28 21 30 22 31 23 32 69 33 24 34 68 35
REMARK SMILES IDX 25 36 26 37 27 38 62 39 28 40 67 41 61 42 63 43 29 44 66 45
REMARK SMILES IDX 60 46 59 47 30 49 52 50 37 51 51 52 38 53 41 54 50 55 64 56
REMARK SMILES IDX 39 57 40 58 49 60 65 61 42 62 31 63 32 64 36 65 33 66 35 67
REMARK SMILES IDX 34 68 53 69 54 70 58 71 55 72 57 73 56 74 43 75 44 76 48 77
REMARK SMILES IDX 45 78 47 79 46 80
REMARK H PARENT 15 5 8 15 19 29 63 48 41 59
REMARK Flexibility Score: inf
ROOT
ATOM      1  C   UNL A   1      37.177  20.673  24.752  1.00  0.00     0.117 C 
ENDROOT
BRANCH   1   2
ATOM      2  N   UNL A   1      37.675  21.941  25.245  1.00  0.00    -0.356 N 
ATOM      3  C   UNL A   1      37.059  23.045  25.739  1.00  0.00     0.224 C 
ATOM      4  O   UNL A   1      37.812  23.965  26.079  1.00  0.00    -0.275 OA
ATOM      5  H   UNL A   1      38.657  22.017  25.216  1.00  0.00     0.163 HD
BRANCH   3   6
ATOM      6  C   UNL A   1      35.554  23.133  25.994  1.00  0.00     0.098 C 
ATOM      7  C   UNL A   1      34.620  21.984  25.484  1.00  0.00     0.099 C 
ATOM      8  C   UNL A   1      33.570  22.735  24.625  1.00  0.00     0.025 C 
ATOM      9  C   UNL A   1      34.964  24.364  25.236  1.00  0.00     0.025 C 
ATOM     10  C   UNL A   1      34.280  23.187  23.371  1.00  0.00    -0.027 C 
ATOM     11  C   UNL A   1      33.466  24.083  25.345  1.00  0.00     0.017 C 
ATOM     12  C   UNL A   1      35.121  24.164  23.737  1.00  0.00    -0.027 C 
BRANCH   7  13
ATOM     13  C   UNL A   1      33.924  21.206  26.585  1.00  0.00     0.228 C 
ATOM     14  N   UNL A   1      33.223  20.062  26.339  1.00  0.00    -0.326 N 
ATOM     15  H   UNL A   1      32.751  19.734  27.138  1.00  0.00     0.169 HD
ATOM     16  O   UNL A   1      33.951  21.594  27.757  1.00  0.00    -0.274 OA
BRANCH  14  17
ATOM     17  C   UNL A   1      33.012  19.234  25.217  1.00  0.00     0.044 A 
ATOM     18  C   UNL A   1      33.154  16.955  24.346  1.00  0.00     0.120 A 
ATOM     19  C   UNL A   1      32.694  17.398  23.109  1.00  0.00     0.046 A 
ATOM     20  C   UNL A   1      33.335  17.876  25.385  1.00  0.00     0.072 A 
ATOM     21  C   UNL A   1      32.386  18.740  22.922  1.00  0.00     0.006 A 
ATOM     22  C   UNL A   1      32.541  19.649  23.973  1.00  0.00     0.026 A 
BRANCH  18  23
ATOM     23  O   UNL A   1      33.421  15.617  24.415  1.00  0.00    -0.497 OA
ATOM     24  C   UNL A   1      32.750  14.900  25.445  1.00  0.00     0.278 C 
ENDBRANCH  18  23
ENDBRANCH  14  17
ENDBRANCH   7  13
ENDBRANCH   3   6
ENDBRANCH   1   2
BRANCH   1  25
ATOM     25  C   UNL A   1      38.206  19.554  24.918  1.00  0.00     0.042 C 
BRANCH  25  26
ATOM     26  C   UNL A   1      39.176  19.752  26.078  1.00  0.00     0.118 C 
BRANCH  26  27
ATOM     27  N   UNL A   1      40.453  19.100  25.852  1.00  0.00    -0.352 N 
ATOM     28  C   UNL A   1      41.730  19.597  25.931  1.00  0.00     0.251 C 
ATOM     29  H   UNL A   1      40.395  18.149  25.604  1.00  0.00     0.163 HD
ATOM     30  O   UNL A   1      42.664  18.914  25.512  1.00  0.00    -0.269 OA
BRANCH  28  31
ATOM     31  C   UNL A   1      42.011  20.941  26.493  1.00  0.00     0.039 A 
ATOM     32  C   UNL A   1      42.337  21.976  25.609  1.00  0.00     0.014 A 
ATOM     33  C   UNL A   1      42.029  21.181  27.870  1.00  0.00     0.014 A 
ATOM     34  C   UNL A   1      42.635  23.252  26.098  1.00  0.00     0.010 A 
ATOM     35  C   UNL A   1      42.261  22.470  28.354  1.00  0.00     0.010 A 
ATOM     36  C   UNL A   1      42.575  23.517  27.474  1.00  0.00    -0.014 A 
BRANCH  36  37
ATOM     37  C   UNL A   1      42.853  24.875  28.009  1.00  0.00     0.031 A 
ATOM     38  C   UNL A   1      44.249  25.264  28.412  1.00  0.00     0.074 A 
ATOM     39  C   UNL A   1      41.840  25.747  28.181  1.00  0.00     0.049 A 
ATOM     40  N   UNL A   1      44.672  26.378  28.956  1.00  0.00    -0.248 NA
ATOM     41  C   UNL A   1      45.307  24.265  28.194  1.00  0.00     0.031 C 
ATOM     42  C   UNL A   1      40.436  25.491  27.857  1.00  0.00     0.029 A 
ATOM     43  N   UNL A   1      41.839  27.025  28.682  1.00  0.00    -0.354 N 
ATOM     44  C   UNL A   1      46.034  26.204  29.166  1.00  0.00     0.074 A 
ATOM     45  C   UNL A   1      46.362  24.867  28.723  1.00  0.00     0.031 C 
ATOM     46  C   UNL A   1      39.712  26.584  28.148  1.00  0.00     0.029 A 
ATOM     47  C   UNL A   1      40.594  27.603  28.711  1.00  0.00     0.049 A 
ATOM     48  H   UNL A   1      42.653  27.485  28.990  1.00  0.00     0.167 HD
ATOM     49  C   UNL A   1      46.936  27.081  29.669  1.00  0.00     0.031 A 
ATOM     50  C   UNL A   1      40.200  28.814  29.148  1.00  0.00     0.031 A 
ATOM     51  C   UNL A   1      46.622  28.419  30.092  1.00  0.00     0.049 A 
ATOM     52  C   UNL A   1      41.219  29.769  29.703  1.00  0.00     0.074 A 
ATOM     53  C   UNL A   1      47.481  29.399  30.562  1.00  0.00     0.029 A 
ATOM     54  N   UNL A   1      45.350  28.968  30.095  1.00  0.00    -0.354 N 
ATOM     55  N   UNL A   1      42.511  29.606  29.847  1.00  0.00    -0.248 NA
ATOM     56  C   UNL A   1      40.724  31.080  30.148  1.00  0.00     0.031 C 
ATOM     57  C   UNL A   1      46.721  30.529  30.885  1.00  0.00     0.029 A 
ATOM     58  C   UNL A   1      45.396  30.266  30.575  1.00  0.00     0.049 A 
ATOM     59  H   UNL A   1      44.534  28.504  29.798  1.00  0.00     0.167 HD
ATOM     60  C   UNL A   1      42.986  30.798  30.374  1.00  0.00     0.074 A 
ATOM     61  C   UNL A   1      41.847  31.681  30.516  1.00  0.00     0.031 C 
ATOM     62  C   UNL A   1      44.256  31.133  30.709  1.00  0.00     0.031 A 
BRANCH  49  63
ATOM     63  C   UNL A   1      48.358  26.612  29.797  1.00  0.00    -0.014 A 
ATOM     64  C   UNL A   1      48.795  25.916  30.934  1.00  0.00     0.009 A 
ATOM     65  C   UNL A   1      49.263  26.839  28.748  1.00  0.00     0.009 A 
ATOM     66  C   UNL A   1      50.120  25.488  31.035  1.00  0.00     0.001 A 
ATOM     67  C   UNL A   1      50.581  26.387  28.841  1.00  0.00     0.001 A 
ATOM     68  C   UNL A   1      51.010  25.720  29.987  1.00  0.00     0.000 A 
ENDBRANCH  49  63
BRANCH  50  69
ATOM     69  C   UNL A   1      38.769  29.202  29.062  1.00  0.00    -0.014 A 
ATOM     70  C   UNL A   1      38.256  29.765  27.884  1.00  0.00     0.009 A 
ATOM     71  C   UNL A   1      37.912  29.013  30.156  1.00  0.00     0.009 A 
ATOM     72  C   UNL A   1      36.916  30.147  27.809  1.00  0.00     0.001 A 
ATOM     73  C   UNL A   1      36.566  29.375  30.071  1.00  0.00     0.001 A 
ATOM     74  C   UNL A   1      36.071  29.948  28.900  1.00  0.00     0.000 A 
ENDBRANCH  50  69
BRANCH  62  75
ATOM     75  C   UNL A   1      44.485  32.521  31.230  1.00  0.00    -0.014 A 
ATOM     76  C   UNL A   1      44.751  33.590  30.360  1.00  0.00     0.009 A 
ATOM     77  C   UNL A   1      44.395  32.769  32.609  1.00  0.00     0.009 A 
ATOM     78  C   UNL A   1      44.947  34.877  30.865  1.00  0.00     0.001 A 
ATOM     79  C   UNL A   1      44.569  34.061  33.108  1.00  0.00     0.001 A 
ATOM     80  C   UNL A   1      44.852  35.112  32.237  1.00  0.00     0.000 A 
ENDBRANCH  62  75
ENDBRANCH  36  37
ENDBRANCH  28  31
ENDBRANCH  26  27
ENDBRANCH  25  26
ENDBRANCH   1  25
TORSDOF 13
ENDMDL
MODEL 3
REMARK VINA RESULT:     -11.7      5.101      9.891
REMARK SMILES COc1cccc(NC(=O)[C@@H]2[C@@H](C(=O)NCCCNC(=O)c3ccc(-c4c5nc(c(-c6ccccc6)c6ccc([nH]6)c(-c6ccccc6)c6nc(c(-c7ccccc7)c7ccc4[nH]7)C=C6)C=C5)cc3)[C@H]3C=C[C@@H]2C3)c1
REMARK SMILES IDX 16 1 15 2 13 3 14 4 12 6 11 7 73 8 70 9 72 10 74 11 71 12
REMARK SMILES IDX 9 13 8 14 10 16 7 17 3 18 4 19 75 20 5 21 6 22 2 23 1 24
REMARK SMILES IDX 17 25 18 26 19 27 20 28 21 30 22 31 23 32 69 33 24 34 68 35
REMARK SMILES IDX 25 36 26 37 27 38 62 39 28 40 67 41 61 42 63 43 29 44 66 45
REMARK SMILES IDX 60 46 59 47 30 49 52 50 37 51 51 52 38 53 41 54 50 55 64 56
REMARK SMILES IDX 39 57 40 58 49 60 65 61 42 62 31 63 32 64 36 65 33 66 35 67
REMARK SMILES IDX 34 68 53 69 54 70 58 71 55 72 57 73 56 74 43 75 44 76 48 77
REMARK SMILES IDX 45 78 47 79 46 80
REMARK H PARENT 15 5 8 15 19 29 63 48 41 59
REMARK Flexibility Score: inf
ROOT
ATOM      1  C   UNL A   1      31.722  30.283  26.693  1.00  0.00     0.117 C 
ENDROOT
BRANCH   1   2
ATOM      2  N   UNL A   1      33.088  29.952  27.050  1.00  0.00    -0.356 N 
ATOM      3  C   UNL A   1      33.974  29.046  26.565  1.00  0.00     0.224 C 
ATOM      4  O   UNL A   1      35.081  29.040  27.117  1.00  0.00    -0.275 OA
ATOM      5  H   UNL A   1      33.442  30.493  27.793  1.00  0.00     0.163 HD
BRANCH   3   6
ATOM      6  C   UNL A   1      33.706  28.169  25.342  1.00  0.00     0.098 C 
ATOM      7  C   UNL A   1      32.367  28.343  24.550  1.00  0.00     0.099 C 
ATOM      8  C   UNL A   1      31.771  26.912  24.540  1.00  0.00     0.025 C 
ATOM      9  C   UNL A   1      33.610  26.674  25.779  1.00  0.00     0.025 C 
ATOM     10  C   UNL A   1      31.306  26.627  25.948  1.00  0.00    -0.027 C 
ATOM     11  C   UNL A   1      33.028  26.038  24.516  1.00  0.00     0.017 C 
ATOM     12  C   UNL A   1      32.410  26.486  26.694  1.00  0.00    -0.027 C 
BRANCH   7  13
ATOM     13  C   UNL A   1      32.539  28.840  23.127  1.00  0.00     0.228 C 
ATOM     14  N   UNL A   1      31.484  29.251  22.365  1.00  0.00    -0.326 N 
ATOM     15  H   UNL A   1      31.749  29.449  21.437  1.00  0.00     0.169 HD
ATOM     16  O   UNL A   1      33.652  28.876  22.592  1.00  0.00    -0.274 OA
BRANCH  14  17
ATOM     17  C   UNL A   1      30.108  29.463  22.584  1.00  0.00     0.044 A 
ATOM     18  C   UNL A   1      28.360  31.139  22.912  1.00  0.00     0.120 A 
ATOM     19  C   UNL A   1      27.414  30.127  23.046  1.00  0.00     0.046 A 
ATOM     20  C   UNL A   1      29.703  30.804  22.707  1.00  0.00     0.072 A 
ATOM     21  C   UNL A   1      27.800  28.796  22.943  1.00  0.00     0.006 A 
ATOM     22  C   UNL A   1      29.139  28.469  22.709  1.00  0.00     0.026 A 
BRANCH  18  23
ATOM     23  O   UNL A   1      27.866  32.408  23.028  1.00  0.00    -0.497 OA
ATOM     24  C   UNL A   1      28.831  33.454  23.035  1.00  0.00     0.278 C 
ENDBRANCH  18  23
ENDBRANCH  14  17
ENDBRANCH   7  13
ENDBRANCH   3   6
ENDBRANCH   1   2
BRANCH   1  25
ATOM     25  C   UNL A   1      31.457  31.786  26.790  1.00  0.00     0.042 C 
BRANCH  25  26
ATOM     26  C   UNL A   1      32.712  32.645  26.906  1.00  0.00     0.118 C 
BRANCH  26  27
ATOM     27  N   UNL A   1      32.482  33.867  27.656  1.00  0.00    -0.352 N 
ATOM     28  C   UNL A   1      33.179  34.407  28.708  1.00  0.00     0.251 C 
ATOM     29  H   UNL A   1      31.702  34.392  27.364  1.00  0.00     0.163 HD
ATOM     30  O   UNL A   1      32.695  35.360  29.318  1.00  0.00    -0.269 OA
BRANCH  28  31
ATOM     31  C   UNL A   1      34.491  33.863  29.136  1.00  0.00     0.039 A 
ATOM     32  C   UNL A   1      34.522  32.983  30.224  1.00  0.00     0.014 A 
ATOM     33  C   UNL A   1      35.690  34.258  28.537  1.00  0.00     0.014 A 
ATOM     34  C   UNL A   1      35.740  32.466  30.678  1.00  0.00     0.010 A 
ATOM     35  C   UNL A   1      36.899  33.693  28.947  1.00  0.00     0.010 A 
ATOM     36  C   UNL A   1      36.938  32.798  30.028  1.00  0.00    -0.014 A 
BRANCH  36  37
ATOM     37  C   UNL A   1      38.237  32.231  30.473  1.00  0.00     0.031 A 
ATOM     38  C   UNL A   1      38.741  30.937  29.895  1.00  0.00     0.074 A 
ATOM     39  C   UNL A   1      38.945  32.854  31.436  1.00  0.00     0.049 A 
ATOM     40  N   UNL A   1      39.817  30.257  30.205  1.00  0.00    -0.248 NA
ATOM     41  C   UNL A   1      37.919  30.313  28.847  1.00  0.00     0.031 C 
ATOM     42  C   UNL A   1      38.561  34.101  32.099  1.00  0.00     0.029 A 
ATOM     43  N   UNL A   1      40.135  32.513  32.029  1.00  0.00    -0.354 N 
ATOM     44  C   UNL A   1      39.789  29.119  29.409  1.00  0.00     0.074 A 
ATOM     45  C   UNL A   1      38.573  29.181  28.627  1.00  0.00     0.031 C 
ATOM     46  C   UNL A   1      39.507  34.431  32.994  1.00  0.00     0.029 A 
ATOM     47  C   UNL A   1      40.544  33.404  32.991  1.00  0.00     0.049 A 
ATOM     48  H   UNL A   1      40.648  31.709  31.787  1.00  0.00     0.167 HD
ATOM     49  C   UNL A   1      40.696  28.117  29.325  1.00  0.00     0.031 A 
ATOM     50  C   UNL A   1      41.628  33.393  33.791  1.00  0.00     0.031 A 
ATOM     51  C   UNL A   1      41.917  28.058  30.083  1.00  0.00     0.049 A 
ATOM     52  C   UNL A   1      42.620  32.271  33.679  1.00  0.00     0.074 A 
ATOM     53  C   UNL A   1      42.925  27.110  30.023  1.00  0.00     0.029 A 
ATOM     54  N   UNL A   1      42.297  28.986  31.040  1.00  0.00    -0.354 N 
ATOM     55  N   UNL A   1      42.602  31.229  32.884  1.00  0.00    -0.248 NA
ATOM     56  C   UNL A   1      43.788  32.329  34.570  1.00  0.00     0.031 C 
ATOM     57  C   UNL A   1      43.898  27.446  30.971  1.00  0.00     0.029 A 
ATOM     58  C   UNL A   1      43.516  28.625  31.590  1.00  0.00     0.049 A 
ATOM     59  H   UNL A   1      41.778  29.784  31.290  1.00  0.00     0.167 HD
ATOM     60  C   UNL A   1      43.764  30.523  33.161  1.00  0.00     0.074 A 
ATOM     61  C   UNL A   1      44.470  31.258  34.189  1.00  0.00     0.031 C 
ATOM     62  C   UNL A   1      44.207  29.367  32.610  1.00  0.00     0.031 A 
BRANCH  49  63
ATOM     63  C   UNL A   1      40.396  26.991  28.376  1.00  0.00    -0.014 A 
ATOM     64  C   UNL A   1      39.591  25.908  28.763  1.00  0.00     0.009 A 
ATOM     65  C   UNL A   1      40.897  27.032  27.065  1.00  0.00     0.009 A 
ATOM     66  C   UNL A   1      39.322  24.872  27.867  1.00  0.00     0.001 A 
ATOM     67  C   UNL A   1      40.606  26.006  26.164  1.00  0.00     0.001 A 
ATOM     68  C   UNL A   1      39.827  24.923  26.568  1.00  0.00     0.000 A 
ENDBRANCH  49  63
BRANCH  50  69
ATOM     69  C   UNL A   1      41.842  34.497  34.761  1.00  0.00    -0.014 A 
ATOM     70  C   UNL A   1      41.348  34.395  36.070  1.00  0.00     0.009 A 
ATOM     71  C   UNL A   1      42.538  35.654  34.383  1.00  0.00     0.009 A 
ATOM     72  C   UNL A   1      41.532  35.440  36.977  1.00  0.00     0.001 A 
ATOM     73  C   UNL A   1      42.742  36.688  35.300  1.00  0.00     0.001 A 
ATOM     74  C   UNL A   1      42.232  36.583  36.593  1.00  0.00     0.000 A 
ENDBRANCH  50  69
BRANCH  62  75
ATOM     75  C   UNL A   1      45.532  28.844  33.084  1.00  0.00    -0.014 A 
ATOM     76  C   UNL A   1      45.618  27.969  34.178  1.00  0.00     0.009 A 
ATOM     77  C   UNL A   1      46.704  29.201  32.401  1.00  0.00     0.009 A 
ATOM     78  C   UNL A   1      46.859  27.482  34.594  1.00  0.00     0.001 A 
ATOM     79  C   UNL A   1      47.941  28.695  32.805  1.00  0.00     0.001 A 
ATOM     80  C   UNL A   1      48.018  27.842  33.905  1.00  0.00     0.000 A 
ENDBRANCH  62  75
ENDBRANCH  36  37
ENDBRANCH  28  31
ENDBRANCH  26  27
ENDBRANCH  25  26
ENDBRANCH   1  25
TORSDOF 13
ENDMDL
