MODEL 1
REMARK VINA RESULT:     -11.5      0.000      0.000
REMARK SMILES O=C(NCCCNC(=O)[C@H]1CCCC[C@@H]1C(=O)Nc1ccc(Br)c(Cl)c1)c1ccc(-c2c3nc(c(-c4ccccc4)c4ccc([nH]4)c(-c4ccccc4)c4nc(c(-c5ccccc5)c5ccc2[nH]5)C=C4)C=C3)cc1
REMARK SMILES IDX 5 1 4 2 3 3 1 4 2 5 27 7 28 8 74 9 29 10 73 11 30 12 31 13
REMARK SMILES IDX 32 14 67 15 33 16 72 17 66 18 68 19 34 20 71 21 65 22 64 23
REMARK SMILES IDX 35 25 57 26 42 27 56 28 43 29 46 30 55 31 69 32 44 33 45 34
REMARK SMILES IDX 54 36 70 37 47 38 36 39 37 40 41 41 38 42 40 43 39 44 58 45
REMARK SMILES IDX 59 46 63 47 60 48 62 49 61 50 48 51 49 52 53 53 50 54 52 55
REMARK SMILES IDX 51 56 6 57 7 58 8 59 9 61 10 62 11 63 15 64 12 65 14 66
REMARK SMILES IDX 13 67 16 68 17 69 18 70 19 72 20 73 26 74 21 75 24 76 22 77
REMARK SMILES IDX 25 78 23 79
REMARK H PARENT 3 6 68 24 46 35 7 60 18 71
REMARK Flexibility Score: inf
ROOT
ATOM      1  C   UNL A   1      32.310  29.103  27.081  1.00  0.00     0.042 C 
ENDROOT
BRANCH   1   2
ATOM      2  C   UNL A   1      33.786  29.440  27.231  1.00  0.00     0.118 C 
BRANCH   2   3
ATOM      3  N   UNL A   1      33.992  30.608  28.070  1.00  0.00    -0.352 N 
ATOM      4  O   UNL A   1      34.897  31.871  29.680  1.00  0.00    -0.269 OA
ATOM      5  C   UNL A   1      35.045  30.952  28.879  1.00  0.00     0.251 C 
ATOM      6  H   UNL A   1      33.255  31.259  28.056  1.00  0.00     0.163 HD
BRANCH   5   7
ATOM      7  C   UNL A   1      36.351  30.258  28.796  1.00  0.00     0.039 A 
ATOM      8  C   UNL A   1      36.871  29.683  29.960  1.00  0.00     0.014 A 
ATOM      9  C   UNL A   1      37.122  30.264  27.630  1.00  0.00     0.014 A 
ATOM     10  C   UNL A   1      38.155  29.133  29.959  1.00  0.00     0.010 A 
ATOM     11  C   UNL A   1      38.362  29.631  27.601  1.00  0.00     0.010 A 
ATOM     12  C   UNL A   1      38.914  29.109  28.778  1.00  0.00    -0.014 A 
BRANCH  12  13
ATOM     13  C   UNL A   1      40.329  28.663  28.791  1.00  0.00     0.031 A 
ATOM     14  C   UNL A   1      40.662  27.240  28.416  1.00  0.00     0.074 A 
ATOM     15  C   UNL A   1      41.311  29.520  29.129  1.00  0.00     0.049 A 
ATOM     16  N   UNL A   1      41.829  26.649  28.372  1.00  0.00    -0.248 NA
ATOM     17  C   UNL A   1      39.535  26.357  28.067  1.00  0.00     0.031 C 
ATOM     18  C   UNL A   1      41.119  30.917  29.523  1.00  0.00     0.029 A 
ATOM     19  N   UNL A   1      42.672  29.343  29.178  1.00  0.00    -0.354 N 
ATOM     20  C   UNL A   1      41.570  25.329  28.021  1.00  0.00     0.074 A 
ATOM     21  C   UNL A   1      40.138  25.189  27.911  1.00  0.00     0.031 C 
ATOM     22  C   UNL A   1      42.320  31.484  29.723  1.00  0.00     0.029 A 
ATOM     23  C   UNL A   1      43.362  30.485  29.503  1.00  0.00     0.049 A 
ATOM     24  H   UNL A   1      43.110  28.480  28.998  1.00  0.00     0.167 HD
ATOM     25  C   UNL A   1      42.448  24.328  27.781  1.00  0.00     0.031 A 
ATOM     26  C   UNL A   1      44.688  30.707  29.592  1.00  0.00     0.031 A 
ATOM     27  C   UNL A   1      43.875  24.478  27.839  1.00  0.00     0.049 A 
ATOM     28  C   UNL A   1      45.646  29.586  29.292  1.00  0.00     0.074 A 
ATOM     29  C   UNL A   1      44.850  23.533  27.575  1.00  0.00     0.029 A 
ATOM     30  N   UNL A   1      44.529  25.657  28.162  1.00  0.00    -0.354 N 
ATOM     31  N   UNL A   1      45.384  28.352  28.935  1.00  0.00    -0.248 NA
ATOM     32  C   UNL A   1      47.080  29.893  29.388  1.00  0.00     0.031 C 
ATOM     33  C   UNL A   1      46.097  24.131  27.770  1.00  0.00     0.029 A 
ATOM     34  C   UNL A   1      45.896  25.461  28.102  1.00  0.00     0.049 A 
ATOM     35  H   UNL A   1      44.087  26.503  28.397  1.00  0.00     0.167 HD
ATOM     36  C   UNL A   1      46.617  27.748  28.726  1.00  0.00     0.074 A 
ATOM     37  C   UNL A   1      47.627  28.751  28.992  1.00  0.00     0.031 C 
ATOM     38  C   UNL A   1      46.886  26.477  28.344  1.00  0.00     0.031 A 
BRANCH  25  39
ATOM     39  C   UNL A   1      41.894  22.980  27.414  1.00  0.00    -0.014 A 
ATOM     40  C   UNL A   1      41.504  22.722  26.090  1.00  0.00     0.009 A 
ATOM     41  C   UNL A   1      41.689  21.991  28.388  1.00  0.00     0.009 A 
ATOM     42  C   UNL A   1      40.912  21.505  25.751  1.00  0.00     0.001 A 
ATOM     43  C   UNL A   1      41.124  20.763  28.041  1.00  0.00     0.001 A 
ATOM     44  C   UNL A   1      40.728  20.524  26.725  1.00  0.00     0.000 A 
ENDBRANCH  25  39
BRANCH  26  45
ATOM     45  C   UNL A   1      45.187  32.069  29.911  1.00  0.00    -0.014 A 
ATOM     46  C   UNL A   1      45.428  32.459  31.237  1.00  0.00     0.009 A 
ATOM     47  C   UNL A   1      45.400  33.000  28.881  1.00  0.00     0.009 A 
ATOM     48  C   UNL A   1      45.862  33.755  31.527  1.00  0.00     0.001 A 
ATOM     49  C   UNL A   1      45.859  34.287  29.172  1.00  0.00     0.001 A 
ATOM     50  C   UNL A   1      46.083  34.665  30.494  1.00  0.00     0.000 A 
ENDBRANCH  26  45
BRANCH  38  51
ATOM     51  C   UNL A   1      48.322  26.093  28.135  1.00  0.00    -0.014 A 
ATOM     52  C   UNL A   1      49.072  25.611  29.221  1.00  0.00     0.009 A 
ATOM     53  C   UNL A   1      48.963  26.312  26.907  1.00  0.00     0.009 A 
ATOM     54  C   UNL A   1      50.438  25.365  29.085  1.00  0.00     0.001 A 
ATOM     55  C   UNL A   1      50.325  26.040  26.767  1.00  0.00     0.001 A 
ATOM     56  C   UNL A   1      51.062  25.577  27.857  1.00  0.00     0.000 A 
ENDBRANCH  38  51
ENDBRANCH  12  13
ENDBRANCH   5   7
ENDBRANCH   2   3
ENDBRANCH   1   2
BRANCH   1  57
ATOM     57  C   UNL A   1      31.795  29.272  25.658  1.00  0.00     0.117 C 
BRANCH  57  58
ATOM     58  N   UNL A   1      32.530  28.472  24.707  1.00  0.00    -0.356 N 
ATOM     59  C   UNL A   1      32.656  27.131  24.548  1.00  0.00     0.223 C 
ATOM     60  H   UNL A   1      33.034  29.001  24.047  1.00  0.00     0.163 HD
ATOM     61  O   UNL A   1      33.326  26.790  23.568  1.00  0.00    -0.275 OA
BRANCH  59  62
ATOM     62  C   UNL A   1      31.948  26.093  25.448  1.00  0.00     0.091 C 
ATOM     63  C   UNL A   1      30.430  26.115  25.156  1.00  0.00     0.014 C 
ATOM     64  C   UNL A   1      32.473  24.650  25.359  1.00  0.00     0.091 C 
ATOM     65  C   UNL A   1      30.085  25.522  23.788  1.00  0.00     0.001 C 
ATOM     66  C   UNL A   1      32.124  24.020  23.992  1.00  0.00     0.014 C 
ATOM     67  C   UNL A   1      30.650  24.122  23.602  1.00  0.00     0.001 C 
BRANCH  64  68
ATOM     68  C   UNL A   1      31.994  23.746  26.514  1.00  0.00     0.228 C 
ATOM     69  O   UNL A   1      31.054  24.068  27.245  1.00  0.00    -0.274 OA
ATOM     70  N   UNL A   1      32.501  22.484  26.676  1.00  0.00    -0.326 N 
ATOM     71  H   UNL A   1      31.953  21.890  27.239  1.00  0.00     0.169 HD
BRANCH  70  72
ATOM     72  C   UNL A   1      33.666  21.897  26.178  1.00  0.00     0.042 A 
ATOM     73  C   UNL A   1      33.636  20.692  25.476  1.00  0.00     0.027 A 
ATOM     74  C   UNL A   1      34.870  22.591  26.299  1.00  0.00     0.047 A 
ATOM     75  C   UNL A   1      34.824  20.125  25.002  1.00  0.00     0.019 A 
ATOM     76  C   UNL A   1      36.064  22.019  25.844  1.00  0.00     0.057 A 
ATOM     77  C   UNL A   1      36.043  20.771  25.212  1.00  0.00     0.036 A 
ATOM     78  Cl  UNL A   1      37.524  22.901  26.118  1.00  0.00    -0.083 Cl
ATOM     79  Br  UNL A   1      37.616  19.887  24.624  1.00  0.00    -0.049 Br
ENDBRANCH  70  72
ENDBRANCH  64  68
ENDBRANCH  59  62
ENDBRANCH  57  58
ENDBRANCH   1  57
TORSDOF 12
ENDMDL
MODEL 2
REMARK VINA RESULT:     -11.5      1.795      2.644
REMARK SMILES O=C(NCCCNC(=O)[C@H]1CCCC[C@@H]1C(=O)Nc1ccc(Br)c(Cl)c1)c1ccc(-c2c3nc(c(-c4ccccc4)c4ccc([nH]4)c(-c4ccccc4)c4nc(c(-c5ccccc5)c5ccc2[nH]5)C=C4)C=C3)cc1
REMARK SMILES IDX 5 1 4 2 3 3 1 4 2 5 27 7 28 8 74 9 29 10 73 11 30 12 31 13
REMARK SMILES IDX 32 14 67 15 33 16 72 17 66 18 68 19 34 20 71 21 65 22 64 23
REMARK SMILES IDX 35 25 57 26 42 27 56 28 43 29 46 30 55 31 69 32 44 33 45 34
REMARK SMILES IDX 54 36 70 37 47 38 36 39 37 40 41 41 38 42 40 43 39 44 58 45
REMARK SMILES IDX 59 46 63 47 60 48 62 49 61 50 48 51 49 52 53 53 50 54 52 55
REMARK SMILES IDX 51 56 6 57 7 58 8 59 9 61 10 62 11 63 15 64 12 65 14 66
REMARK SMILES IDX 13 67 16 68 17 69 18 70 19 72 20 73 26 74 21 75 24 76 22 77
REMARK SMILES IDX 25 78 23 79
REMARK H PARENT 3 6 68 24 46 35 7 60 18 71
REMARK Flexibility Score: inf
ROOT
ATOM      1  C   UNL A   1      33.916  28.341  26.102  1.00  0.00     0.042 C 
ENDROOT
BRANCH   1   2
ATOM      2  C   UNL A   1      33.358  28.791  27.443  1.00  0.00     0.118 C 
BRANCH   2   3
ATOM      3  N   UNL A   1      33.574  30.210  27.671  1.00  0.00    -0.352 N 
ATOM      4  O   UNL A   1      34.511  32.054  28.522  1.00  0.00    -0.269 OA
ATOM      5  C   UNL A   1      34.647  30.876  28.204  1.00  0.00     0.251 C 
ATOM      6  H   UNL A   1      32.825  30.787  27.398  1.00  0.00     0.163 HD
BRANCH   5   7
ATOM      7  C   UNL A   1      35.961  30.216  28.387  1.00  0.00     0.039 A 
ATOM      8  C   UNL A   1      36.241  29.629  29.625  1.00  0.00     0.014 A 
ATOM      9  C   UNL A   1      36.960  30.266  27.409  1.00  0.00     0.014 A 
ATOM     10  C   UNL A   1      37.513  29.111  29.885  1.00  0.00     0.010 A 
ATOM     11  C   UNL A   1      38.195  29.664  27.632  1.00  0.00     0.010 A 
ATOM     12  C   UNL A   1      38.503  29.132  28.891  1.00  0.00    -0.014 A 
BRANCH  12  13
ATOM     13  C   UNL A   1      39.896  28.720  29.194  1.00  0.00     0.031 A 
ATOM     14  C   UNL A   1      40.384  27.365  28.746  1.00  0.00     0.074 A 
ATOM     15  C   UNL A   1      40.721  29.550  29.860  1.00  0.00     0.049 A 
ATOM     16  N   UNL A   1      41.557  26.811  28.918  1.00  0.00    -0.248 NA
ATOM     17  C   UNL A   1      39.421  26.508  28.032  1.00  0.00     0.031 C 
ATOM     18  C   UNL A   1      40.367  30.880  30.358  1.00  0.00     0.029 A 
ATOM     19  N   UNL A   1      42.039  29.399  30.217  1.00  0.00    -0.354 N 
ATOM     20  C   UNL A   1      41.461  25.542  28.361  1.00  0.00     0.074 A 
ATOM     21  C   UNL A   1      40.105  25.383  27.890  1.00  0.00     0.031 C 
ATOM     22  C   UNL A   1      41.454  31.444  30.909  1.00  0.00     0.029 A 
ATOM     23  C   UNL A   1      42.570  30.506  30.832  1.00  0.00     0.049 A 
ATOM     24  H   UNL A   1      42.553  28.577  30.047  1.00  0.00     0.167 HD
ATOM     25  C   UNL A   1      42.422  24.600  28.225  1.00  0.00     0.031 A 
ATOM     26  C   UNL A   1      43.823  30.746  31.266  1.00  0.00     0.031 A 
ATOM     27  C   UNL A   1      43.785  24.775  28.645  1.00  0.00     0.049 A 
ATOM     28  C   UNL A   1      44.883  29.695  31.078  1.00  0.00     0.074 A 
ATOM     29  C   UNL A   1      44.843  23.894  28.516  1.00  0.00     0.029 A 
ATOM     30  N   UNL A   1      44.279  25.917  29.253  1.00  0.00    -0.354 N 
ATOM     31  N   UNL A   1      44.780  28.511  30.524  1.00  0.00    -0.248 NA
ATOM     32  C   UNL A   1      46.235  30.020  31.555  1.00  0.00     0.031 C 
ATOM     33  C   UNL A   1      45.974  24.491  29.077  1.00  0.00     0.029 A 
ATOM     34  C   UNL A   1      45.629  25.763  29.506  1.00  0.00     0.049 A 
ATOM     35  H   UNL A   1      43.749  26.716  29.473  1.00  0.00     0.167 HD
ATOM     36  C   UNL A   1      46.058  27.968  30.551  1.00  0.00     0.074 A 
ATOM     37  C   UNL A   1      46.920  28.952  31.172  1.00  0.00     0.031 C 
ATOM     38  C   UNL A   1      46.478  26.762  30.099  1.00  0.00     0.031 A 
BRANCH  25  39
ATOM     39  C   UNL A   1      42.045  23.297  27.577  1.00  0.00    -0.014 A 
ATOM     40  C   UNL A   1      41.485  22.269  28.351  1.00  0.00     0.009 A 
ATOM     41  C   UNL A   1      42.310  23.059  26.220  1.00  0.00     0.009 A 
ATOM     42  C   UNL A   1      41.207  21.025  27.782  1.00  0.00     0.001 A 
ATOM     43  C   UNL A   1      42.003  21.825  25.645  1.00  0.00     0.001 A 
ATOM     44  C   UNL A   1      41.461  20.806  26.429  1.00  0.00     0.000 A 
ENDBRANCH  25  39
BRANCH  26  45
ATOM     45  C   UNL A   1      44.158  32.068  31.855  1.00  0.00    -0.014 A 
ATOM     46  C   UNL A   1      44.611  33.124  31.051  1.00  0.00     0.009 A 
ATOM     47  C   UNL A   1      44.050  32.269  33.241  1.00  0.00     0.009 A 
ATOM     48  C   UNL A   1      44.957  34.352  31.621  1.00  0.00     0.001 A 
ATOM     49  C   UNL A   1      44.372  33.505  33.806  1.00  0.00     0.001 A 
ATOM     50  C   UNL A   1      44.832  34.543  32.997  1.00  0.00     0.000 A 
ENDBRANCH  26  45
BRANCH  38  51
ATOM     51  C   UNL A   1      47.940  26.441  30.201  1.00  0.00    -0.014 A 
ATOM     52  C   UNL A   1      48.773  26.659  29.090  1.00  0.00     0.009 A 
ATOM     53  C   UNL A   1      48.473  25.824  31.342  1.00  0.00     0.009 A 
ATOM     54  C   UNL A   1      50.108  26.255  29.115  1.00  0.00     0.001 A 
ATOM     55  C   UNL A   1      49.815  25.445  31.374  1.00  0.00     0.001 A 
ATOM     56  C   UNL A   1      50.628  25.652  30.259  1.00  0.00     0.000 A 
ENDBRANCH  38  51
ENDBRANCH  12  13
ENDBRANCH   5   7
ENDBRANCH   2   3
ENDBRANCH   1   2
BRANCH   1  57
ATOM     57  C   UNL A   1      33.471  26.940  25.703  1.00  0.00     0.117 C 
BRANCH  57  58
ATOM     58  N   UNL A   1      32.199  26.580  26.282  1.00  0.00    -0.356 N 
ATOM     59  C   UNL A   1      31.074  26.040  25.750  1.00  0.00     0.223 C 
ATOM     60  H   UNL A   1      32.136  26.759  27.248  1.00  0.00     0.163 HD
ATOM     61  O   UNL A   1      30.181  25.800  26.569  1.00  0.00    -0.275 OA
BRANCH  59  62
ATOM     62  C   UNL A   1      30.934  25.654  24.260  1.00  0.00     0.091 C 
ATOM     63  C   UNL A   1      29.435  25.619  23.880  1.00  0.00     0.014 C 
ATOM     64  C   UNL A   1      31.702  26.534  23.259  1.00  0.00     0.091 C 
ATOM     65  C   UNL A   1      28.807  27.014  23.829  1.00  0.00     0.001 C 
ATOM     66  C   UNL A   1      31.079  27.945  23.174  1.00  0.00     0.014 C 
ATOM     67  C   UNL A   1      29.573  27.962  22.917  1.00  0.00     0.001 C 
BRANCH  64  68
ATOM     68  C   UNL A   1      31.825  25.907  21.854  1.00  0.00     0.228 C 
ATOM     69  O   UNL A   1      31.281  26.408  20.868  1.00  0.00    -0.274 OA
ATOM     70  N   UNL A   1      32.669  24.851  21.627  1.00  0.00    -0.326 N 
ATOM     71  H   UNL A   1      32.898  24.705  20.681  1.00  0.00     0.169 HD
BRANCH  70  72
ATOM     72  C   UNL A   1      33.258  23.946  22.512  1.00  0.00     0.042 A 
ATOM     73  C   UNL A   1      34.410  24.268  23.229  1.00  0.00     0.027 A 
ATOM     74  C   UNL A   1      32.614  22.733  22.757  1.00  0.00     0.047 A 
ATOM     75  C   UNL A   1      34.983  23.333  24.098  1.00  0.00     0.019 A 
ATOM     76  C   UNL A   1      33.194  21.786  23.610  1.00  0.00     0.057 A 
ATOM     77  C   UNL A   1      34.393  22.079  24.266  1.00  0.00     0.036 A 
ATOM     78  Cl  UNL A   1      32.381  20.271  23.785  1.00  0.00    -0.083 Cl
ATOM     79  Br  UNL A   1      35.287  20.835  25.386  1.00  0.00    -0.049 Br
ENDBRANCH  70  72
ENDBRANCH  64  68
ENDBRANCH  59  62
ENDBRANCH  57  58
ENDBRANCH   1  57
TORSDOF 12
ENDMDL
MODEL 3
REMARK VINA RESULT:     -11.3      3.473      7.989
REMARK SMILES O=C(NCCCNC(=O)[C@H]1CCCC[C@@H]1C(=O)Nc1ccc(Br)c(Cl)c1)c1ccc(-c2c3nc(c(-c4ccccc4)c4ccc([nH]4)c(-c4ccccc4)c4nc(c(-c5ccccc5)c5ccc2[nH]5)C=C4)C=C3)cc1
REMARK SMILES IDX 5 1 4 2 3 3 1 4 2 5 27 7 28 8 74 9 29 10 73 11 30 12 31 13
REMARK SMILES IDX 32 14 67 15 33 16 72 17 66 18 68 19 34 20 71 21 65 22 64 23
REMARK SMILES IDX 35 25 57 26 42 27 56 28 43 29 46 30 55 31 69 32 44 33 45 34
REMARK SMILES IDX 54 36 70 37 47 38 36 39 37 40 41 41 38 42 40 43 39 44 58 45
REMARK SMILES IDX 59 46 63 47 60 48 62 49 61 50 48 51 49 52 53 53 50 54 52 55
REMARK SMILES IDX 51 56 6 57 7 58 8 59 9 61 10 62 11 63 15 64 12 65 14 66
REMARK SMILES IDX 13 67 16 68 17 69 18 70 19 72 20 73 26 74 21 75 24 76 22 77
REMARK SMILES IDX 25 78 23 79
REMARK H PARENT 3 6 68 24 46 35 7 60 18 71
REMARK Flexibility Score: inf
ROOT
ATOM      1  C   UNL A   1      36.145  23.652  25.934  1.00  0.00     0.042 C 
ENDROOT
BRANCH   1   2
ATOM      2  C   UNL A   1      37.267  23.383  24.944  1.00  0.00     0.118 C 
BRANCH   2   3
ATOM      3  N   UNL A   1      38.305  22.543  25.517  1.00  0.00    -0.352 N 
ATOM      4  O   UNL A   1      40.278  22.018  26.432  1.00  0.00    -0.269 OA
ATOM      5  C   UNL A   1      39.411  22.870  26.259  1.00  0.00     0.251 C 
ATOM      6  H   UNL A   1      38.196  21.580  25.344  1.00  0.00     0.163 HD
BRANCH   5   7
ATOM      7  C   UNL A   1      39.573  24.212  26.866  1.00  0.00     0.039 A 
ATOM      8  C   UNL A   1      40.266  25.187  26.141  1.00  0.00     0.014 A 
ATOM      9  C   UNL A   1      39.162  24.490  28.173  1.00  0.00     0.014 A 
ATOM     10  C   UNL A   1      40.555  26.423  26.726  1.00  0.00     0.010 A 
ATOM     11  C   UNL A   1      39.364  25.754  28.722  1.00  0.00     0.010 A 
ATOM     12  C   UNL A   1      40.111  26.713  28.025  1.00  0.00    -0.014 A 
BRANCH  12  13
ATOM     13  C   UNL A   1      40.531  27.958  28.714  1.00  0.00     0.031 A 
ATOM     14  C   UNL A   1      39.535  29.075  28.901  1.00  0.00     0.074 A 
ATOM     15  C   UNL A   1      41.790  28.091  29.174  1.00  0.00     0.049 A 
ATOM     16  N   UNL A   1      39.701  30.245  29.465  1.00  0.00    -0.248 NA
ATOM     17  C   UNL A   1      38.180  28.862  28.363  1.00  0.00     0.031 C 
ATOM     18  C   UNL A   1      42.850  27.090  29.045  1.00  0.00     0.029 A 
ATOM     19  N   UNL A   1      42.385  29.122  29.859  1.00  0.00    -0.354 N 
ATOM     20  C   UNL A   1      38.488  30.907  29.323  1.00  0.00     0.074 A 
ATOM     21  C   UNL A   1      37.609  30.037  28.579  1.00  0.00     0.031 C 
ATOM     22  C   UNL A   1      43.949  27.534  29.678  1.00  0.00     0.029 A 
ATOM     23  C   UNL A   1      43.682  28.860  30.227  1.00  0.00     0.049 A 
ATOM     24  H   UNL A   1      41.925  29.967  30.068  1.00  0.00     0.167 HD
ATOM     25  C   UNL A   1      38.125  32.122  29.796  1.00  0.00     0.031 A 
ATOM     26  C   UNL A   1      44.551  29.597  30.945  1.00  0.00     0.031 A 
ATOM     27  C   UNL A   1      38.980  32.968  30.581  1.00  0.00     0.049 A 
ATOM     28  C   UNL A   1      44.116  30.931  31.486  1.00  0.00     0.074 A 
ATOM     29  C   UNL A   1      38.692  34.200  31.139  1.00  0.00     0.029 A 
ATOM     30  N   UNL A   1      40.282  32.656  30.937  1.00  0.00    -0.354 N 
ATOM     31  N   UNL A   1      42.955  31.531  31.365  1.00  0.00    -0.248 NA
ATOM     32  C   UNL A   1      45.101  31.683  32.277  1.00  0.00     0.031 C 
ATOM     33  C   UNL A   1      39.832  34.651  31.808  1.00  0.00     0.029 A 
ATOM     34  C   UNL A   1      40.810  33.674  31.710  1.00  0.00     0.049 A 
ATOM     35  H   UNL A   1      40.758  31.834  30.679  1.00  0.00     0.167 HD
ATOM     36  C   UNL A   1      43.059  32.707  32.096  1.00  0.00     0.074 A 
ATOM     37  C   UNL A   1      44.392  32.737  32.660  1.00  0.00     0.031 C 
ATOM     38  C   UNL A   1      42.129  33.674  32.285  1.00  0.00     0.031 A 
BRANCH  25  39
ATOM     39  C   UNL A   1      36.734  32.607  29.496  1.00  0.00    -0.014 A 
ATOM     40  C   UNL A   1      36.474  33.279  28.291  1.00  0.00     0.009 A 
ATOM     41  C   UNL A   1      35.701  32.468  30.434  1.00  0.00     0.009 A 
ATOM     42  C   UNL A   1      35.208  33.808  28.035  1.00  0.00     0.001 A 
ATOM     43  C   UNL A   1      34.427  32.972  30.163  1.00  0.00     0.001 A 
ATOM     44  C   UNL A   1      34.185  33.650  28.969  1.00  0.00     0.000 A 
ENDBRANCH  25  39
BRANCH  26  45
ATOM     45  C   UNL A   1      45.898  29.052  31.256  1.00  0.00    -0.014 A 
ATOM     46  C   UNL A   1      46.121  28.297  32.417  1.00  0.00     0.009 A 
ATOM     47  C   UNL A   1      46.978  29.312  30.397  1.00  0.00     0.009 A 
ATOM     48  C   UNL A   1      47.400  27.820  32.717  1.00  0.00     0.001 A 
ATOM     49  C   UNL A   1      48.250  28.813  30.687  1.00  0.00     0.001 A 
ATOM     50  C   UNL A   1      48.461  28.074  31.849  1.00  0.00     0.000 A 
ENDBRANCH  26  45
BRANCH  38  51
ATOM     51  C   UNL A   1      42.484  34.829  33.176  1.00  0.00    -0.014 A 
ATOM     52  C   UNL A   1      42.086  34.807  34.523  1.00  0.00     0.009 A 
ATOM     53  C   UNL A   1      43.104  35.978  32.666  1.00  0.00     0.009 A 
ATOM     54  C   UNL A   1      42.293  35.918  35.341  1.00  0.00     0.001 A 
ATOM     55  C   UNL A   1      43.334  37.078  33.493  1.00  0.00     0.001 A 
ATOM     56  C   UNL A   1      42.920  37.051  34.826  1.00  0.00     0.000 A 
ENDBRANCH  38  51
ENDBRANCH  12  13
ENDBRANCH   5   7
ENDBRANCH   2   3
ENDBRANCH   1   2
BRANCH   1  57
ATOM     57  C   UNL A   1      34.937  24.335  25.305  1.00  0.00     0.117 C 
BRANCH  57  58
ATOM     58  N   UNL A   1      34.823  24.063  23.892  1.00  0.00    -0.356 N 
ATOM     59  C   UNL A   1      33.797  23.611  23.129  1.00  0.00     0.223 C 
ATOM     60  H   UNL A   1      35.649  24.241  23.385  1.00  0.00     0.163 HD
ATOM     61  O   UNL A   1      34.040  23.558  21.920  1.00  0.00    -0.275 OA
BRANCH  59  62
ATOM     62  C   UNL A   1      32.397  23.278  23.692  1.00  0.00     0.091 C 
ATOM     63  C   UNL A   1      31.677  22.306  22.729  1.00  0.00     0.014 C 
ATOM     64  C   UNL A   1      32.360  22.713  25.122  1.00  0.00     0.091 C 
ATOM     65  C   UNL A   1      32.284  20.901  22.746  1.00  0.00     0.001 C 
ATOM     66  C   UNL A   1      32.953  21.288  25.167  1.00  0.00     0.014 C 
ATOM     67  C   UNL A   1      32.355  20.317  24.149  1.00  0.00     0.001 C 
BRANCH  64  68
ATOM     68  C   UNL A   1      30.955  22.740  25.760  1.00  0.00     0.228 C 
ATOM     69  O   UNL A   1      30.337  21.703  26.017  1.00  0.00    -0.274 OA
ATOM     70  N   UNL A   1      30.405  23.915  26.202  1.00  0.00    -0.326 N 
ATOM     71  H   UNL A   1      29.660  23.806  26.836  1.00  0.00     0.169 HD
BRANCH  70  72
ATOM     72  C   UNL A   1      30.725  25.241  25.904  1.00  0.00     0.042 A 
ATOM     73  C   UNL A   1      31.729  25.923  26.589  1.00  0.00     0.027 A 
ATOM     74  C   UNL A   1      30.090  25.856  24.825  1.00  0.00     0.047 A 
ATOM     75  C   UNL A   1      32.015  27.256  26.275  1.00  0.00     0.019 A 
ATOM     76  C   UNL A   1      30.358  27.196  24.519  1.00  0.00     0.057 A 
ATOM     77  C   UNL A   1      31.308  27.905  25.260  1.00  0.00     0.036 A 
ATOM     78  Cl  UNL A   1      29.459  27.911  23.228  1.00  0.00    -0.083 Cl
ATOM     79  Br  UNL A   1      31.688  29.740  24.964  1.00  0.00    -0.049 Br
ENDBRANCH  70  72
ENDBRANCH  64  68
ENDBRANCH  59  62
ENDBRANCH  57  58
ENDBRANCH   1  57
TORSDOF 12
ENDMDL
