MODEL 1
REMARK VINA RESULT:     -11.7      0.000      0.000
REMARK SMILES CC(C)CSc1cc2c(cc1Cl)C=C(C(=O)NCCCNC(=O)c1ccc(-c3c4nc(c(-c5ccccc5)c5ccc([nH]5)c(-c5ccccc5)c5nc(c(-c6ccccc6)c6ccc3[nH]6)C=C5)C=C4)cc1)[C@@H](C(F)(F)F)O2
REMARK SMILES IDX 18 1 17 2 15 3 16 4 14 6 6 7 7 8 11 9 8 10 10 11 12 12 9 13
REMARK SMILES IDX 77 14 13 15 72 16 5 17 4 18 2 19 1 20 3 21 73 22 74 23 75 24
REMARK SMILES IDX 76 25 19 26 20 27 21 28 22 29 23 31 24 32 25 33 71 34 26 35
REMARK SMILES IDX 70 36 27 37 28 38 29 39 64 40 30 41 69 42 63 43 65 44 31 45
REMARK SMILES IDX 68 46 62 47 61 48 32 50 54 51 39 52 53 53 40 54 43 55 52 56
REMARK SMILES IDX 66 57 41 58 42 59 51 61 67 62 44 63 33 64 34 65 38 66 35 67
REMARK SMILES IDX 37 68 36 69 55 70 56 71 60 72 57 73 59 74 58 75 45 76 46 77
REMARK SMILES IDX 50 78 47 79 49 80 48 81
REMARK H PARENT 17 5 21 30 65 49 43 60
REMARK Flexibility Score: inf
ROOT
ATOM      1  C   UNL A   1      36.701  20.632  25.227  1.00  0.00     0.118 C 
ENDROOT
BRANCH   1   2
ATOM      2  N   UNL A   1      35.459  19.978  24.839  1.00  0.00    -0.352 N 
ATOM      3  C   UNL A   1      34.159  20.317  24.679  1.00  0.00     0.251 C 
ATOM      4  O   UNL A   1      33.415  19.393  24.336  1.00  0.00    -0.270 OA
ATOM      5  H   UNL A   1      35.606  19.025  24.637  1.00  0.00     0.163 HD
BRANCH   3   6
ATOM      6  C   UNL A   1      33.593  21.682  24.890  1.00  0.00     0.067 C 
ATOM      7  C   UNL A   1      32.149  26.495  24.312  1.00  0.00     0.030 A 
ATOM      8  C   UNL A   1      31.887  25.478  25.232  1.00  0.00     0.063 A 
ATOM      9  C   UNL A   1      33.100  26.229  23.304  1.00  0.00     0.055 A 
ATOM     10  C   UNL A   1      32.447  24.214  25.088  1.00  0.00     0.129 A 
ATOM     11  C   UNL A   1      33.704  24.965  23.193  1.00  0.00     0.033 A 
ATOM     12  Cl  UNL A   1      33.570  27.416  22.132  1.00  0.00    -0.083 Cl
ATOM     13  C   UNL A   1      33.357  23.942  24.075  1.00  0.00     0.019 A 
ATOM     14  O   UNL A   1      31.974  23.266  25.943  1.00  0.00    -0.475 OA
ATOM     15  C   UNL A   1      33.880  22.589  23.938  1.00  0.00     0.025 C 
ATOM     16  C   UNL A   1      32.765  22.062  26.084  1.00  0.00     0.314 C 
BRANCH   7  17
ATOM     17  S   UNL A   1      31.270  28.060  24.390  1.00  0.00    -0.124 SA
BRANCH  17  18
ATOM     18  C   UNL A   1      32.477  29.273  25.066  1.00  0.00     0.078 C 
BRANCH  18  19
ATOM     19  C   UNL A   1      32.727  29.226  26.587  1.00  0.00    -0.007 C 
ATOM     20  C   UNL A   1      31.636  28.538  27.408  1.00  0.00     0.008 C 
ATOM     21  C   UNL A   1      34.054  28.500  26.846  1.00  0.00     0.008 C 
ENDBRANCH  18  19
ENDBRANCH  17  18
ENDBRANCH   7  17
BRANCH  16  22
ATOM     22  C   UNL A   1      33.583  22.183  27.382  1.00  0.00     0.429 C 
ATOM     23  F   UNL A   1      32.816  22.715  28.369  1.00  0.00    -0.167 F 
ATOM     24  F   UNL A   1      34.024  20.990  27.842  1.00  0.00    -0.167 F 
ATOM     25  F   UNL A   1      34.666  22.977  27.239  1.00  0.00    -0.167 F 
ENDBRANCH  16  22
ENDBRANCH   3   6
ENDBRANCH   1   2
BRANCH   1  26
ATOM     26  C   UNL A   1      37.906  19.729  25.013  1.00  0.00     0.042 C 
BRANCH  26  27
ATOM     27  C   UNL A   1      39.121  20.200  25.799  1.00  0.00     0.118 C 
BRANCH  27  28
ATOM     28  N   UNL A   1      40.161  19.174  25.871  1.00  0.00    -0.352 N 
ATOM     29  C   UNL A   1      41.514  19.286  26.083  1.00  0.00     0.251 C 
ATOM     30  H   UNL A   1      39.839  18.253  25.747  1.00  0.00     0.163 HD
ATOM     31  O   UNL A   1      42.247  18.323  25.879  1.00  0.00    -0.269 OA
BRANCH  29  32
ATOM     32  C   UNL A   1      42.089  20.569  26.534  1.00  0.00     0.039 A 
ATOM     33  C   UNL A   1      42.162  20.867  27.894  1.00  0.00     0.014 A 
ATOM     34  C   UNL A   1      42.558  21.486  25.590  1.00  0.00     0.014 A 
ATOM     35  C   UNL A   1      42.495  22.150  28.297  1.00  0.00     0.010 A 
ATOM     36  C   UNL A   1      43.009  22.742  26.008  1.00  0.00     0.010 A 
ATOM     37  C   UNL A   1      42.926  23.103  27.361  1.00  0.00    -0.014 A 
BRANCH  37  38
ATOM     38  C   UNL A   1      43.282  24.465  27.836  1.00  0.00     0.031 A 
ATOM     39  C   UNL A   1      44.711  24.932  27.842  1.00  0.00     0.074 A 
ATOM     40  C   UNL A   1      42.293  25.314  28.176  1.00  0.00     0.049 A 
ATOM     41  N   UNL A   1      45.189  26.109  28.163  1.00  0.00    -0.248 NA
ATOM     42  C   UNL A   1      45.740  23.960  27.437  1.00  0.00     0.031 C 
ATOM     43  C   UNL A   1      40.866  24.981  28.180  1.00  0.00     0.029 A 
ATOM     44  N   UNL A   1      42.327  26.638  28.528  1.00  0.00    -0.354 N 
ATOM     45  C   UNL A   1      46.567  26.013  28.017  1.00  0.00     0.074 A 
ATOM     46  C   UNL A   1      46.855  24.656  27.610  1.00  0.00     0.031 C 
ATOM     47  C   UNL A   1      40.160  26.090  28.431  1.00  0.00     0.029 A 
ATOM     48  C   UNL A   1      41.081  27.192  28.686  1.00  0.00     0.049 A 
ATOM     49  H   UNL A   1      43.163  27.142  28.656  1.00  0.00     0.167 HD
ATOM     50  C   UNL A   1      47.505  26.973  28.197  1.00  0.00     0.031 A 
ATOM     51  C   UNL A   1      40.711  28.446  29.007  1.00  0.00     0.031 A 
ATOM     52  C   UNL A   1      47.213  28.322  28.603  1.00  0.00     0.049 A 
ATOM     53  C   UNL A   1      41.768  29.478  29.254  1.00  0.00     0.074 A 
ATOM     54  C   UNL A   1      48.097  29.364  28.822  1.00  0.00     0.029 A 
ATOM     55  N   UNL A   1      45.940  28.818  28.845  1.00  0.00    -0.354 N 
ATOM     56  N   UNL A   1      43.069  29.361  29.141  1.00  0.00    -0.248 NA
ATOM     57  C   UNL A   1      41.313  30.806  29.685  1.00  0.00     0.031 C 
ATOM     58  C   UNL A   1      47.363  30.475  29.248  1.00  0.00     0.029 A 
ATOM     59  C   UNL A   1      46.018  30.145  29.232  1.00  0.00     0.049 A 
ATOM     60  H   UNL A   1      45.107  28.302  28.755  1.00  0.00     0.167 HD
ATOM     61  C   UNL A   1      43.591  30.600  29.487  1.00  0.00     0.074 A 
ATOM     62  C   UNL A   1      42.464  31.459  29.791  1.00  0.00     0.031 C 
ATOM     63  C   UNL A   1      44.889  30.983  29.552  1.00  0.00     0.031 A 
BRANCH  50  64
ATOM     64  C   UNL A   1      48.943  26.591  27.978  1.00  0.00    -0.014 A 
ATOM     65  C   UNL A   1      49.730  26.181  29.067  1.00  0.00     0.009 A 
ATOM     66  C   UNL A   1      49.538  26.685  26.710  1.00  0.00     0.009 A 
ATOM     67  C   UNL A   1      51.081  25.873  28.891  1.00  0.00     0.001 A 
ATOM     68  C   UNL A   1      50.882  26.349  26.532  1.00  0.00     0.001 A 
ATOM     69  C   UNL A   1      51.653  25.950  27.623  1.00  0.00     0.000 A 
ENDBRANCH  50  64
BRANCH  51  70
ATOM     70  C   UNL A   1      39.262  28.763  29.099  1.00  0.00    -0.014 A 
ATOM     71  C   UNL A   1      38.588  29.330  28.004  1.00  0.00     0.009 A 
ATOM     72  C   UNL A   1      38.576  28.602  30.310  1.00  0.00     0.009 A 
ATOM     73  C   UNL A   1      37.270  29.771  28.134  1.00  0.00     0.001 A 
ATOM     74  C   UNL A   1      37.248  29.019  30.429  1.00  0.00     0.001 A 
ATOM     75  C   UNL A   1      36.601  29.615  29.346  1.00  0.00     0.000 A 
ENDBRANCH  51  70
BRANCH  63  76
ATOM     76  C   UNL A   1      45.176  32.395  29.975  1.00  0.00    -0.014 A 
ATOM     77  C   UNL A   1      45.271  32.709  31.339  1.00  0.00     0.009 A 
ATOM     78  C   UNL A   1      45.257  33.428  29.028  1.00  0.00     0.009 A 
ATOM     79  C   UNL A   1      45.426  34.033  31.750  1.00  0.00     0.001 A 
ATOM     80  C   UNL A   1      45.438  34.749  29.443  1.00  0.00     0.001 A 
ATOM     81  C   UNL A   1      45.513  35.051  30.802  1.00  0.00     0.000 A 
ENDBRANCH  63  76
ENDBRANCH  37  38
ENDBRANCH  29  32
ENDBRANCH  27  28
ENDBRANCH  26  27
ENDBRANCH   1  26
TORSDOF 14
ENDMDL
MODEL 2
REMARK VINA RESULT:     -11.5      5.140      9.932
REMARK SMILES CC(C)CSc1cc2c(cc1Cl)C=C(C(=O)NCCCNC(=O)c1ccc(-c3c4nc(c(-c5ccccc5)c5ccc([nH]5)c(-c5ccccc5)c5nc(c(-c6ccccc6)c6ccc3[nH]6)C=C5)C=C4)cc1)[C@@H](C(F)(F)F)O2
REMARK SMILES IDX 18 1 17 2 15 3 16 4 14 6 6 7 7 8 11 9 8 10 10 11 12 12 9 13
REMARK SMILES IDX 77 14 13 15 72 16 5 17 4 18 2 19 1 20 3 21 73 22 74 23 75 24
REMARK SMILES IDX 76 25 19 26 20 27 21 28 22 29 23 31 24 32 25 33 71 34 26 35
REMARK SMILES IDX 70 36 27 37 28 38 29 39 64 40 30 41 69 42 63 43 65 44 31 45
REMARK SMILES IDX 68 46 62 47 61 48 32 50 54 51 39 52 53 53 40 54 43 55 52 56
REMARK SMILES IDX 66 57 41 58 42 59 51 61 67 62 44 63 33 64 34 65 38 66 35 67
REMARK SMILES IDX 37 68 36 69 55 70 56 71 60 72 57 73 59 74 58 75 45 76 46 77
REMARK SMILES IDX 50 78 47 79 49 80 48 81
REMARK H PARENT 17 5 21 30 65 49 43 60
REMARK Flexibility Score: inf
ROOT
ATOM      1  C   UNL A   1      31.848  30.501  25.888  1.00  0.00     0.118 C 
ENDROOT
BRANCH   1   2
ATOM      2  N   UNL A   1      30.897  30.173  24.835  1.00  0.00    -0.352 N 
ATOM      3  C   UNL A   1      30.660  29.146  23.987  1.00  0.00     0.251 C 
ATOM      4  O   UNL A   1      29.709  29.312  23.217  1.00  0.00    -0.270 OA
ATOM      5  H   UNL A   1      30.245  30.900  24.705  1.00  0.00     0.163 HD
BRANCH   3   6
ATOM      6  C   UNL A   1      31.450  27.882  23.924  1.00  0.00     0.067 C 
ATOM      7  C   UNL A   1      33.358  23.285  24.827  1.00  0.00     0.030 A 
ATOM      8  C   UNL A   1      33.422  24.204  23.778  1.00  0.00     0.063 A 
ATOM      9  C   UNL A   1      32.680  23.684  25.998  1.00  0.00     0.055 A 
ATOM     10  C   UNL A   1      32.740  25.414  23.837  1.00  0.00     0.129 A 
ATOM     11  C   UNL A   1      32.035  24.931  26.073  1.00  0.00     0.033 A 
ATOM     12  Cl  UNL A   1      32.573  22.672  27.402  1.00  0.00    -0.083 Cl
ATOM     13  C   UNL A   1      32.043  25.792  24.977  1.00  0.00     0.019 A 
ATOM     14  O   UNL A   1      32.736  26.137  22.683  1.00  0.00    -0.475 OA
ATOM     15  C   UNL A   1      31.305  27.048  24.971  1.00  0.00     0.025 C 
ATOM     16  C   UNL A   1      32.371  27.534  22.790  1.00  0.00     0.314 C 
BRANCH   7  17
ATOM     17  S   UNL A   1      34.076  21.646  24.665  1.00  0.00    -0.124 SA
BRANCH  17  18
ATOM     18  C   UNL A   1      35.650  21.697  25.615  1.00  0.00     0.078 C 
BRANCH  18  19
ATOM     19  C   UNL A   1      36.837  22.421  24.948  1.00  0.00    -0.007 C 
ATOM     20  C   UNL A   1      36.703  22.647  23.442  1.00  0.00     0.008 C 
ATOM     21  C   UNL A   1      37.024  23.787  25.624  1.00  0.00     0.008 C 
ENDBRANCH  18  19
ENDBRANCH  17  18
ENDBRANCH   7  17
BRANCH  16  22
ATOM     22  C   UNL A   1      33.667  28.363  22.779  1.00  0.00     0.429 C 
ATOM     23  F   UNL A   1      34.386  28.089  21.659  1.00  0.00    -0.167 F 
ATOM     24  F   UNL A   1      33.442  29.697  22.772  1.00  0.00    -0.167 F 
ATOM     25  F   UNL A   1      34.459  28.101  23.842  1.00  0.00    -0.167 F 
ENDBRANCH  16  22
ENDBRANCH   3   6
ENDBRANCH   1   2
BRANCH   1  26
ATOM     26  C   UNL A   1      31.486  31.798  26.594  1.00  0.00     0.042 C 
BRANCH  26  27
ATOM     27  C   UNL A   1      32.696  32.458  27.239  1.00  0.00     0.118 C 
BRANCH  27  28
ATOM     28  N   UNL A   1      32.462  33.870  27.533  1.00  0.00    -0.352 N 
ATOM     29  C   UNL A   1      33.044  34.699  28.462  1.00  0.00     0.251 C 
ATOM     30  H   UNL A   1      31.773  34.298  26.975  1.00  0.00     0.163 HD
ATOM     31  O   UNL A   1      32.545  35.793  28.705  1.00  0.00    -0.269 OA
BRANCH  29  32
ATOM     32  C   UNL A   1      34.257  34.265  29.184  1.00  0.00     0.039 A 
ATOM     33  C   UNL A   1      35.520  34.614  28.710  1.00  0.00     0.014 A 
ATOM     34  C   UNL A   1      34.132  33.498  30.346  1.00  0.00     0.014 A 
ATOM     35  C   UNL A   1      36.646  34.023  29.261  1.00  0.00     0.010 A 
ATOM     36  C   UNL A   1      35.278  33.001  30.974  1.00  0.00     0.010 A 
ATOM     37  C   UNL A   1      36.541  33.213  30.402  1.00  0.00    -0.014 A 
BRANCH  37  38
ATOM     38  C   UNL A   1      37.774  32.606  30.967  1.00  0.00     0.031 A 
ATOM     39  C   UNL A   1      38.351  33.097  32.266  1.00  0.00     0.074 A 
ATOM     40  C   UNL A   1      38.318  31.542  30.346  1.00  0.00     0.049 A 
ATOM     41  N   UNL A   1      39.382  32.639  32.931  1.00  0.00    -0.248 NA
ATOM     42  C   UNL A   1      37.693  34.249  32.903  1.00  0.00     0.031 C 
ATOM     43  C   UNL A   1      37.826  30.959  29.095  1.00  0.00     0.029 A 
ATOM     44  N   UNL A   1      39.363  30.731  30.703  1.00  0.00    -0.354 N 
ATOM     45  C   UNL A   1      39.506  33.453  34.049  1.00  0.00     0.074 A 
ATOM     46  C   UNL A   1      38.468  34.454  33.960  1.00  0.00     0.031 C 
ATOM     47  C   UNL A   1      38.509  29.836  28.838  1.00  0.00     0.029 A 
ATOM     48  C   UNL A   1      39.540  29.665  29.856  1.00  0.00     0.049 A 
ATOM     49  H   UNL A   1      39.932  30.897  31.489  1.00  0.00     0.167 HD
ATOM     50  C   UNL A   1      40.399  33.366  35.063  1.00  0.00     0.031 A 
ATOM     51  C   UNL A   1      40.433  28.659  29.884  1.00  0.00     0.031 A 
ATOM     52  C   UNL A   1      41.432  32.368  35.148  1.00  0.00     0.049 A 
ATOM     53  C   UNL A   1      41.447  28.614  30.986  1.00  0.00     0.074 A 
ATOM     54  C   UNL A   1      42.392  32.205  36.131  1.00  0.00     0.029 A 
ATOM     55  N   UNL A   1      41.636  31.359  34.217  1.00  0.00    -0.354 N 
ATOM     56  N   UNL A   1      41.568  29.411  32.021  1.00  0.00    -0.248 NA
ATOM     57  C   UNL A   1      42.452  27.545  30.922  1.00  0.00     0.031 C 
ATOM     58  C   UNL A   1      43.209  31.130  35.768  1.00  0.00     0.029 A 
ATOM     59  C   UNL A   1      42.720  30.584  34.592  1.00  0.00     0.049 A 
ATOM     60  H   UNL A   1      41.091  31.218  33.410  1.00  0.00     0.167 HD
ATOM     61  C   UNL A   1      42.664  28.942  32.732  1.00  0.00     0.074 A 
ATOM     62  C   UNL A   1      43.156  27.778  32.023  1.00  0.00     0.031 C 
ATOM     63  C   UNL A   1      43.212  29.440  33.867  1.00  0.00     0.031 A 
BRANCH  50  64
ATOM     64  C   UNL A   1      40.314  34.396  36.156  1.00  0.00    -0.014 A 
ATOM     65  C   UNL A   1      41.034  35.596  36.042  1.00  0.00     0.009 A 
ATOM     66  C   UNL A   1      39.568  34.162  37.322  1.00  0.00     0.009 A 
ATOM     67  C   UNL A   1      41.008  36.541  37.070  1.00  0.00     0.001 A 
ATOM     68  C   UNL A   1      39.522  35.121  38.338  1.00  0.00     0.001 A 
ATOM     69  C   UNL A   1      40.246  36.305  38.213  1.00  0.00     0.000 A 
ENDBRANCH  50  64
BRANCH  51  70
ATOM     70  C   UNL A   1      40.379  27.623  28.821  1.00  0.00    -0.014 A 
ATOM     71  C   UNL A   1      41.007  27.841  27.583  1.00  0.00     0.009 A 
ATOM     72  C   UNL A   1      39.613  26.463  28.999  1.00  0.00     0.009 A 
ATOM     73  C   UNL A   1      40.831  26.941  26.530  1.00  0.00     0.001 A 
ATOM     74  C   UNL A   1      39.462  25.550  27.951  1.00  0.00     0.001 A 
ATOM     75  C   UNL A   1      40.059  25.797  26.715  1.00  0.00     0.000 A 
ENDBRANCH  51  70
BRANCH  63  76
ATOM     76  C   UNL A   1      44.418  28.738  34.422  1.00  0.00    -0.014 A 
ATOM     77  C   UNL A   1      45.704  29.168  34.061  1.00  0.00     0.009 A 
ATOM     78  C   UNL A   1      44.280  27.595  35.223  1.00  0.00     0.009 A 
ATOM     79  C   UNL A   1      46.830  28.458  34.478  1.00  0.00     0.001 A 
ATOM     80  C   UNL A   1      45.410  26.902  35.661  1.00  0.00     0.001 A 
ATOM     81  C   UNL A   1      46.683  27.328  35.280  1.00  0.00     0.000 A 
ENDBRANCH  63  76
ENDBRANCH  37  38
ENDBRANCH  29  32
ENDBRANCH  27  28
ENDBRANCH  26  27
ENDBRANCH   1  26
TORSDOF 14
ENDMDL
MODEL 3
REMARK VINA RESULT:     -11.5      5.348     10.128
REMARK SMILES CC(C)CSc1cc2c(cc1Cl)C=C(C(=O)NCCCNC(=O)c1ccc(-c3c4nc(c(-c5ccccc5)c5ccc([nH]5)c(-c5ccccc5)c5nc(c(-c6ccccc6)c6ccc3[nH]6)C=C5)C=C4)cc1)[C@@H](C(F)(F)F)O2
REMARK SMILES IDX 18 1 17 2 15 3 16 4 14 6 6 7 7 8 11 9 8 10 10 11 12 12 9 13
REMARK SMILES IDX 77 14 13 15 72 16 5 17 4 18 2 19 1 20 3 21 73 22 74 23 75 24
REMARK SMILES IDX 76 25 19 26 20 27 21 28 22 29 23 31 24 32 25 33 71 34 26 35
REMARK SMILES IDX 70 36 27 37 28 38 29 39 64 40 30 41 69 42 63 43 65 44 31 45
REMARK SMILES IDX 68 46 62 47 61 48 32 50 54 51 39 52 53 53 40 54 43 55 52 56
REMARK SMILES IDX 66 57 41 58 42 59 51 61 67 62 44 63 33 64 34 65 38 66 35 67
REMARK SMILES IDX 37 68 36 69 55 70 56 71 60 72 57 73 59 74 58 75 45 76 46 77
REMARK SMILES IDX 50 78 47 79 49 80 48 81
REMARK H PARENT 17 5 21 30 65 49 43 60
REMARK Flexibility Score: inf
ROOT
ATOM      1  C   UNL A   1      31.742  30.567  26.393  1.00  0.00     0.118 C 
ENDROOT
BRANCH   1   2
ATOM      2  N   UNL A   1      31.469  30.260  24.996  1.00  0.00    -0.352 N 
ATOM      3  C   UNL A   1      31.387  29.161  24.212  1.00  0.00     0.251 C 
ATOM      4  O   UNL A   1      31.135  29.383  23.023  1.00  0.00    -0.270 OA
ATOM      5  H   UNL A   1      31.296  31.080  24.478  1.00  0.00     0.163 HD
BRANCH   3   6
ATOM      6  C   UNL A   1      31.580  27.756  24.677  1.00  0.00     0.067 C 
ATOM      7  C   UNL A   1      33.554  23.416  26.366  1.00  0.00     0.030 A 
ATOM      8  C   UNL A   1      32.266  23.926  26.192  1.00  0.00     0.063 A 
ATOM      9  C   UNL A   1      34.631  24.206  25.912  1.00  0.00     0.055 A 
ATOM     10  C   UNL A   1      32.059  25.212  25.707  1.00  0.00     0.129 A 
ATOM     11  C   UNL A   1      34.414  25.487  25.374  1.00  0.00     0.033 A 
ATOM     12  Cl  UNL A   1      36.279  23.676  26.006  1.00  0.00    -0.083 Cl
ATOM     13  C   UNL A   1      33.122  26.004  25.294  1.00  0.00     0.019 A 
ATOM     14  O   UNL A   1      30.772  25.653  25.755  1.00  0.00    -0.475 OA
ATOM     15  C   UNL A   1      32.857  27.362  24.837  1.00  0.00     0.025 C 
ATOM     16  C   UNL A   1      30.447  26.807  24.943  1.00  0.00     0.314 C 
BRANCH   7  17
ATOM     17  S   UNL A   1      33.820  21.834  27.175  1.00  0.00    -0.124 SA
BRANCH  17  18
ATOM     18  C   UNL A   1      33.977  20.602  25.819  1.00  0.00     0.078 C 
BRANCH  18  19
ATOM     19  C   UNL A   1      32.672  20.175  25.118  1.00  0.00    -0.007 C 
ATOM     20  C   UNL A   1      32.350  20.921  23.822  1.00  0.00     0.008 C 
ATOM     21  C   UNL A   1      32.750  18.675  24.801  1.00  0.00     0.008 C 
ENDBRANCH  18  19
ENDBRANCH  17  18
ENDBRANCH   7  17
BRANCH  16  22
ATOM     22  C   UNL A   1      29.755  26.305  23.664  1.00  0.00     0.429 C 
ATOM     23  F   UNL A   1      28.567  26.942  23.496  1.00  0.00    -0.167 F 
ATOM     24  F   UNL A   1      30.478  26.541  22.545  1.00  0.00    -0.167 F 
ATOM     25  F   UNL A   1      29.502  24.978  23.699  1.00  0.00    -0.167 F 
ENDBRANCH  16  22
ENDBRANCH   3   6
ENDBRANCH   1   2
BRANCH   1  26
ATOM     26  C   UNL A   1      31.485  32.032  26.711  1.00  0.00     0.042 C 
BRANCH  26  27
ATOM     27  C   UNL A   1      32.691  32.698  27.358  1.00  0.00     0.118 C 
BRANCH  27  28
ATOM     28  N   UNL A   1      32.446  34.108  27.658  1.00  0.00    -0.352 N 
ATOM     29  C   UNL A   1      33.016  34.935  28.595  1.00  0.00     0.251 C 
ATOM     30  H   UNL A   1      31.760  34.535  27.096  1.00  0.00     0.163 HD
ATOM     31  O   UNL A   1      32.508  36.026  28.839  1.00  0.00    -0.269 OA
BRANCH  29  32
ATOM     32  C   UNL A   1      34.225  34.504  29.325  1.00  0.00     0.039 A 
ATOM     33  C   UNL A   1      35.482  34.631  28.739  1.00  0.00     0.014 A 
ATOM     34  C   UNL A   1      34.101  33.964  30.609  1.00  0.00     0.014 A 
ATOM     35  C   UNL A   1      36.580  34.027  29.333  1.00  0.00     0.010 A 
ATOM     36  C   UNL A   1      35.231  33.463  31.261  1.00  0.00     0.010 A 
ATOM     37  C   UNL A   1      36.470  33.439  30.603  1.00  0.00    -0.014 A 
BRANCH  37  38
ATOM     38  C   UNL A   1      37.672  32.810  31.208  1.00  0.00     0.031 A 
ATOM     39  C   UNL A   1      38.173  33.242  32.558  1.00  0.00     0.074 A 
ATOM     40  C   UNL A   1      38.256  31.777  30.570  1.00  0.00     0.049 A 
ATOM     41  N   UNL A   1      39.168  32.756  33.258  1.00  0.00    -0.248 NA
ATOM     42  C   UNL A   1      37.475  34.362  33.209  1.00  0.00     0.031 C 
ATOM     43  C   UNL A   1      37.838  31.250  29.268  1.00  0.00     0.029 A 
ATOM     44  N   UNL A   1      39.283  30.953  30.948  1.00  0.00    -0.354 N 
ATOM     45  C   UNL A   1      39.225  33.518  34.418  1.00  0.00     0.074 A 
ATOM     46  C   UNL A   1      38.188  34.520  34.316  1.00  0.00     0.031 C 
ATOM     47  C   UNL A   1      38.540  30.142  28.999  1.00  0.00     0.029 A 
ATOM     48  C   UNL A   1      39.512  29.927  30.065  1.00  0.00     0.049 A 
ATOM     49  H   UNL A   1      39.806  31.084  31.772  1.00  0.00     0.167 HD
ATOM     50  C   UNL A   1      40.060  33.388  35.475  1.00  0.00     0.031 A 
ATOM     51  C   UNL A   1      40.408  28.923  30.097  1.00  0.00     0.031 A 
ATOM     52  C   UNL A   1      41.092  32.389  35.572  1.00  0.00     0.049 A 
ATOM     53  C   UNL A   1      41.358  28.830  31.251  1.00  0.00     0.074 A 
ATOM     54  C   UNL A   1      41.995  32.183  36.600  1.00  0.00     0.029 A 
ATOM     55  N   UNL A   1      41.352  31.425  34.609  1.00  0.00    -0.354 N 
ATOM     56  N   UNL A   1      41.418  29.579  32.326  1.00  0.00    -0.248 NA
ATOM     57  C   UNL A   1      42.371  27.768  31.195  1.00  0.00     0.031 C 
ATOM     58  C   UNL A   1      42.837  31.128  36.234  1.00  0.00     0.029 A 
ATOM     59  C   UNL A   1      42.418  30.636  35.009  1.00  0.00     0.049 A 
ATOM     60  H   UNL A   1      40.854  31.319  33.767  1.00  0.00     0.167 HD
ATOM     61  C   UNL A   1      42.474  29.081  33.076  1.00  0.00     0.074 A 
ATOM     62  C   UNL A   1      43.011  27.951  32.343  1.00  0.00     0.031 C 
ATOM     63  C   UNL A   1      42.955  29.528  34.261  1.00  0.00     0.031 A 
BRANCH  50  64
ATOM     64  C   UNL A   1      39.909  34.366  36.608  1.00  0.00    -0.014 A 
ATOM     65  C   UNL A   1      40.566  35.605  36.552  1.00  0.00     0.009 A 
ATOM     66  C   UNL A   1      39.162  34.046  37.753  1.00  0.00     0.009 A 
ATOM     67  C   UNL A   1      40.480  36.505  37.617  1.00  0.00     0.001 A 
ATOM     68  C   UNL A   1      39.054  34.959  38.805  1.00  0.00     0.001 A 
ATOM     69  C   UNL A   1      39.717  36.183  38.739  1.00  0.00     0.000 A 
ENDBRANCH  50  64
BRANCH  51  70
ATOM     70  C   UNL A   1      40.419  27.937  28.986  1.00  0.00    -0.014 A 
ATOM     71  C   UNL A   1      41.101  28.220  27.791  1.00  0.00     0.009 A 
ATOM     72  C   UNL A   1      39.661  26.761  29.074  1.00  0.00     0.009 A 
ATOM     73  C   UNL A   1      40.988  27.367  26.691  1.00  0.00     0.001 A 
ATOM     74  C   UNL A   1      39.573  25.895  27.980  1.00  0.00     0.001 A 
ATOM     75  C   UNL A   1      40.224  26.206  26.786  1.00  0.00     0.000 A 
ENDBRANCH  51  70
BRANCH  63  76
ATOM     76  C   UNL A   1      44.131  28.804  34.851  1.00  0.00    -0.014 A 
ATOM     77  C   UNL A   1      43.921  27.742  35.745  1.00  0.00     0.009 A 
ATOM     78  C   UNL A   1      45.443  29.233  34.596  1.00  0.00     0.009 A 
ATOM     79  C   UNL A   1      45.001  27.134  36.386  1.00  0.00     0.001 A 
ATOM     80  C   UNL A   1      46.522  28.605  35.220  1.00  0.00     0.001 A 
ATOM     81  C   UNL A   1      46.300  27.564  36.121  1.00  0.00     0.000 A 
ENDBRANCH  63  76
ENDBRANCH  37  38
ENDBRANCH  29  32
ENDBRANCH  27  28
ENDBRANCH  26  27
ENDBRANCH   1  26
TORSDOF 14
ENDMDL
