MODEL 1
REMARK VINA RESULT:     -10.7      0.000      0.000
REMARK SMILES CC(C)[N@@H+](Cc1cccs1)[C@@H](C)c1ccc(C(=O)NCCCNC(=O)c2ccc(-c3c4nc(c(-c5ccccc5)c5ccc([nH]5)c(-c5ccccc5)c5nc(c(-c6ccccc6)c6ccc3[nH]6)C=C5)C=C4)cc2)o1
REMARK SMILES IDX 20 1 19 2 17 3 18 4 16 6 13 7 14 8 74 9 15 10 11 11 12 12
REMARK SMILES IDX 4 13 2 15 1 16 3 17 5 18 6 19 7 20 10 21 8 22 9 23 21 24
REMARK SMILES IDX 22 25 23 26 24 27 25 29 26 30 27 31 73 32 28 33 72 34 29 35
REMARK SMILES IDX 30 36 31 37 66 38 32 39 71 40 65 41 67 42 33 43 70 44 64 45
REMARK SMILES IDX 63 46 34 48 56 49 41 50 55 51 42 52 45 53 54 54 68 55 43 56
REMARK SMILES IDX 44 57 53 59 69 60 46 61 35 62 36 63 40 64 37 65 39 66 38 67
REMARK SMILES IDX 57 68 58 69 62 70 59 71 61 72 60 73 47 74 48 75 52 76 49 77
REMARK SMILES IDX 51 78 50 79
REMARK H PARENT 19 5 4 14 23 28 67 47 45 58
REMARK Flexibility Score: inf
ROOT
ATOM      1  C   UNL A   1      36.202  20.402  24.954  1.00  0.00     0.118 C 
ENDROOT
BRANCH   1   2
ATOM      2  N   UNL A   1      34.993  19.604  24.879  1.00  0.00    -0.349 N 
ATOM      3  C   UNL A   1      33.724  19.846  25.357  1.00  0.00     0.287 C 
ATOM      4  O   UNL A   1      32.868  19.005  25.034  1.00  0.00    -0.266 OA
ATOM      5  H   UNL A   1      35.098  18.745  24.409  1.00  0.00     0.163 HD
BRANCH   3   6
ATOM      6  C   UNL A   1      33.436  21.001  26.186  1.00  0.00     0.191 A 
ATOM      7  C   UNL A   1      32.239  22.775  26.787  1.00  0.00     0.162 A 
ATOM      8  C   UNL A   1      33.264  22.652  27.703  1.00  0.00     0.053 A 
ATOM      9  O   UNL A   1      32.405  21.840  25.802  1.00  0.00    -0.450 OA
ATOM     10  C   UNL A   1      33.944  21.468  27.386  1.00  0.00     0.057 A 
BRANCH   7  11
ATOM     11  C   UNL A   1      31.051  23.717  26.765  1.00  0.00     0.248 C 
ATOM     12  C   UNL A   1      29.778  22.839  26.752  1.00  0.00     0.084 C 
BRANCH  11  13
ATOM     13  N   UNL A   1      31.082  24.792  25.751  1.00  0.00    -0.320 N 
ATOM     14  H   UNL A   1      32.096  24.791  25.642  1.00  0.00     0.349 HD
BRANCH  13  15
ATOM     15  C   UNL A   1      30.787  24.543  24.330  1.00  0.00     0.178 C 
ATOM     16  C   UNL A   1      29.837  25.585  23.721  1.00  0.00     0.075 C 
ATOM     17  C   UNL A   1      31.971  24.379  23.376  1.00  0.00     0.075 C 
ENDBRANCH  13  15
BRANCH  13  18
ATOM     18  C   UNL A   1      30.647  26.122  26.249  1.00  0.00     0.310 C 
BRANCH  18  19
ATOM     19  C   UNL A   1      31.749  27.099  26.588  1.00  0.00     0.059 A 
ATOM     20  C   UNL A   1      31.669  28.255  27.349  1.00  0.00     0.021 A 
ATOM     21  S   UNL A   1      33.361  26.852  26.046  1.00  0.00    -0.143 S 
ATOM     22  C   UNL A   1      32.827  29.076  27.202  1.00  0.00     0.012 A 
ATOM     23  C   UNL A   1      33.809  28.448  26.471  1.00  0.00     0.065 A 
ENDBRANCH  18  19
ENDBRANCH  13  18
ENDBRANCH  11  13
ENDBRANCH   7  11
ENDBRANCH   3   6
ENDBRANCH   1   2
BRANCH   1  24
ATOM     24  C   UNL A   1      37.465  19.538  24.944  1.00  0.00     0.042 C 
BRANCH  24  25
ATOM     25  C   UNL A   1      38.689  20.289  25.459  1.00  0.00     0.118 C 
BRANCH  25  26
ATOM     26  N   UNL A   1      39.808  19.383  25.696  1.00  0.00    -0.352 N 
ATOM     27  C   UNL A   1      41.097  19.638  26.083  1.00  0.00     0.251 C 
ATOM     28  H   UNL A   1      39.603  18.431  25.553  1.00  0.00     0.163 HD
ATOM     29  O   UNL A   1      41.941  18.753  25.985  1.00  0.00    -0.269 OA
BRANCH  27  30
ATOM     30  C   UNL A   1      41.477  20.961  26.616  1.00  0.00     0.039 A 
ATOM     31  C   UNL A   1      42.020  21.905  25.740  1.00  0.00     0.014 A 
ATOM     32  C   UNL A   1      41.360  21.254  27.977  1.00  0.00     0.014 A 
ATOM     33  C   UNL A   1      42.400  23.158  26.220  1.00  0.00     0.010 A 
ATOM     34  C   UNL A   1      41.668  22.528  28.441  1.00  0.00     0.010 A 
ATOM     35  C   UNL A   1      42.200  23.488  27.570  1.00  0.00    -0.014 A 
BRANCH  35  36
ATOM     36  C   UNL A   1      42.544  24.835  28.088  1.00  0.00     0.031 A 
ATOM     37  C   UNL A   1      43.957  25.151  28.495  1.00  0.00     0.074 A 
ATOM     38  C   UNL A   1      41.569  25.750  28.249  1.00  0.00     0.049 A 
ATOM     39  N   UNL A   1      44.434  26.247  29.029  1.00  0.00    -0.248 NA
ATOM     40  C   UNL A   1      44.958  24.092  28.298  1.00  0.00     0.031 C 
ATOM     41  C   UNL A   1      40.155  25.547  27.926  1.00  0.00     0.029 A 
ATOM     42  N   UNL A   1      41.620  27.031  28.733  1.00  0.00    -0.354 N 
ATOM     43  C   UNL A   1      45.785  26.001  29.244  1.00  0.00     0.074 A 
ATOM     44  C   UNL A   1      46.040  24.638  28.833  1.00  0.00     0.031 C 
ATOM     45  C   UNL A   1      39.476  26.671  28.201  1.00  0.00     0.029 A 
ATOM     46  C   UNL A   1      40.397  27.657  28.757  1.00  0.00     0.049 A 
ATOM     47  H   UNL A   1      42.451  27.462  29.035  1.00  0.00     0.167 HD
ATOM     48  C   UNL A   1      46.734  26.843  29.720  1.00  0.00     0.031 A 
ATOM     49  C   UNL A   1      40.053  28.884  29.190  1.00  0.00     0.031 A 
ATOM     50  C   UNL A   1      46.477  28.199  30.126  1.00  0.00     0.049 A 
ATOM     51  C   UNL A   1      41.120  29.792  29.736  1.00  0.00     0.074 A 
ATOM     52  C   UNL A   1      47.375  29.148  30.583  1.00  0.00     0.029 A 
ATOM     53  N   UNL A   1      45.227  28.799  30.127  1.00  0.00    -0.354 N 
ATOM     54  N   UNL A   1      42.404  29.566  29.874  1.00  0.00    -0.248 NA
ATOM     55  C   UNL A   1      40.690  31.127  30.172  1.00  0.00     0.031 C 
ATOM     56  C   UNL A   1      46.660  30.304  30.910  1.00  0.00     0.029 A 
ATOM     57  C   UNL A   1      45.326  30.097  30.597  1.00  0.00     0.049 A 
ATOM     58  H   UNL A   1      44.392  28.365  29.837  1.00  0.00     0.167 HD
ATOM     59  C   UNL A   1      42.940  30.740  30.387  1.00  0.00     0.074 A 
ATOM     60  C   UNL A   1      41.845  31.680  30.516  1.00  0.00     0.031 C 
ATOM     61  C   UNL A   1      44.224  31.016  30.722  1.00  0.00     0.031 A 
BRANCH  48  62
ATOM     62  C   UNL A   1      48.137  26.314  29.830  1.00  0.00    -0.014 A 
ATOM     63  C   UNL A   1      49.029  26.384  28.748  1.00  0.00     0.009 A 
ATOM     64  C   UNL A   1      48.585  25.764  31.043  1.00  0.00     0.009 A 
ATOM     65  C   UNL A   1      50.327  25.880  28.865  1.00  0.00     0.001 A 
ATOM     66  C   UNL A   1      49.893  25.290  31.166  1.00  0.00     0.001 A 
ATOM     67  C   UNL A   1      50.758  25.339  30.075  1.00  0.00     0.000 A 
ENDBRANCH  48  62
BRANCH  49  68
ATOM     68  C   UNL A   1      38.636  29.327  29.121  1.00  0.00    -0.014 A 
ATOM     69  C   UNL A   1      37.787  29.185  30.229  1.00  0.00     0.009 A 
ATOM     70  C   UNL A   1      38.123  29.893  27.943  1.00  0.00     0.009 A 
ATOM     71  C   UNL A   1      36.447  29.571  30.150  1.00  0.00     0.001 A 
ATOM     72  C   UNL A   1      36.791  30.308  27.876  1.00  0.00     0.001 A 
ATOM     73  C   UNL A   1      35.952  30.137  28.975  1.00  0.00     0.000 A 
ENDBRANCH  49  68
BRANCH  61  74
ATOM     74  C   UNL A   1      44.519  32.402  31.225  1.00  0.00    -0.014 A 
ATOM     75  C   UNL A   1      44.490  32.704  32.595  1.00  0.00     0.009 A 
ATOM     76  C   UNL A   1      44.871  33.410  30.313  1.00  0.00     0.009 A 
ATOM     77  C   UNL A   1      44.772  33.998  33.038  1.00  0.00     0.001 A 
ATOM     78  C   UNL A   1      45.183  34.694  30.761  1.00  0.00     0.001 A 
ATOM     79  C   UNL A   1      45.123  34.989  32.122  1.00  0.00     0.000 A 
ENDBRANCH  61  74
ENDBRANCH  35  36
ENDBRANCH  27  30
ENDBRANCH  25  26
ENDBRANCH  24  25
ENDBRANCH   1  24
TORSDOF 15
ENDMDL
MODEL 2
REMARK VINA RESULT:     -10.5      2.164      7.656
REMARK SMILES CC(C)[N@@H+](Cc1cccs1)[C@@H](C)c1ccc(C(=O)NCCCNC(=O)c2ccc(-c3c4nc(c(-c5ccccc5)c5ccc([nH]5)c(-c5ccccc5)c5nc(c(-c6ccccc6)c6ccc3[nH]6)C=C5)C=C4)cc2)o1
REMARK SMILES IDX 20 1 19 2 17 3 18 4 16 6 13 7 14 8 74 9 15 10 11 11 12 12
REMARK SMILES IDX 4 13 2 15 1 16 3 17 5 18 6 19 7 20 10 21 8 22 9 23 21 24
REMARK SMILES IDX 22 25 23 26 24 27 25 29 26 30 27 31 73 32 28 33 72 34 29 35
REMARK SMILES IDX 30 36 31 37 66 38 32 39 71 40 65 41 67 42 33 43 70 44 64 45
REMARK SMILES IDX 63 46 34 48 56 49 41 50 55 51 42 52 45 53 54 54 68 55 43 56
REMARK SMILES IDX 44 57 53 59 69 60 46 61 35 62 36 63 40 64 37 65 39 66 38 67
REMARK SMILES IDX 57 68 58 69 62 70 59 71 61 72 60 73 47 74 48 75 52 76 49 77
REMARK SMILES IDX 51 78 50 79
REMARK H PARENT 19 5 4 14 23 28 67 47 45 58
REMARK Flexibility Score: inf
ROOT
ATOM      1  C   UNL A   1      32.543  27.728  24.193  1.00  0.00     0.118 C 
ENDROOT
BRANCH   1   2
ATOM      2  N   UNL A   1      31.658  27.570  25.330  1.00  0.00    -0.349 N 
ATOM      3  C   UNL A   1      31.191  26.436  25.957  1.00  0.00     0.287 C 
ATOM      4  O   UNL A   1      30.524  26.637  26.986  1.00  0.00    -0.266 OA
ATOM      5  H   UNL A   1      31.337  28.416  25.719  1.00  0.00     0.163 HD
BRANCH   3   6
ATOM      6  C   UNL A   1      31.462  25.114  25.426  1.00  0.00     0.191 A 
ATOM      7  C   UNL A   1      32.308  23.060  25.526  1.00  0.00     0.162 A 
ATOM      8  C   UNL A   1      31.632  23.159  24.327  1.00  0.00     0.053 A 
ATOM      9  O   UNL A   1      32.299  24.280  26.146  1.00  0.00    -0.450 OA
ATOM     10  C   UNL A   1      31.006  24.413  24.323  1.00  0.00     0.057 A 
BRANCH   7  11
ATOM     11  C   UNL A   1      32.970  21.865  26.183  1.00  0.00     0.248 C 
ATOM     12  C   UNL A   1      33.657  22.380  27.470  1.00  0.00     0.084 C 
BRANCH  11  13
ATOM     13  N   UNL A   1      33.818  21.022  25.315  1.00  0.00    -0.320 N 
ATOM     14  H   UNL A   1      34.405  20.666  26.069  1.00  0.00     0.349 HD
BRANCH  13  15
ATOM     15  C   UNL A   1      33.385  19.699  24.836  1.00  0.00     0.178 C 
ATOM     16  C   UNL A   1      32.486  19.774  23.593  1.00  0.00     0.075 C 
ATOM     17  C   UNL A   1      34.467  18.652  24.565  1.00  0.00     0.075 C 
ENDBRANCH  13  15
BRANCH  13  18
ATOM     18  C   UNL A   1      34.664  21.780  24.357  1.00  0.00     0.310 C 
BRANCH  18  19
ATOM     19  C   UNL A   1      36.089  22.039  24.788  1.00  0.00     0.059 A 
ATOM     20  C   UNL A   1      37.157  21.154  24.804  1.00  0.00     0.021 A 
ATOM     21  S   UNL A   1      36.593  23.592  25.324  1.00  0.00    -0.143 S 
ATOM     22  C   UNL A   1      38.262  21.660  25.552  1.00  0.00     0.012 A 
ATOM     23  C   UNL A   1      38.063  22.966  25.938  1.00  0.00     0.065 A 
ENDBRANCH  18  19
ENDBRANCH  13  18
ENDBRANCH  11  13
ENDBRANCH   7  11
ENDBRANCH   3   6
ENDBRANCH   1   2
BRANCH   1  24
ATOM     24  C   UNL A   1      33.735  28.632  24.510  1.00  0.00     0.042 C 
BRANCH  24  25
ATOM     25  C   UNL A   1      34.073  28.653  25.998  1.00  0.00     0.118 C 
BRANCH  25  26
ATOM     26  N   UNL A   1      33.855  29.975  26.575  1.00  0.00    -0.352 N 
ATOM     27  C   UNL A   1      34.538  30.645  27.555  1.00  0.00     0.251 C 
ATOM     28  H   UNL A   1      33.090  30.467  26.198  1.00  0.00     0.163 HD
ATOM     29  O   UNL A   1      34.038  31.645  28.061  1.00  0.00    -0.269 OA
BRANCH  27  30
ATOM     30  C   UNL A   1      35.864  30.178  28.006  1.00  0.00     0.039 A 
ATOM     31  C   UNL A   1      35.982  29.635  29.289  1.00  0.00     0.014 A 
ATOM     32  C   UNL A   1      36.995  30.327  27.200  1.00  0.00     0.014 A 
ATOM     33  C   UNL A   1      37.226  29.198  29.744  1.00  0.00     0.010 A 
ATOM     34  C   UNL A   1      38.220  29.823  27.625  1.00  0.00     0.010 A 
ATOM     35  C   UNL A   1      38.349  29.263  28.904  1.00  0.00    -0.014 A 
BRANCH  35  36
ATOM     36  C   UNL A   1      39.668  28.751  29.348  1.00  0.00     0.031 A 
ATOM     37  C   UNL A   1      40.556  29.598  30.216  1.00  0.00     0.074 A 
ATOM     38  C   UNL A   1      40.089  27.547  28.915  1.00  0.00     0.049 A 
ATOM     39  N   UNL A   1      41.766  29.350  30.648  1.00  0.00    -0.248 NA
ATOM     40  C   UNL A   1      40.025  30.906  30.633  1.00  0.00     0.031 C 
ATOM     41  C   UNL A   1      39.333  26.649  28.038  1.00  0.00     0.029 A 
ATOM     42  N   UNL A   1      41.261  26.875  29.149  1.00  0.00    -0.354 N 
ATOM     43  C   UNL A   1      42.144  30.473  31.375  1.00  0.00     0.074 A 
ATOM     44  C   UNL A   1      41.059  31.424  31.280  1.00  0.00     0.031 C 
ATOM     45  C   UNL A   1      40.052  25.536  27.826  1.00  0.00     0.029 A 
ATOM     46  C   UNL A   1      41.332  25.659  28.515  1.00  0.00     0.049 A 
ATOM     47  H   UNL A   1      41.983  27.230  29.716  1.00  0.00     0.167 HD
ATOM     48  C   UNL A   1      43.284  30.684  32.076  1.00  0.00     0.031 A 
ATOM     49  C   UNL A   1      42.323  24.748  28.481  1.00  0.00     0.031 A 
ATOM     50  C   UNL A   1      44.360  29.735  32.169  1.00  0.00     0.049 A 
ATOM     51  C   UNL A   1      43.587  25.017  29.249  1.00  0.00     0.074 A 
ATOM     52  C   UNL A   1      45.539  29.834  32.887  1.00  0.00     0.029 A 
ATOM     53  N   UNL A   1      44.390  28.510  31.519  1.00  0.00    -0.354 N 
ATOM     54  N   UNL A   1      43.903  26.056  29.982  1.00  0.00    -0.248 NA
ATOM     55  C   UNL A   1      44.624  23.978  29.194  1.00  0.00     0.031 C 
ATOM     56  C   UNL A   1      46.305  28.693  32.629  1.00  0.00     0.029 A 
ATOM     57  C   UNL A   1      45.576  27.854  31.802  1.00  0.00     0.049 A 
ATOM     58  H   UNL A   1      43.674  28.159  30.941  1.00  0.00     0.167 HD
ATOM     59  C   UNL A   1      45.164  25.785  30.497  1.00  0.00     0.074 A 
ATOM     60  C   UNL A   1      45.544  24.476  30.010  1.00  0.00     0.031 C 
ATOM     61  C   UNL A   1      45.938  26.552  31.304  1.00  0.00     0.031 A 
BRANCH  48  62
ATOM     62  C   UNL A   1      43.421  31.999  32.793  1.00  0.00    -0.014 A 
ATOM     63  C   UNL A   1      43.996  33.115  32.163  1.00  0.00     0.009 A 
ATOM     64  C   UNL A   1      42.941  32.134  34.105  1.00  0.00     0.009 A 
ATOM     65  C   UNL A   1      44.123  34.327  32.845  1.00  0.00     0.001 A 
ATOM     66  C   UNL A   1      43.042  33.357  34.774  1.00  0.00     0.001 A 
ATOM     67  C   UNL A   1      43.641  34.448  34.148  1.00  0.00     0.000 A 
ENDBRANCH  48  62
BRANCH  49  68
ATOM     68  C   UNL A   1      42.157  23.497  27.696  1.00  0.00    -0.014 A 
ATOM     69  C   UNL A   1      41.551  22.369  28.270  1.00  0.00     0.009 A 
ATOM     70  C   UNL A   1      42.607  23.423  26.369  1.00  0.00     0.009 A 
ATOM     71  C   UNL A   1      41.427  21.184  27.541  1.00  0.00     0.001 A 
ATOM     72  C   UNL A   1      42.453  22.247  25.631  1.00  0.00     0.001 A 
ATOM     73  C   UNL A   1      41.873  21.126  26.221  1.00  0.00     0.000 A 
ENDBRANCH  49  68
BRANCH  61  74
ATOM     74  C   UNL A   1      47.257  25.977  31.738  1.00  0.00    -0.014 A 
ATOM     75  C   UNL A   1      48.394  26.054  30.918  1.00  0.00     0.009 A 
ATOM     76  C   UNL A   1      47.372  25.383  33.005  1.00  0.00     0.009 A 
ATOM     77  C   UNL A   1      49.610  25.516  31.345  1.00  0.00     0.001 A 
ATOM     78  C   UNL A   1      48.594  24.874  33.442  1.00  0.00     0.001 A 
ATOM     79  C   UNL A   1      49.709  24.932  32.607  1.00  0.00     0.000 A 
ENDBRANCH  61  74
ENDBRANCH  35  36
ENDBRANCH  27  30
ENDBRANCH  25  26
ENDBRANCH  24  25
ENDBRANCH   1  24
TORSDOF 15
ENDMDL
MODEL 3
REMARK VINA RESULT:     -10.5      3.560      8.866
REMARK SMILES CC(C)[N@@H+](Cc1cccs1)[C@@H](C)c1ccc(C(=O)NCCCNC(=O)c2ccc(-c3c4nc(c(-c5ccccc5)c5ccc([nH]5)c(-c5ccccc5)c5nc(c(-c6ccccc6)c6ccc3[nH]6)C=C5)C=C4)cc2)o1
REMARK SMILES IDX 20 1 19 2 17 3 18 4 16 6 13 7 14 8 74 9 15 10 11 11 12 12
REMARK SMILES IDX 4 13 2 15 1 16 3 17 5 18 6 19 7 20 10 21 8 22 9 23 21 24
REMARK SMILES IDX 22 25 23 26 24 27 25 29 26 30 27 31 73 32 28 33 72 34 29 35
REMARK SMILES IDX 30 36 31 37 66 38 32 39 71 40 65 41 67 42 33 43 70 44 64 45
REMARK SMILES IDX 63 46 34 48 56 49 41 50 55 51 42 52 45 53 54 54 68 55 43 56
REMARK SMILES IDX 44 57 53 59 69 60 46 61 35 62 36 63 40 64 37 65 39 66 38 67
REMARK SMILES IDX 57 68 58 69 62 70 59 71 61 72 60 73 47 74 48 75 52 76 49 77
REMARK SMILES IDX 51 78 50 79
REMARK H PARENT 19 5 4 14 23 28 67 47 45 58
REMARK Flexibility Score: inf
ROOT
ATOM      1  C   UNL A   1      31.224  30.190  25.360  1.00  0.00     0.118 C 
ENDROOT
BRANCH   1   2
ATOM      2  N   UNL A   1      30.827  30.161  23.966  1.00  0.00    -0.349 N 
ATOM      3  C   UNL A   1      30.373  29.125  23.180  1.00  0.00     0.287 C 
ATOM      4  O   UNL A   1      30.009  29.448  22.038  1.00  0.00    -0.266 OA
ATOM      5  H   UNL A   1      30.894  31.028  23.504  1.00  0.00     0.163 HD
BRANCH   3   6
ATOM      6  C   UNL A   1      30.346  27.760  23.672  1.00  0.00     0.191 A 
ATOM      7  C   UNL A   1      31.219  25.995  24.703  1.00  0.00     0.162 A 
ATOM      8  C   UNL A   1      29.928  25.658  24.351  1.00  0.00     0.053 A 
ATOM      9  O   UNL A   1      31.512  27.231  24.195  1.00  0.00    -0.450 OA
ATOM     10  C   UNL A   1      29.347  26.812  23.807  1.00  0.00     0.057 A 
BRANCH   7  11
ATOM     11  C   UNL A   1      32.240  25.238  25.530  1.00  0.00     0.248 C 
ATOM     12  C   UNL A   1      33.242  26.282  26.076  1.00  0.00     0.084 C 
BRANCH  11  13
ATOM     13  N   UNL A   1      32.853  24.052  24.895  1.00  0.00    -0.320 N 
ATOM     14  H   UNL A   1      33.244  23.673  25.757  1.00  0.00     0.349 HD
BRANCH  13  15
ATOM     15  C   UNL A   1      32.074  22.850  24.553  1.00  0.00     0.178 C 
ATOM     16  C   UNL A   1      31.923  22.643  23.039  1.00  0.00     0.075 C 
ATOM     17  C   UNL A   1      32.515  21.520  25.164  1.00  0.00     0.075 C 
ENDBRANCH  13  15
BRANCH  13  18
ATOM     18  C   UNL A   1      33.960  24.361  23.954  1.00  0.00     0.310 C 
BRANCH  18  19
ATOM     19  C   UNL A   1      35.267  23.646  24.206  1.00  0.00     0.059 A 
ATOM     20  C   UNL A   1      36.033  22.914  23.311  1.00  0.00     0.021 A 
ATOM     21  S   UNL A   1      36.025  23.686  25.747  1.00  0.00    -0.143 S 
ATOM     22  C   UNL A   1      37.034  22.139  23.970  1.00  0.00     0.012 A 
ATOM     23  C   UNL A   1      37.102  22.428  25.313  1.00  0.00     0.065 A 
ENDBRANCH  18  19
ENDBRANCH  13  18
ENDBRANCH  11  13
ENDBRANCH   7  11
ENDBRANCH   3   6
ENDBRANCH   1   2
BRANCH   1  24
ATOM     24  C   UNL A   1      31.069  31.582  25.976  1.00  0.00     0.042 C 
BRANCH  24  25
ATOM     25  C   UNL A   1      32.215  31.935  26.919  1.00  0.00     0.118 C 
BRANCH  25  26
ATOM     26  N   UNL A   1      32.193  33.349  27.279  1.00  0.00    -0.352 N 
ATOM     27  C   UNL A   1      32.996  34.068  28.123  1.00  0.00     0.251 C 
ATOM     28  H   UNL A   1      31.482  33.872  26.843  1.00  0.00     0.163 HD
ATOM     29  O   UNL A   1      32.650  35.192  28.471  1.00  0.00    -0.269 OA
BRANCH  27  30
ATOM     30  C   UNL A   1      34.269  33.505  28.615  1.00  0.00     0.039 A 
ATOM     31  C   UNL A   1      34.261  32.771  29.805  1.00  0.00     0.014 A 
ATOM     32  C   UNL A   1      35.473  33.748  27.949  1.00  0.00     0.014 A 
ATOM     33  C   UNL A   1      35.453  32.240  30.299  1.00  0.00     0.010 A 
ATOM     34  C   UNL A   1      36.647  33.155  28.401  1.00  0.00     0.010 A 
ATOM     35  C   UNL A   1      36.650  32.404  29.585  1.00  0.00    -0.014 A 
BRANCH  35  36
ATOM     36  C   UNL A   1      37.916  31.799  30.063  1.00  0.00     0.031 A 
ATOM     37  C   UNL A   1      38.770  32.523  31.067  1.00  0.00     0.074 A 
ATOM     38  C   UNL A   1      38.325  30.625  29.544  1.00  0.00     0.049 A 
ATOM     39  N   UNL A   1      39.938  32.184  31.553  1.00  0.00    -0.248 NA
ATOM     40  C   UNL A   1      38.256  33.805  31.574  1.00  0.00     0.031 C 
ATOM     41  C   UNL A   1      37.602  29.847  28.535  1.00  0.00     0.029 A 
ATOM     42  N   UNL A   1      39.454  29.887  29.789  1.00  0.00    -0.354 N 
ATOM     43  C   UNL A   1      40.301  33.217  32.409  1.00  0.00     0.074 A 
ATOM     44  C   UNL A   1      39.259  34.217  32.335  1.00  0.00     0.031 C 
ATOM     45  C   UNL A   1      38.295  28.730  28.264  1.00  0.00     0.029 A 
ATOM     46  C   UNL A   1      39.527  28.734  29.044  1.00  0.00     0.049 A 
ATOM     47  H   UNL A   1      40.145  30.156  30.434  1.00  0.00     0.167 HD
ATOM     48  C   UNL A   1      41.396  33.314  33.202  1.00  0.00     0.031 A 
ATOM     49  C   UNL A   1      40.486  27.791  28.988  1.00  0.00     0.031 A 
ATOM     50  C   UNL A   1      42.430  32.317  33.273  1.00  0.00     0.049 A 
ATOM     51  C   UNL A   1      41.701  27.933  29.861  1.00  0.00     0.074 A 
ATOM     52  C   UNL A   1      43.558  32.299  34.074  1.00  0.00     0.029 A 
ATOM     53  N   UNL A   1      42.463  31.159  32.510  1.00  0.00    -0.354 N 
ATOM     54  N   UNL A   1      42.001  28.885  30.711  1.00  0.00    -0.248 NA
ATOM     55  C   UNL A   1      42.704  26.863  29.774  1.00  0.00     0.031 C 
ATOM     56  C   UNL A   1      44.301  31.156  33.758  1.00  0.00     0.029 A 
ATOM     57  C   UNL A   1      43.603  30.431  32.805  1.00  0.00     0.049 A 
ATOM     58  H   UNL A   1      41.778  30.894  31.854  1.00  0.00     0.167 HD
ATOM     59  C   UNL A   1      43.212  28.514  31.280  1.00  0.00     0.074 A 
ATOM     60  C   UNL A   1      43.580  27.243  30.693  1.00  0.00     0.031 C 
ATOM     61  C   UNL A   1      43.954  29.169  32.208  1.00  0.00     0.031 A 
BRANCH  48  62
ATOM     62  C   UNL A   1      41.528  34.548  34.051  1.00  0.00    -0.014 A 
ATOM     63  C   UNL A   1      42.222  35.678  33.590  1.00  0.00     0.009 A 
ATOM     64  C   UNL A   1      40.924  34.594  35.318  1.00  0.00     0.009 A 
ATOM     65  C   UNL A   1      42.342  36.814  34.394  1.00  0.00     0.001 A 
ATOM     66  C   UNL A   1      41.019  35.742  36.107  1.00  0.00     0.001 A 
ATOM     67  C   UNL A   1      41.736  36.846  35.649  1.00  0.00     0.000 A 
ENDBRANCH  48  62
BRANCH  49  68
ATOM     68  C   UNL A   1      40.332  26.628  28.075  1.00  0.00    -0.014 A 
ATOM     69  C   UNL A   1      40.881  26.655  26.785  1.00  0.00     0.009 A 
ATOM     70  C   UNL A   1      39.632  25.484  28.491  1.00  0.00     0.009 A 
ATOM     71  C   UNL A   1      40.706  25.573  25.918  1.00  0.00     0.001 A 
ATOM     72  C   UNL A   1      39.485  24.391  27.633  1.00  0.00     0.001 A 
ATOM     73  C   UNL A   1      40.013  24.441  26.345  1.00  0.00     0.000 A 
ENDBRANCH  49  68
BRANCH  61  74
ATOM     74  C   UNL A   1      45.219  28.501  32.670  1.00  0.00    -0.014 A 
ATOM     75  C   UNL A   1      46.434  28.687  31.992  1.00  0.00     0.009 A 
ATOM     76  C   UNL A   1      45.200  27.704  33.826  1.00  0.00     0.009 A 
ATOM     77  C   UNL A   1      47.597  28.060  32.444  1.00  0.00     0.001 A 
ATOM     78  C   UNL A   1      46.369  27.103  34.292  1.00  0.00     0.001 A 
ATOM     79  C   UNL A   1      47.564  27.273  33.595  1.00  0.00     0.000 A 
ENDBRANCH  61  74
ENDBRANCH  35  36
ENDBRANCH  27  30
ENDBRANCH  25  26
ENDBRANCH  24  25
ENDBRANCH   1  24
TORSDOF 15
ENDMDL
