MODEL 1
REMARK VINA RESULT:     -12.7      0.000      0.000
REMARK SMILES Cc1ccc(-c2cc(OCC(=O)NCCCNC(=O)c3ccc(-c4c5nc(c(-c6ccccc6)c6ccc([nH]6)c(-c6ccccc6)c6nc(c(-c7ccccc7)c7ccc4[nH]7)C=C6)C=C5)cc3)nc(NCc3ccc4c(c3)OCO4)n2)cc1
REMARK SMILES IDX 11 1 12 2 13 3 10 5 9 6 8 7 6 8 7 9 81 10 69 11 68 12 5 13
REMARK SMILES IDX 1 14 2 15 3 16 83 17 4 18 82 19 70 20 71 22 72 23 73 24
REMARK SMILES IDX 77 25 74 26 76 27 75 28 78 29 80 30 79 31 14 32 15 33 16 34
REMARK SMILES IDX 17 35 18 36 19 38 20 39 21 40 67 41 22 42 66 43 23 44 24 45
REMARK SMILES IDX 25 46 60 47 26 48 65 49 59 50 61 51 27 52 64 53 58 54 57 55
REMARK SMILES IDX 28 57 50 58 35 59 49 60 36 61 39 62 48 63 62 64 37 65 38 66
REMARK SMILES IDX 47 68 63 69 40 70 29 71 30 72 34 73 31 74 33 75 32 76 51 77
REMARK SMILES IDX 52 78 56 79 53 80 55 81 54 82 41 83 42 84 46 85 43 86 45 87
REMARK SMILES IDX 44 88
REMARK H PARENT 13 4 70 21 17 37 61 56 39 67
REMARK Flexibility Score: inf
ROOT
ATOM      1  C   UNL A   1      31.958  26.631  26.241  1.00  0.00     0.258 C 
ATOM      2  O   UNL A   1      31.411  25.613  26.672  1.00  0.00    -0.271 OA
ATOM      3  N   UNL A   1      31.463  27.851  26.608  1.00  0.00    -0.353 N 
ATOM      4  H   UNL A   1      30.658  27.833  27.176  1.00  0.00     0.163 HD
ENDROOT
BRANCH   1   5
ATOM      5  C   UNL A   1      33.171  26.547  25.308  1.00  0.00     0.331 C 
BRANCH   5   6
ATOM      6  O   UNL A   1      34.307  25.900  25.856  1.00  0.00    -0.467 OA
BRANCH   6   7
ATOM      7  C   UNL A   1      34.708  24.725  25.281  1.00  0.00     0.219 A 
ATOM      8  C   UNL A   1      36.076  22.872  24.904  1.00  0.00     0.080 A 
ATOM      9  C   UNL A   1      35.870  24.062  25.571  1.00  0.00     0.097 A 
ATOM     10  N   UNL A   1      35.227  22.407  23.968  1.00  0.00    -0.213 NA
ATOM     11  C   UNL A   1      34.120  23.123  23.746  1.00  0.00     0.226 A 
ATOM     12  N   UNL A   1      33.823  24.261  24.386  1.00  0.00    -0.177 NA
BRANCH   8  13
ATOM     13  C   UNL A   1      37.217  22.021  25.251  1.00  0.00     0.000 A 
ATOM     14  C   UNL A   1      40.741  19.649  26.072  1.00  0.00     0.044 C 
ATOM     15  C   UNL A   1      39.511  20.467  25.812  1.00  0.00    -0.051 A 
ATOM     16  C   UNL A   1      38.442  19.925  25.088  1.00  0.00     0.004 A 
ATOM     17  C   UNL A   1      39.424  21.785  26.267  1.00  0.00     0.004 A 
ATOM     18  C   UNL A   1      37.302  20.691  24.819  1.00  0.00     0.010 A 
ATOM     19  C   UNL A   1      38.291  22.551  25.987  1.00  0.00     0.010 A 
ENDBRANCH   8  13
BRANCH  11  20
ATOM     20  N   UNL A   1      33.181  22.701  22.843  1.00  0.00    -0.350 N 
ATOM     21  H   UNL A   1      33.301  22.917  21.890  1.00  0.00     0.164 HD
BRANCH  20  22
ATOM     22  C   UNL A   1      32.024  21.947  23.253  1.00  0.00     0.152 C 
BRANCH  22  23
ATOM     23  C   UNL A   1      32.363  20.560  23.773  1.00  0.00    -0.025 A 
ATOM     24  C   UNL A   1      32.526  20.383  25.170  1.00  0.00     0.009 A 
ATOM     25  C   UNL A   1      32.501  19.443  22.928  1.00  0.00     0.056 A 
ATOM     26  C   UNL A   1      32.864  19.138  25.714  1.00  0.00     0.051 A 
ATOM     27  C   UNL A   1      32.858  18.235  23.489  1.00  0.00     0.166 A 
ATOM     28  C   UNL A   1      33.042  18.087  24.842  1.00  0.00     0.165 A 
ATOM     29  O   UNL A   1      33.089  17.082  22.805  1.00  0.00    -0.454 OA
ATOM     30  O   UNL A   1      33.420  16.824  25.178  1.00  0.00    -0.454 OA
ATOM     31  C   UNL A   1      33.587  16.243  23.867  1.00  0.00     0.468 C 
ENDBRANCH  22  23
ENDBRANCH  20  22
ENDBRANCH  11  20
ENDBRANCH   6   7
ENDBRANCH   5   6
ENDBRANCH   1   5
BRANCH   3  32
ATOM     32  C   UNL A   1      31.968  29.172  26.270  1.00  0.00     0.117 C 
BRANCH  32  33
ATOM     33  C   UNL A   1      32.779  29.808  27.390  1.00  0.00     0.042 C 
BRANCH  33  34
ATOM     34  C   UNL A   1      33.840  30.783  26.898  1.00  0.00     0.118 C 
BRANCH  34  35
ATOM     35  N   UNL A   1      34.371  31.671  27.921  1.00  0.00    -0.352 N 
ATOM     36  C   UNL A   1      35.418  31.489  28.819  1.00  0.00     0.251 C 
ATOM     37  H   UNL A   1      33.914  32.542  27.988  1.00  0.00     0.163 HD
ATOM     38  O   UNL A   1      35.654  32.348  29.639  1.00  0.00    -0.269 OA
BRANCH  36  39
ATOM     39  C   UNL A   1      36.330  30.317  28.682  1.00  0.00     0.039 A 
ATOM     40  C   UNL A   1      36.476  29.471  29.793  1.00  0.00     0.014 A 
ATOM     41  C   UNL A   1      37.159  30.148  27.582  1.00  0.00     0.014 A 
ATOM     42  C   UNL A   1      37.603  28.657  29.897  1.00  0.00     0.010 A 
ATOM     43  C   UNL A   1      38.329  29.438  27.728  1.00  0.00     0.010 A 
ATOM     44  C   UNL A   1      38.581  28.744  28.911  1.00  0.00    -0.014 A 
BRANCH  44  45
ATOM     45  C   UNL A   1      39.948  28.271  29.072  1.00  0.00     0.031 A 
ATOM     46  C   UNL A   1      40.380  26.982  28.505  1.00  0.00     0.074 A 
ATOM     47  C   UNL A   1      40.868  29.095  29.617  1.00  0.00     0.049 A 
ATOM     48  N   UNL A   1      41.426  26.341  28.906  1.00  0.00    -0.248 NA
ATOM     49  C   UNL A   1      39.639  26.283  27.463  1.00  0.00     0.031 C 
ATOM     50  C   UNL A   1      42.322  28.992  29.526  1.00  0.00     0.029 A 
ATOM     51  N   UNL A   1      40.662  30.113  30.533  1.00  0.00    -0.354 N 
ATOM     52  C   UNL A   1      41.679  25.359  27.980  1.00  0.00     0.074 A 
ATOM     53  C   UNL A   1      40.483  25.289  27.170  1.00  0.00     0.031 C 
ATOM     54  C   UNL A   1      42.873  29.742  30.494  1.00  0.00     0.029 A 
ATOM     55  C   UNL A   1      41.796  30.213  31.349  1.00  0.00     0.049 A 
ATOM     56  H   UNL A   1      39.855  30.673  30.600  1.00  0.00     0.167 HD
ATOM     57  C   UNL A   1      42.929  24.821  27.902  1.00  0.00     0.031 A 
ATOM     58  C   UNL A   1      41.706  29.967  32.691  1.00  0.00     0.031 A 
ATOM     59  C   UNL A   1      43.835  25.368  28.915  1.00  0.00     0.049 A 
ATOM     60  C   UNL A   1      42.498  28.762  33.168  1.00  0.00     0.074 A 
ATOM     61  C   UNL A   1      44.904  26.250  28.878  1.00  0.00     0.029 A 
ATOM     62  N   UNL A   1      43.520  25.211  30.256  1.00  0.00    -0.354 N 
ATOM     63  N   UNL A   1      43.149  27.948  32.383  1.00  0.00    -0.248 NA
ATOM     64  C   UNL A   1      42.533  28.319  34.563  1.00  0.00     0.031 C 
ATOM     65  C   UNL A   1      45.250  26.589  30.216  1.00  0.00     0.029 A 
ATOM     66  C   UNL A   1      44.396  25.909  31.062  1.00  0.00     0.049 A 
ATOM     67  H   UNL A   1      42.768  24.672  30.589  1.00  0.00     0.167 HD
ATOM     68  C   UNL A   1      43.612  26.879  33.104  1.00  0.00     0.074 A 
ATOM     69  C   UNL A   1      43.209  27.160  34.469  1.00  0.00     0.031 C 
ATOM     70  C   UNL A   1      44.243  25.825  32.506  1.00  0.00     0.031 A 
BRANCH  57  71
ATOM     71  C   UNL A   1      43.412  23.980  26.743  1.00  0.00    -0.014 A 
ATOM     72  C   UNL A   1      43.496  22.583  26.887  1.00  0.00     0.009 A 
ATOM     73  C   UNL A   1      43.830  24.490  25.502  1.00  0.00     0.009 A 
ATOM     74  C   UNL A   1      44.060  21.762  25.902  1.00  0.00     0.001 A 
ATOM     75  C   UNL A   1      44.428  23.682  24.524  1.00  0.00     0.001 A 
ATOM     76  C   UNL A   1      44.556  22.317  24.731  1.00  0.00     0.000 A 
ENDBRANCH  57  71
BRANCH  58  77
ATOM     77  C   UNL A   1      40.402  30.398  33.272  1.00  0.00    -0.014 A 
ATOM     78  C   UNL A   1      40.199  31.771  33.508  1.00  0.00     0.009 A 
ATOM     79  C   UNL A   1      39.283  29.554  33.213  1.00  0.00     0.009 A 
ATOM     80  C   UNL A   1      38.907  32.303  33.565  1.00  0.00     0.001 A 
ATOM     81  C   UNL A   1      37.991  30.090  33.280  1.00  0.00     0.001 A 
ATOM     82  C   UNL A   1      37.804  31.465  33.419  1.00  0.00     0.000 A 
ENDBRANCH  58  77
BRANCH  70  83
ATOM     83  C   UNL A   1      44.749  24.592  33.209  1.00  0.00    -0.014 A 
ATOM     84  C   UNL A   1      43.928  23.530  33.606  1.00  0.00     0.009 A 
ATOM     85  C   UNL A   1      46.105  24.524  33.606  1.00  0.00     0.009 A 
ATOM     86  C   UNL A   1      44.449  22.430  34.306  1.00  0.00     0.001 A 
ATOM     87  C   UNL A   1      46.624  23.444  34.321  1.00  0.00     0.001 A 
ATOM     88  C   UNL A   1      45.796  22.387  34.660  1.00  0.00     0.000 A 
ENDBRANCH  70  83
ENDBRANCH  44  45
ENDBRANCH  36  39
ENDBRANCH  34  35
ENDBRANCH  33  34
ENDBRANCH  32  33
ENDBRANCH   3  32
TORSDOF 16
ENDMDL
MODEL 2
REMARK VINA RESULT:     -12.6      1.829      3.080
REMARK SMILES Cc1ccc(-c2cc(OCC(=O)NCCCNC(=O)c3ccc(-c4c5nc(c(-c6ccccc6)c6ccc([nH]6)c(-c6ccccc6)c6nc(c(-c7ccccc7)c7ccc4[nH]7)C=C6)C=C5)cc3)nc(NCc3ccc4c(c3)OCO4)n2)cc1
REMARK SMILES IDX 11 1 12 2 13 3 10 5 9 6 8 7 6 8 7 9 81 10 69 11 68 12 5 13
REMARK SMILES IDX 1 14 2 15 3 16 83 17 4 18 82 19 70 20 71 22 72 23 73 24
REMARK SMILES IDX 77 25 74 26 76 27 75 28 78 29 80 30 79 31 14 32 15 33 16 34
REMARK SMILES IDX 17 35 18 36 19 38 20 39 21 40 67 41 22 42 66 43 23 44 24 45
REMARK SMILES IDX 25 46 60 47 26 48 65 49 59 50 61 51 27 52 64 53 58 54 57 55
REMARK SMILES IDX 28 57 50 58 35 59 49 60 36 61 39 62 48 63 62 64 37 65 38 66
REMARK SMILES IDX 47 68 63 69 40 70 29 71 30 72 34 73 31 74 33 75 32 76 51 77
REMARK SMILES IDX 52 78 56 79 53 80 55 81 54 82 41 83 42 84 46 85 43 86 45 87
REMARK SMILES IDX 44 88
REMARK H PARENT 13 4 70 21 17 37 61 56 39 67
REMARK Flexibility Score: inf
ROOT
ATOM      1  C   UNL A   1      33.442  28.466  23.812  1.00  0.00     0.258 C 
ATOM      2  O   UNL A   1      34.228  28.446  22.862  1.00  0.00    -0.271 OA
ATOM      3  N   UNL A   1      33.263  29.636  24.495  1.00  0.00    -0.353 N 
ATOM      4  H   UNL A   1      33.817  30.394  24.196  1.00  0.00     0.163 HD
ENDROOT
BRANCH   1   5
ATOM      5  C   UNL A   1      32.674  27.209  24.235  1.00  0.00     0.331 C 
BRANCH   5   6
ATOM      6  O   UNL A   1      33.245  26.490  25.315  1.00  0.00    -0.467 OA
BRANCH   6   7
ATOM      7  C   UNL A   1      33.880  25.312  25.029  1.00  0.00     0.219 A 
ATOM      8  C   UNL A   1      35.612  23.748  25.026  1.00  0.00     0.080 A 
ATOM      9  C   UNL A   1      35.167  25.004  25.381  1.00  0.00     0.097 A 
ATOM     10  N   UNL A   1      34.863  22.885  24.314  1.00  0.00    -0.213 NA
ATOM     11  C   UNL A   1      33.620  23.272  24.009  1.00  0.00     0.226 A 
ATOM     12  N   UNL A   1      33.096  24.453  24.359  1.00  0.00    -0.177 NA
BRANCH   8  13
ATOM     13  C   UNL A   1      36.922  23.275  25.483  1.00  0.00     0.000 A 
ATOM     14  C   UNL A   1      40.650  21.720  27.032  1.00  0.00     0.044 C 
ATOM     15  C   UNL A   1      39.369  22.263  26.472  1.00  0.00    -0.051 A 
ATOM     16  C   UNL A   1      38.973  23.575  26.757  1.00  0.00     0.004 A 
ATOM     17  C   UNL A   1      38.544  21.462  25.679  1.00  0.00     0.004 A 
ATOM     18  C   UNL A   1      37.766  24.080  26.259  1.00  0.00     0.010 A 
ATOM     19  C   UNL A   1      37.335  21.963  25.193  1.00  0.00     0.010 A 
ENDBRANCH   8  13
BRANCH  11  20
ATOM     20  N   UNL A   1      32.774  22.439  23.326  1.00  0.00    -0.350 N 
ATOM     21  H   UNL A   1      32.671  22.552  22.353  1.00  0.00     0.164 HD
BRANCH  20  22
ATOM     22  C   UNL A   1      32.033  21.401  23.996  1.00  0.00     0.152 C 
BRANCH  22  23
ATOM     23  C   UNL A   1      32.589  20.009  23.746  1.00  0.00    -0.025 A 
ATOM     24  C   UNL A   1      32.153  19.304  22.595  1.00  0.00     0.009 A 
ATOM     25  C   UNL A   1      33.531  19.400  24.596  1.00  0.00     0.056 A 
ATOM     26  C   UNL A   1      32.605  18.008  22.318  1.00  0.00     0.051 A 
ATOM     27  C   UNL A   1      33.940  18.114  24.311  1.00  0.00     0.166 A 
ATOM     28  C   UNL A   1      33.485  17.434  23.208  1.00  0.00     0.165 A 
ATOM     29  O   UNL A   1      34.794  17.370  25.064  1.00  0.00    -0.454 OA
ATOM     30  O   UNL A   1      33.989  16.173  23.134  1.00  0.00    -0.454 OA
ATOM     31  C   UNL A   1      34.697  16.099  24.390  1.00  0.00     0.468 C 
ENDBRANCH  22  23
ENDBRANCH  20  22
ENDBRANCH  11  20
ENDBRANCH   6   7
ENDBRANCH   5   6
ENDBRANCH   1   5
BRANCH   3  32
ATOM     32  C   UNL A   1      32.362  29.910  25.602  1.00  0.00     0.117 C 
BRANCH  32  33
ATOM     33  C   UNL A   1      33.034  29.796  26.964  1.00  0.00     0.042 C 
BRANCH  33  34
ATOM     34  C   UNL A   1      34.034  30.909  27.247  1.00  0.00     0.118 C 
BRANCH  34  35
ATOM     35  N   UNL A   1      33.440  32.220  27.456  1.00  0.00    -0.352 N 
ATOM     36  C   UNL A   1      33.770  33.226  28.361  1.00  0.00     0.251 C 
ATOM     37  H   UNL A   1      32.683  32.430  26.862  1.00  0.00     0.163 HD
ATOM     38  O   UNL A   1      33.094  34.229  28.407  1.00  0.00    -0.269 OA
BRANCH  36  39
ATOM     39  C   UNL A   1      35.023  33.132  29.163  1.00  0.00     0.039 A 
ATOM     40  C   UNL A   1      36.149  33.829  28.697  1.00  0.00     0.014 A 
ATOM     41  C   UNL A   1      35.158  32.250  30.226  1.00  0.00     0.014 A 
ATOM     42  C   UNL A   1      37.422  33.443  29.117  1.00  0.00     0.010 A 
ATOM     43  C   UNL A   1      36.411  31.785  30.557  1.00  0.00     0.010 A 
ATOM     44  C   UNL A   1      37.541  32.338  29.955  1.00  0.00    -0.014 A 
BRANCH  44  45
ATOM     45  C   UNL A   1      38.775  31.594  30.156  1.00  0.00     0.031 A 
ATOM     46  C   UNL A   1      39.000  30.298  29.493  1.00  0.00     0.074 A 
ATOM     47  C   UNL A   1      39.786  32.172  30.839  1.00  0.00     0.049 A 
ATOM     48  N   UNL A   1      39.869  29.432  29.896  1.00  0.00    -0.248 NA
ATOM     49  C   UNL A   1      38.230  29.849  28.341  1.00  0.00     0.031 C 
ATOM     50  C   UNL A   1      41.196  31.794  30.834  1.00  0.00     0.029 A 
ATOM     51  N   UNL A   1      39.701  33.129  31.837  1.00  0.00    -0.354 N 
ATOM     52  C   UNL A   1      40.007  28.502  28.896  1.00  0.00     0.074 A 
ATOM     53  C   UNL A   1      38.892  28.738  28.007  1.00  0.00     0.031 C 
ATOM     54  C   UNL A   1      41.797  32.336  31.905  1.00  0.00     0.029 A 
ATOM     55  C   UNL A   1      40.762  32.935  32.731  1.00  0.00     0.049 A 
ATOM     56  H   UNL A   1      39.012  33.829  31.906  1.00  0.00     0.167 HD
ATOM     57  C   UNL A   1      41.135  27.738  28.847  1.00  0.00     0.031 A 
ATOM     58  C   UNL A   1      40.515  32.599  34.034  1.00  0.00     0.031 A 
ATOM     59  C   UNL A   1      42.041  28.008  29.966  1.00  0.00     0.049 A 
ATOM     60  C   UNL A   1      41.022  31.225  34.438  1.00  0.00     0.074 A 
ATOM     61  C   UNL A   1      43.256  28.662  30.086  1.00  0.00     0.029 A 
ATOM     62  N   UNL A   1      41.591  27.803  31.261  1.00  0.00    -0.354 N 
ATOM     63  N   UNL A   1      41.570  30.369  33.621  1.00  0.00    -0.248 NA
ATOM     64  C   UNL A   1      40.856  30.668  35.782  1.00  0.00     0.031 C 
ATOM     65  C   UNL A   1      43.548  28.813  31.471  1.00  0.00     0.029 A 
ATOM     66  C   UNL A   1      42.514  28.244  32.188  1.00  0.00     0.049 A 
ATOM     67  H   UNL A   1      40.725  27.395  31.490  1.00  0.00     0.167 HD
ATOM     68  C   UNL A   1      41.760  29.173  34.260  1.00  0.00     0.074 A 
ATOM     69  C   UNL A   1      41.306  29.411  35.618  1.00  0.00     0.031 C 
ATOM     70  C   UNL A   1      42.228  28.070  33.603  1.00  0.00     0.031 A 
BRANCH  57  71
ATOM     71  C   UNL A   1      41.545  26.920  27.643  1.00  0.00    -0.014 A 
ATOM     72  C   UNL A   1      41.891  25.566  27.811  1.00  0.00     0.009 A 
ATOM     73  C   UNL A   1      41.645  27.416  26.333  1.00  0.00     0.009 A 
ATOM     74  C   UNL A   1      42.406  24.791  26.763  1.00  0.00     0.001 A 
ATOM     75  C   UNL A   1      42.192  26.660  25.286  1.00  0.00     0.001 A 
ATOM     76  C   UNL A   1      42.586  25.349  25.506  1.00  0.00     0.000 A 
ENDBRANCH  57  71
BRANCH  58  77
ATOM     77  C   UNL A   1      39.273  33.226  34.568  1.00  0.00    -0.014 A 
ATOM     78  C   UNL A   1      38.033  32.666  34.201  1.00  0.00     0.009 A 
ATOM     79  C   UNL A   1      39.325  34.066  35.689  1.00  0.00     0.009 A 
ATOM     80  C   UNL A   1      36.903  32.847  35.004  1.00  0.00     0.001 A 
ATOM     81  C   UNL A   1      38.187  34.251  36.485  1.00  0.00     0.001 A 
ATOM     82  C   UNL A   1      36.989  33.614  36.163  1.00  0.00     0.000 A 
ENDBRANCH  58  77
BRANCH  70  83
ATOM     83  C   UNL A   1      42.431  26.706  34.212  1.00  0.00    -0.014 A 
ATOM     84  C   UNL A   1      41.520  26.100  35.085  1.00  0.00     0.009 A 
ATOM     85  C   UNL A   1      43.651  26.023  34.000  1.00  0.00     0.009 A 
ATOM     86  C   UNL A   1      41.789  24.849  35.663  1.00  0.00     0.001 A 
ATOM     87  C   UNL A   1      43.933  24.790  34.589  1.00  0.00     0.001 A 
ATOM     88  C   UNL A   1      42.993  24.195  35.413  1.00  0.00     0.000 A 
ENDBRANCH  70  83
ENDBRANCH  44  45
ENDBRANCH  36  39
ENDBRANCH  34  35
ENDBRANCH  33  34
ENDBRANCH  32  33
ENDBRANCH   3  32
TORSDOF 16
ENDMDL
MODEL 3
REMARK VINA RESULT:     -12.3      2.283      4.405
REMARK SMILES Cc1ccc(-c2cc(OCC(=O)NCCCNC(=O)c3ccc(-c4c5nc(c(-c6ccccc6)c6ccc([nH]6)c(-c6ccccc6)c6nc(c(-c7ccccc7)c7ccc4[nH]7)C=C6)C=C5)cc3)nc(NCc3ccc4c(c3)OCO4)n2)cc1
REMARK SMILES IDX 11 1 12 2 13 3 10 5 9 6 8 7 6 8 7 9 81 10 69 11 68 12 5 13
REMARK SMILES IDX 1 14 2 15 3 16 83 17 4 18 82 19 70 20 71 22 72 23 73 24
REMARK SMILES IDX 77 25 74 26 76 27 75 28 78 29 80 30 79 31 14 32 15 33 16 34
REMARK SMILES IDX 17 35 18 36 19 38 20 39 21 40 67 41 22 42 66 43 23 44 24 45
REMARK SMILES IDX 25 46 60 47 26 48 65 49 59 50 61 51 27 52 64 53 58 54 57 55
REMARK SMILES IDX 28 57 50 58 35 59 49 60 36 61 39 62 48 63 62 64 37 65 38 66
REMARK SMILES IDX 47 68 63 69 40 70 29 71 30 72 34 73 31 74 33 75 32 76 51 77
REMARK SMILES IDX 52 78 56 79 53 80 55 81 54 82 41 83 42 84 46 85 43 86 45 87
REMARK SMILES IDX 44 88
REMARK H PARENT 13 4 70 21 17 37 61 56 39 67
REMARK Flexibility Score: inf
ROOT
ATOM      1  C   UNL A   1      33.464  27.580  23.622  1.00  0.00     0.258 C 
ATOM      2  O   UNL A   1      33.534  27.601  22.390  1.00  0.00    -0.271 OA
ATOM      3  N   UNL A   1      33.212  28.746  24.288  1.00  0.00    -0.353 N 
ATOM      4  H   UNL A   1      33.141  29.552  23.726  1.00  0.00     0.163 HD
ENDROOT
BRANCH   1   5
ATOM      5  C   UNL A   1      33.654  26.276  24.406  1.00  0.00     0.331 C 
BRANCH   5   6
ATOM      6  O   UNL A   1      34.037  25.156  23.627  1.00  0.00    -0.467 OA
BRANCH   6   7
ATOM      7  C   UNL A   1      34.501  24.051  24.288  1.00  0.00     0.219 A 
ATOM      8  C   UNL A   1      34.660  21.793  24.854  1.00  0.00     0.080 A 
ATOM      9  C   UNL A   1      34.036  22.775  24.114  1.00  0.00     0.097 A 
ATOM     10  N   UNL A   1      35.626  22.062  25.752  1.00  0.00    -0.213 NA
ATOM     11  C   UNL A   1      36.014  23.337  25.860  1.00  0.00     0.226 A 
ATOM     12  N   UNL A   1      35.494  24.341  25.143  1.00  0.00    -0.177 NA
BRANCH   8  13
ATOM     13  C   UNL A   1      34.331  20.382  24.632  1.00  0.00     0.000 A 
ATOM     14  C   UNL A   1      33.245  16.212  24.243  1.00  0.00     0.044 C 
ATOM     15  C   UNL A   1      33.620  17.660  24.352  1.00  0.00    -0.051 A 
ATOM     16  C   UNL A   1      34.952  18.030  24.575  1.00  0.00     0.004 A 
ATOM     17  C   UNL A   1      32.646  18.657  24.255  1.00  0.00     0.004 A 
ATOM     18  C   UNL A   1      35.306  19.379  24.704  1.00  0.00     0.010 A 
ATOM     19  C   UNL A   1      32.999  20.000  24.395  1.00  0.00     0.010 A 
ENDBRANCH   8  13
BRANCH  11  20
ATOM     20  N   UNL A   1      37.021  23.694  26.717  1.00  0.00    -0.350 N 
ATOM     21  H   UNL A   1      36.832  23.757  27.681  1.00  0.00     0.164 HD
BRANCH  20  22
ATOM     22  C   UNL A   1      38.351  23.979  26.241  1.00  0.00     0.152 C 
BRANCH  22  23
ATOM     23  C   UNL A   1      39.360  22.900  26.596  1.00  0.00    -0.025 A 
ATOM     24  C   UNL A   1      40.301  23.166  27.624  1.00  0.00     0.009 A 
ATOM     25  C   UNL A   1      39.386  21.642  25.964  1.00  0.00     0.056 A 
ATOM     26  C   UNL A   1      41.275  22.226  27.983  1.00  0.00     0.051 A 
ATOM     27  C   UNL A   1      40.371  20.746  26.322  1.00  0.00     0.166 A 
ATOM     28  C   UNL A   1      41.294  21.032  27.299  1.00  0.00     0.165 A 
ATOM     29  O   UNL A   1      40.568  19.521  25.765  1.00  0.00    -0.454 OA
ATOM     30  O   UNL A   1      42.192  20.025  27.471  1.00  0.00    -0.454 OA
ATOM     31  C   UNL A   1      41.807  19.143  26.395  1.00  0.00     0.468 C 
ENDBRANCH  22  23
ENDBRANCH  20  22
ENDBRANCH  11  20
ENDBRANCH   6   7
ENDBRANCH   5   6
ENDBRANCH   1   5
BRANCH   3  32
ATOM     32  C   UNL A   1      33.037  28.953  25.716  1.00  0.00     0.117 C 
BRANCH  32  33
ATOM     33  C   UNL A   1      34.333  29.303  26.435  1.00  0.00     0.042 C 
BRANCH  33  34
ATOM     34  C   UNL A   1      34.120  29.993  27.775  1.00  0.00     0.118 C 
BRANCH  34  35
ATOM     35  N   UNL A   1      33.605  31.351  27.685  1.00  0.00    -0.352 N 
ATOM     36  C   UNL A   1      34.048  32.525  28.287  1.00  0.00     0.251 C 
ATOM     37  H   UNL A   1      32.816  31.455  27.105  1.00  0.00     0.163 HD
ATOM     38  O   UNL A   1      33.425  33.550  28.122  1.00  0.00    -0.269 OA
BRANCH  36  39
ATOM     39  C   UNL A   1      35.352  32.553  29.009  1.00  0.00     0.039 A 
ATOM     40  C   UNL A   1      36.449  33.133  28.352  1.00  0.00     0.014 A 
ATOM     41  C   UNL A   1      35.552  31.874  30.203  1.00  0.00     0.014 A 
ATOM     42  C   UNL A   1      37.744  32.805  28.751  1.00  0.00     0.010 A 
ATOM     43  C   UNL A   1      36.822  31.452  30.529  1.00  0.00     0.010 A 
ATOM     44  C   UNL A   1      37.912  31.866  29.764  1.00  0.00    -0.014 A 
BRANCH  44  45
ATOM     45  C   UNL A   1      39.152  31.147  30.015  1.00  0.00     0.031 A 
ATOM     46  C   UNL A   1      39.404  29.828  29.409  1.00  0.00     0.074 A 
ATOM     47  C   UNL A   1      40.145  31.764  30.691  1.00  0.00     0.049 A 
ATOM     48  N   UNL A   1      40.276  28.990  29.860  1.00  0.00    -0.248 NA
ATOM     49  C   UNL A   1      38.658  29.323  28.263  1.00  0.00     0.031 C 
ATOM     50  C   UNL A   1      41.559  31.404  30.723  1.00  0.00     0.029 A 
ATOM     51  N   UNL A   1      40.031  32.759  31.648  1.00  0.00    -0.354 N 
ATOM     52  C   UNL A   1      40.442  28.023  28.900  1.00  0.00     0.074 A 
ATOM     53  C   UNL A   1      39.339  28.208  27.985  1.00  0.00     0.031 C 
ATOM     54  C   UNL A   1      42.135  31.997  31.782  1.00  0.00     0.029 A 
ATOM     55  C   UNL A   1      41.079  32.614  32.566  1.00  0.00     0.049 A 
ATOM     56  H   UNL A   1      39.333  33.452  31.678  1.00  0.00     0.167 HD
ATOM     57  C   UNL A   1      41.580  27.271  28.900  1.00  0.00     0.031 A 
ATOM     58  C   UNL A   1      40.815  32.327  33.877  1.00  0.00     0.031 A 
ATOM     59  C   UNL A   1      42.464  27.598  30.022  1.00  0.00     0.049 A 
ATOM     60  C   UNL A   1      41.332  30.978  34.345  1.00  0.00     0.074 A 
ATOM     61  C   UNL A   1      43.669  28.272  30.135  1.00  0.00     0.029 A 
ATOM     62  N   UNL A   1      41.995  27.439  31.317  1.00  0.00    -0.354 N 
ATOM     63  N   UNL A   1      41.904  30.096  33.571  1.00  0.00    -0.248 NA
ATOM     64  C   UNL A   1      41.150  30.472  35.706  1.00  0.00     0.031 C 
ATOM     65  C   UNL A   1      43.936  28.481  31.518  1.00  0.00     0.029 A 
ATOM     66  C   UNL A   1      42.897  27.929  32.240  1.00  0.00     0.049 A 
ATOM     67  H   UNL A   1      41.131  27.030  31.548  1.00  0.00     0.167 HD
ATOM     68  C   UNL A   1      42.098  28.930  34.261  1.00  0.00     0.074 A 
ATOM     69  C   UNL A   1      41.618  29.216  35.600  1.00  0.00     0.031 C 
ATOM     70  C   UNL A   1      42.589  27.807  33.656  1.00  0.00     0.031 A 
BRANCH  57  71
ATOM     71  C   UNL A   1      42.020  26.411  27.738  1.00  0.00    -0.014 A 
ATOM     72  C   UNL A   1      43.121  25.548  27.891  1.00  0.00     0.009 A 
ATOM     73  C   UNL A   1      41.427  26.420  26.464  1.00  0.00     0.009 A 
ATOM     74  C   UNL A   1      43.660  24.826  26.818  1.00  0.00     0.001 A 
ATOM     75  C   UNL A   1      41.980  25.730  25.376  1.00  0.00     0.001 A 
ATOM     76  C   UNL A   1      43.107  24.942  25.551  1.00  0.00     0.000 A 
ENDBRANCH  57  71
BRANCH  58  77
ATOM     77  C   UNL A   1      39.556  32.960  34.365  1.00  0.00    -0.014 A 
ATOM     78  C   UNL A   1      38.405  32.155  34.475  1.00  0.00     0.009 A 
ATOM     79  C   UNL A   1      39.594  34.175  35.063  1.00  0.00     0.009 A 
ATOM     80  C   UNL A   1      37.373  32.500  35.352  1.00  0.00     0.001 A 
ATOM     81  C   UNL A   1      38.553  34.522  35.934  1.00  0.00     0.001 A 
ATOM     82  C   UNL A   1      37.463  33.669  36.104  1.00  0.00     0.000 A 
ENDBRANCH  58  77
BRANCH  70  83
ATOM     83  C   UNL A   1      42.799  26.471  34.323  1.00  0.00    -0.014 A 
ATOM     84  C   UNL A   1      43.921  25.663  34.109  1.00  0.00     0.009 A 
ATOM     85  C   UNL A   1      41.771  25.925  35.126  1.00  0.00     0.009 A 
ATOM     86  C   UNL A   1      44.036  24.403  34.718  1.00  0.00     0.001 A 
ATOM     87  C   UNL A   1      41.870  24.665  35.716  1.00  0.00     0.001 A 
ATOM     88  C   UNL A   1      43.012  23.906  35.522  1.00  0.00     0.000 A 
ENDBRANCH  70  83
ENDBRANCH  44  45
ENDBRANCH  36  39
ENDBRANCH  34  35
ENDBRANCH  33  34
ENDBRANCH  32  33
ENDBRANCH   3  32
TORSDOF 16
ENDMDL
