MODEL 1
REMARK VINA RESULT:     -13.4      0.000      0.000
REMARK SMILES Cc1ccccc1C(=O)Nc1ccc(N2CCCCC2)cc1C(=O)NCCCNC(=O)c1ccc(-c2c3nc(c(-c4ccccc4)c4ccc([nH]4)c(-c4ccccc4)c4nc(c(-c5ccccc5)c5ccc2[nH]5)C=C4)C=C3)cc1
REMARK SMILES IDX 27 1 26 2 25 3 23 4 24 5 22 7 11 8 12 9 13 10 21 11 14 12
REMARK SMILES IDX 10 13 8 14 9 15 7 17 1 18 2 19 3 20 4 21 6 22 5 23 15 24
REMARK SMILES IDX 16 25 20 26 17 27 19 28 18 29 28 30 29 31 30 32 31 34 32 35
REMARK SMILES IDX 33 36 79 37 34 38 78 39 35 40 36 41 37 42 72 43 38 44 77 45
REMARK SMILES IDX 71 46 73 47 39 48 76 49 70 50 69 51 40 53 62 54 47 55 61 56
REMARK SMILES IDX 48 57 51 58 60 59 74 60 49 61 50 62 59 64 75 65 52 66 41 67
REMARK SMILES IDX 42 68 46 69 43 70 45 71 44 72 63 73 64 74 68 75 65 76 67 77
REMARK SMILES IDX 66 78 53 79 54 80 58 81 55 82 57 83 56 84
REMARK H PARENT 25 6 10 16 29 33 73 52 51 63
REMARK Flexibility Score: inf
ROOT
ATOM      1  C   UNL A   1      35.003  29.860  26.630  1.00  0.00     0.042 C 
ENDROOT
BRANCH   1   2
ATOM      2  C   UNL A   1      34.094  28.676  26.395  1.00  0.00     0.118 C 
BRANCH   2   3
ATOM      3  N   UNL A   1      33.093  28.481  27.438  1.00  0.00    -0.352 N 
ATOM      4  C   UNL A   1      31.789  28.032  27.349  1.00  0.00     0.253 C 
ATOM      5  O   UNL A   1      31.129  27.918  28.378  1.00  0.00    -0.269 OA
ATOM      6  H   UNL A   1      33.394  28.704  28.349  1.00  0.00     0.163 HD
BRANCH   4   7
ATOM      7  C   UNL A   1      31.200  27.688  26.031  1.00  0.00     0.065 A 
ATOM      8  C   UNL A   1      30.830  26.386  25.665  1.00  0.00     0.054 A 
ATOM      9  C   UNL A   1      30.319  26.175  24.375  1.00  0.00     0.029 A 
ATOM     10  C   UNL A   1      29.973  27.256  23.566  1.00  0.00     0.028 A 
ATOM     11  C   UNL A   1      31.047  28.727  25.092  1.00  0.00     0.042 A 
ATOM     12  C   UNL A   1      30.266  28.562  23.951  1.00  0.00     0.038 A 
BRANCH   8  13
ATOM     13  N   UNL A   1      30.864  25.226  26.449  1.00  0.00    -0.321 N 
ATOM     14  C   UNL A   1      31.571  24.052  26.392  1.00  0.00     0.255 C 
ATOM     15  O   UNL A   1      31.237  23.160  27.179  1.00  0.00    -0.269 OA
ATOM     16  H   UNL A   1      30.242  25.261  27.211  1.00  0.00     0.170 HD
BRANCH  14  17
ATOM     17  C   UNL A   1      32.798  23.822  25.576  1.00  0.00     0.043 A 
ATOM     18  C   UNL A   1      31.662  22.775  23.506  1.00  0.00     0.045 C 
ATOM     19  C   UNL A   1      32.845  23.300  24.266  1.00  0.00    -0.038 A 
ATOM     20  C   UNL A   1      34.081  23.290  23.584  1.00  0.00     0.004 A 
ATOM     21  C   UNL A   1      35.229  23.847  24.146  1.00  0.00     0.000 A 
ATOM     22  C   UNL A   1      33.969  24.392  26.119  1.00  0.00     0.014 A 
ATOM     23  C   UNL A   1      35.170  24.412  25.411  1.00  0.00     0.001 A 
ENDBRANCH  14  17
ENDBRANCH   8  13
BRANCH  12  24
ATOM     24  N   UNL A   1      29.684  29.634  23.278  1.00  0.00    -0.372 N 
ATOM     25  C   UNL A   1      29.659  30.885  24.062  1.00  0.00     0.116 C 
ATOM     26  C   UNL A   1      29.918  29.828  21.844  1.00  0.00     0.116 C 
ATOM     27  C   UNL A   1      28.563  31.804  23.537  1.00  0.00     0.021 C 
ATOM     28  C   UNL A   1      28.813  30.719  21.276  1.00  0.00     0.021 C 
ATOM     29  C   UNL A   1      28.703  32.040  22.036  1.00  0.00     0.004 C 
ENDBRANCH  12  24
ENDBRANCH   4   7
ENDBRANCH   2   3
ENDBRANCH   1   2
BRANCH   1  30
ATOM     30  C   UNL A   1      34.796  30.504  27.984  1.00  0.00     0.118 C 
BRANCH  30  31
ATOM     31  N   UNL A   1      33.911  31.672  27.922  1.00  0.00    -0.352 N 
ATOM     32  C   UNL A   1      34.081  32.933  28.475  1.00  0.00     0.251 C 
ATOM     33  H   UNL A   1      33.076  31.542  27.417  1.00  0.00     0.163 HD
ATOM     34  O   UNL A   1      33.329  33.852  28.200  1.00  0.00    -0.269 OA
BRANCH  32  35
ATOM     35  C   UNL A   1      35.277  33.159  29.313  1.00  0.00     0.039 A 
ATOM     36  C   UNL A   1      36.363  33.800  28.713  1.00  0.00     0.014 A 
ATOM     37  C   UNL A   1      35.426  32.415  30.478  1.00  0.00     0.014 A 
ATOM     38  C   UNL A   1      37.646  33.451  29.117  1.00  0.00     0.010 A 
ATOM     39  C   UNL A   1      36.698  31.978  30.794  1.00  0.00     0.010 A 
ATOM     40  C   UNL A   1      37.801  32.434  30.058  1.00  0.00    -0.014 A 
BRANCH  40  41
ATOM     41  C   UNL A   1      39.041  31.673  30.193  1.00  0.00     0.031 A 
ATOM     42  C   UNL A   1      39.180  30.344  29.565  1.00  0.00     0.074 A 
ATOM     43  C   UNL A   1      40.093  32.178  30.879  1.00  0.00     0.049 A 
ATOM     44  N   UNL A   1      39.986  29.429  29.989  1.00  0.00    -0.248 NA
ATOM     45  C   UNL A   1      38.358  29.909  28.442  1.00  0.00     0.031 C 
ATOM     46  C   UNL A   1      41.472  31.695  30.866  1.00  0.00     0.029 A 
ATOM     47  N   UNL A   1      40.069  33.109  31.914  1.00  0.00    -0.354 N 
ATOM     48  C   UNL A   1      40.017  28.436  29.042  1.00  0.00     0.074 A 
ATOM     49  C   UNL A   1      38.914  28.729  28.158  1.00  0.00     0.031 C 
ATOM     50  C   UNL A   1      42.103  32.137  31.964  1.00  0.00     0.029 A 
ATOM     51  C   UNL A   1      41.116  32.800  32.797  1.00  0.00     0.049 A 
ATOM     52  H   UNL A   1      39.431  33.853  32.010  1.00  0.00     0.167 HD
ATOM     53  C   UNL A   1      41.060  27.560  29.020  1.00  0.00     0.031 A 
ATOM     54  C   UNL A   1      40.892  32.516  34.113  1.00  0.00     0.031 A 
ATOM     55  C   UNL A   1      41.988  27.776  30.129  1.00  0.00     0.049 A 
ATOM     56  C   UNL A   1      41.367  31.146  34.542  1.00  0.00     0.074 A 
ATOM     57  C   UNL A   1      43.237  28.370  30.214  1.00  0.00     0.029 A 
ATOM     58  N   UNL A   1      41.557  27.581  31.435  1.00  0.00    -0.354 N 
ATOM     59  N   UNL A   1      41.660  30.183  33.714  1.00  0.00    -0.248 NA
ATOM     60  C   UNL A   1      41.491  30.732  35.936  1.00  0.00     0.031 C 
ATOM     61  C   UNL A   1      43.555  28.536  31.587  1.00  0.00     0.029 A 
ATOM     62  C   UNL A   1      42.505  28.032  32.331  1.00  0.00     0.049 A 
ATOM     63  H   UNL A   1      40.694  27.178  31.686  1.00  0.00     0.167 HD
ATOM     64  C   UNL A   1      41.984  29.049  34.415  1.00  0.00     0.074 A 
ATOM     65  C   UNL A   1      41.876  29.449  35.806  1.00  0.00     0.031 C 
ATOM     66  C   UNL A   1      42.292  27.885  33.767  1.00  0.00     0.031 A 
BRANCH  53  67
ATOM     67  C   UNL A   1      41.400  26.701  27.823  1.00  0.00    -0.014 A 
ATOM     68  C   UNL A   1      41.508  25.306  27.981  1.00  0.00     0.009 A 
ATOM     69  C   UNL A   1      41.682  27.190  26.538  1.00  0.00     0.009 A 
ATOM     70  C   UNL A   1      41.978  24.473  26.957  1.00  0.00     0.001 A 
ATOM     71  C   UNL A   1      42.187  26.371  25.518  1.00  0.00     0.001 A 
ATOM     72  C   UNL A   1      42.349  25.011  25.733  1.00  0.00     0.000 A 
ENDBRANCH  53  67
BRANCH  54  73
ATOM     73  C   UNL A   1      39.704  33.205  34.683  1.00  0.00    -0.014 A 
ATOM     74  C   UNL A   1      38.459  32.552  34.625  1.00  0.00     0.009 A 
ATOM     75  C   UNL A   1      39.861  34.279  35.571  1.00  0.00     0.009 A 
ATOM     76  C   UNL A   1      37.432  32.893  35.509  1.00  0.00     0.001 A 
ATOM     77  C   UNL A   1      38.827  34.621  36.450  1.00  0.00     0.001 A 
ATOM     78  C   UNL A   1      37.628  33.908  36.442  1.00  0.00     0.000 A 
ENDBRANCH  54  73
BRANCH  66  79
ATOM     79  C   UNL A   1      42.481  26.503  34.365  1.00  0.00    -0.014 A 
ATOM     80  C   UNL A   1      41.577  25.850  35.209  1.00  0.00     0.009 A 
ATOM     81  C   UNL A   1      43.621  25.752  33.983  1.00  0.00     0.009 A 
ATOM     82  C   UNL A   1      41.806  24.538  35.660  1.00  0.00     0.001 A 
ATOM     83  C   UNL A   1      43.837  24.435  34.397  1.00  0.00     0.001 A 
ATOM     84  C   UNL A   1      42.928  23.828  35.245  1.00  0.00     0.000 A 
ENDBRANCH  66  79
ENDBRANCH  40  41
ENDBRANCH  32  35
ENDBRANCH  30  31
ENDBRANCH   1  30
TORSDOF 13
ENDMDL
MODEL 2
REMARK VINA RESULT:     -13.4      4.205      9.481
REMARK SMILES Cc1ccccc1C(=O)Nc1ccc(N2CCCCC2)cc1C(=O)NCCCNC(=O)c1ccc(-c2c3nc(c(-c4ccccc4)c4ccc([nH]4)c(-c4ccccc4)c4nc(c(-c5ccccc5)c5ccc2[nH]5)C=C4)C=C3)cc1
REMARK SMILES IDX 27 1 26 2 25 3 23 4 24 5 22 7 11 8 12 9 13 10 21 11 14 12
REMARK SMILES IDX 10 13 8 14 9 15 7 17 1 18 2 19 3 20 4 21 6 22 5 23 15 24
REMARK SMILES IDX 16 25 20 26 17 27 19 28 18 29 28 30 29 31 30 32 31 34 32 35
REMARK SMILES IDX 33 36 79 37 34 38 78 39 35 40 36 41 37 42 72 43 38 44 77 45
REMARK SMILES IDX 71 46 73 47 39 48 76 49 70 50 69 51 40 53 62 54 47 55 61 56
REMARK SMILES IDX 48 57 51 58 60 59 74 60 49 61 50 62 59 64 75 65 52 66 41 67
REMARK SMILES IDX 42 68 46 69 43 70 45 71 44 72 63 73 64 74 68 75 65 76 67 77
REMARK SMILES IDX 66 78 53 79 54 80 58 81 55 82 57 83 56 84
REMARK H PARENT 25 6 10 16 29 33 73 52 51 63
REMARK Flexibility Score: inf
ROOT
ATOM      1  C   UNL A   1      38.570  22.133  26.097  1.00  0.00     0.042 C 
ENDROOT
BRANCH   1   2
ATOM      2  C   UNL A   1      37.921  23.463  25.791  1.00  0.00     0.118 C 
BRANCH   2   3
ATOM      3  N   UNL A   1      37.332  23.541  24.459  1.00  0.00    -0.352 N 
ATOM      4  C   UNL A   1      36.114  23.082  23.995  1.00  0.00     0.253 C 
ATOM      5  O   UNL A   1      35.809  23.287  22.824  1.00  0.00    -0.269 OA
ATOM      6  H   UNL A   1      37.889  23.993  23.784  1.00  0.00     0.163 HD
BRANCH   4   7
ATOM      7  C   UNL A   1      35.188  22.356  24.901  1.00  0.00     0.065 A 
ATOM      8  C   UNL A   1      34.405  22.990  25.876  1.00  0.00     0.054 A 
ATOM      9  C   UNL A   1      33.596  22.196  26.702  1.00  0.00     0.029 A 
ATOM     10  C   UNL A   1      33.400  20.847  26.413  1.00  0.00     0.028 A 
ATOM     11  C   UNL A   1      35.133  20.953  24.792  1.00  0.00     0.042 A 
ATOM     12  C   UNL A   1      34.115  20.220  25.396  1.00  0.00     0.038 A 
BRANCH   8  13
ATOM     13  N   UNL A   1      34.283  24.363  26.127  1.00  0.00    -0.321 N 
ATOM     14  C   UNL A   1      33.880  25.441  25.380  1.00  0.00     0.255 C 
ATOM     15  O   UNL A   1      34.041  26.559  25.883  1.00  0.00    -0.269 OA
ATOM     16  H   UNL A   1      34.543  24.608  27.044  1.00  0.00     0.170 HD
BRANCH  14  17
ATOM     17  C   UNL A   1      33.131  25.369  24.094  1.00  0.00     0.043 A 
ATOM     18  C   UNL A   1      30.973  24.271  24.995  1.00  0.00     0.045 C 
ATOM     19  C   UNL A   1      31.813  24.895  23.920  1.00  0.00    -0.038 A 
ATOM     20  C   UNL A   1      31.203  25.039  22.655  1.00  0.00     0.004 A 
ATOM     21  C   UNL A   1      31.843  25.698  21.606  1.00  0.00     0.000 A 
ATOM     22  C   UNL A   1      33.754  26.044  23.023  1.00  0.00     0.014 A 
ATOM     23  C   UNL A   1      33.117  26.213  21.794  1.00  0.00     0.001 A 
ENDBRANCH  14  17
ENDBRANCH   8  13
BRANCH  12  24
ATOM     24  N   UNL A   1      33.723  18.963  24.941  1.00  0.00    -0.372 N 
ATOM     25  C   UNL A   1      34.827  18.168  24.367  1.00  0.00     0.116 C 
ATOM     26  C   UNL A   1      32.740  18.174  25.688  1.00  0.00     0.116 C 
ATOM     27  C   UNL A   1      34.268  17.113  23.421  1.00  0.00     0.021 C 
ATOM     28  C   UNL A   1      32.131  17.126  24.756  1.00  0.00     0.021 C 
ATOM     29  C   UNL A   1      33.205  16.257  24.102  1.00  0.00     0.004 C 
ENDBRANCH  12  24
ENDBRANCH   4   7
ENDBRANCH   2   3
ENDBRANCH   1   2
BRANCH   1  30
ATOM     30  C   UNL A   1      40.058  22.246  26.355  1.00  0.00     0.118 C 
BRANCH  30  31
ATOM     31  N   UNL A   1      40.819  21.147  25.752  1.00  0.00    -0.352 N 
ATOM     32  C   UNL A   1      42.135  20.768  25.970  1.00  0.00     0.251 C 
ATOM     33  H   UNL A   1      40.325  20.601  25.099  1.00  0.00     0.163 HD
ATOM     34  O   UNL A   1      42.579  19.729  25.511  1.00  0.00    -0.269 OA
BRANCH  32  35
ATOM     35  C   UNL A   1      42.948  21.603  26.879  1.00  0.00     0.039 A 
ATOM     36  C   UNL A   1      42.595  21.603  28.230  1.00  0.00     0.014 A 
ATOM     37  C   UNL A   1      43.736  22.609  26.333  1.00  0.00     0.014 A 
ATOM     38  C   UNL A   1      42.785  22.767  28.965  1.00  0.00     0.010 A 
ATOM     39  C   UNL A   1      43.812  23.802  27.027  1.00  0.00     0.010 A 
ATOM     40  C   UNL A   1      43.262  23.904  28.312  1.00  0.00    -0.014 A 
BRANCH  40  41
ATOM     41  C   UNL A   1      43.049  25.252  28.832  1.00  0.00     0.031 A 
ATOM     42  C   UNL A   1      41.876  26.044  28.410  1.00  0.00     0.074 A 
ATOM     43  C   UNL A   1      43.911  25.797  29.722  1.00  0.00     0.049 A 
ATOM     44  N   UNL A   1      41.838  27.334  28.418  1.00  0.00    -0.248 NA
ATOM     45  C   UNL A   1      40.665  25.438  27.870  1.00  0.00     0.031 C 
ATOM     46  C   UNL A   1      43.699  26.986  30.546  1.00  0.00     0.029 A 
ATOM     47  N   UNL A   1      45.260  25.500  29.895  1.00  0.00    -0.354 N 
ATOM     48  C   UNL A   1      40.538  27.710  28.190  1.00  0.00     0.074 A 
ATOM     49  C   UNL A   1      39.873  26.506  27.752  1.00  0.00     0.031 C 
ATOM     50  C   UNL A   1      44.888  27.459  30.948  1.00  0.00     0.029 A 
ATOM     51  C   UNL A   1      45.915  26.680  30.281  1.00  0.00     0.049 A 
ATOM     52  H   UNL A   1      45.680  24.619  29.769  1.00  0.00     0.167 HD
ATOM     53  C   UNL A   1      40.128  28.961  28.541  1.00  0.00     0.031 A 
ATOM     54  C   UNL A   1      46.942  27.208  29.554  1.00  0.00     0.031 A 
ATOM     55  C   UNL A   1      41.227  29.782  29.049  1.00  0.00     0.049 A 
ATOM     56  C   UNL A   1      46.690  28.613  29.054  1.00  0.00     0.074 A 
ATOM     57  C   UNL A   1      41.603  30.172  30.324  1.00  0.00     0.029 A 
ATOM     58  N   UNL A   1      42.283  30.115  28.210  1.00  0.00    -0.354 N 
ATOM     59  N   UNL A   1      45.514  29.172  29.012  1.00  0.00    -0.248 NA
ATOM     60  C   UNL A   1      47.732  29.476  28.505  1.00  0.00     0.031 C 
ATOM     61  C   UNL A   1      42.899  30.742  30.248  1.00  0.00     0.029 A 
ATOM     62  C   UNL A   1      43.303  30.707  28.927  1.00  0.00     0.049 A 
ATOM     63  H   UNL A   1      42.301  29.951  27.239  1.00  0.00     0.167 HD
ATOM     64  C   UNL A   1      45.611  30.416  28.439  1.00  0.00     0.074 A 
ATOM     65  C   UNL A   1      47.025  30.564  28.151  1.00  0.00     0.031 C 
ATOM     66  C   UNL A   1      44.500  31.189  28.245  1.00  0.00     0.031 A 
BRANCH  53  67
ATOM     67  C   UNL A   1      38.675  29.346  28.703  1.00  0.00    -0.014 A 
ATOM     68  C   UNL A   1      38.056  29.199  29.959  1.00  0.00     0.009 A 
ATOM     69  C   UNL A   1      37.845  29.799  27.665  1.00  0.00     0.009 A 
ATOM     70  C   UNL A   1      36.678  29.379  30.137  1.00  0.00     0.001 A 
ATOM     71  C   UNL A   1      36.460  29.947  27.825  1.00  0.00     0.001 A 
ATOM     72  C   UNL A   1      35.873  29.723  29.061  1.00  0.00     0.000 A 
ENDBRANCH  53  67
BRANCH  54  73
ATOM     73  C   UNL A   1      47.746  26.193  28.823  1.00  0.00    -0.014 A 
ATOM     74  C   UNL A   1      47.520  26.024  27.444  1.00  0.00     0.009 A 
ATOM     75  C   UNL A   1      48.930  25.687  29.379  1.00  0.00     0.009 A 
ATOM     76  C   UNL A   1      48.501  25.463  26.623  1.00  0.00     0.001 A 
ATOM     77  C   UNL A   1      49.908  25.119  28.553  1.00  0.00     0.001 A 
ATOM     78  C   UNL A   1      49.707  25.037  27.175  1.00  0.00     0.000 A 
ENDBRANCH  54  73
BRANCH  66  79
ATOM     79  C   UNL A   1      44.387  32.485  27.464  1.00  0.00    -0.014 A 
ATOM     80  C   UNL A   1      44.563  32.621  26.083  1.00  0.00     0.009 A 
ATOM     81  C   UNL A   1      43.984  33.656  28.153  1.00  0.00     0.009 A 
ATOM     82  C   UNL A   1      44.370  33.853  25.434  1.00  0.00     0.001 A 
ATOM     83  C   UNL A   1      43.753  34.875  27.510  1.00  0.00     0.001 A 
ATOM     84  C   UNL A   1      43.954  34.975  26.144  1.00  0.00     0.000 A 
ENDBRANCH  66  79
ENDBRANCH  40  41
ENDBRANCH  32  35
ENDBRANCH  30  31
ENDBRANCH   1  30
TORSDOF 13
ENDMDL
MODEL 3
REMARK VINA RESULT:     -13.1      3.666      9.030
REMARK SMILES Cc1ccccc1C(=O)Nc1ccc(N2CCCCC2)cc1C(=O)NCCCNC(=O)c1ccc(-c2c3nc(c(-c4ccccc4)c4ccc([nH]4)c(-c4ccccc4)c4nc(c(-c5ccccc5)c5ccc2[nH]5)C=C4)C=C3)cc1
REMARK SMILES IDX 27 1 26 2 25 3 23 4 24 5 22 7 11 8 12 9 13 10 21 11 14 12
REMARK SMILES IDX 10 13 8 14 9 15 7 17 1 18 2 19 3 20 4 21 6 22 5 23 15 24
REMARK SMILES IDX 16 25 20 26 17 27 19 28 18 29 28 30 29 31 30 32 31 34 32 35
REMARK SMILES IDX 33 36 79 37 34 38 78 39 35 40 36 41 37 42 72 43 38 44 77 45
REMARK SMILES IDX 71 46 73 47 39 48 76 49 70 50 69 51 40 53 62 54 47 55 61 56
REMARK SMILES IDX 48 57 51 58 60 59 74 60 49 61 50 62 59 64 75 65 52 66 41 67
REMARK SMILES IDX 42 68 46 69 43 70 45 71 44 72 63 73 64 74 68 75 65 76 67 77
REMARK SMILES IDX 66 78 53 79 54 80 58 81 55 82 57 83 56 84
REMARK H PARENT 25 6 10 16 29 33 73 52 51 63
REMARK Flexibility Score: inf
ROOT
ATOM      1  C   UNL A   1      38.778  20.983  25.315  1.00  0.00     0.042 C 
ENDROOT
BRANCH   1   2
ATOM      2  C   UNL A   1      37.349  21.223  24.890  1.00  0.00     0.118 C 
BRANCH   2   3
ATOM      3  N   UNL A   1      36.772  22.454  25.418  1.00  0.00    -0.352 N 
ATOM      4  C   UNL A   1      35.477  22.931  25.352  1.00  0.00     0.253 C 
ATOM      5  O   UNL A   1      35.208  23.996  25.900  1.00  0.00    -0.269 OA
ATOM      6  H   UNL A   1      37.405  23.037  25.897  1.00  0.00     0.163 HD
BRANCH   4   7
ATOM      7  C   UNL A   1      34.428  22.165  24.633  1.00  0.00     0.065 A 
ATOM      8  C   UNL A   1      33.771  22.639  23.490  1.00  0.00     0.054 A 
ATOM      9  C   UNL A   1      32.767  21.843  22.919  1.00  0.00     0.029 A 
ATOM     10  C   UNL A   1      32.588  20.525  23.334  1.00  0.00     0.028 A 
ATOM     11  C   UNL A   1      34.054  20.915  25.163  1.00  0.00     0.042 A 
ATOM     12  C   UNL A   1      33.291  20.015  24.423  1.00  0.00     0.038 A 
BRANCH   8  13
ATOM     13  N   UNL A   1      34.010  23.827  22.786  1.00  0.00    -0.321 N 
ATOM     14  C   UNL A   1      33.485  25.093  22.838  1.00  0.00     0.255 C 
ATOM     15  O   UNL A   1      33.832  25.878  21.948  1.00  0.00    -0.269 OA
ATOM     16  H   UNL A   1      34.711  23.731  22.102  1.00  0.00     0.170 HD
BRANCH  14  17
ATOM     17  C   UNL A   1      32.662  25.641  23.953  1.00  0.00     0.043 A 
ATOM     18  C   UNL A   1      30.439  24.458  23.377  1.00  0.00     0.045 C 
ATOM     19  C   UNL A   1      31.315  25.324  24.233  1.00  0.00    -0.038 A 
ATOM     20  C   UNL A   1      30.734  25.821  25.419  1.00  0.00     0.004 A 
ATOM     21  C   UNL A   1      31.478  26.549  26.347  1.00  0.00     0.000 A 
ATOM     22  C   UNL A   1      33.398  26.368  24.912  1.00  0.00     0.014 A 
ATOM     23  C   UNL A   1      32.817  26.813  26.099  1.00  0.00     0.001 A 
ENDBRANCH  14  17
ENDBRANCH   8  13
BRANCH  12  24
ATOM     24  N   UNL A   1      33.310  18.641  24.659  1.00  0.00    -0.372 N 
ATOM     25  C   UNL A   1      34.590  17.996  24.304  1.00  0.00     0.116 C 
ATOM     26  C   UNL A   1      32.664  18.081  25.849  1.00  0.00     0.116 C 
ATOM     27  C   UNL A   1      34.368  16.510  24.051  1.00  0.00     0.021 C 
ATOM     28  C   UNL A   1      32.393  16.595  25.615  1.00  0.00     0.021 C 
ATOM     29  C   UNL A   1      33.666  15.841  25.229  1.00  0.00     0.004 C 
ENDBRANCH  12  24
ENDBRANCH   4   7
ENDBRANCH   2   3
ENDBRANCH   1   2
BRANCH   1  30
ATOM     30  C   UNL A   1      39.252  21.957  26.373  1.00  0.00     0.118 C 
BRANCH  30  31
ATOM     31  N   UNL A   1      40.664  22.321  26.211  1.00  0.00    -0.352 N 
ATOM     32  C   UNL A   1      41.279  23.551  26.390  1.00  0.00     0.251 C 
ATOM     33  H   UNL A   1      41.259  21.588  25.934  1.00  0.00     0.163 HD
ATOM     34  O   UNL A   1      42.493  23.660  26.374  1.00  0.00    -0.269 OA
BRANCH  32  35
ATOM     35  C   UNL A   1      40.420  24.705  26.726  1.00  0.00     0.039 A 
ATOM     36  C   UNL A   1      40.666  25.902  26.049  1.00  0.00     0.014 A 
ATOM     37  C   UNL A   1      39.702  24.678  27.916  1.00  0.00     0.014 A 
ATOM     38  C   UNL A   1      40.450  27.099  26.718  1.00  0.00     0.010 A 
ATOM     39  C   UNL A   1      39.603  25.861  28.624  1.00  0.00     0.010 A 
ATOM     40  C   UNL A   1      40.054  27.061  28.055  1.00  0.00    -0.014 A 
BRANCH  40  41
ATOM     41  C   UNL A   1      40.261  28.184  28.966  1.00  0.00     0.031 A 
ATOM     42  C   UNL A   1      39.218  29.215  29.137  1.00  0.00     0.074 A 
ATOM     43  C   UNL A   1      41.404  28.294  29.683  1.00  0.00     0.049 A 
ATOM     44  N   UNL A   1      39.459  30.426  29.513  1.00  0.00    -0.248 NA
ATOM     45  C   UNL A   1      37.814  28.979  28.825  1.00  0.00     0.031 C 
ATOM     46  C   UNL A   1      41.649  29.169  30.828  1.00  0.00     0.029 A 
ATOM     47  N   UNL A   1      42.661  27.785  29.369  1.00  0.00    -0.354 N 
ATOM     48  C   UNL A   1      38.251  31.021  29.784  1.00  0.00     0.074 A 
ATOM     49  C   UNL A   1      37.262  30.121  29.242  1.00  0.00     0.031 C 
ATOM     50  C   UNL A   1      42.973  29.328  30.984  1.00  0.00     0.029 A 
ATOM     51  C   UNL A   1      43.624  28.680  29.860  1.00  0.00     0.049 A 
ATOM     52  H   UNL A   1      42.842  26.945  28.888  1.00  0.00     0.167 HD
ATOM     53  C   UNL A   1      38.212  32.134  30.570  1.00  0.00     0.031 A 
ATOM     54  C   UNL A   1      44.539  29.277  29.042  1.00  0.00     0.031 A 
ATOM     55  C   UNL A   1      39.548  32.595  30.945  1.00  0.00     0.049 A 
ATOM     56  C   UNL A   1      44.482  30.789  29.045  1.00  0.00     0.074 A 
ATOM     57  C   UNL A   1      40.287  32.499  32.113  1.00  0.00     0.029 A 
ATOM     58  N   UNL A   1      40.422  33.042  29.962  1.00  0.00    -0.354 N 
ATOM     59  N   UNL A   1      43.475  31.479  29.502  1.00  0.00    -0.248 NA
ATOM     60  C   UNL A   1      45.524  31.639  28.479  1.00  0.00     0.031 C 
ATOM     61  C   UNL A   1      41.620  32.889  31.825  1.00  0.00     0.029 A 
ATOM     62  C   UNL A   1      41.685  33.232  30.488  1.00  0.00     0.049 A 
ATOM     63  H   UNL A   1      40.176  33.200  29.022  1.00  0.00     0.167 HD
ATOM     64  C   UNL A   1      43.697  32.817  29.293  1.00  0.00     0.074 A 
ATOM     65  C   UNL A   1      45.002  32.866  28.660  1.00  0.00     0.031 C 
ATOM     66  C   UNL A   1      42.762  33.749  29.651  1.00  0.00     0.031 A 
BRANCH  53  67
ATOM     67  C   UNL A   1      36.953  32.631  31.245  1.00  0.00    -0.014 A 
ATOM     68  C   UNL A   1      36.098  33.509  30.554  1.00  0.00     0.009 A 
ATOM     69  C   UNL A   1      36.580  32.331  32.565  1.00  0.00     0.009 A 
ATOM     70  C   UNL A   1      35.008  34.133  31.175  1.00  0.00     0.001 A 
ATOM     71  C   UNL A   1      35.514  32.978  33.207  1.00  0.00     0.001 A 
ATOM     72  C   UNL A   1      34.735  33.892  32.514  1.00  0.00     0.000 A 
ENDBRANCH  53  67
BRANCH  54  73
ATOM     73  C   UNL A   1      44.914  28.458  27.859  1.00  0.00    -0.014 A 
ATOM     74  C   UNL A   1      45.745  27.339  28.055  1.00  0.00     0.009 A 
ATOM     75  C   UNL A   1      44.186  28.557  26.664  1.00  0.00     0.009 A 
ATOM     76  C   UNL A   1      45.762  26.293  27.129  1.00  0.00     0.001 A 
ATOM     77  C   UNL A   1      44.212  27.509  25.737  1.00  0.00     0.001 A 
ATOM     78  C   UNL A   1      44.973  26.366  25.984  1.00  0.00     0.000 A 
ENDBRANCH  54  73
BRANCH  66  79
ATOM     79  C   UNL A   1      42.747  35.231  29.325  1.00  0.00    -0.014 A 
ATOM     80  C   UNL A   1      43.447  36.225  30.018  1.00  0.00     0.009 A 
ATOM     81  C   UNL A   1      42.040  35.663  28.174  1.00  0.00     0.009 A 
ATOM     82  C   UNL A   1      43.427  37.567  29.600  1.00  0.00     0.001 A 
ATOM     83  C   UNL A   1      42.046  36.988  27.731  1.00  0.00     0.001 A 
ATOM     84  C   UNL A   1      42.737  37.946  28.452  1.00  0.00     0.000 A 
ENDBRANCH  66  79
ENDBRANCH  40  41
ENDBRANCH  32  35
ENDBRANCH  30  31
ENDBRANCH   1  30
TORSDOF 13
ENDMDL
