MODEL 1
REMARK VINA RESULT:     -11.1      0.000      0.000
REMARK SMILES [NH3+][C@@H](CCCCC(=O)NCCCNC(=O)c1ccc(-c2c3nc(c(-c4ccccc4)c4ccc([nH]4)c(-c4ccccc4)c4nc(c(-c5ccccc5)c5ccc2[nH]5)C=C4)C=C3)cc1)c1ccc2[nH]c(=O)[nH]c2c1
REMARK SMILES IDX 7 1 8 2 9 3 6 5 5 6 4 7 3 8 2 9 1 10 64 14 65 15 73 16 66 17
REMARK SMILES IDX 72 18 67 19 71 20 68 21 69 22 70 25 10 26 11 27 12 28 13 29
REMARK SMILES IDX 14 30 15 32 16 33 17 34 63 35 18 36 62 37 19 38 20 39 21 40
REMARK SMILES IDX 56 41 22 42 61 43 55 44 57 45 23 46 60 47 54 48 53 49 24 51
REMARK SMILES IDX 46 52 31 53 45 54 32 55 35 56 44 57 58 58 33 59 34 60 43 62
REMARK SMILES IDX 59 63 36 64 25 65 26 66 30 67 27 68 29 69 28 70 47 71 48 72
REMARK SMILES IDX 52 73 49 74 51 75 50 76 37 77 38 78 42 79 39 80 41 81 40 82
REMARK H PARENT 9 4 1 11 1 12 1 13 71 23 68 24 13 31 57 50 35 61
REMARK Flexibility Score: inf
ROOT
ATOM      1  C   UNL A   1      32.978  29.065  26.970  1.00  0.00     0.219 C 
ATOM      2  O   UNL A   1      34.121  28.851  27.372  1.00  0.00    -0.275 OA
ATOM      3  N   UNL A   1      32.686  30.301  26.479  1.00  0.00    -0.356 N 
ATOM      4  H   UNL A   1      33.452  30.914  26.395  1.00  0.00     0.163 HD
ENDROOT
BRANCH   1   5
ATOM      5  C   UNL A   1      31.923  27.977  26.973  1.00  0.00     0.100 C 
BRANCH   5   6
ATOM      6  C   UNL A   1      32.380  26.618  26.435  1.00  0.00     0.010 C 
BRANCH   6   7
ATOM      7  C   UNL A   1      31.332  25.540  26.096  1.00  0.00     0.007 C 
BRANCH   7   8
ATOM      8  C   UNL A   1      29.891  25.956  25.734  1.00  0.00     0.070 C 
BRANCH   8   9
ATOM      9  C   UNL A   1      29.502  25.952  24.234  1.00  0.00     0.212 C 
BRANCH   9  10
ATOM     10  N   UNL A   1      30.300  24.961  23.509  1.00  0.00    -0.351 N 
ATOM     11  H   UNL A   1      30.692  24.290  24.170  1.00  0.00     0.345 HD
ATOM     12  H   UNL A   1      31.057  25.431  23.011  1.00  0.00     0.345 HD
ATOM     13  H   UNL A   1      29.706  24.470  22.839  1.00  0.00     0.345 HD
ENDBRANCH   9  10
BRANCH   9  14
ATOM     14  C   UNL A   1      29.556  27.352  23.645  1.00  0.00     0.011 A 
ATOM     15  C   UNL A   1      30.834  27.959  23.458  1.00  0.00     0.012 A 
ATOM     16  C   UNL A   1      28.403  28.022  23.195  1.00  0.00     0.038 A 
ATOM     17  C   UNL A   1      31.000  29.123  22.702  1.00  0.00     0.029 A 
ATOM     18  C   UNL A   1      28.592  29.182  22.482  1.00  0.00     0.067 A 
ATOM     19  C   UNL A   1      29.857  29.696  22.210  1.00  0.00     0.066 A 
ATOM     20  N   UNL A   1      27.656  30.010  21.876  1.00  0.00    -0.306 N 
ATOM     21  N   UNL A   1      29.703  30.811  21.399  1.00  0.00    -0.306 N 
ATOM     22  C   UNL A   1      28.332  31.029  21.189  1.00  0.00     0.323 A 
ATOM     23  H   UNL A   1      26.678  29.900  21.921  1.00  0.00     0.171 HD
ATOM     24  H   UNL A   1      30.433  31.360  21.031  1.00  0.00     0.171 HD
ATOM     25  O   UNL A   1      27.831  31.922  20.537  1.00  0.00    -0.248 OA
ENDBRANCH   9  14
ENDBRANCH   8   9
ENDBRANCH   7   8
ENDBRANCH   6   7
ENDBRANCH   5   6
ENDBRANCH   1   5
BRANCH   3  26
ATOM     26  C   UNL A   1      31.410  30.841  26.064  1.00  0.00     0.117 C 
BRANCH  26  27
ATOM     27  C   UNL A   1      31.273  32.292  26.501  1.00  0.00     0.042 C 
BRANCH  27  28
ATOM     28  C   UNL A   1      32.515  32.827  27.190  1.00  0.00     0.118 C 
BRANCH  28  29
ATOM     29  N   UNL A   1      32.347  34.202  27.628  1.00  0.00    -0.352 N 
ATOM     30  C   UNL A   1      32.989  34.901  28.620  1.00  0.00     0.251 C 
ATOM     31  H   UNL A   1      31.663  34.714  27.136  1.00  0.00     0.163 HD
ATOM     32  O   UNL A   1      32.541  35.988  28.976  1.00  0.00    -0.269 OA
BRANCH  30  33
ATOM     33  C   UNL A   1      34.191  34.345  29.281  1.00  0.00     0.039 A 
ATOM     34  C   UNL A   1      34.029  33.633  30.473  1.00  0.00     0.014 A 
ATOM     35  C   UNL A   1      35.470  34.529  28.751  1.00  0.00     0.014 A 
ATOM     36  C   UNL A   1      35.138  33.051  31.090  1.00  0.00     0.010 A 
ATOM     37  C   UNL A   1      36.558  33.862  29.309  1.00  0.00     0.010 A 
ATOM     38  C   UNL A   1      36.404  33.120  30.486  1.00  0.00    -0.014 A 
BRANCH  38  39
ATOM     39  C   UNL A   1      37.571  32.408  31.069  1.00  0.00     0.031 A 
ATOM     40  C   UNL A   1      38.217  32.910  32.332  1.00  0.00     0.074 A 
ATOM     41  C   UNL A   1      38.081  31.339  30.424  1.00  0.00     0.049 A 
ATOM     42  N   UNL A   1      39.265  32.442  32.963  1.00  0.00    -0.248 NA
ATOM     43  C   UNL A   1      37.625  34.103  32.961  1.00  0.00     0.031 C 
ATOM     44  C   UNL A   1      37.573  30.782  29.167  1.00  0.00     0.029 A 
ATOM     45  N   UNL A   1      39.146  30.530  30.736  1.00  0.00    -0.354 N 
ATOM     46  C   UNL A   1      39.464  33.289  34.045  1.00  0.00     0.074 A 
ATOM     47  C   UNL A   1      38.461  34.326  33.964  1.00  0.00     0.031 C 
ATOM     48  C   UNL A   1      38.302  29.705  28.835  1.00  0.00     0.029 A 
ATOM     49  C   UNL A   1      39.360  29.525  29.823  1.00  0.00     0.049 A 
ATOM     50  H   UNL A   1      39.702  30.657  31.537  1.00  0.00     0.167 HD
ATOM     51  C   UNL A   1      40.391  33.201  35.028  1.00  0.00     0.031 A 
ATOM     52  C   UNL A   1      40.311  28.572  29.776  1.00  0.00     0.031 A 
ATOM     53  C   UNL A   1      41.379  32.160  35.116  1.00  0.00     0.049 A 
ATOM     54  C   UNL A   1      41.340  28.518  30.871  1.00  0.00     0.074 A 
ATOM     55  C   UNL A   1      42.317  31.946  36.112  1.00  0.00     0.029 A 
ATOM     56  N   UNL A   1      41.565  31.165  34.170  1.00  0.00    -0.354 N 
ATOM     57  N   UNL A   1      41.457  29.274  31.936  1.00  0.00    -0.248 NA
ATOM     58  C   UNL A   1      42.367  27.471  30.760  1.00  0.00     0.031 C 
ATOM     59  C   UNL A   1      43.113  30.861  35.736  1.00  0.00     0.029 A 
ATOM     60  C   UNL A   1      42.628  30.359  34.539  1.00  0.00     0.049 A 
ATOM     61  H   UNL A   1      41.022  31.048  33.357  1.00  0.00     0.167 HD
ATOM     62  C   UNL A   1      42.553  28.780  32.631  1.00  0.00     0.074 A 
ATOM     63  C   UNL A   1      43.047  27.643  31.884  1.00  0.00     0.031 C 
ATOM     64  C   UNL A   1      43.106  29.231  33.783  1.00  0.00     0.031 A 
BRANCH  51  65
ATOM     65  C   UNL A   1      40.390  34.261  36.096  1.00  0.00    -0.014 A 
ATOM     66  C   UNL A   1      41.118  35.451  35.942  1.00  0.00     0.009 A 
ATOM     67  C   UNL A   1      39.584  34.100  37.234  1.00  0.00     0.009 A 
ATOM     68  C   UNL A   1      41.053  36.451  36.916  1.00  0.00     0.001 A 
ATOM     69  C   UNL A   1      39.499  35.113  38.192  1.00  0.00     0.001 A 
ATOM     70  C   UNL A   1      40.238  36.283  38.034  1.00  0.00     0.000 A 
ENDBRANCH  51  65
BRANCH  52  71
ATOM     71  C   UNL A   1      40.353  27.599  28.652  1.00  0.00    -0.014 A 
ATOM     72  C   UNL A   1      39.701  26.360  28.750  1.00  0.00     0.009 A 
ATOM     73  C   UNL A   1      41.083  27.886  27.488  1.00  0.00     0.009 A 
ATOM     74  C   UNL A   1      39.816  25.414  27.729  1.00  0.00     0.001 A 
ATOM     75  C   UNL A   1      41.166  26.955  26.452  1.00  0.00     0.001 A 
ATOM     76  C   UNL A   1      40.547  25.714  26.579  1.00  0.00     0.000 A 
ENDBRANCH  52  71
BRANCH  64  77
ATOM     77  C   UNL A   1      44.291  28.476  34.317  1.00  0.00    -0.014 A 
ATOM     78  C   UNL A   1      45.603  28.877  34.023  1.00  0.00     0.009 A 
ATOM     79  C   UNL A   1      44.089  27.369  35.157  1.00  0.00     0.009 A 
ATOM     80  C   UNL A   1      46.690  28.160  34.529  1.00  0.00     0.001 A 
ATOM     81  C   UNL A   1      45.177  26.677  35.689  1.00  0.00     0.001 A 
ATOM     82  C   UNL A   1      46.476  27.065  35.365  1.00  0.00     0.000 A 
ENDBRANCH  64  77
ENDBRANCH  38  39
ENDBRANCH  30  33
ENDBRANCH  28  29
ENDBRANCH  27  28
ENDBRANCH  26  27
ENDBRANCH   3  26
TORSDOF 16
ENDMDL
MODEL 2
REMARK VINA RESULT:     -10.9      0.801      6.091
REMARK SMILES [NH3+][C@@H](CCCCC(=O)NCCCNC(=O)c1ccc(-c2c3nc(c(-c4ccccc4)c4ccc([nH]4)c(-c4ccccc4)c4nc(c(-c5ccccc5)c5ccc2[nH]5)C=C4)C=C3)cc1)c1ccc2[nH]c(=O)[nH]c2c1
REMARK SMILES IDX 7 1 8 2 9 3 6 5 5 6 4 7 3 8 2 9 1 10 64 14 65 15 73 16 66 17
REMARK SMILES IDX 72 18 67 19 71 20 68 21 69 22 70 25 10 26 11 27 12 28 13 29
REMARK SMILES IDX 14 30 15 32 16 33 17 34 63 35 18 36 62 37 19 38 20 39 21 40
REMARK SMILES IDX 56 41 22 42 61 43 55 44 57 45 23 46 60 47 54 48 53 49 24 51
REMARK SMILES IDX 46 52 31 53 45 54 32 55 35 56 44 57 58 58 33 59 34 60 43 62
REMARK SMILES IDX 59 63 36 64 25 65 26 66 30 67 27 68 29 69 28 70 47 71 48 72
REMARK SMILES IDX 52 73 49 74 51 75 50 76 37 77 38 78 42 79 39 80 41 81 40 82
REMARK H PARENT 9 4 1 11 1 12 1 13 71 23 68 24 13 31 57 50 35 61
REMARK Flexibility Score: inf
ROOT
ATOM      1  C   UNL A   1      33.550  29.296  26.404  1.00  0.00     0.219 C 
ATOM      2  O   UNL A   1      34.376  28.846  27.197  1.00  0.00    -0.275 OA
ATOM      3  N   UNL A   1      32.607  30.158  26.873  1.00  0.00    -0.356 N 
ATOM      4  H   UNL A   1      32.716  30.435  27.812  1.00  0.00     0.163 HD
ENDROOT
BRANCH   1   5
ATOM      5  C   UNL A   1      33.596  28.944  24.931  1.00  0.00     0.100 C 
BRANCH   5   6
ATOM      6  C   UNL A   1      34.023  27.508  24.611  1.00  0.00     0.010 C 
BRANCH   6   7
ATOM      7  C   UNL A   1      32.951  26.433  24.349  1.00  0.00     0.007 C 
BRANCH   7   8
ATOM      8  C   UNL A   1      31.744  26.756  23.445  1.00  0.00     0.070 C 
BRANCH   8   9
ATOM      9  C   UNL A   1      30.360  26.905  24.125  1.00  0.00     0.212 C 
BRANCH   9  10
ATOM     10  N   UNL A   1      29.670  25.613  24.152  1.00  0.00    -0.351 N 
ATOM     11  H   UNL A   1      29.945  25.098  24.988  1.00  0.00     0.345 HD
ATOM     12  H   UNL A   1      29.922  25.075  23.322  1.00  0.00     0.345 HD
ATOM     13  H   UNL A   1      28.661  25.766  24.164  1.00  0.00     0.345 HD
ENDBRANCH   9  10
BRANCH   9  14
ATOM     14  C   UNL A   1      29.555  28.032  23.500  1.00  0.00     0.011 A 
ATOM     15  C   UNL A   1      28.144  27.862  23.366  1.00  0.00     0.012 A 
ATOM     16  C   UNL A   1      30.137  29.260  23.140  1.00  0.00     0.038 A 
ATOM     17  C   UNL A   1      27.295  28.924  23.040  1.00  0.00     0.029 A 
ATOM     18  C   UNL A   1      29.283  30.280  22.792  1.00  0.00     0.067 A 
ATOM     19  C   UNL A   1      27.899  30.126  22.781  1.00  0.00     0.066 A 
ATOM     20  N   UNL A   1      29.569  31.596  22.452  1.00  0.00    -0.306 N 
ATOM     21  N   UNL A   1      27.332  31.357  22.481  1.00  0.00    -0.306 N 
ATOM     22  C   UNL A   1      28.362  32.285  22.261  1.00  0.00     0.323 A 
ATOM     23  H   UNL A   1      30.470  31.983  22.360  1.00  0.00     0.171 HD
ATOM     24  H   UNL A   1      26.367  31.547  22.430  1.00  0.00     0.171 HD
ATOM     25  O   UNL A   1      28.232  33.456  21.967  1.00  0.00    -0.248 OA
ENDBRANCH   9  14
ENDBRANCH   8   9
ENDBRANCH   7   8
ENDBRANCH   6   7
ENDBRANCH   5   6
ENDBRANCH   1   5
BRANCH   3  26
ATOM     26  C   UNL A   1      31.465  30.726  26.187  1.00  0.00     0.117 C 
BRANCH  26  27
ATOM     27  C   UNL A   1      31.307  32.198  26.536  1.00  0.00     0.042 C 
BRANCH  27  28
ATOM     28  C   UNL A   1      32.499  32.766  27.284  1.00  0.00     0.118 C 
BRANCH  28  29
ATOM     29  N   UNL A   1      32.311  34.165  27.628  1.00  0.00    -0.352 N 
ATOM     30  C   UNL A   1      32.961  34.945  28.551  1.00  0.00     0.251 C 
ATOM     31  H   UNL A   1      31.605  34.627  27.119  1.00  0.00     0.163 HD
ATOM     32  O   UNL A   1      32.499  36.046  28.840  1.00  0.00    -0.269 OA
BRANCH  30  33
ATOM     33  C   UNL A   1      34.190  34.462  29.219  1.00  0.00     0.039 A 
ATOM     34  C   UNL A   1      34.081  33.903  30.496  1.00  0.00     0.014 A 
ATOM     35  C   UNL A   1      35.444  34.566  28.613  1.00  0.00     0.014 A 
ATOM     36  C   UNL A   1      35.214  33.388  31.128  1.00  0.00     0.010 A 
ATOM     37  C   UNL A   1      36.554  33.962  29.198  1.00  0.00     0.010 A 
ATOM     38  C   UNL A   1      36.452  33.370  30.463  1.00  0.00    -0.014 A 
BRANCH  38  39
ATOM     39  C   UNL A   1      37.641  32.723  31.074  1.00  0.00     0.031 A 
ATOM     40  C   UNL A   1      38.260  31.508  30.436  1.00  0.00     0.074 A 
ATOM     41  C   UNL A   1      38.129  33.201  32.237  1.00  0.00     0.049 A 
ATOM     42  N   UNL A   1      39.273  30.788  30.848  1.00  0.00    -0.248 NA
ATOM     43  C   UNL A   1      37.652  31.023  29.186  1.00  0.00     0.031 C 
ATOM     44  C   UNL A   1      37.590  34.346  32.978  1.00  0.00     0.029 A 
ATOM     45  N   UNL A   1      39.187  32.782  33.004  1.00  0.00    -0.354 N 
ATOM     46  C   UNL A   1      39.411  29.763  29.921  1.00  0.00     0.074 A 
ATOM     47  C   UNL A   1      38.352  29.923  28.950  1.00  0.00     0.031 C 
ATOM     48  C   UNL A   1      38.340  34.557  34.070  1.00  0.00     0.029 A 
ATOM     49  C   UNL A   1      39.379  33.535  34.138  1.00  0.00     0.049 A 
ATOM     50  H   UNL A   1      39.755  32.015  32.765  1.00  0.00     0.167 HD
ATOM     51  C   UNL A   1      40.347  28.786  29.874  1.00  0.00     0.031 A 
ATOM     52  C   UNL A   1      40.282  33.411  35.129  1.00  0.00     0.031 A 
ATOM     53  C   UNL A   1      41.408  28.637  30.832  1.00  0.00     0.049 A 
ATOM     54  C   UNL A   1      41.291  32.298  35.059  1.00  0.00     0.074 A 
ATOM     55  C   UNL A   1      42.446  27.720  30.830  1.00  0.00     0.029 A 
ATOM     56  N   UNL A   1      41.565  29.418  31.966  1.00  0.00    -0.354 N 
ATOM     57  N   UNL A   1      41.462  31.393  34.126  1.00  0.00    -0.248 NA
ATOM     58  C   UNL A   1      42.239  32.196  36.178  1.00  0.00     0.031 C 
ATOM     59  C   UNL A   1      43.192  27.903  31.997  1.00  0.00     0.029 A 
ATOM     60  C   UNL A   1      42.658  28.977  32.692  1.00  0.00     0.049 A 
ATOM     61  H   UNL A   1      40.985  30.172  32.218  1.00  0.00     0.167 HD
ATOM     62  C   UNL A   1      42.548  30.631  34.533  1.00  0.00     0.074 A 
ATOM     63  C   UNL A   1      43.015  31.198  35.781  1.00  0.00     0.031 C 
ATOM     64  C   UNL A   1      43.108  29.553  33.932  1.00  0.00     0.031 A 
BRANCH  51  65
ATOM     65  C   UNL A   1      40.270  27.790  28.750  1.00  0.00    -0.014 A 
ATOM     66  C   UNL A   1      40.903  28.026  27.520  1.00  0.00     0.009 A 
ATOM     67  C   UNL A   1      39.623  26.560  28.955  1.00  0.00     0.009 A 
ATOM     68  C   UNL A   1      40.873  27.060  26.511  1.00  0.00     0.001 A 
ATOM     69  C   UNL A   1      39.619  25.586  27.955  1.00  0.00     0.001 A 
ATOM     70  C   UNL A   1      40.239  25.839  26.733  1.00  0.00     0.000 A 
ENDBRANCH  51  65
BRANCH  52  71
ATOM     71  C   UNL A   1      40.270  34.347  36.286  1.00  0.00    -0.014 A 
ATOM     72  C   UNL A   1      39.535  34.048  37.444  1.00  0.00     0.009 A 
ATOM     73  C   UNL A   1      40.962  35.567  36.222  1.00  0.00     0.009 A 
ATOM     74  C   UNL A   1      39.456  34.969  38.491  1.00  0.00     0.001 A 
ATOM     75  C   UNL A   1      40.912  36.469  37.285  1.00  0.00     0.001 A 
ATOM     76  C   UNL A   1      40.147  36.177  38.412  1.00  0.00     0.000 A 
ENDBRANCH  52  71
BRANCH  64  77
ATOM     77  C   UNL A   1      44.302  28.935  34.604  1.00  0.00    -0.014 A 
ATOM     78  C   UNL A   1      44.154  27.918  35.560  1.00  0.00     0.009 A 
ATOM     79  C   UNL A   1      45.594  29.353  34.248  1.00  0.00     0.009 A 
ATOM     80  C   UNL A   1      45.278  27.358  36.173  1.00  0.00     0.001 A 
ATOM     81  C   UNL A   1      46.715  28.766  34.836  1.00  0.00     0.001 A 
ATOM     82  C   UNL A   1      46.555  27.778  35.806  1.00  0.00     0.000 A 
ENDBRANCH  64  77
ENDBRANCH  38  39
ENDBRANCH  30  33
ENDBRANCH  28  29
ENDBRANCH  27  28
ENDBRANCH  26  27
ENDBRANCH   3  26
TORSDOF 16
ENDMDL
MODEL 3
REMARK VINA RESULT:     -10.9      6.335     10.667
REMARK SMILES [NH3+][C@@H](CCCCC(=O)NCCCNC(=O)c1ccc(-c2c3nc(c(-c4ccccc4)c4ccc([nH]4)c(-c4ccccc4)c4nc(c(-c5ccccc5)c5ccc2[nH]5)C=C4)C=C3)cc1)c1ccc2[nH]c(=O)[nH]c2c1
REMARK SMILES IDX 7 1 8 2 9 3 6 5 5 6 4 7 3 8 2 9 1 10 64 14 65 15 73 16 66 17
REMARK SMILES IDX 72 18 67 19 71 20 68 21 69 22 70 25 10 26 11 27 12 28 13 29
REMARK SMILES IDX 14 30 15 32 16 33 17 34 63 35 18 36 62 37 19 38 20 39 21 40
REMARK SMILES IDX 56 41 22 42 61 43 55 44 57 45 23 46 60 47 54 48 53 49 24 51
REMARK SMILES IDX 46 52 31 53 45 54 32 55 35 56 44 57 58 58 33 59 34 60 43 62
REMARK SMILES IDX 59 63 36 64 25 65 26 66 30 67 27 68 29 69 28 70 47 71 48 72
REMARK SMILES IDX 52 73 49 74 51 75 50 76 37 77 38 78 42 79 39 80 41 81 40 82
REMARK H PARENT 9 4 1 11 1 12 1 13 71 23 68 24 13 31 57 50 35 61
REMARK Flexibility Score: inf
ROOT
ATOM      1  C   UNL A   1      37.185  22.970  25.010  1.00  0.00     0.219 C 
ATOM      2  O   UNL A   1      37.542  23.847  25.796  1.00  0.00    -0.275 OA
ATOM      3  N   UNL A   1      37.200  21.676  25.434  1.00  0.00    -0.356 N 
ATOM      4  H   UNL A   1      37.412  21.546  26.387  1.00  0.00     0.163 HD
ENDROOT
BRANCH   1   5
ATOM      5  C   UNL A   1      36.694  23.310  23.617  1.00  0.00     0.100 C 
BRANCH   5   6
ATOM      6  C   UNL A   1      35.252  22.896  23.309  1.00  0.00     0.010 C 
BRANCH   6   7
ATOM      7  C   UNL A   1      34.151  23.126  24.362  1.00  0.00     0.007 C 
BRANCH   7   8
ATOM      8  C   UNL A   1      32.728  22.582  24.118  1.00  0.00     0.070 C 
BRANCH   8   9
ATOM      9  C   UNL A   1      32.130  21.638  25.191  1.00  0.00     0.212 C 
BRANCH   9  10
ATOM     10  N   UNL A   1      32.638  21.997  26.517  1.00  0.00    -0.351 N 
ATOM     11  H   UNL A   1      32.448  22.983  26.699  1.00  0.00     0.345 HD
ATOM     12  H   UNL A   1      33.643  21.831  26.554  1.00  0.00     0.345 HD
ATOM     13  H   UNL A   1      32.173  21.426  27.225  1.00  0.00     0.345 HD
ENDBRANCH   9  10
BRANCH   9  14
ATOM     14  C   UNL A   1      32.331  20.179  24.817  1.00  0.00     0.011 A 
ATOM     15  C   UNL A   1      32.274  19.819  23.438  1.00  0.00     0.012 A 
ATOM     16  C   UNL A   1      32.663  19.200  25.771  1.00  0.00     0.038 A 
ATOM     17  C   UNL A   1      32.690  18.566  22.979  1.00  0.00     0.029 A 
ATOM     18  C   UNL A   1      33.037  17.965  25.296  1.00  0.00     0.067 A 
ATOM     19  C   UNL A   1      33.087  17.670  23.936  1.00  0.00     0.066 A 
ATOM     20  N   UNL A   1      33.465  16.842  25.992  1.00  0.00    -0.306 N 
ATOM     21  N   UNL A   1      33.589  16.384  23.793  1.00  0.00    -0.306 N 
ATOM     22  C   UNL A   1      33.820  15.847  25.069  1.00  0.00     0.323 A 
ATOM     23  H   UNL A   1      33.512  16.757  26.973  1.00  0.00     0.171 HD
ATOM     24  H   UNL A   1      33.755  15.924  22.939  1.00  0.00     0.171 HD
ATOM     25  O   UNL A   1      34.249  14.739  25.324  1.00  0.00    -0.248 OA
ENDBRANCH   9  14
ENDBRANCH   8   9
ENDBRANCH   7   8
ENDBRANCH   6   7
ENDBRANCH   5   6
ENDBRANCH   1   5
BRANCH   3  26
ATOM     26  C   UNL A   1      36.951  20.465  24.682  1.00  0.00     0.117 C 
BRANCH  26  27
ATOM     27  C   UNL A   1      37.994  19.406  25.009  1.00  0.00     0.042 C 
BRANCH  27  28
ATOM     28  C   UNL A   1      39.238  19.976  25.665  1.00  0.00     0.118 C 
BRANCH  28  29
ATOM     29  N   UNL A   1      40.267  18.967  25.852  1.00  0.00    -0.352 N 
ATOM     30  C   UNL A   1      41.603  19.106  26.134  1.00  0.00     0.251 C 
ATOM     31  H   UNL A   1      39.957  18.036  25.763  1.00  0.00     0.163 HD
ATOM     32  O   UNL A   1      42.343  18.131  26.034  1.00  0.00    -0.269 OA
BRANCH  30  33
ATOM     33  C   UNL A   1      42.161  20.419  26.527  1.00  0.00     0.039 A 
ATOM     34  C   UNL A   1      42.724  21.229  25.536  1.00  0.00     0.014 A 
ATOM     35  C   UNL A   1      42.150  20.854  27.854  1.00  0.00     0.014 A 
ATOM     36  C   UNL A   1      43.208  22.496  25.867  1.00  0.00     0.010 A 
ATOM     37  C   UNL A   1      42.538  22.155  28.165  1.00  0.00     0.010 A 
ATOM     38  C   UNL A   1      43.075  22.988  27.176  1.00  0.00    -0.014 A 
BRANCH  38  39
ATOM     39  C   UNL A   1      43.479  24.376  27.519  1.00  0.00     0.031 A 
ATOM     40  C   UNL A   1      42.442  25.403  27.886  1.00  0.00     0.074 A 
ATOM     41  C   UNL A   1      44.780  24.722  27.443  1.00  0.00     0.049 A 
ATOM     42  N   UNL A   1      42.605  26.670  28.175  1.00  0.00    -0.248 NA
ATOM     43  C   UNL A   1      41.038  24.960  27.915  1.00  0.00     0.031 C 
ATOM     44  C   UNL A   1      45.876  23.829  27.055  1.00  0.00     0.029 A 
ATOM     45  N   UNL A   1      45.403  25.921  27.686  1.00  0.00    -0.354 N 
ATOM     46  C   UNL A   1      41.330  27.173  28.401  1.00  0.00     0.074 A 
ATOM     47  C   UNL A   1      40.399  26.092  28.172  1.00  0.00     0.031 C 
ATOM     48  C   UNL A   1      47.036  24.501  27.119  1.00  0.00     0.029 A 
ATOM     49  C   UNL A   1      46.765  25.882  27.501  1.00  0.00     0.049 A 
ATOM     50  H   UNL A   1      44.921  26.731  27.966  1.00  0.00     0.167 HD
ATOM     51  C   UNL A   1      40.970  28.421  28.782  1.00  0.00     0.031 A 
ATOM     52  C   UNL A   1      47.691  26.853  27.613  1.00  0.00     0.031 A 
ATOM     53  C   UNL A   1      41.898  29.492  29.024  1.00  0.00     0.049 A 
ATOM     54  C   UNL A   1      47.253  28.235  28.013  1.00  0.00     0.074 A 
ATOM     55  C   UNL A   1      41.634  30.772  29.480  1.00  0.00     0.029 A 
ATOM     56  N   UNL A   1      43.266  29.413  28.822  1.00  0.00    -0.354 N 
ATOM     57  N   UNL A   1      46.052  28.668  28.311  1.00  0.00    -0.248 NA
ATOM     58  C   UNL A   1      48.303  29.261  28.099  1.00  0.00     0.031 C 
ATOM     59  C   UNL A   1      42.834  31.488  29.491  1.00  0.00     0.029 A 
ATOM     60  C   UNL A   1      43.854  30.634  29.105  1.00  0.00     0.049 A 
ATOM     61  H   UNL A   1      43.748  28.609  28.522  1.00  0.00     0.167 HD
ATOM     62  C   UNL A   1      46.206  30.008  28.641  1.00  0.00     0.074 A 
ATOM     63  C   UNL A   1      47.619  30.307  28.537  1.00  0.00     0.031 C 
ATOM     64  C   UNL A   1      45.262  30.914  28.995  1.00  0.00     0.031 A 
BRANCH  51  65
ATOM     65  C   UNL A   1      39.504  28.708  28.960  1.00  0.00    -0.014 A 
ATOM     66  C   UNL A   1      38.868  28.521  30.198  1.00  0.00     0.009 A 
ATOM     67  C   UNL A   1      38.768  29.251  27.894  1.00  0.00     0.009 A 
ATOM     68  C   UNL A   1      37.521  28.854  30.359  1.00  0.00     0.001 A 
ATOM     69  C   UNL A   1      37.429  29.610  28.067  1.00  0.00     0.001 A 
ATOM     70  C   UNL A   1      36.807  29.405  29.296  1.00  0.00     0.000 A 
ENDBRANCH  51  65
BRANCH  52  71
ATOM     71  C   UNL A   1      49.124  26.569  27.328  1.00  0.00    -0.014 A 
ATOM     72  C   UNL A   1      49.640  26.712  26.030  1.00  0.00     0.009 A 
ATOM     73  C   UNL A   1      49.976  26.111  28.346  1.00  0.00     0.009 A 
ATOM     74  C   UNL A   1      50.962  26.360  25.749  1.00  0.00     0.001 A 
ATOM     75  C   UNL A   1      51.307  25.796  28.071  1.00  0.00     0.001 A 
ATOM     76  C   UNL A   1      51.795  25.905  26.770  1.00  0.00     0.000 A 
ENDBRANCH  52  71
BRANCH  64  77
ATOM     77  C   UNL A   1      45.731  32.304  29.320  1.00  0.00    -0.014 A 
ATOM     78  C   UNL A   1      46.136  32.651  30.618  1.00  0.00     0.009 A 
ATOM     79  C   UNL A   1      45.803  33.270  28.303  1.00  0.00     0.009 A 
ATOM     80  C   UNL A   1      46.568  33.949  30.899  1.00  0.00     0.001 A 
ATOM     81  C   UNL A   1      46.269  34.555  28.579  1.00  0.00     0.001 A 
ATOM     82  C   UNL A   1      46.639  34.897  29.879  1.00  0.00     0.000 A 
ENDBRANCH  64  77
ENDBRANCH  38  39
ENDBRANCH  30  33
ENDBRANCH  28  29
ENDBRANCH  27  28
ENDBRANCH  26  27
ENDBRANCH   3  26
TORSDOF 16
ENDMDL
