MODEL 1
REMARK VINA RESULT:     -12.5      0.000      0.000
REMARK SMILES COc1ccc(-n2ccnc2C[N@@H+]2Cc3[nH]cnc3C[C@@H]2C(=O)NCCCNC(=O)c2ccc(-c3c4nc(c(-c5ccccc5)c5ccc([nH]5)c(-c5ccccc5)c5nc(c(-c6ccccc6)c6ccc3[nH]6)C=C5)C=C4)cc2)cc1
REMARK SMILES IDX 25 1 24 2 22 3 23 4 21 6 13 7 14 8 15 10 20 11 16 12 19 13
REMARK SMILES IDX 17 14 18 16 12 17 11 18 7 19 8 20 9 21 10 22 6 23 3 24 4 25
REMARK SMILES IDX 80 26 5 27 79 28 2 29 1 30 26 31 27 32 28 33 29 34 30 36
REMARK SMILES IDX 31 37 32 38 78 39 33 40 77 41 34 42 35 43 36 44 71 45 37 46
REMARK SMILES IDX 76 47 70 48 72 49 38 50 75 51 69 52 68 53 39 55 61 56 46 57
REMARK SMILES IDX 60 58 47 59 50 60 59 61 73 62 48 63 49 64 58 66 74 67 51 68
REMARK SMILES IDX 40 69 41 70 45 71 42 72 44 73 43 74 62 75 63 76 67 77 64 78
REMARK SMILES IDX 66 79 65 80 52 81 53 82 57 83 54 84 56 85 55 86
REMARK H PARENT 24 5 13 9 16 15 28 35 72 54 50 65
REMARK Flexibility Score: inf
ROOT
ATOM      1  C   UNL A   1      31.538  30.387  26.418  1.00  0.00     0.118 C 
ENDROOT
BRANCH   1   2
ATOM      2  N   UNL A   1      32.812  29.949  25.850  1.00  0.00    -0.351 N 
ATOM      3  C   UNL A   1      33.196  29.002  24.946  1.00  0.00     0.278 C 
ATOM      4  O   UNL A   1      34.414  28.788  24.946  1.00  0.00    -0.268 OA
ATOM      5  H   UNL A   1      33.575  30.460  26.205  1.00  0.00     0.163 HD
BRANCH   3   6
ATOM      6  C   UNL A   1      32.202  28.210  24.039  1.00  0.00     0.280 C 
ATOM      7  N   UNL A   1      31.537  27.032  24.763  1.00  0.00    -0.313 N 
ATOM      8  C   UNL A   1      30.730  26.211  23.824  1.00  0.00     0.320 C 
ATOM      9  H   UNL A   1      30.919  27.459  25.454  1.00  0.00     0.349 HD
ATOM     10  C   UNL A   1      31.598  25.772  22.713  1.00  0.00     0.093 A 
ATOM     11  C   UNL A   1      32.802  27.927  22.633  1.00  0.00     0.134 C 
ATOM     12  N   UNL A   1      31.851  24.531  22.210  1.00  0.00    -0.344 N 
ATOM     13  C   UNL A   1      32.536  26.577  22.138  1.00  0.00     0.074 A 
ATOM     14  C   UNL A   1      32.922  24.659  21.360  1.00  0.00     0.197 A 
ATOM     15  H   UNL A   1      31.360  23.703  22.416  1.00  0.00     0.167 HD
ATOM     16  N   UNL A   1      33.336  25.902  21.270  1.00  0.00    -0.241 NA
BRANCH   7  17
ATOM     17  C   UNL A   1      32.476  26.178  25.539  1.00  0.00     0.340 C 
BRANCH  17  18
ATOM     18  C   UNL A   1      31.810  24.936  26.112  1.00  0.00     0.168 A 
ATOM     19  N   UNL A   1      32.330  23.646  26.027  1.00  0.00    -0.299 N 
ATOM     20  C   UNL A   1      31.290  22.791  26.324  1.00  0.00     0.113 A 
ATOM     21  C   UNL A   1      30.247  23.587  26.719  1.00  0.00     0.132 A 
ATOM     22  N   UNL A   1      30.574  24.904  26.591  1.00  0.00    -0.236 NA
BRANCH  19  23
ATOM     23  C   UNL A   1      33.629  23.246  25.633  1.00  0.00     0.047 A 
ATOM     24  C   UNL A   1      36.212  22.619  24.776  1.00  0.00     0.119 A 
ATOM     25  C   UNL A   1      36.006  23.137  26.055  1.00  0.00     0.048 A 
ATOM     26  C   UNL A   1      35.120  22.344  23.952  1.00  0.00     0.048 A 
ATOM     27  C   UNL A   1      34.718  23.465  26.482  1.00  0.00     0.030 A 
ATOM     28  C   UNL A   1      33.823  22.635  24.387  1.00  0.00     0.030 A 
BRANCH  24  29
ATOM     29  O   UNL A   1      37.501  22.312  24.440  1.00  0.00    -0.497 OA
ATOM     30  C   UNL A   1      38.228  21.665  25.482  1.00  0.00     0.278 C 
ENDBRANCH  24  29
ENDBRANCH  19  23
ENDBRANCH  17  18
ENDBRANCH   7  17
ENDBRANCH   3   6
ENDBRANCH   1   2
BRANCH   1  31
ATOM     31  C   UNL A   1      31.407  31.903  26.468  1.00  0.00     0.042 C 
BRANCH  31  32
ATOM     32  C   UNL A   1      32.481  32.520  27.331  1.00  0.00     0.118 C 
BRANCH  32  33
ATOM     33  N   UNL A   1      32.258  33.944  27.614  1.00  0.00    -0.352 N 
ATOM     34  C   UNL A   1      32.967  34.755  28.481  1.00  0.00     0.251 C 
ATOM     35  H   UNL A   1      31.515  34.372  27.129  1.00  0.00     0.163 HD
ATOM     36  O   UNL A   1      32.547  35.857  28.820  1.00  0.00    -0.269 OA
BRANCH  34  37
ATOM     37  C   UNL A   1      34.254  34.256  28.984  1.00  0.00     0.039 A 
ATOM     38  C   UNL A   1      34.408  33.731  30.270  1.00  0.00     0.014 A 
ATOM     39  C   UNL A   1      35.306  34.249  28.078  1.00  0.00     0.014 A 
ATOM     40  C   UNL A   1      35.622  33.135  30.604  1.00  0.00     0.010 A 
ATOM     41  C   UNL A   1      36.383  33.453  28.316  1.00  0.00     0.010 A 
ATOM     42  C   UNL A   1      36.597  32.994  29.610  1.00  0.00    -0.014 A 
BRANCH  42  43
ATOM     43  C   UNL A   1      37.880  32.350  29.838  1.00  0.00     0.031 A 
ATOM     44  C   UNL A   1      37.957  30.921  29.440  1.00  0.00     0.074 A 
ATOM     45  C   UNL A   1      38.977  33.104  30.069  1.00  0.00     0.049 A 
ATOM     46  N   UNL A   1      38.236  29.905  30.185  1.00  0.00    -0.248 NA
ATOM     47  C   UNL A   1      37.582  30.564  28.061  1.00  0.00     0.031 C 
ATOM     48  C   UNL A   1      39.079  34.575  30.121  1.00  0.00     0.029 A 
ATOM     49  N   UNL A   1      40.276  32.722  30.137  1.00  0.00    -0.354 N 
ATOM     50  C   UNL A   1      38.250  28.797  29.340  1.00  0.00     0.074 A 
ATOM     51  C   UNL A   1      37.672  29.233  28.095  1.00  0.00     0.031 C 
ATOM     52  C   UNL A   1      40.366  34.947  29.953  1.00  0.00     0.029 A 
ATOM     53  C   UNL A   1      41.190  33.756  29.973  1.00  0.00     0.049 A 
ATOM     54  H   UNL A   1      40.549  31.788  30.290  1.00  0.00     0.167 HD
ATOM     55  C   UNL A   1      38.957  27.672  29.648  1.00  0.00     0.031 A 
ATOM     56  C   UNL A   1      42.531  33.635  29.832  1.00  0.00     0.031 A 
ATOM     57  C   UNL A   1      39.374  27.674  31.027  1.00  0.00     0.049 A 
ATOM     58  C   UNL A   1      42.898  32.285  30.317  1.00  0.00     0.074 A 
ATOM     59  C   UNL A   1      38.722  27.678  32.243  1.00  0.00     0.029 A 
ATOM     60  N   UNL A   1      40.660  28.087  31.285  1.00  0.00    -0.354 N 
ATOM     61  N   UNL A   1      42.772  31.915  31.561  1.00  0.00    -0.248 NA
ATOM     62  C   UNL A   1      42.952  31.203  29.348  1.00  0.00     0.031 C 
ATOM     63  C   UNL A   1      39.496  28.548  33.067  1.00  0.00     0.029 A 
ATOM     64  C   UNL A   1      40.609  28.967  32.336  1.00  0.00     0.049 A 
ATOM     65  H   UNL A   1      41.470  27.803  30.804  1.00  0.00     0.167 HD
ATOM     66  C   UNL A   1      42.290  30.615  31.497  1.00  0.00     0.074 A 
ATOM     67  C   UNL A   1      42.527  30.193  30.116  1.00  0.00     0.031 C 
ATOM     68  C   UNL A   1      41.484  30.112  32.479  1.00  0.00     0.031 A 
BRANCH  55  69
ATOM     69  C   UNL A   1      39.610  26.773  28.625  1.00  0.00    -0.014 A 
ATOM     70  C   UNL A   1      40.530  27.339  27.721  1.00  0.00     0.009 A 
ATOM     71  C   UNL A   1      39.168  25.469  28.335  1.00  0.00     0.009 A 
ATOM     72  C   UNL A   1      40.916  26.668  26.555  1.00  0.00     0.001 A 
ATOM     73  C   UNL A   1      39.585  24.779  27.192  1.00  0.00     0.001 A 
ATOM     74  C   UNL A   1      40.436  25.392  26.286  1.00  0.00     0.000 A 
ENDBRANCH  55  69
BRANCH  56  75
ATOM     75  C   UNL A   1      43.463  34.497  29.078  1.00  0.00    -0.014 A 
ATOM     76  C   UNL A   1      44.674  34.924  29.644  1.00  0.00     0.009 A 
ATOM     77  C   UNL A   1      43.280  34.694  27.696  1.00  0.00     0.009 A 
ATOM     78  C   UNL A   1      45.678  35.496  28.849  1.00  0.00     0.001 A 
ATOM     79  C   UNL A   1      44.282  35.264  26.903  1.00  0.00     0.001 A 
ATOM     80  C   UNL A   1      45.487  35.653  27.478  1.00  0.00     0.000 A 
ENDBRANCH  56  75
BRANCH  68  81
ATOM     81  C   UNL A   1      41.278  30.954  33.720  1.00  0.00    -0.014 A 
ATOM     82  C   UNL A   1      40.292  31.954  33.811  1.00  0.00     0.009 A 
ATOM     83  C   UNL A   1      41.979  30.614  34.884  1.00  0.00     0.009 A 
ATOM     84  C   UNL A   1      40.032  32.606  35.022  1.00  0.00     0.001 A 
ATOM     85  C   UNL A   1      41.708  31.250  36.099  1.00  0.00     0.001 A 
ATOM     86  C   UNL A   1      40.737  32.247  36.167  1.00  0.00     0.000 A 
ENDBRANCH  68  81
ENDBRANCH  42  43
ENDBRANCH  34  37
ENDBRANCH  32  33
ENDBRANCH  31  32
ENDBRANCH   1  31
TORSDOF 14
ENDMDL
MODEL 2
REMARK VINA RESULT:     -12.5      3.582      9.025
REMARK SMILES COc1ccc(-n2ccnc2C[N@@H+]2Cc3[nH]cnc3C[C@@H]2C(=O)NCCCNC(=O)c2ccc(-c3c4nc(c(-c5ccccc5)c5ccc([nH]5)c(-c5ccccc5)c5nc(c(-c6ccccc6)c6ccc3[nH]6)C=C5)C=C4)cc2)cc1
REMARK SMILES IDX 25 1 24 2 22 3 23 4 21 6 13 7 14 8 15 10 20 11 16 12 19 13
REMARK SMILES IDX 17 14 18 16 12 17 11 18 7 19 8 20 9 21 10 22 6 23 3 24 4 25
REMARK SMILES IDX 80 26 5 27 79 28 2 29 1 30 26 31 27 32 28 33 29 34 30 36
REMARK SMILES IDX 31 37 32 38 78 39 33 40 77 41 34 42 35 43 36 44 71 45 37 46
REMARK SMILES IDX 76 47 70 48 72 49 38 50 75 51 69 52 68 53 39 55 61 56 46 57
REMARK SMILES IDX 60 58 47 59 50 60 59 61 73 62 48 63 49 64 58 66 74 67 51 68
REMARK SMILES IDX 40 69 41 70 45 71 42 72 44 73 43 74 62 75 63 76 67 77 64 78
REMARK SMILES IDX 66 79 65 80 52 81 53 82 57 83 54 84 56 85 55 86
REMARK H PARENT 24 5 13 9 16 15 28 35 72 54 50 65
REMARK Flexibility Score: inf
ROOT
ATOM      1  C   UNL A   1      36.661  20.190  25.037  1.00  0.00     0.118 C 
ENDROOT
BRANCH   1   2
ATOM      2  N   UNL A   1      36.473  21.412  25.818  1.00  0.00    -0.351 N 
ATOM      3  C   UNL A   1      35.448  22.289  26.013  1.00  0.00     0.278 C 
ATOM      4  O   UNL A   1      35.799  23.344  26.556  1.00  0.00    -0.268 OA
ATOM      5  H   UNL A   1      37.281  21.660  26.324  1.00  0.00     0.163 HD
BRANCH   3   6
ATOM      6  C   UNL A   1      33.981  22.032  25.545  1.00  0.00     0.280 C 
ATOM      7  N   UNL A   1      33.607  22.816  24.280  1.00  0.00    -0.313 N 
ATOM      8  C   UNL A   1      32.163  22.672  23.965  1.00  0.00     0.320 C 
ATOM      9  H   UNL A   1      34.158  22.393  23.532  1.00  0.00     0.349 HD
ATOM     10  C   UNL A   1      31.378  23.096  25.142  1.00  0.00     0.093 A 
ATOM     11  C   UNL A   1      32.977  22.087  26.731  1.00  0.00     0.134 C 
ATOM     12  N   UNL A   1      30.369  24.003  25.267  1.00  0.00    -0.344 N 
ATOM     13  C   UNL A   1      31.736  22.797  26.423  1.00  0.00     0.074 A 
ATOM     14  C   UNL A   1      30.175  24.198  26.613  1.00  0.00     0.197 A 
ATOM     15  H   UNL A   1      29.875  24.436  24.534  1.00  0.00     0.167 HD
ATOM     16  N   UNL A   1      30.971  23.447  27.340  1.00  0.00    -0.241 NA
BRANCH   7  17
ATOM     17  C   UNL A   1      34.003  24.251  24.306  1.00  0.00     0.340 C 
BRANCH  17  18
ATOM     18  C   UNL A   1      33.549  25.011  23.070  1.00  0.00     0.168 A 
ATOM     19  N   UNL A   1      32.910  26.249  23.090  1.00  0.00    -0.299 N 
ATOM     20  C   UNL A   1      32.351  26.416  21.841  1.00  0.00     0.113 A 
ATOM     21  C   UNL A   1      32.797  25.364  21.084  1.00  0.00     0.132 A 
ATOM     22  N   UNL A   1      33.536  24.507  21.844  1.00  0.00    -0.236 NA
BRANCH  19  23
ATOM     23  C   UNL A   1      32.764  27.145  24.177  1.00  0.00     0.047 A 
ATOM     24  C   UNL A   1      32.424  29.040  26.200  1.00  0.00     0.119 A 
ATOM     25  C   UNL A   1      31.389  28.159  25.886  1.00  0.00     0.048 A 
ATOM     26  C   UNL A   1      33.656  28.925  25.554  1.00  0.00     0.048 A 
ATOM     27  C   UNL A   1      31.549  27.221  24.865  1.00  0.00     0.030 A 
ATOM     28  C   UNL A   1      33.837  27.962  24.556  1.00  0.00     0.030 A 
BRANCH  24  29
ATOM     29  O   UNL A   1      32.191  29.920  27.220  1.00  0.00    -0.497 OA
ATOM     30  C   UNL A   1      33.209  30.907  27.371  1.00  0.00     0.278 C 
ENDBRANCH  24  29
ENDBRANCH  19  23
ENDBRANCH  17  18
ENDBRANCH   7  17
ENDBRANCH   3   6
ENDBRANCH   1   2
BRANCH   1  31
ATOM     31  C   UNL A   1      38.110  19.973  24.623  1.00  0.00     0.042 C 
BRANCH  31  32
ATOM     32  C   UNL A   1      39.043  20.087  25.805  1.00  0.00     0.118 C 
BRANCH  32  33
ATOM     33  N   UNL A   1      40.090  19.058  25.825  1.00  0.00    -0.352 N 
ATOM     34  C   UNL A   1      41.446  19.235  26.033  1.00  0.00     0.251 C 
ATOM     35  H   UNL A   1      39.793  18.131  25.672  1.00  0.00     0.163 HD
ATOM     36  O   UNL A   1      42.256  18.345  25.789  1.00  0.00    -0.269 OA
BRANCH  34  37
ATOM     37  C   UNL A   1      41.892  20.529  26.565  1.00  0.00     0.039 A 
ATOM     38  C   UNL A   1      42.471  21.515  25.761  1.00  0.00     0.014 A 
ATOM     39  C   UNL A   1      41.626  20.766  27.906  1.00  0.00     0.014 A 
ATOM     40  C   UNL A   1      42.715  22.769  26.317  1.00  0.00     0.010 A 
ATOM     41  C   UNL A   1      41.627  22.045  28.369  1.00  0.00     0.010 A 
ATOM     42  C   UNL A   1      42.276  23.021  27.622  1.00  0.00    -0.014 A 
BRANCH  42  43
ATOM     43  C   UNL A   1      42.438  24.305  28.283  1.00  0.00     0.031 A 
ATOM     44  C   UNL A   1      41.363  25.297  28.027  1.00  0.00     0.074 A 
ATOM     45  C   UNL A   1      43.318  24.428  29.302  1.00  0.00     0.049 A 
ATOM     46  N   UNL A   1      41.476  26.472  27.505  1.00  0.00    -0.248 NA
ATOM     47  C   UNL A   1      39.971  24.895  28.295  1.00  0.00     0.031 C 
ATOM     48  C   UNL A   1      44.187  23.390  29.887  1.00  0.00     0.029 A 
ATOM     49  N   UNL A   1      43.500  25.469  30.150  1.00  0.00    -0.354 N 
ATOM     50  C   UNL A   1      40.201  27.035  27.540  1.00  0.00     0.074 A 
ATOM     51  C   UNL A   1      39.296  25.964  27.868  1.00  0.00     0.031 C 
ATOM     52  C   UNL A   1      44.589  23.775  31.118  1.00  0.00     0.029 A 
ATOM     53  C   UNL A   1      44.169  25.146  31.324  1.00  0.00     0.049 A 
ATOM     54  H   UNL A   1      43.184  26.380  29.950  1.00  0.00     0.167 HD
ATOM     55  C   UNL A   1      40.017  28.386  27.535  1.00  0.00     0.031 A 
ATOM     56  C   UNL A   1      44.338  25.943  32.405  1.00  0.00     0.031 A 
ATOM     57  C   UNL A   1      41.226  29.081  27.171  1.00  0.00     0.049 A 
ATOM     58  C   UNL A   1      44.085  27.333  31.963  1.00  0.00     0.074 A 
ATOM     59  C   UNL A   1      42.029  29.118  26.049  1.00  0.00     0.029 A 
ATOM     60  N   UNL A   1      41.990  29.577  28.201  1.00  0.00    -0.354 N 
ATOM     61  N   UNL A   1      44.842  27.959  31.106  1.00  0.00    -0.248 NA
ATOM     62  C   UNL A   1      42.736  27.858  32.100  1.00  0.00     0.031 C 
ATOM     63  C   UNL A   1      43.361  29.170  26.558  1.00  0.00     0.029 A 
ATOM     64  C   UNL A   1      43.294  29.234  27.952  1.00  0.00     0.049 A 
ATOM     65  H   UNL A   1      41.661  30.086  28.977  1.00  0.00     0.167 HD
ATOM     66  C   UNL A   1      43.958  28.650  30.290  1.00  0.00     0.074 A 
ATOM     67  C   UNL A   1      42.689  28.640  31.016  1.00  0.00     0.031 C 
ATOM     68  C   UNL A   1      44.259  28.907  28.981  1.00  0.00     0.031 A 
BRANCH  55  69
ATOM     69  C   UNL A   1      38.881  29.091  28.237  1.00  0.00    -0.014 A 
ATOM     70  C   UNL A   1      38.707  28.877  29.617  1.00  0.00     0.009 A 
ATOM     71  C   UNL A   1      37.824  29.732  27.564  1.00  0.00     0.009 A 
ATOM     72  C   UNL A   1      37.511  29.212  30.264  1.00  0.00     0.001 A 
ATOM     73  C   UNL A   1      36.645  30.105  28.216  1.00  0.00     0.001 A 
ATOM     74  C   UNL A   1      36.477  29.817  29.560  1.00  0.00     0.000 A 
ENDBRANCH  55  69
BRANCH  56  75
ATOM     75  C   UNL A   1      44.448  25.562  33.827  1.00  0.00    -0.014 A 
ATOM     76  C   UNL A   1      43.320  25.540  34.661  1.00  0.00     0.009 A 
ATOM     77  C   UNL A   1      45.630  24.967  34.308  1.00  0.00     0.009 A 
ATOM     78  C   UNL A   1      43.365  24.915  35.916  1.00  0.00     0.001 A 
ATOM     79  C   UNL A   1      45.675  24.344  35.560  1.00  0.00     0.001 A 
ATOM     80  C   UNL A   1      44.538  24.307  36.359  1.00  0.00     0.000 A 
ENDBRANCH  56  75
BRANCH  68  81
ATOM     81  C   UNL A   1      45.654  28.569  28.501  1.00  0.00    -0.014 A 
ATOM     82  C   UNL A   1      46.730  29.473  28.580  1.00  0.00     0.009 A 
ATOM     83  C   UNL A   1      45.930  27.250  28.119  1.00  0.00     0.009 A 
ATOM     84  C   UNL A   1      48.035  29.074  28.267  1.00  0.00     0.001 A 
ATOM     85  C   UNL A   1      47.235  26.845  27.825  1.00  0.00     0.001 A 
ATOM     86  C   UNL A   1      48.286  27.757  27.896  1.00  0.00     0.000 A 
ENDBRANCH  68  81
ENDBRANCH  42  43
ENDBRANCH  34  37
ENDBRANCH  32  33
ENDBRANCH  31  32
ENDBRANCH   1  31
TORSDOF 14
ENDMDL
MODEL 3
REMARK VINA RESULT:     -11.9      2.937      6.527
REMARK SMILES COc1ccc(-n2ccnc2C[N@@H+]2Cc3[nH]cnc3C[C@@H]2C(=O)NCCCNC(=O)c2ccc(-c3c4nc(c(-c5ccccc5)c5ccc([nH]5)c(-c5ccccc5)c5nc(c(-c6ccccc6)c6ccc3[nH]6)C=C5)C=C4)cc2)cc1
REMARK SMILES IDX 25 1 24 2 22 3 23 4 21 6 13 7 14 8 15 10 20 11 16 12 19 13
REMARK SMILES IDX 17 14 18 16 12 17 11 18 7 19 8 20 9 21 10 22 6 23 3 24 4 25
REMARK SMILES IDX 80 26 5 27 79 28 2 29 1 30 26 31 27 32 28 33 29 34 30 36
REMARK SMILES IDX 31 37 32 38 78 39 33 40 77 41 34 42 35 43 36 44 71 45 37 46
REMARK SMILES IDX 76 47 70 48 72 49 38 50 75 51 69 52 68 53 39 55 61 56 46 57
REMARK SMILES IDX 60 58 47 59 50 60 59 61 73 62 48 63 49 64 58 66 74 67 51 68
REMARK SMILES IDX 40 69 41 70 45 71 42 72 44 73 43 74 62 75 63 76 67 77 64 78
REMARK SMILES IDX 66 79 65 80 52 81 53 82 57 83 54 84 56 85 55 86
REMARK H PARENT 24 5 13 9 16 15 28 35 72 54 50 65
REMARK Flexibility Score: inf
ROOT
ATOM      1  C   UNL A   1      33.453  30.508  27.108  1.00  0.00     0.118 C 
ENDROOT
BRANCH   1   2
ATOM      2  N   UNL A   1      32.703  29.366  27.628  1.00  0.00    -0.351 N 
ATOM      3  C   UNL A   1      31.748  28.528  27.133  1.00  0.00     0.278 C 
ATOM      4  O   UNL A   1      31.190  27.849  28.003  1.00  0.00    -0.268 OA
ATOM      5  H   UNL A   1      32.946  29.151  28.557  1.00  0.00     0.163 HD
BRANCH   3   6
ATOM      6  C   UNL A   1      31.341  28.464  25.626  1.00  0.00     0.280 C 
ATOM      7  N   UNL A   1      31.101  27.033  25.129  1.00  0.00    -0.313 N 
ATOM      8  C   UNL A   1      30.879  27.004  23.660  1.00  0.00     0.320 C 
ATOM      9  H   UNL A   1      30.252  26.725  25.604  1.00  0.00     0.349 HD
ATOM     10  C   UNL A   1      32.032  27.646  22.996  1.00  0.00     0.093 A 
ATOM     11  C   UNL A   1      32.241  29.376  24.745  1.00  0.00     0.134 C 
ATOM     12  N   UNL A   1      32.854  27.203  22.003  1.00  0.00    -0.344 N 
ATOM     13  C   UNL A   1      32.642  28.764  23.479  1.00  0.00     0.074 A 
ATOM     14  C   UNL A   1      33.910  28.079  21.944  1.00  0.00     0.197 A 
ATOM     15  H   UNL A   1      32.717  26.408  21.438  1.00  0.00     0.167 HD
ATOM     16  N   UNL A   1      33.788  29.060  22.808  1.00  0.00    -0.241 NA
BRANCH   7  17
ATOM     17  C   UNL A   1      32.156  26.059  25.523  1.00  0.00     0.340 C 
BRANCH  17  18
ATOM     18  C   UNL A   1      31.587  24.779  26.115  1.00  0.00     0.168 A 
ATOM     19  N   UNL A   1      32.186  23.525  26.016  1.00  0.00    -0.299 N 
ATOM     20  C   UNL A   1      31.212  22.605  26.343  1.00  0.00     0.113 A 
ATOM     21  C   UNL A   1      30.132  23.334  26.767  1.00  0.00     0.132 A 
ATOM     22  N   UNL A   1      30.370  24.669  26.629  1.00  0.00    -0.236 NA
BRANCH  19  23
ATOM     23  C   UNL A   1      33.497  23.208  25.586  1.00  0.00     0.047 A 
ATOM     24  C   UNL A   1      36.061  22.419  24.808  1.00  0.00     0.119 A 
ATOM     25  C   UNL A   1      34.995  22.315  23.913  1.00  0.00     0.048 A 
ATOM     26  C   UNL A   1      35.860  22.986  26.067  1.00  0.00     0.048 A 
ATOM     27  C   UNL A   1      33.710  22.696  24.303  1.00  0.00     0.030 A 
ATOM     28  C   UNL A   1      34.582  23.405  26.452  1.00  0.00     0.030 A 
BRANCH  24  29
ATOM     29  O   UNL A   1      37.289  22.038  24.344  1.00  0.00    -0.497 OA
ATOM     30  C   UNL A   1      37.740  20.791  24.869  1.00  0.00     0.278 C 
ENDBRANCH  24  29
ENDBRANCH  19  23
ENDBRANCH  17  18
ENDBRANCH   7  17
ENDBRANCH   3   6
ENDBRANCH   1   2
BRANCH   1  31
ATOM     31  C   UNL A   1      34.901  30.526  27.581  1.00  0.00     0.042 C 
BRANCH  31  32
ATOM     32  C   UNL A   1      35.326  31.912  28.002  1.00  0.00     0.118 C 
BRANCH  32  33
ATOM     33  N   UNL A   1      35.073  32.197  29.420  1.00  0.00    -0.352 N 
ATOM     34  C   UNL A   1      35.749  31.695  30.517  1.00  0.00     0.251 C 
ATOM     35  H   UNL A   1      34.334  32.819  29.613  1.00  0.00     0.163 HD
ATOM     36  O   UNL A   1      35.303  31.809  31.654  1.00  0.00    -0.269 OA
BRANCH  34  37
ATOM     37  C   UNL A   1      37.032  31.021  30.279  1.00  0.00     0.039 A 
ATOM     38  C   UNL A   1      38.222  31.721  30.061  1.00  0.00     0.014 A 
ATOM     39  C   UNL A   1      37.024  29.636  30.372  1.00  0.00     0.014 A 
ATOM     40  C   UNL A   1      39.416  31.004  30.006  1.00  0.00     0.010 A 
ATOM     41  C   UNL A   1      38.197  28.976  30.571  1.00  0.00     0.010 A 
ATOM     42  C   UNL A   1      39.386  29.630  30.275  1.00  0.00    -0.014 A 
BRANCH  42  43
ATOM     43  C   UNL A   1      40.576  28.796  30.288  1.00  0.00     0.031 A 
ATOM     44  C   UNL A   1      41.185  28.571  31.624  1.00  0.00     0.074 A 
ATOM     45  C   UNL A   1      40.870  28.031  29.213  1.00  0.00     0.049 A 
ATOM     46  N   UNL A   1      42.381  28.867  32.010  1.00  0.00    -0.248 NA
ATOM     47  C   UNL A   1      40.327  28.041  32.697  1.00  0.00     0.031 C 
ATOM     48  C   UNL A   1      40.115  27.900  27.953  1.00  0.00     0.029 A 
ATOM     49  N   UNL A   1      41.818  27.071  29.084  1.00  0.00    -0.354 N 
ATOM     50  C   UNL A   1      42.492  28.398  33.318  1.00  0.00     0.074 A 
ATOM     51  C   UNL A   1      41.156  28.066  33.741  1.00  0.00     0.031 C 
ATOM     52  C   UNL A   1      40.478  26.762  27.322  1.00  0.00     0.029 A 
ATOM     53  C   UNL A   1      41.608  26.192  28.028  1.00  0.00     0.049 A 
ATOM     54  H   UNL A   1      42.592  27.003  29.688  1.00  0.00     0.167 HD
ATOM     55  C   UNL A   1      43.702  28.094  33.867  1.00  0.00     0.031 A 
ATOM     56  C   UNL A   1      42.297  25.056  27.771  1.00  0.00     0.031 A 
ATOM     57  C   UNL A   1      44.786  28.611  33.071  1.00  0.00     0.049 A 
ATOM     58  C   UNL A   1      43.568  25.140  28.527  1.00  0.00     0.074 A 
ATOM     59  C   UNL A   1      45.202  29.871  32.690  1.00  0.00     0.029 A 
ATOM     60  N   UNL A   1      45.392  27.733  32.204  1.00  0.00    -0.354 N 
ATOM     61  N   UNL A   1      44.493  26.023  28.272  1.00  0.00    -0.248 NA
ATOM     62  C   UNL A   1      43.608  24.564  29.861  1.00  0.00     0.031 C 
ATOM     63  C   UNL A   1      45.630  29.718  31.338  1.00  0.00     0.029 A 
ATOM     64  C   UNL A   1      45.521  28.368  30.995  1.00  0.00     0.049 A 
ATOM     65  H   UNL A   1      45.682  26.816  32.412  1.00  0.00     0.167 HD
ATOM     66  C   UNL A   1      44.941  26.437  29.519  1.00  0.00     0.074 A 
ATOM     67  C   UNL A   1      44.442  25.427  30.452  1.00  0.00     0.031 C 
ATOM     68  C   UNL A   1      45.418  27.703  29.713  1.00  0.00     0.031 A 
BRANCH  55  69
ATOM     69  C   UNL A   1      43.921  27.003  34.887  1.00  0.00    -0.014 A 
ATOM     70  C   UNL A   1      43.691  25.667  34.505  1.00  0.00     0.009 A 
ATOM     71  C   UNL A   1      44.077  27.241  36.266  1.00  0.00     0.009 A 
ATOM     72  C   UNL A   1      43.544  24.649  35.454  1.00  0.00     0.001 A 
ATOM     73  C   UNL A   1      43.973  26.219  37.214  1.00  0.00     0.001 A 
ATOM     74  C   UNL A   1      43.676  24.927  36.810  1.00  0.00     0.000 A 
ENDBRANCH  55  69
BRANCH  56  75
ATOM     75  C   UNL A   1      41.825  23.811  27.133  1.00  0.00    -0.014 A 
ATOM     76  C   UNL A   1      42.599  23.154  26.165  1.00  0.00     0.009 A 
ATOM     77  C   UNL A   1      40.718  23.123  27.666  1.00  0.00     0.009 A 
ATOM     78  C   UNL A   1      42.294  21.843  25.769  1.00  0.00     0.001 A 
ATOM     79  C   UNL A   1      40.415  21.815  27.271  1.00  0.00     0.001 A 
ATOM     80  C   UNL A   1      41.212  21.170  26.331  1.00  0.00     0.000 A 
ENDBRANCH  56  75
BRANCH  68  81
ATOM     81  C   UNL A   1      45.606  28.579  28.493  1.00  0.00    -0.014 A 
ATOM     82  C   UNL A   1      44.608  29.449  28.016  1.00  0.00     0.009 A 
ATOM     83  C   UNL A   1      46.879  28.656  27.913  1.00  0.00     0.009 A 
ATOM     84  C   UNL A   1      44.872  30.353  26.979  1.00  0.00     0.001 A 
ATOM     85  C   UNL A   1      47.149  29.570  26.891  1.00  0.00     0.001 A 
ATOM     86  C   UNL A   1      46.145  30.416  26.422  1.00  0.00     0.000 A 
ENDBRANCH  68  81
ENDBRANCH  42  43
ENDBRANCH  34  37
ENDBRANCH  32  33
ENDBRANCH  31  32
ENDBRANCH   1  31
TORSDOF 14
ENDMDL
