MODEL 1
REMARK VINA RESULT:     -10.3      0.000      0.000
REMARK SMILES C[C@H]([C@H](C)C(=O)NCCCNC(=O)c1ccc(-c2c3nc(c(-c4ccccc4)c4ccc([nH]4)c(-c4ccccc4)c4nc(c(-c5ccccc5)c5ccc2[nH]5)C=C4)C=C3)cc1)[C@H](O)c1cncn1C1CC1
REMARK SMILES IDX 8 1 7 2 5 3 6 4 3 6 4 7 2 8 1 9 62 10 64 11 65 12 68 13
REMARK SMILES IDX 66 14 67 15 69 16 70 17 71 18 63 19 9 21 10 22 11 23 12 24
REMARK SMILES IDX 13 26 14 27 15 28 61 29 16 30 60 31 17 32 18 33 19 34 54 35
REMARK SMILES IDX 20 36 59 37 53 38 55 39 21 40 58 41 52 42 51 43 22 45 44 46
REMARK SMILES IDX 29 47 43 48 30 49 33 50 42 51 56 52 31 53 32 54 41 56 57 57
REMARK SMILES IDX 34 58 23 59 24 60 28 61 25 62 27 63 26 64 45 65 46 66 50 67
REMARK SMILES IDX 47 68 49 69 48 70 35 71 36 72 40 73 37 74 39 75 38 76
REMARK H PARENT 7 5 63 20 11 25 55 44 33 55
REMARK Flexibility Score: inf
ROOT
ATOM      1  C   UNL A   1      36.151  20.311  25.000  1.00  0.00     0.117 C 
ENDROOT
BRANCH   1   2
ATOM      2  N   UNL A   1      36.093  21.703  24.578  1.00  0.00    -0.356 N 
ATOM      3  C   UNL A   1      35.064  22.547  24.290  1.00  0.00     0.223 C 
ATOM      4  O   UNL A   1      35.370  23.713  24.023  1.00  0.00    -0.275 OA
ATOM      5  H   UNL A   1      36.980  22.121  24.482  1.00  0.00     0.163 HD
BRANCH   3   6
ATOM      6  C   UNL A   1      33.597  22.088  24.313  1.00  0.00     0.081 C 
ATOM      7  C   UNL A   1      32.923  22.729  25.540  1.00  0.00     0.018 C 
BRANCH   6   8
ATOM      8  C   UNL A   1      32.801  22.415  22.991  1.00  0.00     0.033 C 
ATOM      9  C   UNL A   1      32.021  21.181  22.511  1.00  0.00     0.011 C 
BRANCH   8  10
ATOM     10  C   UNL A   1      31.906  23.655  23.171  1.00  0.00     0.166 C 
BRANCH  10  11
ATOM     11  C   UNL A   1      32.291  25.013  22.662  1.00  0.00     0.067 A 
ATOM     12  C   UNL A   1      33.222  25.214  21.640  1.00  0.00     0.137 A 
ATOM     13  N   UNL A   1      32.005  26.306  23.063  1.00  0.00    -0.329 N 
ATOM     14  N   UNL A   1      33.533  26.523  21.451  1.00  0.00    -0.245 NA
ATOM     15  C   UNL A   1      32.804  27.155  22.333  1.00  0.00     0.199 A 
BRANCH  13  16
ATOM     16  C   UNL A   1      31.096  26.892  24.027  1.00  0.00     0.088 C 
ATOM     17  C   UNL A   1      29.874  27.693  23.651  1.00  0.00     0.027 C 
ATOM     18  C   UNL A   1      29.717  26.390  24.359  1.00  0.00     0.027 C 
ENDBRANCH  13  16
ENDBRANCH  10  11
BRANCH  10  19
ATOM     19  O   UNL A   1      30.530  23.428  22.928  1.00  0.00    -0.387 OA
ATOM     20  H   UNL A   1      30.162  22.876  23.636  1.00  0.00     0.211 HD
ENDBRANCH  10  19
ENDBRANCH   8  10
ENDBRANCH   6   8
ENDBRANCH   3   6
ENDBRANCH   1   2
BRANCH   1  21
ATOM     21  C   UNL A   1      37.529  19.675  24.774  1.00  0.00     0.042 C 
BRANCH  21  22
ATOM     22  C   UNL A   1      38.661  20.301  25.581  1.00  0.00     0.118 C 
BRANCH  22  23
ATOM     23  N   UNL A   1      39.762  19.372  25.759  1.00  0.00    -0.352 N 
ATOM     24  C   UNL A   1      41.085  19.607  26.044  1.00  0.00     0.251 C 
ATOM     25  H   UNL A   1      39.522  18.423  25.661  1.00  0.00     0.163 HD
ATOM     26  O   UNL A   1      41.894  18.697  25.872  1.00  0.00    -0.269 OA
BRANCH  24  27
ATOM     27  C   UNL A   1      41.569  20.915  26.554  1.00  0.00     0.039 A 
ATOM     28  C   UNL A   1      41.437  21.181  27.924  1.00  0.00     0.014 A 
ATOM     29  C   UNL A   1      42.018  21.931  25.705  1.00  0.00     0.014 A 
ATOM     30  C   UNL A   1      41.763  22.442  28.437  1.00  0.00     0.010 A 
ATOM     31  C   UNL A   1      42.401  23.172  26.226  1.00  0.00     0.010 A 
ATOM     32  C   UNL A   1      42.252  23.451  27.593  1.00  0.00    -0.014 A 
BRANCH  32  33
ATOM     33  C   UNL A   1      42.551  24.812  28.116  1.00  0.00     0.031 A 
ATOM     34  C   UNL A   1      43.952  25.173  28.539  1.00  0.00     0.074 A 
ATOM     35  C   UNL A   1      41.567  25.724  28.245  1.00  0.00     0.049 A 
ATOM     36  N   UNL A   1      44.394  26.283  29.079  1.00  0.00    -0.248 NA
ATOM     37  C   UNL A   1      44.991  24.148  28.344  1.00  0.00     0.031 C 
ATOM     38  C   UNL A   1      40.163  25.515  27.891  1.00  0.00     0.029 A 
ATOM     39  N   UNL A   1      41.603  27.013  28.720  1.00  0.00    -0.354 N 
ATOM     40  C   UNL A   1      45.749  26.079  29.314  1.00  0.00     0.074 A 
ATOM     41  C   UNL A   1      46.054  24.732  28.879  1.00  0.00     0.031 C 
ATOM     42  C   UNL A   1      39.475  26.640  28.146  1.00  0.00     0.029 A 
ATOM     43  C   UNL A   1      40.379  27.636  28.713  1.00  0.00     0.049 A 
ATOM     44  H   UNL A   1      42.428  27.448  29.035  1.00  0.00     0.167 HD
ATOM     45  C   UNL A   1      46.663  26.935  29.831  1.00  0.00     0.031 A 
ATOM     46  C   UNL A   1      40.019  28.866  29.128  1.00  0.00     0.031 A 
ATOM     47  C   UNL A   1      46.384  28.287  30.234  1.00  0.00     0.049 A 
ATOM     48  C   UNL A   1      41.052  29.795  29.702  1.00  0.00     0.074 A 
ATOM     49  C   UNL A   1      47.267  29.243  30.709  1.00  0.00     0.029 A 
ATOM     50  N   UNL A   1      45.132  28.876  30.205  1.00  0.00    -0.354 N 
ATOM     51  N   UNL A   1      42.336  29.598  29.874  1.00  0.00    -0.248 NA
ATOM     52  C   UNL A   1      40.582  31.120  30.137  1.00  0.00     0.031 C 
ATOM     53  C   UNL A   1      46.540  30.402  31.002  1.00  0.00     0.029 A 
ATOM     54  C   UNL A   1      45.213  30.176  30.676  1.00  0.00     0.049 A 
ATOM     55  H   UNL A   1      44.307  28.436  29.898  1.00  0.00     0.167 HD
ATOM     56  C   UNL A   1      42.829  30.777  30.417  1.00  0.00     0.074 A 
ATOM     57  C   UNL A   1      41.711  31.690  30.533  1.00  0.00     0.031 C 
ATOM     58  C   UNL A   1      44.097  31.075  30.788  1.00  0.00     0.031 A 
BRANCH  45  59
ATOM     59  C   UNL A   1      48.068  26.431  30.002  1.00  0.00    -0.014 A 
ATOM     60  C   UNL A   1      48.479  25.820  31.196  1.00  0.00     0.009 A 
ATOM     61  C   UNL A   1      48.972  26.515  28.932  1.00  0.00     0.009 A 
ATOM     62  C   UNL A   1      49.779  25.325  31.324  1.00  0.00     0.001 A 
ATOM     63  C   UNL A   1      50.263  25.999  29.056  1.00  0.00     0.001 A 
ATOM     64  C   UNL A   1      50.667  25.410  30.252  1.00  0.00     0.000 A 
ENDBRANCH  45  59
BRANCH  46  65
ATOM     65  C   UNL A   1      38.604  29.301  29.021  1.00  0.00    -0.014 A 
ATOM     66  C   UNL A   1      37.744  29.203  30.126  1.00  0.00     0.009 A 
ATOM     67  C   UNL A   1      38.100  29.792  27.807  1.00  0.00     0.009 A 
ATOM     68  C   UNL A   1      36.401  29.567  30.010  1.00  0.00     0.001 A 
ATOM     69  C   UNL A   1      36.762  30.176  27.701  1.00  0.00     0.001 A 
ATOM     70  C   UNL A   1      35.912  30.055  28.799  1.00  0.00     0.000 A 
ENDBRANCH  46  65
BRANCH  58  71
ATOM     71  C   UNL A   1      44.348  32.451  31.332  1.00  0.00    -0.014 A 
ATOM     72  C   UNL A   1      44.271  32.710  32.708  1.00  0.00     0.009 A 
ATOM     73  C   UNL A   1      44.699  33.493  30.460  1.00  0.00     0.009 A 
ATOM     74  C   UNL A   1      44.514  33.994  33.199  1.00  0.00     0.001 A 
ATOM     75  C   UNL A   1      44.962  34.770  30.956  1.00  0.00     0.001 A 
ATOM     76  C   UNL A   1      44.863  35.021  32.323  1.00  0.00     0.000 A 
ENDBRANCH  58  71
ENDBRANCH  32  33
ENDBRANCH  24  27
ENDBRANCH  22  23
ENDBRANCH  21  22
ENDBRANCH   1  21
TORSDOF 15
ENDMDL
MODEL 2
REMARK VINA RESULT:     -10.3      0.890      6.126
REMARK SMILES C[C@H]([C@H](C)C(=O)NCCCNC(=O)c1ccc(-c2c3nc(c(-c4ccccc4)c4ccc([nH]4)c(-c4ccccc4)c4nc(c(-c5ccccc5)c5ccc2[nH]5)C=C4)C=C3)cc1)[C@H](O)c1cncn1C1CC1
REMARK SMILES IDX 8 1 7 2 5 3 6 4 3 6 4 7 2 8 1 9 62 10 64 11 65 12 68 13
REMARK SMILES IDX 66 14 67 15 69 16 70 17 71 18 63 19 9 21 10 22 11 23 12 24
REMARK SMILES IDX 13 26 14 27 15 28 61 29 16 30 60 31 17 32 18 33 19 34 54 35
REMARK SMILES IDX 20 36 59 37 53 38 55 39 21 40 58 41 52 42 51 43 22 45 44 46
REMARK SMILES IDX 29 47 43 48 30 49 33 50 42 51 56 52 31 53 32 54 41 56 57 57
REMARK SMILES IDX 34 58 23 59 24 60 28 61 25 62 27 63 26 64 45 65 46 66 50 67
REMARK SMILES IDX 47 68 49 69 48 70 35 71 36 72 40 73 37 74 39 75 38 76
REMARK H PARENT 7 5 63 20 11 25 55 44 33 55
REMARK Flexibility Score: inf
ROOT
ATOM      1  C   UNL A   1      36.308  20.501  25.001  1.00  0.00     0.117 C 
ENDROOT
BRANCH   1   2
ATOM      2  N   UNL A   1      36.256  21.907  24.623  1.00  0.00    -0.356 N 
ATOM      3  C   UNL A   1      35.336  22.890  24.821  1.00  0.00     0.223 C 
ATOM      4  O   UNL A   1      35.642  24.016  24.419  1.00  0.00    -0.275 OA
ATOM      5  H   UNL A   1      37.048  22.208  24.122  1.00  0.00     0.163 HD
BRANCH   3   6
ATOM      6  C   UNL A   1      33.994  22.628  25.525  1.00  0.00     0.081 C 
ATOM      7  C   UNL A   1      33.787  23.739  26.570  1.00  0.00     0.018 C 
BRANCH   6   8
ATOM      8  C   UNL A   1      32.762  22.532  24.545  1.00  0.00     0.033 C 
ATOM      9  C   UNL A   1      31.796  21.427  24.998  1.00  0.00     0.011 C 
BRANCH   8  10
ATOM     10  C   UNL A   1      32.073  23.899  24.381  1.00  0.00     0.166 C 
BRANCH  10  11
ATOM     11  C   UNL A   1      32.532  24.924  23.386  1.00  0.00     0.067 A 
ATOM     12  C   UNL A   1      32.830  24.622  22.055  1.00  0.00     0.137 A 
ATOM     13  N   UNL A   1      32.886  26.259  23.475  1.00  0.00    -0.329 N 
ATOM     14  N   UNL A   1      33.377  25.667  21.380  1.00  0.00    -0.245 NA
ATOM     15  C   UNL A   1      33.418  26.631  22.263  1.00  0.00     0.199 A 
BRANCH  13  16
ATOM     16  C   UNL A   1      32.811  27.261  24.518  1.00  0.00     0.088 C 
ATOM     17  C   UNL A   1      33.694  27.270  25.741  1.00  0.00     0.027 C 
ATOM     18  C   UNL A   1      33.797  28.375  24.745  1.00  0.00     0.027 C 
ENDBRANCH  13  16
ENDBRANCH  10  11
BRANCH  10  19
ATOM     19  O   UNL A   1      30.657  23.850  24.395  1.00  0.00    -0.387 OA
ATOM     20  H   UNL A   1      30.362  23.200  25.051  1.00  0.00     0.211 HD
ENDBRANCH  10  19
ENDBRANCH   8  10
ENDBRANCH   6   8
ENDBRANCH   3   6
ENDBRANCH   1   2
BRANCH   1  21
ATOM     21  C   UNL A   1      37.688  19.871  24.769  1.00  0.00     0.042 C 
BRANCH  21  22
ATOM     22  C   UNL A   1      38.787  20.383  25.695  1.00  0.00     0.118 C 
BRANCH  22  23
ATOM     23  N   UNL A   1      39.864  19.418  25.822  1.00  0.00    -0.352 N 
ATOM     24  C   UNL A   1      41.203  19.609  26.063  1.00  0.00     0.251 C 
ATOM     25  H   UNL A   1      39.592  18.479  25.720  1.00  0.00     0.163 HD
ATOM     26  O   UNL A   1      41.977  18.677  25.850  1.00  0.00    -0.269 OA
BRANCH  24  27
ATOM     27  C   UNL A   1      41.744  20.895  26.572  1.00  0.00     0.039 A 
ATOM     28  C   UNL A   1      41.656  21.151  27.948  1.00  0.00     0.014 A 
ATOM     29  C   UNL A   1      42.207  21.902  25.722  1.00  0.00     0.014 A 
ATOM     30  C   UNL A   1      42.037  22.395  28.465  1.00  0.00     0.010 A 
ATOM     31  C   UNL A   1      42.645  23.125  26.245  1.00  0.00     0.010 A 
ATOM     32  C   UNL A   1      42.539  23.394  27.618  1.00  0.00    -0.014 A 
BRANCH  32  33
ATOM     33  C   UNL A   1      42.899  24.739  28.146  1.00  0.00     0.031 A 
ATOM     34  C   UNL A   1      41.829  25.776  28.377  1.00  0.00     0.074 A 
ATOM     35  C   UNL A   1      44.186  25.053  28.393  1.00  0.00     0.049 A 
ATOM     36  N   UNL A   1      41.953  27.021  28.766  1.00  0.00    -0.248 NA
ATOM     37  C   UNL A   1      40.438  25.366  28.121  1.00  0.00     0.031 C 
ATOM     38  C   UNL A   1      45.329  24.159  28.205  1.00  0.00     0.029 A 
ATOM     39  N   UNL A   1      44.747  26.221  28.851  1.00  0.00    -0.354 N 
ATOM     40  C   UNL A   1      40.667  27.548  28.775  1.00  0.00     0.074 A 
ATOM     41  C   UNL A   1      39.778  26.496  28.329  1.00  0.00     0.031 C 
ATOM     42  C   UNL A   1      46.452  24.805  28.559  1.00  0.00     0.029 A 
ATOM     43  C   UNL A   1      46.114  26.167  28.965  1.00  0.00     0.049 A 
ATOM     44  H   UNL A   1      44.218  27.020  29.076  1.00  0.00     0.167 HD
ATOM     45  C   UNL A   1      40.256  28.788  29.132  1.00  0.00     0.031 A 
ATOM     46  C   UNL A   1      47.001  27.108  29.340  1.00  0.00     0.031 A 
ATOM     47  C   UNL A   1      41.121  29.833  29.611  1.00  0.00     0.049 A 
ATOM     48  C   UNL A   1      46.519  28.478  29.727  1.00  0.00     0.074 A 
ATOM     49  C   UNL A   1      40.778  31.099  30.056  1.00  0.00     0.029 A 
ATOM     50  N   UNL A   1      42.497  29.732  29.713  1.00  0.00    -0.354 N 
ATOM     51  N   UNL A   1      45.294  28.942  29.771  1.00  0.00    -0.248 NA
ATOM     52  C   UNL A   1      47.547  29.455  30.122  1.00  0.00     0.031 C 
ATOM     53  C   UNL A   1      41.953  31.778  30.393  1.00  0.00     0.029 A 
ATOM     54  C   UNL A   1      43.022  30.921  30.192  1.00  0.00     0.049 A 
ATOM     55  H   UNL A   1      43.025  28.934  29.479  1.00  0.00     0.167 HD
ATOM     56  C   UNL A   1      45.402  30.254  30.214  1.00  0.00     0.074 A 
ATOM     57  C   UNL A   1      46.809  30.508  30.441  1.00  0.00     0.031 C 
ATOM     58  C   UNL A   1      44.421  31.165  30.413  1.00  0.00     0.031 A 
BRANCH  45  59
ATOM     59  C   UNL A   1      38.790  29.097  29.011  1.00  0.00    -0.014 A 
ATOM     60  C   UNL A   1      37.929  28.971  30.112  1.00  0.00     0.009 A 
ATOM     61  C   UNL A   1      38.279  29.577  27.795  1.00  0.00     0.009 A 
ATOM     62  C   UNL A   1      36.577  29.297  29.990  1.00  0.00     0.001 A 
ATOM     63  C   UNL A   1      36.931  29.923  27.683  1.00  0.00     0.001 A 
ATOM     64  C   UNL A   1      36.081  29.778  28.777  1.00  0.00     0.000 A 
ENDBRANCH  45  59
BRANCH  46  65
ATOM     65  C   UNL A   1      48.451  26.794  29.366  1.00  0.00    -0.014 A 
ATOM     66  C   UNL A   1      49.044  26.263  30.522  1.00  0.00     0.009 A 
ATOM     67  C   UNL A   1      49.255  27.047  28.243  1.00  0.00     0.009 A 
ATOM     68  C   UNL A   1      50.417  26.014  30.560  1.00  0.00     0.001 A 
ATOM     69  C   UNL A   1      50.623  26.775  28.277  1.00  0.00     0.001 A 
ATOM     70  C   UNL A   1      51.205  26.267  29.438  1.00  0.00     0.000 A 
ENDBRANCH  46  65
BRANCH  58  71
ATOM     71  C   UNL A   1      44.832  32.515  30.923  1.00  0.00    -0.014 A 
ATOM     72  C   UNL A   1      45.121  33.565  30.039  1.00  0.00     0.009 A 
ATOM     73  C   UNL A   1      44.897  32.749  32.306  1.00  0.00     0.009 A 
ATOM     74  C   UNL A   1      45.494  34.818  30.530  1.00  0.00     0.001 A 
ATOM     75  C   UNL A   1      45.251  34.008  32.793  1.00  0.00     0.001 A 
ATOM     76  C   UNL A   1      45.556  35.039  31.905  1.00  0.00     0.000 A 
ENDBRANCH  58  71
ENDBRANCH  32  33
ENDBRANCH  24  27
ENDBRANCH  22  23
ENDBRANCH  21  22
ENDBRANCH   1  21
TORSDOF 15
ENDMDL
MODEL 3
REMARK VINA RESULT:     -10.2      2.396      7.641
REMARK SMILES C[C@H]([C@H](C)C(=O)NCCCNC(=O)c1ccc(-c2c3nc(c(-c4ccccc4)c4ccc([nH]4)c(-c4ccccc4)c4nc(c(-c5ccccc5)c5ccc2[nH]5)C=C4)C=C3)cc1)[C@H](O)c1cncn1C1CC1
REMARK SMILES IDX 8 1 7 2 5 3 6 4 3 6 4 7 2 8 1 9 62 10 64 11 65 12 68 13
REMARK SMILES IDX 66 14 67 15 69 16 70 17 71 18 63 19 9 21 10 22 11 23 12 24
REMARK SMILES IDX 13 26 14 27 15 28 61 29 16 30 60 31 17 32 18 33 19 34 54 35
REMARK SMILES IDX 20 36 59 37 53 38 55 39 21 40 58 41 52 42 51 43 22 45 44 46
REMARK SMILES IDX 29 47 43 48 30 49 33 50 42 51 56 52 31 53 32 54 41 56 57 57
REMARK SMILES IDX 34 58 23 59 24 60 28 61 25 62 27 63 26 64 45 65 46 66 50 67
REMARK SMILES IDX 47 68 49 69 48 70 35 71 36 72 40 73 37 74 39 75 38 76
REMARK H PARENT 7 5 63 20 11 25 55 44 33 55
REMARK Flexibility Score: inf
ROOT
ATOM      1  C   UNL A   1      32.800  29.041  24.361  1.00  0.00     0.117 C 
ENDROOT
BRANCH   1   2
ATOM      2  N   UNL A   1      31.762  29.359  23.391  1.00  0.00    -0.356 N 
ATOM      3  C   UNL A   1      30.961  28.593  22.601  1.00  0.00     0.223 C 
ATOM      4  O   UNL A   1      30.119  29.195  21.927  1.00  0.00    -0.275 OA
ATOM      5  H   UNL A   1      31.607  30.325  23.285  1.00  0.00     0.163 HD
BRANCH   3   6
ATOM      6  C   UNL A   1      31.075  27.061  22.557  1.00  0.00     0.081 C 
ATOM      7  C   UNL A   1      32.537  26.706  22.231  1.00  0.00     0.018 C 
BRANCH   6   8
ATOM      8  C   UNL A   1      30.597  26.343  23.879  1.00  0.00     0.033 C 
ATOM      9  C   UNL A   1      29.088  26.541  24.086  1.00  0.00     0.011 C 
BRANCH   8  10
ATOM     10  C   UNL A   1      31.013  24.861  23.890  1.00  0.00     0.166 C 
BRANCH  10  11
ATOM     11  C   UNL A   1      31.438  24.148  25.140  1.00  0.00     0.067 A 
ATOM     12  C   UNL A   1      30.617  24.012  26.263  1.00  0.00     0.137 A 
ATOM     13  N   UNL A   1      32.632  23.601  25.576  1.00  0.00    -0.329 N 
ATOM     14  N   UNL A   1      31.260  23.472  27.332  1.00  0.00    -0.245 NA
ATOM     15  C   UNL A   1      32.474  23.255  26.898  1.00  0.00     0.199 A 
BRANCH  13  16
ATOM     16  C   UNL A   1      33.916  23.342  24.957  1.00  0.00     0.088 C 
ATOM     17  C   UNL A   1      34.336  23.912  23.625  1.00  0.00     0.027 C 
ATOM     18  C   UNL A   1      35.063  24.312  24.865  1.00  0.00     0.027 C 
ENDBRANCH  13  16
ENDBRANCH  10  11
BRANCH  10  19
ATOM     19  O   UNL A   1      30.187  24.012  23.115  1.00  0.00    -0.387 OA
ATOM     20  H   UNL A   1      30.255  23.103  23.446  1.00  0.00     0.211 HD
ENDBRANCH  10  19
ENDBRANCH   8  10
ENDBRANCH   6   8
ENDBRANCH   3   6
ENDBRANCH   1   2
BRANCH   1  21
ATOM     21  C   UNL A   1      32.422  29.440  25.794  1.00  0.00     0.042 C 
BRANCH  21  22
ATOM     22  C   UNL A   1      33.572  29.393  26.794  1.00  0.00     0.118 C 
BRANCH  22  23
ATOM     23  N   UNL A   1      33.645  30.615  27.574  1.00  0.00    -0.352 N 
ATOM     24  C   UNL A   1      34.576  31.025  28.498  1.00  0.00     0.251 C 
ATOM     25  H   UNL A   1      32.913  31.252  27.415  1.00  0.00     0.163 HD
ATOM     26  O   UNL A   1      34.294  31.964  29.240  1.00  0.00    -0.269 OA
BRANCH  24  27
ATOM     27  C   UNL A   1      35.907  30.378  28.627  1.00  0.00     0.039 A 
ATOM     28  C   UNL A   1      36.235  29.777  29.850  1.00  0.00     0.014 A 
ATOM     29  C   UNL A   1      36.882  30.464  27.630  1.00  0.00     0.014 A 
ATOM     30  C   UNL A   1      37.517  29.261  30.067  1.00  0.00     0.010 A 
ATOM     31  C   UNL A   1      38.146  29.895  27.824  1.00  0.00     0.010 A 
ATOM     32  C   UNL A   1      38.486  29.312  29.053  1.00  0.00    -0.014 A 
BRANCH  32  33
ATOM     33  C   UNL A   1      39.870  28.815  29.288  1.00  0.00     0.031 A 
ATOM     34  C   UNL A   1      40.890  29.696  29.965  1.00  0.00     0.074 A 
ATOM     35  C   UNL A   1      40.233  27.587  28.870  1.00  0.00     0.049 A 
ATOM     36  N   UNL A   1      42.159  29.466  30.196  1.00  0.00    -0.248 NA
ATOM     37  C   UNL A   1      40.427  31.014  30.429  1.00  0.00     0.031 C 
ATOM     38  C   UNL A   1      39.361  26.629  28.189  1.00  0.00     0.029 A 
ATOM     39  N   UNL A   1      41.442  26.937  28.953  1.00  0.00    -0.354 N 
ATOM     40  C   UNL A   1      42.650  30.616  30.804  1.00  0.00     0.074 A 
ATOM     41  C   UNL A   1      41.549  31.552  30.885  1.00  0.00     0.031 C 
ATOM     42  C   UNL A   1      40.058  25.510  27.930  1.00  0.00     0.029 A 
ATOM     43  C   UNL A   1      41.432  25.683  28.394  1.00  0.00     0.049 A 
ATOM     44  H   UNL A   1      42.238  27.334  29.374  1.00  0.00     0.167 HD
ATOM     45  C   UNL A   1      43.898  30.869  31.265  1.00  0.00     0.031 A 
ATOM     46  C   UNL A   1      42.419  24.777  28.257  1.00  0.00     0.031 A 
ATOM     47  C   UNL A   1      44.993  29.937  31.225  1.00  0.00     0.049 A 
ATOM     48  C   UNL A   1      43.796  25.085  28.774  1.00  0.00     0.074 A 
ATOM     49  C   UNL A   1      46.274  30.092  31.729  1.00  0.00     0.029 A 
ATOM     50  N   UNL A   1      44.936  28.678  30.653  1.00  0.00    -0.354 N 
ATOM     51  N   UNL A   1      44.227  26.161  29.385  1.00  0.00    -0.248 NA
ATOM     52  C   UNL A   1      44.822  24.048  28.584  1.00  0.00     0.031 C 
ATOM     53  C   UNL A   1      47.004  28.937  31.429  1.00  0.00     0.029 A 
ATOM     54  C   UNL A   1      46.165  28.052  30.771  1.00  0.00     0.049 A 
ATOM     55  H   UNL A   1      44.140  28.286  30.226  1.00  0.00     0.167 HD
ATOM     56  C   UNL A   1      45.566  25.923  29.668  1.00  0.00     0.074 A 
ATOM     57  C   UNL A   1      45.873  24.596  29.176  1.00  0.00     0.031 C 
ATOM     58  C   UNL A   1      46.461  26.734  30.279  1.00  0.00     0.031 A 
BRANCH  45  59
ATOM     59  C   UNL A   1      44.158  32.227  31.855  1.00  0.00    -0.014 A 
ATOM     60  C   UNL A   1      44.575  33.298  31.053  1.00  0.00     0.009 A 
ATOM     61  C   UNL A   1      43.923  32.448  33.222  1.00  0.00     0.009 A 
ATOM     62  C   UNL A   1      44.777  34.562  31.613  1.00  0.00     0.001 A 
ATOM     63  C   UNL A   1      44.104  33.717  33.774  1.00  0.00     0.001 A 
ATOM     64  C   UNL A   1      44.536  34.771  32.971  1.00  0.00     0.000 A 
ENDBRANCH  45  59
BRANCH  46  65
ATOM     65  C   UNL A   1      42.146  23.478  27.592  1.00  0.00    -0.014 A 
ATOM     66  C   UNL A   1      41.612  22.404  28.319  1.00  0.00     0.009 A 
ATOM     67  C   UNL A   1      42.443  23.299  26.232  1.00  0.00     0.009 A 
ATOM     68  C   UNL A   1      41.401  21.169  27.704  1.00  0.00     0.001 A 
ATOM     69  C   UNL A   1      42.211  22.069  25.613  1.00  0.00     0.001 A 
ATOM     70  C   UNL A   1      41.699  21.003  26.351  1.00  0.00     0.000 A 
ENDBRANCH  46  65
BRANCH  58  71
ATOM     71  C   UNL A   1      47.850  26.201  30.473  1.00  0.00    -0.014 A 
ATOM     72  C   UNL A   1      48.246  25.642  31.698  1.00  0.00     0.009 A 
ATOM     73  C   UNL A   1      48.763  26.226  29.408  1.00  0.00     0.009 A 
ATOM     74  C   UNL A   1      49.539  25.143  31.860  1.00  0.00     0.001 A 
ATOM     75  C   UNL A   1      50.049  25.708  29.567  1.00  0.00     0.001 A 
ATOM     76  C   UNL A   1      50.438  25.173  30.795  1.00  0.00     0.000 A 
ENDBRANCH  58  71
ENDBRANCH  32  33
ENDBRANCH  24  27
ENDBRANCH  22  23
ENDBRANCH  21  22
ENDBRANCH   1  21
TORSDOF 15
ENDMDL
