MODEL 1
REMARK VINA RESULT:     -11.2      0.000      0.000
REMARK SMILES CC1(C)C[C@@]([NH2+]CCN=[N+]=[N-])(C(=O)NCCCNC(=O)c2ccc(-c3c4nc(c(-c5ccccc5)c5ccc([nH]5)c(-c5ccccc5)c5nc(c(-c6ccccc6)c6ccc3[nH]6)C=C5)C=C4)cc2)C(C)(C)O1
REMARK SMILES IDX 15 1 14 2 12 3 13 4 5 6 1 7 2 8 3 9 4 10 72 11 69 12 70 13
REMARK SMILES IDX 71 14 6 15 7 18 8 19 9 20 10 21 11 22 16 23 17 24 18 25
REMARK SMILES IDX 19 26 20 28 21 29 22 30 68 31 23 32 67 33 24 34 25 35 26 36
REMARK SMILES IDX 61 37 27 38 66 39 60 40 62 41 28 42 65 43 59 44 58 45 29 47
REMARK SMILES IDX 51 48 36 49 50 50 37 51 40 52 49 53 63 54 38 55 39 56 48 58
REMARK SMILES IDX 64 59 41 60 30 61 31 62 35 63 32 64 34 65 33 66 52 67 53 68
REMARK SMILES IDX 57 69 54 70 56 71 55 72 42 73 43 74 47 75 44 76 46 77 45 78
REMARK H PARENT 14 5 6 16 6 17 18 27 62 46 40 57
REMARK Flexibility Score: inf
ROOT
ATOM      1  C   UNL A   1      36.214  20.719  24.875  1.00  0.00     0.118 C 
ENDROOT
BRANCH   1   2
ATOM      2  N   UNL A   1      35.753  21.159  26.179  1.00  0.00    -0.351 N 
ATOM      3  C   UNL A   1      34.481  21.481  26.582  1.00  0.00     0.284 C 
ATOM      4  O   UNL A   1      34.325  21.685  27.786  1.00  0.00    -0.268 OA
ATOM      5  H   UNL A   1      36.449  21.236  26.870  1.00  0.00     0.163 HD
BRANCH   3   6
ATOM      6  C   UNL A   1      33.310  21.474  25.530  1.00  0.00     0.206 C 
ATOM      7  C   UNL A   1      33.542  23.579  22.523  1.00  0.00     0.042 C 
ATOM      8  C   UNL A   1      32.868  22.441  23.301  1.00  0.00     0.070 C 
ATOM      9  C   UNL A   1      32.110  21.588  22.276  1.00  0.00     0.042 C 
ATOM     10  C   UNL A   1      33.901  21.662  24.119  1.00  0.00     0.117 C 
ATOM     11  O   UNL A   1      31.918  22.973  24.236  1.00  0.00    -0.362 OA
ATOM     12  C   UNL A   1      32.377  22.740  25.601  1.00  0.00     0.127 C 
ATOM     13  C   UNL A   1      33.061  24.058  26.023  1.00  0.00     0.049 C 
ATOM     14  C   UNL A   1      31.131  22.566  26.478  1.00  0.00     0.049 C 
BRANCH   6  15
ATOM     15  N   UNL A   1      32.631  20.172  25.805  1.00  0.00    -0.331 N 
ATOM     16  H   UNL A   1      31.678  20.393  26.089  1.00  0.00     0.347 HD
ATOM     17  H   UNL A   1      33.242  19.734  26.494  1.00  0.00     0.347 HD
BRANCH  15  18
ATOM     18  C   UNL A   1      32.534  19.165  24.765  1.00  0.00     0.267 C 
BRANCH  18  19
ATOM     19  C   UNL A   1      33.046  17.793  25.244  1.00  0.00     0.152 C 
BRANCH  19  20
ATOM     20  N   UNL A   1      34.243  17.371  24.500  1.00  0.00    -0.088 NA
ATOM     21  N   UNL A   1      34.835  16.371  24.931  1.00  0.00     0.001 N 
ATOM     22  N   UNL A   1      35.353  15.433  25.325  1.00  0.00    -0.003 NA
ENDBRANCH  19  20
ENDBRANCH  18  19
ENDBRANCH  15  18
ENDBRANCH   6  15
ENDBRANCH   3   6
ENDBRANCH   1   2
BRANCH   1  23
ATOM     23  C   UNL A   1      37.350  19.720  24.998  1.00  0.00     0.042 C 
BRANCH  23  24
ATOM     24  C   UNL A   1      38.639  20.390  25.429  1.00  0.00     0.118 C 
BRANCH  24  25
ATOM     25  N   UNL A   1      39.682  19.407  25.703  1.00  0.00    -0.352 N 
ATOM     26  C   UNL A   1      40.994  19.601  26.050  1.00  0.00     0.251 C 
ATOM     27  H   UNL A   1      39.403  18.466  25.625  1.00  0.00     0.163 HD
ATOM     28  O   UNL A   1      41.805  18.689  25.937  1.00  0.00    -0.269 OA
BRANCH  26  29
ATOM     29  C   UNL A   1      41.417  20.917  26.562  1.00  0.00     0.039 A 
ATOM     30  C   UNL A   1      41.965  21.852  25.683  1.00  0.00     0.014 A 
ATOM     31  C   UNL A   1      41.272  21.218  27.918  1.00  0.00     0.014 A 
ATOM     32  C   UNL A   1      42.318  23.112  26.162  1.00  0.00     0.010 A 
ATOM     33  C   UNL A   1      41.509  22.505  28.366  1.00  0.00     0.010 A 
ATOM     34  C   UNL A   1      42.061  23.458  27.500  1.00  0.00    -0.014 A 
BRANCH  34  35
ATOM     35  C   UNL A   1      42.389  24.800  28.031  1.00  0.00     0.031 A 
ATOM     36  C   UNL A   1      43.800  25.107  28.453  1.00  0.00     0.074 A 
ATOM     37  C   UNL A   1      41.409  25.708  28.194  1.00  0.00     0.049 A 
ATOM     38  N   UNL A   1      44.278  26.195  29.000  1.00  0.00    -0.248 NA
ATOM     39  C   UNL A   1      44.801  24.041  28.267  1.00  0.00     0.031 C 
ATOM     40  C   UNL A   1      39.998  25.505  27.859  1.00  0.00     0.029 A 
ATOM     41  N   UNL A   1      41.454  26.987  28.687  1.00  0.00    -0.354 N 
ATOM     42  C   UNL A   1      45.621  25.934  29.241  1.00  0.00     0.074 A 
ATOM     43  C   UNL A   1      45.871  24.569  28.842  1.00  0.00     0.031 C 
ATOM     44  C   UNL A   1      39.319  26.635  28.116  1.00  0.00     0.029 A 
ATOM     45  C   UNL A   1      40.235  27.619  28.682  1.00  0.00     0.049 A 
ATOM     46  H   UNL A   1      42.280  27.410  29.012  1.00  0.00     0.167 HD
ATOM     47  C   UNL A   1      46.569  26.767  29.731  1.00  0.00     0.031 A 
ATOM     48  C   UNL A   1      39.895  28.854  29.095  1.00  0.00     0.031 A 
ATOM     49  C   UNL A   1      46.315  28.129  30.114  1.00  0.00     0.049 A 
ATOM     50  C   UNL A   1      40.963  29.751  29.657  1.00  0.00     0.074 A 
ATOM     51  C   UNL A   1      47.214  29.078  30.564  1.00  0.00     0.029 A 
ATOM     52  N   UNL A   1      45.067  28.732  30.096  1.00  0.00    -0.354 N 
ATOM     53  N   UNL A   1      42.244  29.517  29.808  1.00  0.00    -0.248 NA
ATOM     54  C   UNL A   1      40.539  31.086  30.094  1.00  0.00     0.031 C 
ATOM     55  C   UNL A   1      46.499  30.235  30.883  1.00  0.00     0.029 A 
ATOM     56  C   UNL A   1      45.167  30.032  30.559  1.00  0.00     0.049 A 
ATOM     57  H   UNL A   1      44.233  28.300  29.798  1.00  0.00     0.167 HD
ATOM     58  C   UNL A   1      42.785  30.687  30.324  1.00  0.00     0.074 A 
ATOM     59  C   UNL A   1      41.694  31.633  30.444  1.00  0.00     0.031 C 
ATOM     60  C   UNL A   1      44.068  30.957  30.667  1.00  0.00     0.031 A 
BRANCH  47  61
ATOM     61  C   UNL A   1      47.962  26.221  29.889  1.00  0.00    -0.014 A 
ATOM     62  C   UNL A   1      48.865  26.192  28.813  1.00  0.00     0.009 A 
ATOM     63  C   UNL A   1      48.390  25.761  31.144  1.00  0.00     0.009 A 
ATOM     64  C   UNL A   1      50.152  25.679  28.983  1.00  0.00     0.001 A 
ATOM     65  C   UNL A   1      49.688  25.280  31.319  1.00  0.00     0.001 A 
ATOM     66  C   UNL A   1      50.565  25.230  30.237  1.00  0.00     0.000 A 
ENDBRANCH  47  61
BRANCH  48  67
ATOM     67  C   UNL A   1      38.488  29.322  28.980  1.00  0.00    -0.014 A 
ATOM     68  C   UNL A   1      37.628  29.275  30.088  1.00  0.00     0.009 A 
ATOM     69  C   UNL A   1      37.991  29.805  27.759  1.00  0.00     0.009 A 
ATOM     70  C   UNL A   1      36.293  29.666  29.967  1.00  0.00     0.001 A 
ATOM     71  C   UNL A   1      36.665  30.229  27.650  1.00  0.00     0.001 A 
ATOM     72  C   UNL A   1      35.814  30.147  28.750  1.00  0.00     0.000 A 
ENDBRANCH  48  67
BRANCH  60  73
ATOM     73  C   UNL A   1      44.372  32.345  31.159  1.00  0.00    -0.014 A 
ATOM     74  C   UNL A   1      44.698  33.384  30.275  1.00  0.00     0.009 A 
ATOM     75  C   UNL A   1      44.283  32.623  32.533  1.00  0.00     0.009 A 
ATOM     76  C   UNL A   1      44.966  34.664  30.762  1.00  0.00     0.001 A 
ATOM     77  C   UNL A   1      44.515  33.912  33.012  1.00  0.00     0.001 A 
ATOM     78  C   UNL A   1      44.868  34.929  32.127  1.00  0.00     0.000 A 
ENDBRANCH  60  73
ENDBRANCH  34  35
ENDBRANCH  26  29
ENDBRANCH  24  25
ENDBRANCH  23  24
ENDBRANCH   1  23
TORSDOF 14
ENDMDL
MODEL 2
REMARK VINA RESULT:     -11.2      0.567      6.088
REMARK SMILES CC1(C)C[C@@]([NH2+]CCN=[N+]=[N-])(C(=O)NCCCNC(=O)c2ccc(-c3c4nc(c(-c5ccccc5)c5ccc([nH]5)c(-c5ccccc5)c5nc(c(-c6ccccc6)c6ccc3[nH]6)C=C5)C=C4)cc2)C(C)(C)O1
REMARK SMILES IDX 15 1 14 2 12 3 13 4 5 6 1 7 2 8 3 9 4 10 72 11 69 12 70 13
REMARK SMILES IDX 71 14 6 15 7 18 8 19 9 20 10 21 11 22 16 23 17 24 18 25
REMARK SMILES IDX 19 26 20 28 21 29 22 30 68 31 23 32 67 33 24 34 25 35 26 36
REMARK SMILES IDX 61 37 27 38 66 39 60 40 62 41 28 42 65 43 59 44 58 45 29 47
REMARK SMILES IDX 51 48 36 49 50 50 37 51 40 52 49 53 63 54 38 55 39 56 48 58
REMARK SMILES IDX 64 59 41 60 30 61 31 62 35 63 32 64 34 65 33 66 52 67 53 68
REMARK SMILES IDX 57 69 54 70 56 71 55 72 42 73 43 74 47 75 44 76 46 77 45 78
REMARK H PARENT 14 5 6 16 6 17 18 27 62 46 40 57
REMARK Flexibility Score: inf
ROOT
ATOM      1  C   UNL A   1      36.100  20.560  24.841  1.00  0.00     0.118 C 
ENDROOT
BRANCH   1   2
ATOM      2  N   UNL A   1      35.670  21.066  26.131  1.00  0.00    -0.351 N 
ATOM      3  C   UNL A   1      34.414  21.443  26.537  1.00  0.00     0.284 C 
ATOM      4  O   UNL A   1      34.281  21.701  27.733  1.00  0.00    -0.268 OA
ATOM      5  H   UNL A   1      36.378  21.151  26.809  1.00  0.00     0.163 HD
BRANCH   3   6
ATOM      6  C   UNL A   1      33.229  21.430  25.501  1.00  0.00     0.206 C 
ATOM      7  C   UNL A   1      33.465  23.433  22.426  1.00  0.00     0.042 C 
ATOM      8  C   UNL A   1      32.778  22.335  23.248  1.00  0.00     0.070 C 
ATOM      9  C   UNL A   1      31.987  21.468  22.261  1.00  0.00     0.042 C 
ATOM     10  C   UNL A   1      33.804  21.559  24.077  1.00  0.00     0.117 C 
ATOM     11  O   UNL A   1      31.853  22.918  24.178  1.00  0.00    -0.362 OA
ATOM     12  C   UNL A   1      32.326  22.718  25.544  1.00  0.00     0.127 C 
ATOM     13  C   UNL A   1      33.044  24.032  25.914  1.00  0.00     0.049 C 
ATOM     14  C   UNL A   1      31.088  22.600  26.442  1.00  0.00     0.049 C 
BRANCH   6  15
ATOM     15  N   UNL A   1      32.526  20.153  25.826  1.00  0.00    -0.331 N 
ATOM     16  H   UNL A   1      31.535  20.377  25.905  1.00  0.00     0.347 HD
ATOM     17  H   UNL A   1      33.008  19.830  26.665  1.00  0.00     0.347 HD
BRANCH  15  18
ATOM     18  C   UNL A   1      32.626  19.015  24.932  1.00  0.00     0.267 C 
BRANCH  18  19
ATOM     19  C   UNL A   1      32.901  17.706  25.695  1.00  0.00     0.152 C 
BRANCH  19  20
ATOM     20  N   UNL A   1      32.800  16.532  24.814  1.00  0.00    -0.088 NA
ATOM     21  N   UNL A   1      33.438  16.584  23.752  1.00  0.00     0.001 N 
ATOM     22  N   UNL A   1      34.052  16.637  22.791  1.00  0.00    -0.003 NA
ENDBRANCH  19  20
ENDBRANCH  18  19
ENDBRANCH  15  18
ENDBRANCH   6  15
ENDBRANCH   3   6
ENDBRANCH   1   2
BRANCH   1  23
ATOM     23  C   UNL A   1      37.262  19.595  24.984  1.00  0.00     0.042 C 
BRANCH  23  24
ATOM     24  C   UNL A   1      38.541  20.315  25.363  1.00  0.00     0.118 C 
BRANCH  24  25
ATOM     25  N   UNL A   1      39.609  19.369  25.673  1.00  0.00    -0.352 N 
ATOM     26  C   UNL A   1      40.896  19.609  26.079  1.00  0.00     0.251 C 
ATOM     27  H   UNL A   1      39.370  18.419  25.577  1.00  0.00     0.163 HD
ATOM     28  O   UNL A   1      41.746  18.730  25.994  1.00  0.00    -0.269 OA
BRANCH  26  29
ATOM     29  C   UNL A   1      41.245  20.936  26.620  1.00  0.00     0.039 A 
ATOM     30  C   UNL A   1      41.134  21.170  27.990  1.00  0.00     0.014 A 
ATOM     31  C   UNL A   1      41.678  21.948  25.759  1.00  0.00     0.014 A 
ATOM     32  C   UNL A   1      41.511  22.411  28.503  1.00  0.00     0.010 A 
ATOM     33  C   UNL A   1      42.165  23.133  26.282  1.00  0.00     0.010 A 
ATOM     34  C   UNL A   1      42.061  23.388  27.656  1.00  0.00    -0.014 A 
BRANCH  34  35
ATOM     35  C   UNL A   1      42.506  24.701  28.173  1.00  0.00     0.031 A 
ATOM     36  C   UNL A   1      41.495  25.794  28.395  1.00  0.00     0.074 A 
ATOM     37  C   UNL A   1      43.817  24.926  28.375  1.00  0.00     0.049 A 
ATOM     38  N   UNL A   1      41.688  27.029  28.780  1.00  0.00    -0.248 NA
ATOM     39  C   UNL A   1      40.085  25.467  28.117  1.00  0.00     0.031 C 
ATOM     40  C   UNL A   1      44.891  23.954  28.154  1.00  0.00     0.029 A 
ATOM     41  N   UNL A   1      44.471  26.049  28.814  1.00  0.00    -0.354 N 
ATOM     42  C   UNL A   1      40.434  27.625  28.767  1.00  0.00     0.074 A 
ATOM     43  C   UNL A   1      39.496  26.642  28.278  1.00  0.00     0.031 C 
ATOM     44  C   UNL A   1      46.064  24.510  28.498  1.00  0.00     0.029 A 
ATOM     45  C   UNL A   1      45.831  25.889  28.911  1.00  0.00     0.049 A 
ATOM     46  H   UNL A   1      44.009  26.888  29.036  1.00  0.00     0.167 HD
ATOM     47  C   UNL A   1      40.090  28.876  29.152  1.00  0.00     0.031 A 
ATOM     48  C   UNL A   1      46.784  26.762  29.287  1.00  0.00     0.031 A 
ATOM     49  C   UNL A   1      41.027  29.846  29.649  1.00  0.00     0.049 A 
ATOM     50  C   UNL A   1      46.377  28.153  29.687  1.00  0.00     0.074 A 
ATOM     51  C   UNL A   1      40.777  31.120  30.124  1.00  0.00     0.029 A 
ATOM     52  N   UNL A   1      42.396  29.647  29.732  1.00  0.00    -0.354 N 
ATOM     53  N   UNL A   1      45.177  28.680  29.742  1.00  0.00    -0.248 NA
ATOM     54  C   UNL A   1      47.454  29.066  30.086  1.00  0.00     0.031 C 
ATOM     55  C   UNL A   1      42.002  31.717  30.430  1.00  0.00     0.029 A 
ATOM     56  C   UNL A   1      43.009  30.788  30.218  1.00  0.00     0.049 A 
ATOM     57  H   UNL A   1      42.864  28.817  29.481  1.00  0.00     0.167 HD
ATOM     58  C   UNL A   1      45.353  29.973  30.217  1.00  0.00     0.074 A 
ATOM     59  C   UNL A   1      46.773  30.143  30.447  1.00  0.00     0.031 C 
ATOM     60  C   UNL A   1      44.424  30.934  30.443  1.00  0.00     0.031 A 
BRANCH  47  61
ATOM     61  C   UNL A   1      38.641  29.267  29.037  1.00  0.00    -0.014 A 
ATOM     62  C   UNL A   1      37.757  29.135  30.120  1.00  0.00     0.009 A 
ATOM     63  C   UNL A   1      38.161  29.809  27.834  1.00  0.00     0.009 A 
ATOM     64  C   UNL A   1      36.417  29.503  29.989  1.00  0.00     0.001 A 
ATOM     65  C   UNL A   1      36.829  30.208  27.716  1.00  0.00     0.001 A 
ATOM     66  C   UNL A   1      35.955  30.044  28.790  1.00  0.00     0.000 A 
ENDBRANCH  47  61
BRANCH  48  67
ATOM     67  C   UNL A   1      48.211  26.346  29.318  1.00  0.00    -0.014 A 
ATOM     68  C   UNL A   1      48.768  25.797  30.484  1.00  0.00     0.009 A 
ATOM     69  C   UNL A   1      49.030  26.509  28.190  1.00  0.00     0.009 A 
ATOM     70  C   UNL A   1      50.121  25.454  30.530  1.00  0.00     0.001 A 
ATOM     71  C   UNL A   1      50.374  26.132  28.227  1.00  0.00     0.001 A 
ATOM     72  C   UNL A   1      50.922  25.617  29.400  1.00  0.00     0.000 A 
ENDBRANCH  48  67
BRANCH  60  73
ATOM     73  C   UNL A   1      44.908  32.239  31.012  1.00  0.00    -0.014 A 
ATOM     74  C   UNL A   1      45.271  33.312  30.184  1.00  0.00     0.009 A 
ATOM     75  C   UNL A   1      44.955  32.408  32.406  1.00  0.00     0.009 A 
ATOM     76  C   UNL A   1      45.707  34.515  30.742  1.00  0.00     0.001 A 
ATOM     77  C   UNL A   1      45.356  33.623  32.959  1.00  0.00     0.001 A 
ATOM     78  C   UNL A   1      45.743  34.672  32.127  1.00  0.00     0.000 A 
ENDBRANCH  60  73
ENDBRANCH  34  35
ENDBRANCH  26  29
ENDBRANCH  24  25
ENDBRANCH  23  24
ENDBRANCH   1  23
TORSDOF 14
ENDMDL
MODEL 3
REMARK VINA RESULT:     -11.0      5.185      9.555
REMARK SMILES CC1(C)C[C@@]([NH2+]CCN=[N+]=[N-])(C(=O)NCCCNC(=O)c2ccc(-c3c4nc(c(-c5ccccc5)c5ccc([nH]5)c(-c5ccccc5)c5nc(c(-c6ccccc6)c6ccc3[nH]6)C=C5)C=C4)cc2)C(C)(C)O1
REMARK SMILES IDX 15 1 14 2 12 3 13 4 5 6 1 7 2 8 3 9 4 10 72 11 69 12 70 13
REMARK SMILES IDX 71 14 6 15 7 18 8 19 9 20 10 21 11 22 16 23 17 24 18 25
REMARK SMILES IDX 19 26 20 28 21 29 22 30 68 31 23 32 67 33 24 34 25 35 26 36
REMARK SMILES IDX 61 37 27 38 66 39 60 40 62 41 28 42 65 43 59 44 58 45 29 47
REMARK SMILES IDX 51 48 36 49 50 50 37 51 40 52 49 53 63 54 38 55 39 56 48 58
REMARK SMILES IDX 64 59 41 60 30 61 31 62 35 63 32 64 34 65 33 66 52 67 53 68
REMARK SMILES IDX 57 69 54 70 56 71 55 72 42 73 43 74 47 75 44 76 46 77 45 78
REMARK H PARENT 14 5 6 16 6 17 18 27 62 46 40 57
REMARK Flexibility Score: inf
ROOT
ATOM      1  C   UNL A   1      31.715  29.772  25.713  1.00  0.00     0.118 C 
ENDROOT
BRANCH   1   2
ATOM      2  N   UNL A   1      32.741  29.692  24.690  1.00  0.00    -0.351 N 
ATOM      3  C   UNL A   1      32.749  28.958  23.529  1.00  0.00     0.284 C 
ATOM      4  O   UNL A   1      33.677  29.176  22.752  1.00  0.00    -0.268 OA
ATOM      5  H   UNL A   1      33.542  30.240  24.849  1.00  0.00     0.163 HD
BRANCH   3   6
ATOM      6  C   UNL A   1      31.553  27.981  23.224  1.00  0.00     0.206 C 
ATOM      7  C   UNL A   1      30.479  25.553  25.769  1.00  0.00     0.042 C 
ATOM      8  C   UNL A   1      30.229  26.295  24.450  1.00  0.00     0.070 C 
ATOM      9  C   UNL A   1      28.723  26.206  24.167  1.00  0.00     0.042 C 
ATOM     10  C   UNL A   1      30.766  27.725  24.524  1.00  0.00     0.117 C 
ATOM     11  O   UNL A   1      30.928  25.647  23.377  1.00  0.00    -0.362 OA
ATOM     12  C   UNL A   1      31.999  26.509  22.887  1.00  0.00     0.127 C 
ATOM     13  C   UNL A   1      33.272  26.010  23.602  1.00  0.00     0.049 C 
ATOM     14  C   UNL A   1      32.167  26.221  21.390  1.00  0.00     0.049 C 
BRANCH   6  15
ATOM     15  N   UNL A   1      30.825  28.688  22.128  1.00  0.00    -0.331 N 
ATOM     16  H   UNL A   1      30.801  28.050  21.333  1.00  0.00     0.347 HD
ATOM     17  H   UNL A   1      31.350  29.555  22.024  1.00  0.00     0.347 HD
BRANCH  15  18
ATOM     18  C   UNL A   1      29.465  29.149  22.333  1.00  0.00     0.267 C 
BRANCH  18  19
ATOM     19  C   UNL A   1      29.422  30.576  22.911  1.00  0.00     0.152 C 
BRANCH  19  20
ATOM     20  N   UNL A   1      28.952  31.551  21.915  1.00  0.00    -0.088 NA
ATOM     21  N   UNL A   1      28.653  32.676  22.343  1.00  0.00     0.001 N 
ATOM     22  N   UNL A   1      28.408  33.714  22.750  1.00  0.00    -0.003 NA
ENDBRANCH  19  20
ENDBRANCH  18  19
ENDBRANCH  15  18
ENDBRANCH   6  15
ENDBRANCH   3   6
ENDBRANCH   1   2
BRANCH   1  23
ATOM     23  C   UNL A   1      31.443  31.211  26.112  1.00  0.00     0.042 C 
BRANCH  23  24
ATOM     24  C   UNL A   1      32.516  31.745  27.040  1.00  0.00     0.118 C 
BRANCH  24  25
ATOM     25  N   UNL A   1      32.363  33.181  27.256  1.00  0.00    -0.352 N 
ATOM     26  C   UNL A   1      33.013  34.004  28.139  1.00  0.00     0.251 C 
ATOM     27  H   UNL A   1      31.695  33.622  26.684  1.00  0.00     0.163 HD
ATOM     28  O   UNL A   1      32.552  35.106  28.409  1.00  0.00    -0.269 OA
BRANCH  26  29
ATOM     29  C   UNL A   1      34.272  33.548  28.756  1.00  0.00     0.039 A 
ATOM     30  C   UNL A   1      34.227  32.777  29.918  1.00  0.00     0.014 A 
ATOM     31  C   UNL A   1      35.497  33.893  28.180  1.00  0.00     0.014 A 
ATOM     32  C   UNL A   1      35.417  32.307  30.471  1.00  0.00     0.010 A 
ATOM     33  C   UNL A   1      36.665  33.327  28.660  1.00  0.00     0.010 A 
ATOM     34  C   UNL A   1      36.641  32.551  29.826  1.00  0.00    -0.014 A 
BRANCH  34  35
ATOM     35  C   UNL A   1      37.919  32.036  30.366  1.00  0.00     0.031 A 
ATOM     36  C   UNL A   1      38.506  30.769  29.806  1.00  0.00     0.074 A 
ATOM     37  C   UNL A   1      38.507  32.668  31.398  1.00  0.00     0.049 A 
ATOM     38  N   UNL A   1      39.578  30.120  30.183  1.00  0.00    -0.248 NA
ATOM     39  C   UNL A   1      37.777  30.127  28.697  1.00  0.00     0.031 C 
ATOM     40  C   UNL A   1      38.006  33.882  32.049  1.00  0.00     0.029 A 
ATOM     41  N   UNL A   1      39.658  32.376  32.083  1.00  0.00    -0.354 N 
ATOM     42  C   UNL A   1      39.634  28.991  29.376  1.00  0.00     0.074 A 
ATOM     43  C   UNL A   1      38.462  29.006  28.533  1.00  0.00     0.031 C 
ATOM     44  C   UNL A   1      38.867  34.251  33.010  1.00  0.00     0.029 A 
ATOM     45  C   UNL A   1      39.950  33.276  33.078  1.00  0.00     0.049 A 
ATOM     46  H   UNL A   1      40.222  31.595  31.880  1.00  0.00     0.167 HD
ATOM     47  C   UNL A   1      40.593  28.037  29.325  1.00  0.00     0.031 A 
ATOM     48  C   UNL A   1      40.973  33.305  33.951  1.00  0.00     0.031 A 
ATOM     49  C   UNL A   1      41.764  28.036  30.158  1.00  0.00     0.049 A 
ATOM     50  C   UNL A   1      42.011  32.220  33.889  1.00  0.00     0.074 A 
ATOM     51  C   UNL A   1      42.828  27.152  30.147  1.00  0.00     0.029 A 
ATOM     52  N   UNL A   1      42.022  28.963  31.155  1.00  0.00    -0.354 N 
ATOM     53  N   UNL A   1      42.092  31.199  33.070  1.00  0.00    -0.248 NA
ATOM     54  C   UNL A   1      43.105  32.298  34.865  1.00  0.00     0.031 C 
ATOM     55  C   UNL A   1      43.696  27.505  31.183  1.00  0.00     0.029 A 
ATOM     56  C   UNL A   1      43.212  28.654  31.789  1.00  0.00     0.049 A 
ATOM     57  H   UNL A   1      41.445  29.729  31.379  1.00  0.00     0.167 HD
ATOM     58  C   UNL A   1      43.264  30.534  33.408  1.00  0.00     0.074 A 
ATOM     59  C   UNL A   1      43.866  31.277  34.496  1.00  0.00     0.031 C 
ATOM     60  C   UNL A   1      43.795  29.411  32.868  1.00  0.00     0.031 A 
BRANCH  47  61
ATOM     61  C   UNL A   1      40.405  26.912  28.344  1.00  0.00    -0.014 A 
ATOM     62  C   UNL A   1      39.650  25.773  28.670  1.00  0.00     0.009 A 
ATOM     63  C   UNL A   1      40.965  27.008  27.061  1.00  0.00     0.009 A 
ATOM     64  C   UNL A   1      39.492  24.740  27.744  1.00  0.00     0.001 A 
ATOM     65  C   UNL A   1      40.776  25.989  26.125  1.00  0.00     0.001 A 
ATOM     66  C   UNL A   1      40.049  24.852  26.471  1.00  0.00     0.000 A 
ENDBRANCH  47  61
BRANCH  48  67
ATOM     67  C   UNL A   1      41.076  34.404  34.948  1.00  0.00    -0.014 A 
ATOM     68  C   UNL A   1      41.777  35.581  34.641  1.00  0.00     0.009 A 
ATOM     69  C   UNL A   1      40.489  34.278  36.217  1.00  0.00     0.009 A 
ATOM     70  C   UNL A   1      41.918  36.591  35.595  1.00  0.00     0.001 A 
ATOM     71  C   UNL A   1      40.601  35.305  37.156  1.00  0.00     0.001 A 
ATOM     72  C   UNL A   1      41.326  36.455  36.850  1.00  0.00     0.000 A 
ENDBRANCH  48  67
BRANCH  60  73
ATOM     73  C   UNL A   1      45.117  28.943  33.412  1.00  0.00    -0.014 A 
ATOM     74  C   UNL A   1      45.193  28.022  34.467  1.00  0.00     0.009 A 
ATOM     75  C   UNL A   1      46.306  29.401  32.821  1.00  0.00     0.009 A 
ATOM     76  C   UNL A   1      46.434  27.600  34.945  1.00  0.00     0.001 A 
ATOM     77  C   UNL A   1      47.543  28.949  33.276  1.00  0.00     0.001 A 
ATOM     78  C   UNL A   1      47.607  28.057  34.346  1.00  0.00     0.000 A 
ENDBRANCH  60  73
ENDBRANCH  34  35
ENDBRANCH  26  29
ENDBRANCH  24  25
ENDBRANCH  23  24
ENDBRANCH   1  23
TORSDOF 14
ENDMDL
