MODEL 1
REMARK VINA RESULT:     -12.1      0.000      0.000
REMARK SMILES CSc1ccc(/C=C2\C(C)=C(CC(=O)NCCCNC(=O)c3ccc(-c4c5nc(c(-c6ccccc6)c6ccc([nH]6)c(-c6ccccc6)c6nc(c(-c7ccccc7)c7ccc4[nH]7)C=C6)C=C5)cc3)c3cc(F)ccc32)cc1
REMARK SMILES IDX 16 1 15 2 13 3 14 4 12 6 11 7 7 8 8 9 9 10 76 11 10 12 70 13
REMARK SMILES IDX 75 14 71 15 74 16 72 17 73 18 6 19 3 20 4 21 78 22 5 23
REMARK SMILES IDX 77 24 2 25 1 26 17 27 18 28 19 29 20 30 21 32 22 33 23 34
REMARK SMILES IDX 69 35 24 36 68 37 25 38 26 39 27 40 62 41 28 42 67 43 61 44
REMARK SMILES IDX 63 45 29 46 66 47 60 48 59 49 30 51 52 52 37 53 51 54 38 55
REMARK SMILES IDX 41 56 50 57 64 58 39 59 40 60 49 62 65 63 42 64 31 65 32 66
REMARK SMILES IDX 36 67 33 68 35 69 34 70 53 71 54 72 58 73 55 74 57 75 56 76
REMARK SMILES IDX 43 77 44 78 48 79 45 80 47 81 46 82
REMARK H PARENT 15 5 19 31 63 50 41 61
REMARK Flexibility Score: inf
ROOT
ATOM      1  C   UNL A   1      37.412  20.890  24.610  1.00  0.00     0.117 C 
ENDROOT
BRANCH   1   2
ATOM      2  N   UNL A   1      37.566  22.007  25.523  1.00  0.00    -0.356 N 
ATOM      3  C   UNL A   1      37.079  23.277  25.416  1.00  0.00     0.224 C 
ATOM      4  O   UNL A   1      37.439  24.119  26.240  1.00  0.00    -0.275 OA
ATOM      5  H   UNL A   1      38.096  21.823  26.333  1.00  0.00     0.163 HD
BRANCH   3   6
ATOM      6  C   UNL A   1      36.121  23.619  24.295  1.00  0.00     0.136 C 
BRANCH   6   7
ATOM      7  C   UNL A   1      34.687  23.411  24.747  1.00  0.00    -0.027 C 
ATOM      8  C   UNL A   1      32.998  24.998  22.174  1.00  0.00     0.017 C 
ATOM      9  C   UNL A   1      33.295  24.101  23.129  1.00  0.00    -0.014 C 
ATOM     10  C   UNL A   1      33.731  24.355  24.517  1.00  0.00    -0.039 C 
ATOM     11  C   UNL A   1      33.270  22.627  23.035  1.00  0.00    -0.010 A 
ATOM     12  C   UNL A   1      32.503  24.385  25.447  1.00  0.00     0.045 C 
ATOM     13  C   UNL A   1      34.070  22.213  24.123  1.00  0.00    -0.011 A 
ATOM     14  C   UNL A   1      32.311  21.786  22.499  1.00  0.00     0.012 A 
ATOM     15  C   UNL A   1      33.926  20.971  24.715  1.00  0.00     0.048 A 
ATOM     16  C   UNL A   1      32.142  20.534  23.105  1.00  0.00     0.040 A 
ATOM     17  C   UNL A   1      32.934  20.147  24.201  1.00  0.00     0.123 A 
ATOM     18  F   UNL A   1      32.652  19.001  24.836  1.00  0.00    -0.207 F 
BRANCH   8  19
ATOM     19  C   UNL A   1      32.710  26.451  22.317  1.00  0.00    -0.025 A 
ATOM     20  C   UNL A   1      32.305  28.730  23.879  1.00  0.00     0.007 A 
ATOM     21  C   UNL A   1      33.538  28.520  23.275  1.00  0.00     0.015 A 
ATOM     22  C   UNL A   1      31.211  27.965  23.479  1.00  0.00     0.015 A 
ATOM     23  C   UNL A   1      33.720  27.408  22.458  1.00  0.00     0.009 A 
ATOM     24  C   UNL A   1      31.414  26.823  22.697  1.00  0.00     0.009 A 
BRANCH  20  25
ATOM     25  S   UNL A   1      32.199  29.764  25.325  1.00  0.00    -0.130 SA
ATOM     26  C   UNL A   1      33.678  29.116  26.181  1.00  0.00     0.091 C 
ENDBRANCH  20  25
ENDBRANCH   8  19
ENDBRANCH   6   7
ENDBRANCH   3   6
ENDBRANCH   1   2
BRANCH   1  27
ATOM     27  C   UNL A   1      38.331  19.728  24.963  1.00  0.00     0.042 C 
BRANCH  27  28
ATOM     28  C   UNL A   1      39.314  20.029  26.081  1.00  0.00     0.118 C 
BRANCH  28  29
ATOM     29  N   UNL A   1      40.530  19.249  25.945  1.00  0.00    -0.352 N 
ATOM     30  C   UNL A   1      41.833  19.659  25.942  1.00  0.00     0.251 C 
ATOM     31  H   UNL A   1      40.396  18.279  25.839  1.00  0.00     0.163 HD
ATOM     32  O   UNL A   1      42.704  18.904  25.498  1.00  0.00    -0.269 OA
BRANCH  30  33
ATOM     33  C   UNL A   1      42.213  20.985  26.470  1.00  0.00     0.039 A 
ATOM     34  C   UNL A   1      42.237  21.179  27.854  1.00  0.00     0.014 A 
ATOM     35  C   UNL A   1      42.462  22.059  25.611  1.00  0.00     0.014 A 
ATOM     36  C   UNL A   1      42.518  22.445  28.373  1.00  0.00     0.010 A 
ATOM     37  C   UNL A   1      42.833  23.296  26.129  1.00  0.00     0.010 A 
ATOM     38  C   UNL A   1      42.824  23.511  27.514  1.00  0.00    -0.014 A 
BRANCH  38  39
ATOM     39  C   UNL A   1      43.054  24.879  28.037  1.00  0.00     0.031 A 
ATOM     40  C   UNL A   1      44.451  25.314  28.394  1.00  0.00     0.074 A 
ATOM     41  C   UNL A   1      42.013  25.708  28.232  1.00  0.00     0.049 A 
ATOM     42  N   UNL A   1      44.859  26.445  28.912  1.00  0.00    -0.248 NA
ATOM     43  C   UNL A   1      45.531  24.337  28.168  1.00  0.00     0.031 C 
ATOM     44  C   UNL A   1      40.610  25.391  27.956  1.00  0.00     0.029 A 
ATOM     45  N   UNL A   1      41.978  26.994  28.711  1.00  0.00    -0.354 N 
ATOM     46  C   UNL A   1      46.229  26.302  29.101  1.00  0.00     0.074 A 
ATOM     47  C   UNL A   1      46.575  24.960  28.689  1.00  0.00     0.031 C 
ATOM     48  C   UNL A   1      39.855  26.465  28.241  1.00  0.00     0.029 A 
ATOM     49  C   UNL A   1      40.715  27.530  28.750  1.00  0.00     0.049 A 
ATOM     50  H   UNL A   1      42.782  27.483  28.999  1.00  0.00     0.167 HD
ATOM     51  C   UNL A   1      47.123  27.210  29.554  1.00  0.00     0.031 A 
ATOM     52  C   UNL A   1      40.299  28.746  29.146  1.00  0.00     0.031 A 
ATOM     53  C   UNL A   1      46.782  28.554  29.931  1.00  0.00     0.049 A 
ATOM     54  C   UNL A   1      41.314  29.747  29.626  1.00  0.00     0.074 A 
ATOM     55  C   UNL A   1      47.619  29.574  30.346  1.00  0.00     0.029 A 
ATOM     56  N   UNL A   1      45.493  29.066  29.931  1.00  0.00    -0.354 N 
ATOM     57  N   UNL A   1      42.613  29.615  29.742  1.00  0.00    -0.248 NA
ATOM     58  C   UNL A   1      40.803  31.070  30.011  1.00  0.00     0.031 C 
ATOM     59  C   UNL A   1      46.831  30.694  30.635  1.00  0.00     0.029 A 
ATOM     60  C   UNL A   1      45.511  30.384  30.351  1.00  0.00     0.049 A 
ATOM     61  H   UNL A   1      44.687  28.566  29.672  1.00  0.00     0.167 HD
ATOM     62  C   UNL A   1      43.080  30.848  30.178  1.00  0.00     0.074 A 
ATOM     63  C   UNL A   1      41.925  31.716  30.296  1.00  0.00     0.031 C 
ATOM     64  C   UNL A   1      44.351  31.231  30.452  1.00  0.00     0.031 A 
BRANCH  51  65
ATOM     65  C   UNL A   1      48.557  26.772  29.668  1.00  0.00    -0.014 A 
ATOM     66  C   UNL A   1      49.039  26.150  30.831  1.00  0.00     0.009 A 
ATOM     67  C   UNL A   1      49.435  26.970  28.591  1.00  0.00     0.009 A 
ATOM     68  C   UNL A   1      50.382  25.774  30.928  1.00  0.00     0.001 A 
ATOM     69  C   UNL A   1      50.769  26.566  28.680  1.00  0.00     0.001 A 
ATOM     70  C   UNL A   1      51.242  25.978  29.852  1.00  0.00     0.000 A 
ENDBRANCH  51  65
BRANCH  52  71
ATOM     71  C   UNL A   1      38.859  29.101  29.070  1.00  0.00    -0.014 A 
ATOM     72  C   UNL A   1      38.307  29.569  27.866  1.00  0.00     0.009 A 
ATOM     73  C   UNL A   1      38.029  28.977  30.195  1.00  0.00     0.009 A 
ATOM     74  C   UNL A   1      36.960  29.931  27.799  1.00  0.00     0.001 A 
ATOM     75  C   UNL A   1      36.676  29.315  30.117  1.00  0.00     0.001 A 
ATOM     76  C   UNL A   1      36.145  29.800  28.923  1.00  0.00     0.000 A 
ENDBRANCH  52  71
BRANCH  64  77
ATOM     77  C   UNL A   1      44.562  32.662  30.856  1.00  0.00    -0.014 A 
ATOM     78  C   UNL A   1      44.547  33.052  32.204  1.00  0.00     0.009 A 
ATOM     79  C   UNL A   1      44.815  33.627  29.869  1.00  0.00     0.009 A 
ATOM     80  C   UNL A   1      44.744  34.390  32.552  1.00  0.00     0.001 A 
ATOM     81  C   UNL A   1      45.041  34.958  30.222  1.00  0.00     0.001 A 
ATOM     82  C   UNL A   1      44.994  35.339  31.561  1.00  0.00     0.000 A 
ENDBRANCH  64  77
ENDBRANCH  38  39
ENDBRANCH  30  33
ENDBRANCH  28  29
ENDBRANCH  27  28
ENDBRANCH   1  27
TORSDOF 13
ENDMDL
MODEL 2
REMARK VINA RESULT:     -12.0      4.190      9.150
REMARK SMILES CSc1ccc(/C=C2\C(C)=C(CC(=O)NCCCNC(=O)c3ccc(-c4c5nc(c(-c6ccccc6)c6ccc([nH]6)c(-c6ccccc6)c6nc(c(-c7ccccc7)c7ccc4[nH]7)C=C6)C=C5)cc3)c3cc(F)ccc32)cc1
REMARK SMILES IDX 16 1 15 2 13 3 14 4 12 6 11 7 7 8 8 9 9 10 76 11 10 12 70 13
REMARK SMILES IDX 75 14 71 15 74 16 72 17 73 18 6 19 3 20 4 21 78 22 5 23
REMARK SMILES IDX 77 24 2 25 1 26 17 27 18 28 19 29 20 30 21 32 22 33 23 34
REMARK SMILES IDX 69 35 24 36 68 37 25 38 26 39 27 40 62 41 28 42 67 43 61 44
REMARK SMILES IDX 63 45 29 46 66 47 60 48 59 49 30 51 52 52 37 53 51 54 38 55
REMARK SMILES IDX 41 56 50 57 64 58 39 59 40 60 49 62 65 63 42 64 31 65 32 66
REMARK SMILES IDX 36 67 33 68 35 69 34 70 53 71 54 72 58 73 55 74 57 75 56 76
REMARK SMILES IDX 43 77 44 78 48 79 45 80 47 81 46 82
REMARK H PARENT 15 5 19 31 63 50 41 61
REMARK Flexibility Score: inf
ROOT
ATOM      1  C   UNL A   1      31.671  30.543  26.826  1.00  0.00     0.117 C 
ENDROOT
BRANCH   1   2
ATOM      2  N   UNL A   1      33.067  30.154  26.749  1.00  0.00    -0.356 N 
ATOM      3  C   UNL A   1      33.616  28.908  26.838  1.00  0.00     0.224 C 
ATOM      4  O   UNL A   1      34.843  28.805  26.883  1.00  0.00    -0.275 OA
ATOM      5  H   UNL A   1      33.707  30.890  26.613  1.00  0.00     0.163 HD
BRANCH   3   6
ATOM      6  C   UNL A   1      32.714  27.694  26.886  1.00  0.00     0.136 C 
BRANCH   6   7
ATOM      7  C   UNL A   1      32.521  27.127  25.491  1.00  0.00    -0.027 C 
ATOM      8  C   UNL A   1      31.060  24.084  26.263  1.00  0.00     0.017 C 
ATOM      9  C   UNL A   1      31.324  25.234  25.622  1.00  0.00    -0.014 C 
ATOM     10  C   UNL A   1      32.642  25.790  25.250  1.00  0.00    -0.039 C 
ATOM     11  C   UNL A   1      30.367  26.244  25.128  1.00  0.00    -0.010 A 
ATOM     12  C   UNL A   1      33.008  25.341  23.823  1.00  0.00     0.045 C 
ATOM     13  C   UNL A   1      31.163  27.398  24.957  1.00  0.00    -0.011 A 
ATOM     14  C   UNL A   1      29.190  26.081  24.418  1.00  0.00     0.012 A 
ATOM     15  C   UNL A   1      30.823  28.404  24.070  1.00  0.00     0.048 A 
ATOM     16  C   UNL A   1      28.849  27.084  23.501  1.00  0.00     0.040 A 
ATOM     17  C   UNL A   1      29.665  28.217  23.330  1.00  0.00     0.123 A 
ATOM     18  F   UNL A   1      29.375  29.085  22.350  1.00  0.00    -0.207 F 
BRANCH   8  19
ATOM     19  C   UNL A   1      31.954  22.914  26.489  1.00  0.00    -0.025 A 
ATOM     20  C   UNL A   1      34.301  21.489  25.989  1.00  0.00     0.007 A 
ATOM     21  C   UNL A   1      34.204  22.274  27.130  1.00  0.00     0.015 A 
ATOM     22  C   UNL A   1      33.149  21.197  25.261  1.00  0.00     0.015 A 
ATOM     23  C   UNL A   1      33.014  22.944  27.400  1.00  0.00     0.009 A 
ATOM     24  C   UNL A   1      31.972  21.912  25.511  1.00  0.00     0.009 A 
BRANCH  20  25
ATOM     25  S   UNL A   1      35.906  21.099  25.324  1.00  0.00    -0.130 SA
ATOM     26  C   UNL A   1      36.724  22.676  25.754  1.00  0.00     0.091 C 
ENDBRANCH  20  25
ENDBRANCH   8  19
ENDBRANCH   6   7
ENDBRANCH   3   6
ENDBRANCH   1   2
BRANCH   1  27
ATOM     27  C   UNL A   1      31.499  32.056  26.876  1.00  0.00     0.042 C 
BRANCH  27  28
ATOM     28  C   UNL A   1      32.802  32.827  27.004  1.00  0.00     0.118 C 
BRANCH  28  29
ATOM     29  N   UNL A   1      32.599  34.112  27.648  1.00  0.00    -0.352 N 
ATOM     30  C   UNL A   1      33.172  34.620  28.779  1.00  0.00     0.251 C 
ATOM     31  H   UNL A   1      31.953  34.706  27.202  1.00  0.00     0.163 HD
ATOM     32  O   UNL A   1      32.646  35.583  29.344  1.00  0.00    -0.269 OA
BRANCH  30  33
ATOM     33  C   UNL A   1      34.415  34.039  29.327  1.00  0.00     0.039 A 
ATOM     34  C   UNL A   1      35.632  34.345  28.712  1.00  0.00     0.014 A 
ATOM     35  C   UNL A   1      34.379  33.129  30.388  1.00  0.00     0.014 A 
ATOM     36  C   UNL A   1      36.810  33.746  29.166  1.00  0.00     0.010 A 
ATOM     37  C   UNL A   1      35.562  32.605  30.899  1.00  0.00     0.010 A 
ATOM     38  C   UNL A   1      36.783  32.876  30.267  1.00  0.00    -0.014 A 
BRANCH  38  39
ATOM     39  C   UNL A   1      38.006  32.173  30.721  1.00  0.00     0.031 A 
ATOM     40  C   UNL A   1      38.807  32.735  31.866  1.00  0.00     0.074 A 
ATOM     41  C   UNL A   1      38.421  31.064  30.083  1.00  0.00     0.049 A 
ATOM     42  N   UNL A   1      39.930  32.304  32.382  1.00  0.00    -0.248 NA
ATOM     43  C   UNL A   1      38.293  33.964  32.497  1.00  0.00     0.031 C 
ATOM     44  C   UNL A   1      37.752  30.441  28.939  1.00  0.00     0.029 A 
ATOM     45  N   UNL A   1      39.512  30.263  30.309  1.00  0.00    -0.354 N 
ATOM     46  C   UNL A   1      40.268  33.222  33.370  1.00  0.00     0.074 A 
ATOM     47  C   UNL A   1      39.261  34.259  33.349  1.00  0.00     0.031 C 
ATOM     48  C   UNL A   1      38.430  29.337  28.584  1.00  0.00     0.029 A 
ATOM     49  C   UNL A   1      39.596  29.195  29.450  1.00  0.00     0.049 A 
ATOM     50  H   UNL A   1      40.172  30.439  31.018  1.00  0.00     0.167 HD
ATOM     51  C   UNL A   1      41.310  33.194  34.233  1.00  0.00     0.031 A 
ATOM     52  C   UNL A   1      40.508  28.209  29.375  1.00  0.00     0.031 A 
ATOM     53  C   UNL A   1      42.292  32.146  34.274  1.00  0.00     0.049 A 
ATOM     54  C   UNL A   1      41.645  28.188  30.359  1.00  0.00     0.074 A 
ATOM     55  C   UNL A   1      43.353  31.990  35.148  1.00  0.00     0.029 A 
ATOM     56  N   UNL A   1      42.326  31.067  33.404  1.00  0.00    -0.354 N 
ATOM     57  N   UNL A   1      41.918  29.031  31.325  1.00  0.00    -0.248 NA
ATOM     58  C   UNL A   1      42.589  27.067  30.250  1.00  0.00     0.031 C 
ATOM     59  C   UNL A   1      44.053  30.835  34.781  1.00  0.00     0.029 A 
ATOM     60  C   UNL A   1      43.397  30.248  33.711  1.00  0.00     0.049 A 
ATOM     61  H   UNL A   1      41.683  30.910  32.675  1.00  0.00     0.167 HD
ATOM     62  C   UNL A   1      43.042  28.524  31.962  1.00  0.00     0.074 A 
ATOM     63  C   UNL A   1      43.394  27.295  31.279  1.00  0.00     0.031 C 
ATOM     64  C   UNL A   1      43.722  29.025  33.023  1.00  0.00     0.031 A 
BRANCH  51  65
ATOM     65  C   UNL A   1      41.439  34.340  35.200  1.00  0.00    -0.014 A 
ATOM     66  C   UNL A   1      42.201  35.476  34.887  1.00  0.00     0.009 A 
ATOM     67  C   UNL A   1      40.774  34.288  36.434  1.00  0.00     0.009 A 
ATOM     68  C   UNL A   1      42.330  36.519  35.808  1.00  0.00     0.001 A 
ATOM     69  C   UNL A   1      40.880  35.345  37.342  1.00  0.00     0.001 A 
ATOM     70  C   UNL A   1      41.666  36.453  37.032  1.00  0.00     0.000 A 
ENDBRANCH  51  65
BRANCH  52  71
ATOM     71  C   UNL A   1      40.364  27.138  28.357  1.00  0.00    -0.014 A 
ATOM     72  C   UNL A   1      40.963  27.276  27.094  1.00  0.00     0.009 A 
ATOM     73  C   UNL A   1      39.629  25.976  28.637  1.00  0.00     0.009 A 
ATOM     74  C   UNL A   1      40.806  26.285  26.124  1.00  0.00     0.001 A 
ATOM     75  C   UNL A   1      39.497  24.974  27.673  1.00  0.00     0.001 A 
ATOM     76  C   UNL A   1      40.076  25.133  26.415  1.00  0.00     0.000 A 
ENDBRANCH  52  71
BRANCH  64  77
ATOM     77  C   UNL A   1      44.880  28.220  33.537  1.00  0.00    -0.014 A 
ATOM     78  C   UNL A   1      46.186  28.439  33.076  1.00  0.00     0.009 A 
ATOM     79  C   UNL A   1      44.659  27.248  34.525  1.00  0.00     0.009 A 
ATOM     80  C   UNL A   1      47.245  27.674  33.570  1.00  0.00     0.001 A 
ATOM     81  C   UNL A   1      45.722  26.505  35.038  1.00  0.00     0.001 A 
ATOM     82  C   UNL A   1      47.013  26.711  34.552  1.00  0.00     0.000 A 
ENDBRANCH  64  77
ENDBRANCH  38  39
ENDBRANCH  30  33
ENDBRANCH  28  29
ENDBRANCH  27  28
ENDBRANCH   1  27
TORSDOF 13
ENDMDL
MODEL 3
REMARK VINA RESULT:     -11.9      4.890      9.413
REMARK SMILES CSc1ccc(/C=C2\C(C)=C(CC(=O)NCCCNC(=O)c3ccc(-c4c5nc(c(-c6ccccc6)c6ccc([nH]6)c(-c6ccccc6)c6nc(c(-c7ccccc7)c7ccc4[nH]7)C=C6)C=C5)cc3)c3cc(F)ccc32)cc1
REMARK SMILES IDX 16 1 15 2 13 3 14 4 12 6 11 7 7 8 8 9 9 10 76 11 10 12 70 13
REMARK SMILES IDX 75 14 71 15 74 16 72 17 73 18 6 19 3 20 4 21 78 22 5 23
REMARK SMILES IDX 77 24 2 25 1 26 17 27 18 28 19 29 20 30 21 32 22 33 23 34
REMARK SMILES IDX 69 35 24 36 68 37 25 38 26 39 27 40 62 41 28 42 67 43 61 44
REMARK SMILES IDX 63 45 29 46 66 47 60 48 59 49 30 51 52 52 37 53 51 54 38 55
REMARK SMILES IDX 41 56 50 57 64 58 39 59 40 60 49 62 65 63 42 64 31 65 32 66
REMARK SMILES IDX 36 67 33 68 35 69 34 70 53 71 54 72 58 73 55 74 57 75 56 76
REMARK SMILES IDX 43 77 44 78 48 79 45 80 47 81 46 82
REMARK H PARENT 15 5 19 31 63 50 41 61
REMARK Flexibility Score: inf
ROOT
ATOM      1  C   UNL A   1      31.625  30.667  26.523  1.00  0.00     0.117 C 
ENDROOT
BRANCH   1   2
ATOM      2  N   UNL A   1      33.006  30.222  26.538  1.00  0.00    -0.356 N 
ATOM      3  C   UNL A   1      33.500  28.963  26.719  1.00  0.00     0.224 C 
ATOM      4  O   UNL A   1      34.718  28.817  26.833  1.00  0.00    -0.275 OA
ATOM      5  H   UNL A   1      33.681  30.926  26.398  1.00  0.00     0.163 HD
BRANCH   3   6
ATOM      6  C   UNL A   1      32.548  27.788  26.780  1.00  0.00     0.136 C 
BRANCH   6   7
ATOM      7  C   UNL A   1      32.348  27.200  25.396  1.00  0.00    -0.027 C 
ATOM      8  C   UNL A   1      30.794  24.216  26.216  1.00  0.00     0.017 C 
ATOM      9  C   UNL A   1      31.096  25.345  25.554  1.00  0.00    -0.014 C 
ATOM     10  C   UNL A   1      32.432  25.856  25.181  1.00  0.00    -0.039 C 
ATOM     11  C   UNL A   1      30.172  26.373  25.034  1.00  0.00    -0.010 A 
ATOM     12  C   UNL A   1      32.794  25.368  23.766  1.00  0.00     0.045 C 
ATOM     13  C   UNL A   1      31.002  27.500  24.846  1.00  0.00    -0.011 A 
ATOM     14  C   UNL A   1      28.996  26.230  24.319  1.00  0.00     0.012 A 
ATOM     15  C   UNL A   1      30.698  28.497  23.938  1.00  0.00     0.048 A 
ATOM     16  C   UNL A   1      28.690  27.225  23.380  1.00  0.00     0.040 A 
ATOM     17  C   UNL A   1      29.540  28.330  23.193  1.00  0.00     0.123 A 
ATOM     18  F   UNL A   1      29.283  29.186  22.195  1.00  0.00    -0.207 F 
BRANCH   8  19
ATOM     19  C   UNL A   1      31.652  23.026  26.471  1.00  0.00    -0.025 A 
ATOM     20  C   UNL A   1      33.975  21.539  26.040  1.00  0.00     0.007 A 
ATOM     21  C   UNL A   1      33.867  22.332  27.174  1.00  0.00     0.015 A 
ATOM     22  C   UNL A   1      32.835  21.273  25.282  1.00  0.00     0.015 A 
ATOM     23  C   UNL A   1      32.688  23.033  27.410  1.00  0.00     0.009 A 
ATOM     24  C   UNL A   1      31.671  22.018  25.499  1.00  0.00     0.009 A 
BRANCH  20  25
ATOM     25  S   UNL A   1      35.587  21.106  25.420  1.00  0.00    -0.130 SA
ATOM     26  C   UNL A   1      35.697  22.403  24.136  1.00  0.00     0.091 C 
ENDBRANCH  20  25
ENDBRANCH   8  19
ENDBRANCH   6   7
ENDBRANCH   3   6
ENDBRANCH   1   2
BRANCH   1  27
ATOM     27  C   UNL A   1      31.501  32.164  26.779  1.00  0.00     0.042 C 
BRANCH  27  28
ATOM     28  C   UNL A   1      32.794  32.830  27.218  1.00  0.00     0.118 C 
BRANCH  28  29
ATOM     29  N   UNL A   1      32.578  34.214  27.597  1.00  0.00    -0.352 N 
ATOM     30  C   UNL A   1      33.061  34.909  28.669  1.00  0.00     0.251 C 
ATOM     31  H   UNL A   1      31.997  34.728  26.991  1.00  0.00     0.163 HD
ATOM     32  O   UNL A   1      32.519  35.969  28.997  1.00  0.00    -0.269 OA
BRANCH  30  33
ATOM     33  C   UNL A   1      34.226  34.417  29.432  1.00  0.00     0.039 A 
ATOM     34  C   UNL A   1      35.503  34.551  28.878  1.00  0.00     0.014 A 
ATOM     35  C   UNL A   1      34.061  33.746  30.648  1.00  0.00     0.014 A 
ATOM     36  C   UNL A   1      36.609  34.023  29.546  1.00  0.00     0.010 A 
ATOM     37  C   UNL A   1      35.173  33.303  31.358  1.00  0.00     0.010 A 
ATOM     38  C   UNL A   1      36.453  33.400  30.794  1.00  0.00    -0.014 A 
BRANCH  38  39
ATOM     39  C   UNL A   1      37.600  32.769  31.488  1.00  0.00     0.031 A 
ATOM     40  C   UNL A   1      38.276  31.572  30.872  1.00  0.00     0.074 A 
ATOM     41  C   UNL A   1      38.004  33.237  32.683  1.00  0.00     0.049 A 
ATOM     42  N   UNL A   1      39.259  30.845  31.339  1.00  0.00    -0.248 NA
ATOM     43  C   UNL A   1      37.759  31.112  29.571  1.00  0.00     0.031 C 
ATOM     44  C   UNL A   1      37.408  34.367  33.398  1.00  0.00     0.029 A 
ATOM     45  N   UNL A   1      39.015  32.814  33.508  1.00  0.00    -0.354 N 
ATOM     46  C   UNL A   1      39.454  29.831  30.409  1.00  0.00     0.074 A 
ATOM     47  C   UNL A   1      38.457  30.005  29.377  1.00  0.00     0.031 C 
ATOM     48  C   UNL A   1      38.086  34.568  34.540  1.00  0.00     0.029 A 
ATOM     49  C   UNL A   1      39.138  33.563  34.652  1.00  0.00     0.049 A 
ATOM     50  H   UNL A   1      39.597  32.048  33.299  1.00  0.00     0.167 HD
ATOM     51  C   UNL A   1      40.391  28.855  30.401  1.00  0.00     0.031 A 
ATOM     52  C   UNL A   1      40.006  33.452  35.674  1.00  0.00     0.031 A 
ATOM     53  C   UNL A   1      41.402  28.703  31.411  1.00  0.00     0.049 A 
ATOM     54  C   UNL A   1      41.052  32.373  35.633  1.00  0.00     0.074 A 
ATOM     55  C   UNL A   1      42.436  27.785  31.467  1.00  0.00     0.029 A 
ATOM     56  N   UNL A   1      41.507  29.498  32.542  1.00  0.00    -0.354 N 
ATOM     57  N   UNL A   1      41.260  31.458  34.717  1.00  0.00    -0.248 NA
ATOM     58  C   UNL A   1      41.994  32.325  36.760  1.00  0.00     0.031 C 
ATOM     59  C   UNL A   1      43.145  28.002  32.654  1.00  0.00     0.029 A 
ATOM     60  C   UNL A   1      42.582  29.086  33.309  1.00  0.00     0.049 A 
ATOM     61  H   UNL A   1      40.906  30.245  32.765  1.00  0.00     0.167 HD
ATOM     62  C   UNL A   1      42.377  30.750  35.137  1.00  0.00     0.074 A 
ATOM     63  C   UNL A   1      42.807  31.347  36.386  1.00  0.00     0.031 C 
ATOM     64  C   UNL A   1      42.997  29.701  34.543  1.00  0.00     0.031 A 
BRANCH  51  65
ATOM     65  C   UNL A   1      40.358  27.873  29.261  1.00  0.00    -0.014 A 
ATOM     66  C   UNL A   1      39.578  26.708  29.325  1.00  0.00     0.009 A 
ATOM     67  C   UNL A   1      41.106  28.126  28.101  1.00  0.00     0.009 A 
ATOM     68  C   UNL A   1      39.581  25.795  28.267  1.00  0.00     0.001 A 
ATOM     69  C   UNL A   1      41.084  27.227  27.033  1.00  0.00     0.001 A 
ATOM     70  C   UNL A   1      40.330  26.058  27.121  1.00  0.00     0.000 A 
ENDBRANCH  51  65
BRANCH  52  71
ATOM     71  C   UNL A   1      39.950  34.413  36.805  1.00  0.00    -0.014 A 
ATOM     72  C   UNL A   1      40.621  35.644  36.723  1.00  0.00     0.009 A 
ATOM     73  C   UNL A   1      39.230  34.108  37.970  1.00  0.00     0.009 A 
ATOM     74  C   UNL A   1      40.594  36.537  37.796  1.00  0.00     0.001 A 
ATOM     75  C   UNL A   1      39.183  35.015  39.031  1.00  0.00     0.001 A 
ATOM     76  C   UNL A   1      39.872  36.224  38.947  1.00  0.00     0.000 A 
ENDBRANCH  52  71
BRANCH  64  77
ATOM     77  C   UNL A   1      44.233  29.168  35.209  1.00  0.00    -0.014 A 
ATOM     78  C   UNL A   1      44.166  28.137  36.157  1.00  0.00     0.009 A 
ATOM     79  C   UNL A   1      45.486  29.689  34.853  1.00  0.00     0.009 A 
ATOM     80  C   UNL A   1      45.332  27.661  36.763  1.00  0.00     0.001 A 
ATOM     81  C   UNL A   1      46.651  29.193  35.438  1.00  0.00     0.001 A 
ATOM     82  C   UNL A   1      46.572  28.187  36.400  1.00  0.00     0.000 A 
ENDBRANCH  64  77
ENDBRANCH  38  39
ENDBRANCH  30  33
ENDBRANCH  28  29
ENDBRANCH  27  28
ENDBRANCH   1  27
TORSDOF 13
ENDMDL
