MODEL 1
REMARK VINA RESULT:     -11.3      0.000      0.000
REMARK SMILES C[C@H](NC(=O)[C@]1(C)Sc2ccccc2NC1=O)C(=O)NCCCNC(=O)c1ccc(-c2c3nc(c(-c4ccccc4)c4ccc([nH]4)c(-c4ccccc4)c4nc(c(-c5ccccc5)c5ccc2[nH]5)C=C4)C=C3)cc1
REMARK SMILES IDX 22 1 21 2 20 3 18 4 19 5 2 7 1 8 3 9 4 10 5 12 6 13 8 14
REMARK SMILES IDX 16 15 7 16 9 17 15 18 17 19 10 20 14 21 11 23 13 24 12 25
REMARK SMILES IDX 23 26 24 27 25 28 26 30 27 31 28 32 74 33 29 34 73 35 30 36
REMARK SMILES IDX 31 37 32 38 67 39 33 40 72 41 66 42 68 43 34 44 71 45 65 46
REMARK SMILES IDX 64 47 35 49 57 50 42 51 56 52 43 53 46 54 55 55 69 56 44 57
REMARK SMILES IDX 45 58 54 60 70 61 47 62 36 63 37 64 41 65 38 66 40 67 39 68
REMARK SMILES IDX 58 69 59 70 63 71 60 72 62 73 61 74 48 75 49 76 53 77 50 78
REMARK SMILES IDX 52 79 51 80
REMARK H PARENT 20 6 3 11 15 22 24 29 68 48 46 59
REMARK Flexibility Score: inf
ROOT
ATOM      1  C   UNL A   1      32.935  29.022  25.728  1.00  0.00     0.042 C 
ENDROOT
BRANCH   1   2
ATOM      2  C   UNL A   1      31.572  28.370  25.517  1.00  0.00     0.117 C 
BRANCH   2   3
ATOM      3  N   UNL A   1      31.076  28.323  24.156  1.00  0.00    -0.354 N 
ATOM      4  C   UNL A   1      31.472  27.618  23.062  1.00  0.00     0.242 C 
ATOM      5  O   UNL A   1      30.647  27.517  22.146  1.00  0.00    -0.273 OA
ATOM      6  H   UNL A   1      30.305  28.913  23.992  1.00  0.00     0.163 HD
BRANCH   4   7
ATOM      7  C   UNL A   1      32.810  26.858  22.963  1.00  0.00     0.168 C 
ATOM      8  C   UNL A   1      33.843  27.775  22.302  1.00  0.00     0.041 C 
BRANCH   7   9
ATOM      9  N   UNL A   1      32.822  25.561  22.292  1.00  0.00    -0.343 N 
ATOM     10  C   UNL A   1      33.327  24.351  22.654  1.00  0.00     0.246 C 
ATOM     11  H   UNL A   1      32.382  25.563  21.412  1.00  0.00     0.164 HD
ATOM     12  O   UNL A   1      33.603  23.620  21.690  1.00  0.00    -0.273 OA
BRANCH  10  13
ATOM     13  C   UNL A   1      33.546  23.837  24.101  1.00  0.00     0.175 C 
ATOM     14  S   UNL A   1      35.012  24.690  24.783  1.00  0.00    -0.097 SA
ATOM     15  C   UNL A   1      33.623  22.310  23.974  1.00  0.00     0.250 C 
ATOM     16  C   UNL A   1      32.433  24.096  25.114  1.00  0.00     0.045 C 
ATOM     17  C   UNL A   1      36.154  23.378  25.102  1.00  0.00     0.032 A 
ATOM     18  N   UNL A   1      34.773  21.611  24.135  1.00  0.00    -0.323 N 
ATOM     19  O   UNL A   1      32.610  21.654  23.683  1.00  0.00    -0.273 OA
ATOM     20  C   UNL A   1      37.327  23.705  25.797  1.00  0.00     0.017 A 
ATOM     21  C   UNL A   1      35.972  22.064  24.675  1.00  0.00     0.054 A 
ATOM     22  H   UNL A   1      34.758  20.674  23.834  1.00  0.00     0.170 HD
ATOM     23  C   UNL A   1      38.325  22.752  26.009  1.00  0.00     0.001 A 
ATOM     24  C   UNL A   1      36.990  21.119  24.849  1.00  0.00     0.027 A 
ATOM     25  C   UNL A   1      38.167  21.464  25.511  1.00  0.00     0.002 A 
ENDBRANCH  10  13
ENDBRANCH   7   9
ENDBRANCH   4   7
ENDBRANCH   2   3
ENDBRANCH   1   2
BRANCH   1  26
ATOM     26  C   UNL A   1      33.502  29.051  27.143  1.00  0.00     0.118 C 
BRANCH  26  27
ATOM     27  N   UNL A   1      33.501  30.343  27.797  1.00  0.00    -0.352 N 
ATOM     28  C   UNL A   1      34.543  30.985  28.429  1.00  0.00     0.251 C 
ATOM     29  H   UNL A   1      32.644  30.826  27.791  1.00  0.00     0.163 HD
ATOM     30  O   UNL A   1      34.366  32.108  28.898  1.00  0.00    -0.269 OA
BRANCH  28  31
ATOM     31  C   UNL A   1      35.858  30.317  28.619  1.00  0.00     0.039 A 
ATOM     32  C   UNL A   1      36.215  29.668  29.804  1.00  0.00     0.014 A 
ATOM     33  C   UNL A   1      36.764  30.349  27.553  1.00  0.00     0.014 A 
ATOM     34  C   UNL A   1      37.516  29.177  29.970  1.00  0.00     0.010 A 
ATOM     35  C   UNL A   1      38.047  29.811  27.701  1.00  0.00     0.010 A 
ATOM     36  C   UNL A   1      38.452  29.259  28.927  1.00  0.00    -0.014 A 
BRANCH  36  37
ATOM     37  C   UNL A   1      39.855  28.797  29.113  1.00  0.00     0.031 A 
ATOM     38  C   UNL A   1      40.887  29.713  29.721  1.00  0.00     0.074 A 
ATOM     39  C   UNL A   1      40.219  27.558  28.732  1.00  0.00     0.049 A 
ATOM     40  N   UNL A   1      42.165  29.500  29.918  1.00  0.00    -0.248 NA
ATOM     41  C   UNL A   1      40.425  31.038  30.162  1.00  0.00     0.031 C 
ATOM     42  C   UNL A   1      39.326  26.560  28.145  1.00  0.00     0.029 A 
ATOM     43  N   UNL A   1      41.440  26.929  28.782  1.00  0.00    -0.354 N 
ATOM     44  C   UNL A   1      42.661  30.665  30.492  1.00  0.00     0.074 A 
ATOM     45  C   UNL A   1      41.555  31.593  30.583  1.00  0.00     0.031 C 
ATOM     46  C   UNL A   1      40.023  25.435  27.911  1.00  0.00     0.029 A 
ATOM     47  C   UNL A   1      41.419  25.649  28.284  1.00  0.00     0.049 A 
ATOM     48  H   UNL A   1      42.252  27.355  29.142  1.00  0.00     0.167 HD
ATOM     49  C   UNL A   1      43.918  30.935  30.917  1.00  0.00     0.031 A 
ATOM     50  C   UNL A   1      42.410  24.749  28.126  1.00  0.00     0.031 A 
ATOM     51  C   UNL A   1      45.025  30.017  30.838  1.00  0.00     0.049 A 
ATOM     52  C   UNL A   1      43.813  25.096  28.544  1.00  0.00     0.074 A 
ATOM     53  C   UNL A   1      46.323  30.201  31.284  1.00  0.00     0.029 A 
ATOM     54  N   UNL A   1      44.970  28.752  30.279  1.00  0.00    -0.354 N 
ATOM     55  N   UNL A   1      44.257  26.191  29.110  1.00  0.00    -0.248 NA
ATOM     56  C   UNL A   1      44.850  24.080  28.304  1.00  0.00     0.031 C 
ATOM     57  C   UNL A   1      47.069  29.071  30.938  1.00  0.00     0.029 A 
ATOM     58  C   UNL A   1      46.220  28.157  30.338  1.00  0.00     0.049 A 
ATOM     59  H   UNL A   1      44.164  28.337  29.894  1.00  0.00     0.167 HD
ATOM     60  C   UNL A   1      45.618  25.992  29.306  1.00  0.00     0.074 A 
ATOM     61  C   UNL A   1      45.925  24.664  28.818  1.00  0.00     0.031 C 
ATOM     62  C   UNL A   1      46.528  26.840  29.844  1.00  0.00     0.031 A 
BRANCH  49  63
ATOM     63  C   UNL A   1      44.186  32.289  31.514  1.00  0.00    -0.014 A 
ATOM     64  C   UNL A   1      44.639  33.336  30.695  1.00  0.00     0.009 A 
ATOM     65  C   UNL A   1      44.090  32.503  32.898  1.00  0.00     0.009 A 
ATOM     66  C   UNL A   1      45.003  34.564  31.250  1.00  0.00     0.001 A 
ATOM     67  C   UNL A   1      44.428  33.742  33.447  1.00  0.00     0.001 A 
ATOM     68  C   UNL A   1      44.892  34.767  32.625  1.00  0.00     0.000 A 
ENDBRANCH  49  63
BRANCH  50  69
ATOM     69  C   UNL A   1      42.100  23.417  27.545  1.00  0.00    -0.014 A 
ATOM     70  C   UNL A   1      41.570  22.392  28.346  1.00  0.00     0.009 A 
ATOM     71  C   UNL A   1      42.365  23.153  26.194  1.00  0.00     0.009 A 
ATOM     72  C   UNL A   1      41.335  21.124  27.811  1.00  0.00     0.001 A 
ATOM     73  C   UNL A   1      42.102  21.891  25.654  1.00  0.00     0.001 A 
ATOM     74  C   UNL A   1      41.598  20.876  26.465  1.00  0.00     0.000 A 
ENDBRANCH  50  69
BRANCH  62  75
ATOM     75  C   UNL A   1      47.954  26.372  29.952  1.00  0.00    -0.014 A 
ATOM     76  C   UNL A   1      48.797  26.434  28.830  1.00  0.00     0.009 A 
ATOM     77  C   UNL A   1      48.436  25.780  31.130  1.00  0.00     0.009 A 
ATOM     78  C   UNL A   1      50.086  25.902  28.880  1.00  0.00     0.001 A 
ATOM     79  C   UNL A   1      49.737  25.274  31.185  1.00  0.00     0.001 A 
ATOM     80  C   UNL A   1      50.556  25.327  30.059  1.00  0.00     0.000 A 
ENDBRANCH  62  75
ENDBRANCH  36  37
ENDBRANCH  28  31
ENDBRANCH  26  27
ENDBRANCH   1  26
TORSDOF 12
ENDMDL
MODEL 2
REMARK VINA RESULT:     -11.3      2.399      7.943
REMARK SMILES C[C@H](NC(=O)[C@]1(C)Sc2ccccc2NC1=O)C(=O)NCCCNC(=O)c1ccc(-c2c3nc(c(-c4ccccc4)c4ccc([nH]4)c(-c4ccccc4)c4nc(c(-c5ccccc5)c5ccc2[nH]5)C=C4)C=C3)cc1
REMARK SMILES IDX 22 1 21 2 20 3 18 4 19 5 2 7 1 8 3 9 4 10 5 12 6 13 8 14
REMARK SMILES IDX 16 15 7 16 9 17 15 18 17 19 10 20 14 21 11 23 13 24 12 25
REMARK SMILES IDX 23 26 24 27 25 28 26 30 27 31 28 32 74 33 29 34 73 35 30 36
REMARK SMILES IDX 31 37 32 38 67 39 33 40 72 41 66 42 68 43 34 44 71 45 65 46
REMARK SMILES IDX 64 47 35 49 57 50 42 51 56 52 43 53 46 54 55 55 69 56 44 57
REMARK SMILES IDX 45 58 54 60 70 61 47 62 36 63 37 64 41 65 38 66 40 67 39 68
REMARK SMILES IDX 58 69 59 70 63 71 60 72 62 73 61 74 48 75 49 76 53 77 50 78
REMARK SMILES IDX 52 79 51 80
REMARK H PARENT 20 6 3 11 15 22 24 29 68 48 46 59
REMARK Flexibility Score: inf
ROOT
ATOM      1  C   UNL A   1      36.664  23.051  23.699  1.00  0.00     0.042 C 
ENDROOT
BRANCH   1   2
ATOM      2  C   UNL A   1      35.143  23.081  23.588  1.00  0.00     0.117 C 
BRANCH   2   3
ATOM      3  N   UNL A   1      34.427  21.946  24.139  1.00  0.00    -0.354 N 
ATOM      4  C   UNL A   1      33.520  21.839  25.148  1.00  0.00     0.242 C 
ATOM      5  O   UNL A   1      32.825  20.816  25.154  1.00  0.00    -0.273 OA
ATOM      6  H   UNL A   1      34.636  21.091  23.699  1.00  0.00     0.163 HD
BRANCH   4   7
ATOM      7  C   UNL A   1      33.240  22.950  26.178  1.00  0.00     0.168 C 
ATOM      8  C   UNL A   1      33.612  22.429  27.570  1.00  0.00     0.041 C 
BRANCH   7   9
ATOM      9  N   UNL A   1      31.900  23.528  26.227  1.00  0.00    -0.343 N 
ATOM     10  C   UNL A   1      31.446  24.796  26.033  1.00  0.00     0.246 C 
ATOM     11  H   UNL A   1      31.192  22.879  26.440  1.00  0.00     0.164 HD
ATOM     12  O   UNL A   1      30.377  25.035  26.616  1.00  0.00    -0.273 OA
BRANCH  10  13
ATOM     13  C   UNL A   1      32.114  25.894  25.164  1.00  0.00     0.175 C 
ATOM     14  S   UNL A   1      33.649  26.420  26.006  1.00  0.00    -0.097 SA
ATOM     15  C   UNL A   1      31.028  26.959  24.962  1.00  0.00     0.250 C 
ATOM     16  C   UNL A   1      32.553  25.503  23.754  1.00  0.00     0.045 C 
ATOM     17  C   UNL A   1      33.372  28.131  26.360  1.00  0.00     0.032 A 
ATOM     18  N   UNL A   1      31.066  28.176  25.557  1.00  0.00    -0.323 N 
ATOM     19  O   UNL A   1      30.040  26.718  24.251  1.00  0.00    -0.273 OA
ATOM     20  C   UNL A   1      34.456  28.864  26.861  1.00  0.00     0.017 A 
ATOM     21  C   UNL A   1      32.144  28.771  26.204  1.00  0.00     0.054 A 
ATOM     22  H   UNL A   1      30.232  28.700  25.529  1.00  0.00     0.170 HD
ATOM     23  C   UNL A   1      34.302  30.195  27.254  1.00  0.00     0.001 A 
ATOM     24  C   UNL A   1      31.977  30.091  26.638  1.00  0.00     0.027 A 
ATOM     25  C   UNL A   1      33.053  30.801  27.168  1.00  0.00     0.002 A 
ENDBRANCH  10  13
ENDBRANCH   7   9
ENDBRANCH   4   7
ENDBRANCH   2   3
ENDBRANCH   1   2
BRANCH   1  26
ATOM     26  C   UNL A   1      37.286  23.325  25.065  1.00  0.00     0.118 C 
BRANCH  26  27
ATOM     27  N   UNL A   1      38.399  22.475  25.433  1.00  0.00    -0.352 N 
ATOM     28  C   UNL A   1      39.468  22.769  26.251  1.00  0.00     0.251 C 
ATOM     29  H   UNL A   1      38.392  21.569  25.049  1.00  0.00     0.163 HD
ATOM     30  O   UNL A   1      40.306  21.900  26.485  1.00  0.00    -0.269 OA
BRANCH  28  31
ATOM     31  C   UNL A   1      39.666  24.137  26.798  1.00  0.00     0.039 A 
ATOM     32  C   UNL A   1      40.324  25.148  26.092  1.00  0.00     0.014 A 
ATOM     33  C   UNL A   1      39.165  24.406  28.076  1.00  0.00     0.014 A 
ATOM     34  C   UNL A   1      40.599  26.373  26.713  1.00  0.00     0.010 A 
ATOM     35  C   UNL A   1      39.393  25.648  28.677  1.00  0.00     0.010 A 
ATOM     36  C   UNL A   1      40.153  26.630  28.019  1.00  0.00    -0.014 A 
BRANCH  36  37
ATOM     37  C   UNL A   1      40.492  27.903  28.712  1.00  0.00     0.031 A 
ATOM     38  C   UNL A   1      41.858  28.103  29.318  1.00  0.00     0.074 A 
ATOM     39  C   UNL A   1      39.578  28.888  28.812  1.00  0.00     0.049 A 
ATOM     40  N   UNL A   1      42.318  29.124  29.998  1.00  0.00    -0.248 NA
ATOM     41  C   UNL A   1      42.832  27.015  29.139  1.00  0.00     0.031 C 
ATOM     42  C   UNL A   1      38.225  28.840  28.261  1.00  0.00     0.029 A 
ATOM     43  N   UNL A   1      39.654  30.120  29.415  1.00  0.00    -0.354 N 
ATOM     44  C   UNL A   1      43.625  28.799  30.338  1.00  0.00     0.074 A 
ATOM     45  C   UNL A   1      43.877  27.472  29.818  1.00  0.00     0.031 C 
ATOM     46  C   UNL A   1      37.604  30.001  28.531  1.00  0.00     0.029 A 
ATOM     47  C   UNL A   1      38.496  30.853  29.315  1.00  0.00     0.049 A 
ATOM     48  H   UNL A   1      40.461  30.448  29.874  1.00  0.00     0.167 HD
ATOM     49  C   UNL A   1      44.539  29.539  31.010  1.00  0.00     0.031 A 
ATOM     50  C   UNL A   1      38.175  32.065  29.808  1.00  0.00     0.031 A 
ATOM     51  C   UNL A   1      44.302  30.862  31.526  1.00  0.00     0.049 A 
ATOM     52  C   UNL A   1      39.184  32.840  30.610  1.00  0.00     0.074 A 
ATOM     53  C   UNL A   1      45.190  31.695  32.185  1.00  0.00     0.029 A 
ATOM     54  N   UNL A   1      43.099  31.542  31.447  1.00  0.00    -0.354 N 
ATOM     55  N   UNL A   1      40.423  32.528  30.897  1.00  0.00    -0.248 NA
ATOM     56  C   UNL A   1      38.750  34.137  31.152  1.00  0.00     0.031 C 
ATOM     57  C   UNL A   1      44.507  32.855  32.560  1.00  0.00     0.029 A 
ATOM     58  C   UNL A   1      43.213  32.773  32.074  1.00  0.00     0.049 A 
ATOM     59  H   UNL A   1      42.284  31.203  31.011  1.00  0.00     0.167 HD
ATOM     60  C   UNL A   1      40.921  33.592  31.639  1.00  0.00     0.074 A 
ATOM     61  C   UNL A   1      39.857  34.569  31.742  1.00  0.00     0.031 C 
ATOM     62  C   UNL A   1      42.152  33.741  32.185  1.00  0.00     0.031 A 
BRANCH  49  63
ATOM     63  C   UNL A   1      45.900  28.942  31.239  1.00  0.00    -0.014 A 
ATOM     64  C   UNL A   1      46.160  28.229  32.422  1.00  0.00     0.009 A 
ATOM     65  C   UNL A   1      46.952  29.170  30.340  1.00  0.00     0.009 A 
ATOM     66  C   UNL A   1      47.447  27.768  32.704  1.00  0.00     0.001 A 
ATOM     67  C   UNL A   1      48.233  28.684  30.612  1.00  0.00     0.001 A 
ATOM     68  C   UNL A   1      48.481  27.992  31.796  1.00  0.00     0.000 A 
ENDBRANCH  49  63
BRANCH  50  69
ATOM     69  C   UNL A   1      36.823  32.624  29.547  1.00  0.00    -0.014 A 
ATOM     70  C   UNL A   1      35.781  32.441  30.471  1.00  0.00     0.009 A 
ATOM     71  C   UNL A   1      36.558  33.313  28.354  1.00  0.00     0.009 A 
ATOM     72  C   UNL A   1      34.497  32.916  30.195  1.00  0.00     0.001 A 
ATOM     73  C   UNL A   1      35.280  33.812  28.094  1.00  0.00     0.001 A 
ATOM     74  C   UNL A   1      34.249  33.604  29.009  1.00  0.00     0.000 A 
ENDBRANCH  50  69
BRANCH  62  75
ATOM     75  C   UNL A   1      42.442  35.008  32.943  1.00  0.00    -0.014 A 
ATOM     76  C   UNL A   1      43.194  36.028  32.338  1.00  0.00     0.009 A 
ATOM     77  C   UNL A   1      42.057  35.154  34.285  1.00  0.00     0.009 A 
ATOM     78  C   UNL A   1      43.566  37.161  33.063  1.00  0.00     0.001 A 
ATOM     79  C   UNL A   1      42.407  36.302  34.999  1.00  0.00     0.001 A 
ATOM     80  C   UNL A   1      43.169  37.299  34.392  1.00  0.00     0.000 A 
ENDBRANCH  62  75
ENDBRANCH  36  37
ENDBRANCH  28  31
ENDBRANCH  26  27
ENDBRANCH   1  26
TORSDOF 12
ENDMDL
MODEL 3
REMARK VINA RESULT:     -11.1      3.906      7.034
REMARK SMILES C[C@H](NC(=O)[C@]1(C)Sc2ccccc2NC1=O)C(=O)NCCCNC(=O)c1ccc(-c2c3nc(c(-c4ccccc4)c4ccc([nH]4)c(-c4ccccc4)c4nc(c(-c5ccccc5)c5ccc2[nH]5)C=C4)C=C3)cc1
REMARK SMILES IDX 22 1 21 2 20 3 18 4 19 5 2 7 1 8 3 9 4 10 5 12 6 13 8 14
REMARK SMILES IDX 16 15 7 16 9 17 15 18 17 19 10 20 14 21 11 23 13 24 12 25
REMARK SMILES IDX 23 26 24 27 25 28 26 30 27 31 28 32 74 33 29 34 73 35 30 36
REMARK SMILES IDX 31 37 32 38 67 39 33 40 72 41 66 42 68 43 34 44 71 45 65 46
REMARK SMILES IDX 64 47 35 49 57 50 42 51 56 52 43 53 46 54 55 55 69 56 44 57
REMARK SMILES IDX 45 58 54 60 70 61 47 62 36 63 37 64 41 65 38 66 40 67 39 68
REMARK SMILES IDX 58 69 59 70 63 71 60 72 62 73 61 74 48 75 49 76 53 77 50 78
REMARK SMILES IDX 52 79 51 80
REMARK H PARENT 20 6 3 11 15 22 24 29 68 48 46 59
REMARK Flexibility Score: inf
ROOT
ATOM      1  C   UNL A   1      33.810  34.078  28.365  1.00  0.00     0.042 C 
ENDROOT
BRANCH   1   2
ATOM      2  C   UNL A   1      33.750  35.167  29.432  1.00  0.00     0.117 C 
BRANCH   2   3
ATOM      3  N   UNL A   1      32.851  34.938  30.546  1.00  0.00    -0.354 N 
ATOM      4  C   UNL A   1      32.929  35.262  31.865  1.00  0.00     0.242 C 
ATOM      5  O   UNL A   1      31.865  35.254  32.496  1.00  0.00    -0.273 OA
ATOM      6  H   UNL A   1      32.027  34.459  30.302  1.00  0.00     0.163 HD
BRANCH   4   7
ATOM      7  C   UNL A   1      34.217  35.744  32.562  1.00  0.00     0.168 C 
ATOM      8  C   UNL A   1      34.173  37.272  32.663  1.00  0.00     0.041 C 
BRANCH   7   9
ATOM      9  N   UNL A   1      35.502  35.339  31.999  1.00  0.00    -0.343 N 
ATOM     10  C   UNL A   1      36.577  34.707  32.543  1.00  0.00     0.246 C 
ATOM     11  H   UNL A   1      35.611  35.565  31.048  1.00  0.00     0.164 HD
ATOM     12  O   UNL A   1      37.645  34.955  31.962  1.00  0.00    -0.273 OA
BRANCH  10  13
ATOM     13  C   UNL A   1      36.564  33.733  33.751  1.00  0.00     0.175 C 
ATOM     14  S   UNL A   1      38.262  33.648  34.421  1.00  0.00    -0.097 SA
ATOM     15  C   UNL A   1      35.960  32.432  33.208  1.00  0.00     0.250 C 
ATOM     16  C   UNL A   1      35.688  34.109  34.945  1.00  0.00     0.045 C 
ATOM     17  C   UNL A   1      38.716  31.951  34.208  1.00  0.00     0.032 A 
ATOM     18  N   UNL A   1      36.689  31.306  33.008  1.00  0.00    -0.323 N 
ATOM     19  O   UNL A   1      34.760  32.379  32.899  1.00  0.00    -0.273 OA
ATOM     20  C   UNL A   1      39.920  31.532  34.790  1.00  0.00     0.017 A 
ATOM     21  C   UNL A   1      37.970  31.031  33.473  1.00  0.00     0.054 A 
ATOM     22  H   UNL A   1      36.260  30.601  32.471  1.00  0.00     0.170 HD
ATOM     23  C   UNL A   1      40.400  30.236  34.593  1.00  0.00     0.001 A 
ATOM     24  C   UNL A   1      38.472  29.745  33.238  1.00  0.00     0.027 A 
ATOM     25  C   UNL A   1      39.687  29.350  33.793  1.00  0.00     0.002 A 
ENDBRANCH  10  13
ENDBRANCH   7   9
ENDBRANCH   4   7
ENDBRANCH   2   3
ENDBRANCH   1   2
BRANCH   1  26
ATOM     26  C   UNL A   1      34.425  32.736  28.747  1.00  0.00     0.118 C 
BRANCH  26  27
ATOM     27  N   UNL A   1      33.830  31.570  28.128  1.00  0.00    -0.352 N 
ATOM     28  C   UNL A   1      34.386  30.325  27.933  1.00  0.00     0.251 C 
ATOM     29  H   UNL A   1      32.908  31.681  27.804  1.00  0.00     0.163 HD
ATOM     30  O   UNL A   1      33.710  29.435  27.420  1.00  0.00    -0.269 OA
BRANCH  28  31
ATOM     31  C   UNL A   1      35.811  30.057  28.264  1.00  0.00     0.039 A 
ATOM     32  C   UNL A   1      36.853  30.269  27.357  1.00  0.00     0.014 A 
ATOM     33  C   UNL A   1      36.102  29.573  29.544  1.00  0.00     0.014 A 
ATOM     34  C   UNL A   1      38.156  29.870  27.680  1.00  0.00     0.010 A 
ATOM     35  C   UNL A   1      37.412  29.224  29.886  1.00  0.00     0.010 A 
ATOM     36  C   UNL A   1      38.447  29.327  28.942  1.00  0.00    -0.014 A 
BRANCH  36  37
ATOM     37  C   UNL A   1      39.815  28.842  29.274  1.00  0.00     0.031 A 
ATOM     38  C   UNL A   1      40.759  29.705  30.072  1.00  0.00     0.074 A 
ATOM     39  C   UNL A   1      40.226  27.629  28.857  1.00  0.00     0.049 A 
ATOM     40  N   UNL A   1      42.002  29.469  30.415  1.00  0.00    -0.248 NA
ATOM     41  C   UNL A   1      40.242  31.000  30.542  1.00  0.00     0.031 C 
ATOM     42  C   UNL A   1      39.417  26.681  28.092  1.00  0.00     0.029 A 
ATOM     43  N   UNL A   1      41.432  26.989  29.019  1.00  0.00    -0.354 N 
ATOM     44  C   UNL A   1      42.418  30.587  31.129  1.00  0.00     0.074 A 
ATOM     45  C   UNL A   1      41.308  31.516  31.142  1.00  0.00     0.031 C 
ATOM     46  C   UNL A   1      40.140  25.570  27.871  1.00  0.00     0.029 A 
ATOM     47  C   UNL A   1      41.477  25.747  28.434  1.00  0.00     0.049 A 
ATOM     48  H   UNL A   1      42.190  27.382  29.509  1.00  0.00     0.167 HD
ATOM     49  C   UNL A   1      43.610  30.818  31.730  1.00  0.00     0.031 A 
ATOM     50  C   UNL A   1      42.481  24.853  28.342  1.00  0.00     0.031 A 
ATOM     51  C   UNL A   1      44.719  29.899  31.729  1.00  0.00     0.049 A 
ATOM     52  C   UNL A   1      43.818  25.159  28.959  1.00  0.00     0.074 A 
ATOM     53  C   UNL A   1      45.948  30.041  32.349  1.00  0.00     0.029 A 
ATOM     54  N   UNL A   1      44.738  28.676  31.080  1.00  0.00    -0.354 N 
ATOM     55  N   UNL A   1      44.184  26.208  29.653  1.00  0.00    -0.248 NA
ATOM     56  C   UNL A   1      44.879  24.155  28.783  1.00  0.00     0.031 C 
ATOM     57  C   UNL A   1      46.734  28.933  32.024  1.00  0.00     0.029 A 
ATOM     58  C   UNL A   1      45.970  28.069  31.258  1.00  0.00     0.049 A 
ATOM     59  H   UNL A   1      43.988  28.296  30.567  1.00  0.00     0.167 HD
ATOM     60  C   UNL A   1      45.509  25.986  30.008  1.00  0.00     0.074 A 
ATOM     61  C   UNL A   1      45.878  24.692  29.471  1.00  0.00     0.031 C 
ATOM     62  C   UNL A   1      46.341  26.787  30.716  1.00  0.00     0.031 A 
BRANCH  49  63
ATOM     63  C   UNL A   1      43.796  32.124  32.449  1.00  0.00    -0.014 A 
ATOM     64  C   UNL A   1      44.370  33.216  31.776  1.00  0.00     0.009 A 
ATOM     65  C   UNL A   1      43.503  32.247  33.816  1.00  0.00     0.009 A 
ATOM     66  C   UNL A   1      44.657  34.399  32.461  1.00  0.00     0.001 A 
ATOM     67  C   UNL A   1      43.767  33.442  34.491  1.00  0.00     0.001 A 
ATOM     68  C   UNL A   1      44.351  34.512  33.815  1.00  0.00     0.000 A 
ENDBRANCH  49  63
BRANCH  50  69
ATOM     69  C   UNL A   1      42.250  23.567  27.633  1.00  0.00    -0.014 A 
ATOM     70  C   UNL A   1      41.743  22.452  28.321  1.00  0.00     0.009 A 
ATOM     71  C   UNL A   1      42.568  23.438  26.274  1.00  0.00     0.009 A 
ATOM     72  C   UNL A   1      41.582  21.229  27.667  1.00  0.00     0.001 A 
ATOM     73  C   UNL A   1      42.380  22.220  25.615  1.00  0.00     0.001 A 
ATOM     74  C   UNL A   1      41.897  21.115  26.314  1.00  0.00     0.000 A 
ENDBRANCH  50  69
BRANCH  62  75
ATOM     75  C   UNL A   1      47.742  26.302  30.972  1.00  0.00    -0.014 A 
ATOM     76  C   UNL A   1      48.707  26.382  29.955  1.00  0.00     0.009 A 
ATOM     77  C   UNL A   1      48.083  25.678  32.182  1.00  0.00     0.009 A 
ATOM     78  C   UNL A   1      49.978  25.835  30.137  1.00  0.00     0.001 A 
ATOM     79  C   UNL A   1      49.365  25.157  32.372  1.00  0.00     0.001 A 
ATOM     80  C   UNL A   1      50.308  25.228  31.347  1.00  0.00     0.000 A 
ENDBRANCH  62  75
ENDBRANCH  36  37
ENDBRANCH  28  31
ENDBRANCH  26  27
ENDBRANCH   1  26
TORSDOF 12
ENDMDL
