MODEL 1
REMARK VINA RESULT:      -9.2      0.000      0.000
REMARK SMILES O=C(NCCCNC(=O)c1ccc(N2C(=O)/C(=C\C3=Cc4ccccc4OC3)SC2=S)cc1)c1ccc(-c2c3nc(c(-c4ccccc4)c4ccc([nH]4)c(-c4ccccc4)c4nc(c(-c5ccccc5)c5ccc2[nH]5)C=C4)C=C3)cc1
REMARK SMILES IDX 5 1 4 2 3 3 1 4 2 5 34 7 35 8 81 9 36 10 80 11 37 12 38 13
REMARK SMILES IDX 39 14 74 15 40 16 79 17 73 18 75 19 41 20 78 21 72 22 71 23
REMARK SMILES IDX 42 25 64 26 49 27 63 28 50 29 53 30 62 31 76 32 51 33 52 34
REMARK SMILES IDX 61 36 77 37 54 38 43 39 44 40 48 41 45 42 47 43 46 44 65 45
REMARK SMILES IDX 66 46 70 47 67 48 69 49 68 50 55 51 56 52 60 53 57 54 59 55
REMARK SMILES IDX 58 56 6 57 7 58 8 59 9 61 10 62 11 63 33 64 12 65 32 66
REMARK SMILES IDX 13 67 14 68 15 69 30 70 16 71 17 72 29 73 31 74 18 75 19 76
REMARK SMILES IDX 20 77 28 78 21 79 27 80 22 81 26 82 23 83 25 84 24 85
REMARK H PARENT 3 6 75 24 53 35 7 60
REMARK Flexibility Score: inf
ROOT
ATOM      1  C   UNL A   1      34.680  32.973  30.925  1.00  0.00     0.042 C 
ENDROOT
BRANCH   1   2
ATOM      2  C   UNL A   1      34.850  33.436  29.484  1.00  0.00     0.118 C 
BRANCH   2   3
ATOM      3  N   UNL A   1      34.226  32.547  28.512  1.00  0.00    -0.352 N 
ATOM      4  O   UNL A   1      34.011  30.835  27.070  1.00  0.00    -0.269 OA
ATOM      5  C   UNL A   1      34.648  31.348  27.986  1.00  0.00     0.251 C 
ATOM      6  H   UNL A   1      33.355  32.859  28.174  1.00  0.00     0.163 HD
BRANCH   5   7
ATOM      7  C   UNL A   1      35.872  30.681  28.487  1.00  0.00     0.039 A 
ATOM      8  C   UNL A   1      35.808  29.684  29.459  1.00  0.00     0.014 A 
ATOM      9  C   UNL A   1      37.113  31.036  27.945  1.00  0.00     0.014 A 
ATOM     10  C   UNL A   1      36.979  29.177  30.011  1.00  0.00     0.010 A 
ATOM     11  C   UNL A   1      38.289  30.449  28.429  1.00  0.00     0.010 A 
ATOM     12  C   UNL A   1      38.234  29.541  29.496  1.00  0.00    -0.014 A 
BRANCH  12  13
ATOM     13  C   UNL A   1      39.451  28.907  30.068  1.00  0.00     0.031 A 
ATOM     14  C   UNL A   1      40.141  27.760  29.380  1.00  0.00     0.074 A 
ATOM     15  C   UNL A   1      39.983  29.433  31.189  1.00  0.00     0.049 A 
ATOM     16  N   UNL A   1      41.277  27.184  29.687  1.00  0.00    -0.248 NA
ATOM     17  C   UNL A   1      39.475  27.180  28.203  1.00  0.00     0.031 C 
ATOM     18  C   UNL A   1      39.396  30.530  31.965  1.00  0.00     0.029 A 
ATOM     19  N   UNL A   1      41.153  29.152  31.846  1.00  0.00    -0.354 N 
ATOM     20  C   UNL A   1      41.457  26.171  28.753  1.00  0.00     0.074 A 
ATOM     21  C   UNL A   1      40.300  26.191  27.884  1.00  0.00     0.031 C 
ATOM     22  C   UNL A   1      40.243  30.878  32.943  1.00  0.00     0.029 A 
ATOM     23  C   UNL A   1      41.404  29.996  32.900  1.00  0.00     0.049 A 
ATOM     24  H   UNL A   1      41.755  28.417  31.587  1.00  0.00     0.167 HD
ATOM     25  C   UNL A   1      42.494  25.309  28.624  1.00  0.00     0.031 A 
ATOM     26  C   UNL A   1      42.452  30.061  33.740  1.00  0.00     0.031 A 
ATOM     27  C   UNL A   1      43.647  25.284  29.487  1.00  0.00     0.049 A 
ATOM     28  C   UNL A   1      43.590  29.101  33.569  1.00  0.00     0.074 A 
ATOM     29  C   UNL A   1      44.751  24.450  29.429  1.00  0.00     0.029 A 
ATOM     30  N   UNL A   1      43.847  26.133  30.565  1.00  0.00    -0.354 N 
ATOM     31  N   UNL A   1      43.752  28.169  32.662  1.00  0.00    -0.248 NA
ATOM     32  C   UNL A   1      44.691  29.206  34.535  1.00  0.00     0.031 C 
ATOM     33  C   UNL A   1      45.602  24.771  30.493  1.00  0.00     0.029 A 
ATOM     34  C   UNL A   1      45.048  25.835  31.186  1.00  0.00     0.049 A 
ATOM     35  H   UNL A   1      43.226  26.844  30.847  1.00  0.00     0.167 HD
ATOM     36  C   UNL A   1      44.972  27.575  32.949  1.00  0.00     0.074 A 
ATOM     37  C   UNL A   1      45.525  28.276  34.089  1.00  0.00     0.031 C 
ATOM     38  C   UNL A   1      45.576  26.531  32.330  1.00  0.00     0.031 A 
BRANCH  25  39
ATOM     39  C   UNL A   1      42.429  24.304  27.508  1.00  0.00    -0.014 A 
ATOM     40  C   UNL A   1      43.054  24.549  26.276  1.00  0.00     0.009 A 
ATOM     41  C   UNL A   1      41.784  23.075  27.711  1.00  0.00     0.009 A 
ATOM     42  C   UNL A   1      43.015  23.591  25.260  1.00  0.00     0.001 A 
ATOM     43  C   UNL A   1      41.765  22.109  26.701  1.00  0.00     0.001 A 
ATOM     44  C   UNL A   1      42.376  22.370  25.475  1.00  0.00     0.000 A 
ENDBRANCH  25  39
BRANCH  26  45
ATOM     45  C   UNL A   1      42.465  31.075  34.826  1.00  0.00    -0.014 A 
ATOM     46  C   UNL A   1      42.004  30.757  36.111  1.00  0.00     0.009 A 
ATOM     47  C   UNL A   1      42.953  32.368  34.578  1.00  0.00     0.009 A 
ATOM     48  C   UNL A   1      42.012  31.721  37.122  1.00  0.00     0.001 A 
ATOM     49  C   UNL A   1      42.988  33.320  35.597  1.00  0.00     0.001 A 
ATOM     50  C   UNL A   1      42.509  32.999  36.867  1.00  0.00     0.000 A 
ENDBRANCH  26  45
BRANCH  38  51
ATOM     51  C   UNL A   1      46.902  26.097  32.881  1.00  0.00    -0.014 A 
ATOM     52  C   UNL A   1      48.101  26.623  32.375  1.00  0.00     0.009 A 
ATOM     53  C   UNL A   1      46.953  25.153  33.918  1.00  0.00     0.009 A 
ATOM     54  C   UNL A   1      49.329  26.182  32.870  1.00  0.00     0.001 A 
ATOM     55  C   UNL A   1      48.183  24.733  34.427  1.00  0.00     0.001 A 
ATOM     56  C   UNL A   1      49.369  25.240  33.896  1.00  0.00     0.000 A 
ENDBRANCH  38  51
ENDBRANCH  12  13
ENDBRANCH   5   7
ENDBRANCH   2   3
ENDBRANCH   1   2
BRANCH   1  57
ATOM     57  C   UNL A   1      35.982  32.702  31.669  1.00  0.00     0.118 C 
BRANCH  57  58
ATOM     58  N   UNL A   1      36.299  33.738  32.640  1.00  0.00    -0.352 N 
ATOM     59  C   UNL A   1      37.468  34.399  32.915  1.00  0.00     0.251 C 
ATOM     60  H   UNL A   1      35.537  34.014  33.198  1.00  0.00     0.163 HD
ATOM     61  O   UNL A   1      37.529  35.099  33.924  1.00  0.00    -0.269 OA
BRANCH  59  62
ATOM     62  C   UNL A   1      38.663  34.270  32.051  1.00  0.00     0.039 A 
ATOM     63  C   UNL A   1      39.921  34.430  32.630  1.00  0.00     0.016 A 
ATOM     64  C   UNL A   1      38.576  34.063  30.676  1.00  0.00     0.016 A 
ATOM     65  C   UNL A   1      41.081  34.306  31.852  1.00  0.00     0.027 A 
ATOM     66  C   UNL A   1      39.740  33.905  29.910  1.00  0.00     0.027 A 
ATOM     67  C   UNL A   1      41.022  34.022  30.477  1.00  0.00     0.051 A 
BRANCH  67  68
ATOM     68  N   UNL A   1      42.209  33.759  29.706  1.00  0.00    -0.261 N 
ATOM     69  C   UNL A   1      42.859  32.527  29.812  1.00  0.00     0.270 C 
ATOM     70  C   UNL A   1      42.831  34.653  28.839  1.00  0.00     0.152 C 
ATOM     71  O   UNL A   1      42.891  31.766  30.766  1.00  0.00    -0.268 OA
ATOM     72  C   UNL A   1      43.684  32.301  28.593  1.00  0.00     0.081 C 
ATOM     73  S   UNL A   1      44.157  33.841  27.982  1.00  0.00    -0.054 SA
ATOM     74  S   UNL A   1      42.582  36.290  28.587  1.00  0.00    -0.051 S 
ATOM     75  C   UNL A   1      43.875  31.174  27.887  1.00  0.00     0.028 C 
BRANCH  75  76
ATOM     76  C   UNL A   1      43.207  29.869  27.993  1.00  0.00    -0.009 C 
ATOM     77  C   UNL A   1      42.974  29.046  26.950  1.00  0.00     0.019 C 
ATOM     78  C   UNL A   1      43.710  29.101  29.213  1.00  0.00     0.265 C 
ATOM     79  C   UNL A   1      44.165  28.184  26.686  1.00  0.00     0.017 A 
ATOM     80  O   UNL A   1      45.023  28.555  28.948  1.00  0.00    -0.488 OA
ATOM     81  C   UNL A   1      44.355  27.616  25.425  1.00  0.00     0.012 A 
ATOM     82  C   UNL A   1      45.153  28.029  27.679  1.00  0.00     0.127 A 
ATOM     83  C   UNL A   1      45.549  26.953  25.136  1.00  0.00     0.001 A 
ATOM     84  C   UNL A   1      46.350  27.384  27.381  1.00  0.00     0.047 A 
ATOM     85  C   UNL A   1      46.550  26.854  26.105  1.00  0.00     0.004 A 
ENDBRANCH  75  76
ENDBRANCH  67  68
ENDBRANCH  59  62
ENDBRANCH  57  58
ENDBRANCH   1  57
TORSDOF 12
ENDMDL
MODEL 2
REMARK VINA RESULT:      -8.9      6.738     12.325
REMARK SMILES O=C(NCCCNC(=O)c1ccc(N2C(=O)/C(=C\C3=Cc4ccccc4OC3)SC2=S)cc1)c1ccc(-c2c3nc(c(-c4ccccc4)c4ccc([nH]4)c(-c4ccccc4)c4nc(c(-c5ccccc5)c5ccc2[nH]5)C=C4)C=C3)cc1
REMARK SMILES IDX 5 1 4 2 3 3 1 4 2 5 34 7 35 8 81 9 36 10 80 11 37 12 38 13
REMARK SMILES IDX 39 14 74 15 40 16 79 17 73 18 75 19 41 20 78 21 72 22 71 23
REMARK SMILES IDX 42 25 64 26 49 27 63 28 50 29 53 30 62 31 76 32 51 33 52 34
REMARK SMILES IDX 61 36 77 37 54 38 43 39 44 40 48 41 45 42 47 43 46 44 65 45
REMARK SMILES IDX 66 46 70 47 67 48 69 49 68 50 55 51 56 52 60 53 57 54 59 55
REMARK SMILES IDX 58 56 6 57 7 58 8 59 9 61 10 62 11 63 33 64 12 65 32 66
REMARK SMILES IDX 13 67 14 68 15 69 30 70 16 71 17 72 29 73 31 74 18 75 19 76
REMARK SMILES IDX 20 77 28 78 21 79 27 80 22 81 26 82 23 83 25 84 24 85
REMARK H PARENT 3 6 75 24 53 35 7 60
REMARK Flexibility Score: inf
ROOT
ATOM      1  C   UNL A   1      39.879  24.168  27.518  1.00  0.00     0.042 C 
ENDROOT
BRANCH   1   2
ATOM      2  C   UNL A   1      41.219  24.613  26.949  1.00  0.00     0.118 C 
BRANCH   2   3
ATOM      3  N   UNL A   1      42.113  23.505  26.634  1.00  0.00    -0.352 N 
ATOM      4  O   UNL A   1      43.972  22.437  25.955  1.00  0.00    -0.269 OA
ATOM      5  C   UNL A   1      43.451  23.490  26.316  1.00  0.00     0.251 C 
ATOM      6  H   UNL A   1      41.686  22.617  26.654  1.00  0.00     0.163 HD
BRANCH   5   7
ATOM      7  C   UNL A   1      44.266  24.725  26.372  1.00  0.00     0.039 A 
ATOM      8  C   UNL A   1      44.475  25.507  25.237  1.00  0.00     0.014 A 
ATOM      9  C   UNL A   1      44.805  25.132  27.598  1.00  0.00     0.014 A 
ATOM     10  C   UNL A   1      45.358  26.581  25.287  1.00  0.00     0.010 A 
ATOM     11  C   UNL A   1      45.611  26.275  27.670  1.00  0.00     0.010 A 
ATOM     12  C   UNL A   1      45.927  26.987  26.505  1.00  0.00    -0.014 A 
BRANCH  12  13
ATOM     13  C   UNL A   1      46.799  28.191  26.517  1.00  0.00     0.031 A 
ATOM     14  C   UNL A   1      48.284  28.094  26.293  1.00  0.00     0.074 A 
ATOM     15  C   UNL A   1      46.221  29.402  26.654  1.00  0.00     0.049 A 
ATOM     16  N   UNL A   1      49.157  29.060  26.151  1.00  0.00    -0.248 NA
ATOM     17  C   UNL A   1      48.868  26.745  26.224  1.00  0.00     0.031 C 
ATOM     18  C   UNL A   1      44.794  29.630  26.902  1.00  0.00     0.029 A 
ATOM     19  N   UNL A   1      46.747  30.665  26.561  1.00  0.00    -0.354 N 
ATOM     20  C   UNL A   1      50.390  28.441  25.987  1.00  0.00     0.074 A 
ATOM     21  C   UNL A   1      50.159  27.015  26.076  1.00  0.00     0.031 C 
ATOM     22  C   UNL A   1      44.547  30.947  26.865  1.00  0.00     0.029 A 
ATOM     23  C   UNL A   1      45.802  31.657  26.647  1.00  0.00     0.049 A 
ATOM     24  H   UNL A   1      47.709  30.842  26.443  1.00  0.00     0.167 HD
ATOM     25  C   UNL A   1      51.603  29.006  25.773  1.00  0.00     0.031 A 
ATOM     26  C   UNL A   1      45.924  32.994  26.557  1.00  0.00     0.031 A 
ATOM     27  C   UNL A   1      51.838  30.424  25.686  1.00  0.00     0.049 A 
ATOM     28  C   UNL A   1      47.276  33.591  26.310  1.00  0.00     0.074 A 
ATOM     29  C   UNL A   1      53.033  31.089  25.465  1.00  0.00     0.029 A 
ATOM     30  N   UNL A   1      50.860  31.398  25.814  1.00  0.00    -0.354 N 
ATOM     31  N   UNL A   1      48.425  32.986  26.132  1.00  0.00    -0.248 NA
ATOM     32  C   UNL A   1      47.347  35.057  26.250  1.00  0.00     0.031 C 
ATOM     33  C   UNL A   1      52.783  32.466  25.494  1.00  0.00     0.029 A 
ATOM     34  C   UNL A   1      51.424  32.656  25.688  1.00  0.00     0.049 A 
ATOM     35  H   UNL A   1      49.904  31.221  25.969  1.00  0.00     0.167 HD
ATOM     36  C   UNL A   1      49.355  33.996  25.939  1.00  0.00     0.074 A 
ATOM     37  C   UNL A   1      48.632  35.250  25.984  1.00  0.00     0.031 C 
ATOM     38  C   UNL A   1      50.694  33.895  25.753  1.00  0.00     0.031 A 
BRANCH  25  39
ATOM     39  C   UNL A   1      52.783  28.086  25.628  1.00  0.00    -0.014 A 
ATOM     40  C   UNL A   1      53.184  27.618  24.367  1.00  0.00     0.009 A 
ATOM     41  C   UNL A   1      53.536  27.730  26.757  1.00  0.00     0.009 A 
ATOM     42  C   UNL A   1      54.305  26.793  24.244  1.00  0.00     0.001 A 
ATOM     43  C   UNL A   1      54.668  26.923  26.628  1.00  0.00     0.001 A 
ATOM     44  C   UNL A   1      55.048  26.450  25.373  1.00  0.00     0.000 A 
ENDBRANCH  25  39
BRANCH  26  45
ATOM     45  C   UNL A   1      44.724  33.856  26.707  1.00  0.00    -0.014 A 
ATOM     46  C   UNL A   1      43.995  34.274  25.585  1.00  0.00     0.009 A 
ATOM     47  C   UNL A   1      44.296  34.253  27.984  1.00  0.00     0.009 A 
ATOM     48  C   UNL A   1      42.873  35.091  25.737  1.00  0.00     0.001 A 
ATOM     49  C   UNL A   1      43.158  35.045  28.135  1.00  0.00     0.001 A 
ATOM     50  C   UNL A   1      42.451  35.472  27.012  1.00  0.00     0.000 A 
ENDBRANCH  26  45
BRANCH  38  51
ATOM     51  C   UNL A   1      51.450  35.180  25.584  1.00  0.00    -0.014 A 
ATOM     52  C   UNL A   1      51.658  35.732  24.311  1.00  0.00     0.009 A 
ATOM     53  C   UNL A   1      51.958  35.845  26.710  1.00  0.00     0.009 A 
ATOM     54  C   UNL A   1      52.396  36.908  24.165  1.00  0.00     0.001 A 
ATOM     55  C   UNL A   1      52.674  37.034  26.562  1.00  0.00     0.001 A 
ATOM     56  C   UNL A   1      52.901  37.558  25.289  1.00  0.00     0.000 A 
ENDBRANCH  38  51
ENDBRANCH  12  13
ENDBRANCH   5   7
ENDBRANCH   2   3
ENDBRANCH   1   2
BRANCH   1  57
ATOM     57  C   UNL A   1      38.713  24.237  26.541  1.00  0.00     0.118 C 
BRANCH  57  58
ATOM     58  N   UNL A   1      38.611  23.050  25.705  1.00  0.00    -0.352 N 
ATOM     59  C   UNL A   1      37.523  22.384  25.200  1.00  0.00     0.251 C 
ATOM     60  H   UNL A   1      39.477  22.656  25.456  1.00  0.00     0.163 HD
ATOM     61  O   UNL A   1      37.693  21.284  24.679  1.00  0.00    -0.269 OA
BRANCH  59  62
ATOM     62  C   UNL A   1      36.154  22.938  25.292  1.00  0.00     0.039 A 
ATOM     63  C   UNL A   1      35.478  22.838  26.507  1.00  0.00     0.016 A 
ATOM     64  C   UNL A   1      35.493  23.492  24.198  1.00  0.00     0.016 A 
ATOM     65  C   UNL A   1      34.183  23.359  26.644  1.00  0.00     0.027 A 
ATOM     66  C   UNL A   1      34.211  24.042  24.350  1.00  0.00     0.027 A 
ATOM     67  C   UNL A   1      33.524  23.990  25.576  1.00  0.00     0.051 A 
BRANCH  67  68
ATOM     68  N   UNL A   1      32.253  24.645  25.750  1.00  0.00    -0.261 N 
ATOM     69  C   UNL A   1      32.173  26.040  25.742  1.00  0.00     0.270 C 
ATOM     70  C   UNL A   1      31.033  24.010  25.965  1.00  0.00     0.152 C 
ATOM     71  O   UNL A   1      33.027  26.850  26.064  1.00  0.00    -0.268 OA
ATOM     72  C   UNL A   1      30.781  26.449  25.408  1.00  0.00     0.081 C 
ATOM     73  S   UNL A   1      29.721  25.205  25.951  1.00  0.00    -0.054 SA
ATOM     74  S   UNL A   1      30.674  22.410  26.306  1.00  0.00    -0.051 S 
ATOM     75  C   UNL A   1      30.348  27.450  24.624  1.00  0.00     0.028 C 
BRANCH  75  76
ATOM     76  C   UNL A   1      31.102  28.337  23.725  1.00  0.00    -0.009 C 
ATOM     77  C   UNL A   1      30.696  28.691  22.488  1.00  0.00     0.019 C 
ATOM     78  C   UNL A   1      31.668  29.529  24.493  1.00  0.00     0.265 C 
ATOM     79  C   UNL A   1      29.782  29.871  22.554  1.00  0.00     0.017 A 
ATOM     80  O   UNL A   1      30.618  30.484  24.771  1.00  0.00    -0.488 OA
ATOM     81  C   UNL A   1      28.884  30.122  21.515  1.00  0.00     0.012 A 
ATOM     82  C   UNL A   1      29.753  30.672  23.712  1.00  0.00     0.127 A 
ATOM     83  C   UNL A   1      27.923  31.124  21.657  1.00  0.00     0.001 A 
ATOM     84  C   UNL A   1      28.780  31.656  23.858  1.00  0.00     0.047 A 
ATOM     85  C   UNL A   1      27.859  31.875  22.832  1.00  0.00     0.004 A 
ENDBRANCH  75  76
ENDBRANCH  67  68
ENDBRANCH  59  62
ENDBRANCH  57  58
ENDBRANCH   1  57
TORSDOF 12
ENDMDL
MODEL 3
REMARK VINA RESULT:      -8.9      0.411      5.763
REMARK SMILES O=C(NCCCNC(=O)c1ccc(N2C(=O)/C(=C\C3=Cc4ccccc4OC3)SC2=S)cc1)c1ccc(-c2c3nc(c(-c4ccccc4)c4ccc([nH]4)c(-c4ccccc4)c4nc(c(-c5ccccc5)c5ccc2[nH]5)C=C4)C=C3)cc1
REMARK SMILES IDX 5 1 4 2 3 3 1 4 2 5 34 7 35 8 81 9 36 10 80 11 37 12 38 13
REMARK SMILES IDX 39 14 74 15 40 16 79 17 73 18 75 19 41 20 78 21 72 22 71 23
REMARK SMILES IDX 42 25 64 26 49 27 63 28 50 29 53 30 62 31 76 32 51 33 52 34
REMARK SMILES IDX 61 36 77 37 54 38 43 39 44 40 48 41 45 42 47 43 46 44 65 45
REMARK SMILES IDX 66 46 70 47 67 48 69 49 68 50 55 51 56 52 60 53 57 54 59 55
REMARK SMILES IDX 58 56 6 57 7 58 8 59 9 61 10 62 11 63 33 64 12 65 32 66
REMARK SMILES IDX 13 67 14 68 15 69 30 70 16 71 17 72 29 73 31 74 18 75 19 76
REMARK SMILES IDX 20 77 28 78 21 79 27 80 22 81 26 82 23 83 25 84 24 85
REMARK H PARENT 3 6 75 24 53 35 7 60
REMARK Flexibility Score: inf
ROOT
ATOM      1  C   UNL A   1      34.491  33.489  30.306  1.00  0.00     0.042 C 
ENDROOT
BRANCH   1   2
ATOM      2  C   UNL A   1      34.680  33.484  28.795  1.00  0.00     0.118 C 
BRANCH   2   3
ATOM      3  N   UNL A   1      34.052  32.347  28.136  1.00  0.00    -0.352 N 
ATOM      4  O   UNL A   1      33.854  30.313  27.197  1.00  0.00    -0.269 OA
ATOM      5  C   UNL A   1      34.517  31.075  27.896  1.00  0.00     0.251 C 
ATOM      6  H   UNL A   1      33.139  32.518  27.806  1.00  0.00     0.163 HD
BRANCH   5   7
ATOM      7  C   UNL A   1      35.816  30.619  28.442  1.00  0.00     0.039 A 
ATOM      8  C   UNL A   1      37.021  31.155  27.989  1.00  0.00     0.014 A 
ATOM      9  C   UNL A   1      35.829  29.656  29.458  1.00  0.00     0.014 A 
ATOM     10  C   UNL A   1      38.227  30.610  28.416  1.00  0.00     0.010 A 
ATOM     11  C   UNL A   1      37.045  29.180  29.964  1.00  0.00     0.010 A 
ATOM     12  C   UNL A   1      38.257  29.626  29.418  1.00  0.00    -0.014 A 
BRANCH  12  13
ATOM     13  C   UNL A   1      39.576  29.136  29.896  1.00  0.00     0.031 A 
ATOM     14  C   UNL A   1      40.208  29.669  31.154  1.00  0.00     0.074 A 
ATOM     15  C   UNL A   1      40.174  28.134  29.219  1.00  0.00     0.049 A 
ATOM     16  N   UNL A   1      41.291  29.257  31.765  1.00  0.00    -0.248 NA
ATOM     17  C   UNL A   1      39.549  30.810  31.807  1.00  0.00     0.031 C 
ATOM     18  C   UNL A   1      39.676  27.547  27.972  1.00  0.00     0.029 A 
ATOM     19  N   UNL A   1      41.298  27.403  29.504  1.00  0.00    -0.354 N 
ATOM     20  C   UNL A   1      41.450  30.090  32.865  1.00  0.00     0.074 A 
ATOM     21  C   UNL A   1      40.369  31.051  32.823  1.00  0.00     0.031 C 
ATOM     22  C   UNL A   1      40.445  26.501  27.641  1.00  0.00     0.029 A 
ATOM     23  C   UNL A   1      41.520  26.376  28.619  1.00  0.00     0.049 A 
ATOM     24  H   UNL A   1      41.888  27.595  30.269  1.00  0.00     0.167 HD
ATOM     25  C   UNL A   1      42.402  30.054  33.828  1.00  0.00     0.031 A 
ATOM     26  C   UNL A   1      42.478  25.433  28.593  1.00  0.00     0.031 A 
ATOM     27  C   UNL A   1      43.481  29.101  33.874  1.00  0.00     0.049 A 
ATOM     28  C   UNL A   1      43.514  25.411  29.676  1.00  0.00     0.074 A 
ATOM     29  C   UNL A   1      44.490  28.983  34.815  1.00  0.00     0.029 A 
ATOM     30  N   UNL A   1      43.691  28.099  32.939  1.00  0.00    -0.354 N 
ATOM     31  N   UNL A   1      43.630  26.193  30.722  1.00  0.00    -0.248 NA
ATOM     32  C   UNL A   1      44.549  24.374  29.577  1.00  0.00     0.031 C 
ATOM     33  C   UNL A   1      45.330  27.932  34.430  1.00  0.00     0.029 A 
ATOM     34  C   UNL A   1      44.818  27.368  33.274  1.00  0.00     0.049 A 
ATOM     35  H   UNL A   1      43.121  27.931  32.153  1.00  0.00     0.167 HD
ATOM     36  C   UNL A   1      44.750  25.743  31.404  1.00  0.00     0.074 A 
ATOM     37  C   UNL A   1      45.257  24.598  30.676  1.00  0.00     0.031 C 
ATOM     38  C   UNL A   1      45.318  26.242  32.529  1.00  0.00     0.031 A 
BRANCH  25  39
ATOM     39  C   UNL A   1      42.331  31.089  34.916  1.00  0.00    -0.014 A 
ATOM     40  C   UNL A   1      41.706  30.809  36.141  1.00  0.00     0.009 A 
ATOM     41  C   UNL A   1      42.945  32.337  34.736  1.00  0.00     0.009 A 
ATOM     42  C   UNL A   1      41.678  31.767  37.157  1.00  0.00     0.001 A 
ATOM     43  C   UNL A   1      42.936  33.286  35.761  1.00  0.00     0.001 A 
ATOM     44  C   UNL A   1      42.297  33.003  36.968  1.00  0.00     0.000 A 
ENDBRANCH  25  39
BRANCH  26  45
ATOM     45  C   UNL A   1      42.501  24.434  27.494  1.00  0.00    -0.014 A 
ATOM     46  C   UNL A   1      43.236  24.671  26.324  1.00  0.00     0.009 A 
ATOM     47  C   UNL A   1      41.792  23.230  27.621  1.00  0.00     0.009 A 
ATOM     48  C   UNL A   1      43.243  23.729  25.293  1.00  0.00     0.001 A 
ATOM     49  C   UNL A   1      41.825  22.277  26.602  1.00  0.00     0.001 A 
ATOM     50  C   UNL A   1      42.543  22.531  25.434  1.00  0.00     0.000 A 
ENDBRANCH  26  45
BRANCH  38  51
ATOM     51  C   UNL A   1      46.548  25.543  33.031  1.00  0.00    -0.014 A 
ATOM     52  C   UNL A   1      46.453  24.491  33.955  1.00  0.00     0.009 A 
ATOM     53  C   UNL A   1      47.813  25.941  32.573  1.00  0.00     0.009 A 
ATOM     54  C   UNL A   1      47.607  23.875  34.441  1.00  0.00     0.001 A 
ATOM     55  C   UNL A   1      48.964  25.305  33.044  1.00  0.00     0.001 A 
ATOM     56  C   UNL A   1      48.860  24.280  33.985  1.00  0.00     0.000 A 
ENDBRANCH  38  51
ENDBRANCH  12  13
ENDBRANCH   5   7
ENDBRANCH   2   3
ENDBRANCH   1   2
BRANCH   1  57
ATOM     57  C   UNL A   1      35.707  33.037  31.105  1.00  0.00     0.118 C 
BRANCH  57  58
ATOM     58  N   UNL A   1      36.021  33.936  32.205  1.00  0.00    -0.352 N 
ATOM     59  C   UNL A   1      37.205  34.497  32.612  1.00  0.00     0.251 C 
ATOM     60  H   UNL A   1      35.245  34.188  32.755  1.00  0.00     0.163 HD
ATOM     61  O   UNL A   1      37.246  35.072  33.697  1.00  0.00    -0.269 OA
BRANCH  59  62
ATOM     62  C   UNL A   1      38.437  34.403  31.796  1.00  0.00     0.039 A 
ATOM     63  C   UNL A   1      39.667  34.567  32.431  1.00  0.00     0.016 A 
ATOM     64  C   UNL A   1      38.411  34.225  30.415  1.00  0.00     0.016 A 
ATOM     65  C   UNL A   1      40.860  34.475  31.701  1.00  0.00     0.027 A 
ATOM     66  C   UNL A   1      39.609  34.099  29.695  1.00  0.00     0.027 A 
ATOM     67  C   UNL A   1      40.863  34.221  30.319  1.00  0.00     0.051 A 
BRANCH  67  68
ATOM     68  N   UNL A   1      42.086  33.991  29.593  1.00  0.00    -0.261 N 
ATOM     69  C   UNL A   1      42.810  32.813  29.791  1.00  0.00     0.270 C 
ATOM     70  C   UNL A   1      42.672  34.870  28.688  1.00  0.00     0.152 C 
ATOM     71  O   UNL A   1      42.865  32.115  30.791  1.00  0.00    -0.268 OA
ATOM     72  C   UNL A   1      43.681  32.568  28.607  1.00  0.00     0.081 C 
ATOM     73  S   UNL A   1      44.070  34.097  27.914  1.00  0.00    -0.054 SA
ATOM     74  S   UNL A   1      42.325  36.469  28.330  1.00  0.00    -0.051 S 
ATOM     75  C   UNL A   1      43.964  31.417  27.977  1.00  0.00     0.028 C 
BRANCH  75  76
ATOM     76  C   UNL A   1      43.378  30.079  28.148  1.00  0.00    -0.009 C 
ATOM     77  C   UNL A   1      43.087  29.239  27.133  1.00  0.00     0.019 C 
ATOM     78  C   UNL A   1      44.038  29.344  29.312  1.00  0.00     0.265 C 
ATOM     79  C   UNL A   1      44.290  28.440  26.752  1.00  0.00     0.017 A 
ATOM     80  O   UNL A   1      45.345  28.866  28.919  1.00  0.00    -0.488 OA
ATOM     81  C   UNL A   1      44.384  27.877  25.478  1.00  0.00     0.012 A 
ATOM     82  C   UNL A   1      45.377  28.341  27.643  1.00  0.00     0.127 A 
ATOM     83  C   UNL A   1      45.577  27.275  25.074  1.00  0.00     0.001 A 
ATOM     84  C   UNL A   1      46.571  27.758  27.229  1.00  0.00     0.047 A 
ATOM     85  C   UNL A   1      46.672  27.233  25.939  1.00  0.00     0.004 A 
ENDBRANCH  75  76
ENDBRANCH  67  68
ENDBRANCH  59  62
ENDBRANCH  57  58
ENDBRANCH   1  57
TORSDOF 12
ENDMDL
