MODEL 1
REMARK VINA RESULT:     -12.3      0.000      0.000
REMARK SMILES COc1cc(S(=O)(=O)Nc2cccc(C(=O)NCCCNC(=O)c3ccc(-c4c5nc(c(-c6ccccc6)c6ccc([nH]6)c(-c6ccccc6)c6nc(c(-c7ccccc7)c7ccc4[nH]7)C=C6)C=C5)cc3)c2)c(OC)cc1C
REMARK SMILES IDX 18 1 17 2 15 3 16 4 14 6 10 7 11 8 72 9 12 10 13 11 9 12
REMARK SMILES IDX 6 14 7 15 8 16 5 17 3 18 4 19 77 20 76 21 78 22 73 23 2 24
REMARK SMILES IDX 1 25 74 26 75 27 19 28 20 29 21 30 22 31 23 33 24 34 25 35
REMARK SMILES IDX 71 36 26 37 70 38 27 39 28 40 29 41 64 42 30 43 69 44 63 45
REMARK SMILES IDX 65 46 31 47 68 48 62 49 61 50 32 52 54 53 39 54 53 55 40 56
REMARK SMILES IDX 43 57 52 58 66 59 41 60 42 61 51 63 67 64 44 65 33 66 34 67
REMARK SMILES IDX 38 68 35 69 37 70 36 71 55 72 56 73 60 74 57 75 59 76 58 77
REMARK SMILES IDX 45 78 46 79 50 80 47 81 49 82 48 83
REMARK H PARENT 17 5 9 13 21 32 65 51 43 62
REMARK Flexibility Score: inf
ROOT
ATOM      1  C   UNL A   1      32.107  29.484  25.832  1.00  0.00     0.118 C 
ENDROOT
BRANCH   1   2
ATOM      2  N   UNL A   1      31.076  29.996  24.944  1.00  0.00    -0.352 N 
ATOM      3  C   UNL A   1      30.387  29.385  23.923  1.00  0.00     0.251 C 
ATOM      4  O   UNL A   1      29.439  29.977  23.410  1.00  0.00    -0.269 OA
ATOM      5  H   UNL A   1      30.828  30.936  25.101  1.00  0.00     0.163 HD
BRANCH   3   6
ATOM      6  C   UNL A   1      30.694  28.003  23.479  1.00  0.00     0.041 A 
ATOM      7  C   UNL A   1      30.637  25.636  24.029  1.00  0.00     0.050 A 
ATOM      8  C   UNL A   1      31.298  25.343  22.838  1.00  0.00     0.027 A 
ATOM      9  C   UNL A   1      30.275  26.960  24.310  1.00  0.00     0.040 A 
ATOM     10  C   UNL A   1      31.663  26.375  21.973  1.00  0.00     0.003 A 
ATOM     11  C   UNL A   1      31.365  27.701  22.295  1.00  0.00     0.014 A 
BRANCH   7  12
ATOM     12  N   UNL A   1      30.328  24.672  25.024  1.00  0.00    -0.279 N 
ATOM     13  H   UNL A   1      29.447  24.237  24.974  1.00  0.00     0.180 HD
BRANCH  12  14
ATOM     14  S   UNL A   1      31.339  24.218  26.275  1.00  0.00     0.265 S 
ATOM     15  O   UNL A   1      30.587  23.331  27.142  1.00  0.00    -0.201 OA
ATOM     16  O   UNL A   1      31.884  25.457  26.794  1.00  0.00    -0.201 OA
BRANCH  14  17
ATOM     17  C   UNL A   1      32.729  23.277  25.683  1.00  0.00     0.133 A 
ATOM     18  C   UNL A   1      35.095  22.839  26.051  1.00  0.00     0.123 A 
ATOM     19  C   UNL A   1      33.948  23.584  26.316  1.00  0.00     0.073 A 
ATOM     20  C   UNL A   1      35.014  21.693  25.261  1.00  0.00    -0.005 A 
ATOM     21  C   UNL A   1      33.820  21.447  24.568  1.00  0.00     0.055 A 
ATOM     22  C   UNL A   1      36.160  20.738  25.095  1.00  0.00     0.048 C 
ATOM     23  C   UNL A   1      32.685  22.263  24.726  1.00  0.00     0.139 A 
BRANCH  18  24
ATOM     24  O   UNL A   1      36.252  23.256  26.649  1.00  0.00    -0.496 OA
ATOM     25  C   UNL A   1      37.129  23.903  25.720  1.00  0.00     0.278 C 
ENDBRANCH  18  24
BRANCH  23  26
ATOM     26  O   UNL A   1      31.579  22.133  23.937  1.00  0.00    -0.495 OA
ATOM     27  C   UNL A   1      31.770  21.649  22.612  1.00  0.00     0.278 C 
ENDBRANCH  23  26
ENDBRANCH  14  17
ENDBRANCH  12  14
ENDBRANCH   7  12
ENDBRANCH   3   6
ENDBRANCH   1   2
BRANCH   1  28
ATOM     28  C   UNL A   1      32.577  30.524  26.842  1.00  0.00     0.042 C 
BRANCH  28  29
ATOM     29  C   UNL A   1      34.043  30.390  27.220  1.00  0.00     0.118 C 
BRANCH  29  30
ATOM     30  N   UNL A   1      34.454  31.268  28.310  1.00  0.00    -0.352 N 
ATOM     31  C   UNL A   1      35.574  31.170  29.126  1.00  0.00     0.251 C 
ATOM     32  H   UNL A   1      33.859  32.030  28.493  1.00  0.00     0.163 HD
ATOM     33  O   UNL A   1      35.823  32.026  29.947  1.00  0.00    -0.269 OA
BRANCH  31  34
ATOM     34  C   UNL A   1      36.530  30.064  28.870  1.00  0.00     0.039 A 
ATOM     35  C   UNL A   1      36.827  29.205  29.931  1.00  0.00     0.014 A 
ATOM     36  C   UNL A   1      37.297  30.049  27.709  1.00  0.00     0.014 A 
ATOM     37  C   UNL A   1      38.045  28.534  29.933  1.00  0.00     0.010 A 
ATOM     38  C   UNL A   1      38.553  29.483  27.760  1.00  0.00     0.010 A 
ATOM     39  C   UNL A   1      38.952  28.783  28.903  1.00  0.00    -0.014 A 
BRANCH  39  40
ATOM     40  C   UNL A   1      40.361  28.424  28.982  1.00  0.00     0.031 A 
ATOM     41  C   UNL A   1      40.835  27.167  28.380  1.00  0.00     0.074 A 
ATOM     42  C   UNL A   1      41.238  29.257  29.583  1.00  0.00     0.049 A 
ATOM     43  N   UNL A   1      41.907  26.550  28.744  1.00  0.00    -0.248 NA
ATOM     44  C   UNL A   1      40.088  26.470  27.340  1.00  0.00     0.031 C 
ATOM     45  C   UNL A   1      42.697  29.181  29.576  1.00  0.00     0.029 A 
ATOM     46  N   UNL A   1      40.946  30.230  30.541  1.00  0.00    -0.354 N 
ATOM     47  C   UNL A   1      42.136  25.547  27.834  1.00  0.00     0.074 A 
ATOM     48  C   UNL A   1      40.942  25.492  27.023  1.00  0.00     0.031 C 
ATOM     49  C   UNL A   1      43.166  29.843  30.646  1.00  0.00     0.029 A 
ATOM     50  C   UNL A   1      42.024  30.242  31.449  1.00  0.00     0.049 A 
ATOM     51  H   UNL A   1      40.143  30.798  30.574  1.00  0.00     0.167 HD
ATOM     52  C   UNL A   1      43.358  24.946  27.795  1.00  0.00     0.031 A 
ATOM     53  C   UNL A   1      41.820  29.899  32.755  1.00  0.00     0.031 A 
ATOM     54  C   UNL A   1      44.237  25.414  28.866  1.00  0.00     0.049 A 
ATOM     55  C   UNL A   1      42.541  28.635  33.189  1.00  0.00     0.074 A 
ATOM     56  C   UNL A   1      45.302  26.297  28.936  1.00  0.00     0.029 A 
ATOM     57  N   UNL A   1      43.861  25.165  30.177  1.00  0.00    -0.354 N 
ATOM     58  N   UNL A   1      43.260  27.885  32.400  1.00  0.00    -0.248 NA
ATOM     59  C   UNL A   1      42.418  28.067  34.533  1.00  0.00     0.031 C 
ATOM     60  C   UNL A   1      45.546  26.588  30.311  1.00  0.00     0.029 A 
ATOM     61  C   UNL A   1      44.643  25.869  31.070  1.00  0.00     0.049 A 
ATOM     62  H   UNL A   1      43.127  24.563  30.438  1.00  0.00     0.167 HD
ATOM     63  C   UNL A   1      43.649  26.759  33.073  1.00  0.00     0.074 A 
ATOM     64  C   UNL A   1      43.102  26.916  34.408  1.00  0.00     0.031 C 
ATOM     65  C   UNL A   1      44.356  25.751  32.488  1.00  0.00     0.031 A 
BRANCH  52  66
ATOM     66  C   UNL A   1      43.823  24.091  26.643  1.00  0.00    -0.014 A 
ATOM     67  C   UNL A   1      43.500  22.722  26.620  1.00  0.00     0.009 A 
ATOM     68  C   UNL A   1      44.611  24.554  25.575  1.00  0.00     0.009 A 
ATOM     69  C   UNL A   1      44.015  21.854  25.648  1.00  0.00     0.001 A 
ATOM     70  C   UNL A   1      45.166  23.687  24.625  1.00  0.00     0.001 A 
ATOM     71  C   UNL A   1      44.875  22.332  24.667  1.00  0.00     0.000 A 
ENDBRANCH  52  66
BRANCH  53  72
ATOM     72  C   UNL A   1      40.493  30.345  33.268  1.00  0.00    -0.014 A 
ATOM     73  C   UNL A   1      40.254  31.732  33.371  1.00  0.00     0.009 A 
ATOM     74  C   UNL A   1      39.395  29.475  33.284  1.00  0.00     0.009 A 
ATOM     75  C   UNL A   1      38.952  32.238  33.345  1.00  0.00     0.001 A 
ATOM     76  C   UNL A   1      38.091  29.987  33.281  1.00  0.00     0.001 A 
ATOM     77  C   UNL A   1      37.872  31.365  33.266  1.00  0.00     0.000 A 
ENDBRANCH  53  72
BRANCH  65  78
ATOM     78  C   UNL A   1      44.817  24.535  33.236  1.00  0.00    -0.014 A 
ATOM     79  C   UNL A   1      43.967  23.446  33.478  1.00  0.00     0.009 A 
ATOM     80  C   UNL A   1      46.092  24.507  33.833  1.00  0.00     0.009 A 
ATOM     81  C   UNL A   1      44.395  22.353  34.241  1.00  0.00     0.001 A 
ATOM     82  C   UNL A   1      46.513  23.429  34.612  1.00  0.00     0.001 A 
ATOM     83  C   UNL A   1      45.667  22.345  34.807  1.00  0.00     0.000 A 
ENDBRANCH  65  78
ENDBRANCH  39  40
ENDBRANCH  31  34
ENDBRANCH  29  30
ENDBRANCH  28  29
ENDBRANCH   1  28
TORSDOF 15
ENDMDL
MODEL 2
REMARK VINA RESULT:     -12.2      3.304      8.900
REMARK SMILES COc1cc(S(=O)(=O)Nc2cccc(C(=O)NCCCNC(=O)c3ccc(-c4c5nc(c(-c6ccccc6)c6ccc([nH]6)c(-c6ccccc6)c6nc(c(-c7ccccc7)c7ccc4[nH]7)C=C6)C=C5)cc3)c2)c(OC)cc1C
REMARK SMILES IDX 18 1 17 2 15 3 16 4 14 6 10 7 11 8 72 9 12 10 13 11 9 12
REMARK SMILES IDX 6 14 7 15 8 16 5 17 3 18 4 19 77 20 76 21 78 22 73 23 2 24
REMARK SMILES IDX 1 25 74 26 75 27 19 28 20 29 21 30 22 31 23 33 24 34 25 35
REMARK SMILES IDX 71 36 26 37 70 38 27 39 28 40 29 41 64 42 30 43 69 44 63 45
REMARK SMILES IDX 65 46 31 47 68 48 62 49 61 50 32 52 54 53 39 54 53 55 40 56
REMARK SMILES IDX 43 57 52 58 66 59 41 60 42 61 51 63 67 64 44 65 33 66 34 67
REMARK SMILES IDX 38 68 35 69 37 70 36 71 55 72 56 73 60 74 57 75 59 76 58 77
REMARK SMILES IDX 45 78 46 79 50 80 47 81 49 82 48 83
REMARK H PARENT 17 5 9 13 21 32 65 51 43 62
REMARK Flexibility Score: inf
ROOT
ATOM      1  C   UNL A   1      36.994  21.424  25.173  1.00  0.00     0.118 C 
ENDROOT
BRANCH   1   2
ATOM      2  N   UNL A   1      36.103  21.705  26.287  1.00  0.00    -0.352 N 
ATOM      3  C   UNL A   1      34.761  22.008  26.307  1.00  0.00     0.251 C 
ATOM      4  O   UNL A   1      34.180  22.051  27.390  1.00  0.00    -0.269 OA
ATOM      5  H   UNL A   1      36.529  21.670  27.173  1.00  0.00     0.163 HD
BRANCH   3   6
ATOM      6  C   UNL A   1      33.975  22.201  25.064  1.00  0.00     0.041 A 
ATOM      7  C   UNL A   1      33.047  23.791  23.477  1.00  0.00     0.050 A 
ATOM      8  C   UNL A   1      32.433  22.747  22.789  1.00  0.00     0.027 A 
ATOM      9  C   UNL A   1      33.875  23.505  24.570  1.00  0.00     0.040 A 
ATOM     10  C   UNL A   1      32.582  21.434  23.240  1.00  0.00     0.003 A 
ATOM     11  C   UNL A   1      33.349  21.163  24.375  1.00  0.00     0.014 A 
BRANCH   7  12
ATOM     12  N   UNL A   1      32.861  25.164  23.167  1.00  0.00    -0.279 N 
ATOM     13  H   UNL A   1      33.666  25.730  23.120  1.00  0.00     0.180 HD
BRANCH  12  14
ATOM     14  S   UNL A   1      31.389  25.897  22.877  1.00  0.00     0.265 S 
ATOM     15  O   UNL A   1      30.352  24.982  23.314  1.00  0.00    -0.201 OA
ATOM     16  O   UNL A   1      31.444  26.331  21.495  1.00  0.00    -0.201 OA
BRANCH  14  17
ATOM     17  C   UNL A   1      31.191  27.375  23.851  1.00  0.00     0.133 A 
ATOM     18  C   UNL A   1      31.960  28.511  25.861  1.00  0.00     0.123 A 
ATOM     19  C   UNL A   1      31.914  27.373  25.059  1.00  0.00     0.073 A 
ATOM     20  C   UNL A   1      31.407  29.707  25.407  1.00  0.00    -0.005 A 
ATOM     21  C   UNL A   1      30.617  29.675  24.247  1.00  0.00     0.055 A 
ATOM     22  C   UNL A   1      31.591  31.012  26.124  1.00  0.00     0.048 C 
ATOM     23  C   UNL A   1      30.454  28.503  23.489  1.00  0.00     0.139 A 
BRANCH  18  24
ATOM     24  O   UNL A   1      32.618  28.397  27.054  1.00  0.00    -0.496 OA
ATOM     25  C   UNL A   1      34.039  28.455  26.887  1.00  0.00     0.278 C 
ENDBRANCH  18  24
BRANCH  23  26
ATOM     26  O   UNL A   1      29.561  28.419  22.460  1.00  0.00    -0.495 OA
ATOM     27  C   UNL A   1      28.485  29.350  22.446  1.00  0.00     0.278 C 
ENDBRANCH  23  26
ENDBRANCH  14  17
ENDBRANCH  12  14
ENDBRANCH   7  12
ENDBRANCH   3   6
ENDBRANCH   1   2
BRANCH   1  28
ATOM     28  C   UNL A   1      38.463  21.551  25.555  1.00  0.00     0.042 C 
BRANCH  28  29
ATOM     29  C   UNL A   1      38.824  22.899  26.157  1.00  0.00     0.118 C 
BRANCH  29  30
ATOM     30  N   UNL A   1      40.216  23.002  26.584  1.00  0.00    -0.352 N 
ATOM     31  C   UNL A   1      40.873  24.091  27.142  1.00  0.00     0.251 C 
ATOM     32  H   UNL A   1      40.762  22.193  26.457  1.00  0.00     0.163 HD
ATOM     33  O   UNL A   1      42.022  24.000  27.517  1.00  0.00    -0.269 OA
BRANCH  31  34
ATOM     34  C   UNL A   1      40.089  25.325  27.393  1.00  0.00     0.039 A 
ATOM     35  C   UNL A   1      40.403  26.458  26.639  1.00  0.00     0.014 A 
ATOM     36  C   UNL A   1      39.269  25.424  28.513  1.00  0.00     0.014 A 
ATOM     37  C   UNL A   1      40.120  27.715  27.162  1.00  0.00     0.010 A 
ATOM     38  C   UNL A   1      39.093  26.664  29.091  1.00  0.00     0.010 A 
ATOM     39  C   UNL A   1      39.581  27.804  28.445  1.00  0.00    -0.014 A 
BRANCH  39  40
ATOM     40  C   UNL A   1      39.574  29.037  29.220  1.00  0.00     0.031 A 
ATOM     41  C   UNL A   1      38.557  30.068  28.952  1.00  0.00     0.074 A 
ATOM     42  C   UNL A   1      40.481  29.224  30.202  1.00  0.00     0.049 A 
ATOM     43  N   UNL A   1      38.701  31.317  29.238  1.00  0.00    -0.248 NA
ATOM     44  C   UNL A   1      37.302  29.768  28.276  1.00  0.00     0.031 C 
ATOM     45  C   UNL A   1      40.505  30.277  31.214  1.00  0.00     0.029 A 
ATOM     46  N   UNL A   1      41.725  28.602  30.321  1.00  0.00    -0.354 N 
ATOM     47  C   UNL A   1      37.488  31.930  29.040  1.00  0.00     0.074 A 
ATOM     48  C   UNL A   1      36.670  30.942  28.375  1.00  0.00     0.031 C 
ATOM     49  C   UNL A   1      41.764  30.418  31.659  1.00  0.00     0.029 A 
ATOM     50  C   UNL A   1      42.612  29.563  30.847  1.00  0.00     0.049 A 
ATOM     51  H   UNL A   1      41.940  27.670  30.085  1.00  0.00     0.167 HD
ATOM     52  C   UNL A   1      37.271  33.169  29.561  1.00  0.00     0.031 A 
ATOM     53  C   UNL A   1      43.679  29.984  30.107  1.00  0.00     0.031 A 
ATOM     54  C   UNL A   1      38.475  33.724  30.180  1.00  0.00     0.049 A 
ATOM     55  C   UNL A   1      43.627  31.450  29.714  1.00  0.00     0.074 A 
ATOM     56  C   UNL A   1      38.918  33.873  31.484  1.00  0.00     0.029 A 
ATOM     57  N   UNL A   1      39.575  33.964  29.373  1.00  0.00    -0.354 N 
ATOM     58  N   UNL A   1      42.641  32.257  29.995  1.00  0.00    -0.248 NA
ATOM     59  C   UNL A   1      44.647  32.090  28.880  1.00  0.00     0.031 C 
ATOM     60  C   UNL A   1      40.309  34.188  31.445  1.00  0.00     0.029 A 
ATOM     61  C   UNL A   1      40.700  34.247  30.121  1.00  0.00     0.049 A 
ATOM     62  H   UNL A   1      39.557  33.935  28.389  1.00  0.00     0.167 HD
ATOM     63  C   UNL A   1      42.849  33.461  29.378  1.00  0.00     0.074 A 
ATOM     64  C   UNL A   1      44.120  33.313  28.693  1.00  0.00     0.031 C 
ATOM     65  C   UNL A   1      41.953  34.486  29.429  1.00  0.00     0.031 A 
BRANCH  52  66
ATOM     66  C   UNL A   1      35.900  33.782  29.697  1.00  0.00    -0.014 A 
ATOM     67  C   UNL A   1      35.238  34.261  28.552  1.00  0.00     0.009 A 
ATOM     68  C   UNL A   1      35.224  33.957  30.916  1.00  0.00     0.009 A 
ATOM     69  C   UNL A   1      34.025  34.958  28.634  1.00  0.00     0.001 A 
ATOM     70  C   UNL A   1      34.034  34.690  31.012  1.00  0.00     0.001 A 
ATOM     71  C   UNL A   1      33.437  35.199  29.869  1.00  0.00     0.000 A 
ENDBRANCH  52  66
BRANCH  53  72
ATOM     72  C   UNL A   1      44.270  28.896  29.275  1.00  0.00    -0.014 A 
ATOM     73  C   UNL A   1      45.034  27.905  29.927  1.00  0.00     0.009 A 
ATOM     74  C   UNL A   1      43.789  28.630  27.987  1.00  0.00     0.009 A 
ATOM     75  C   UNL A   1      45.190  26.636  29.364  1.00  0.00     0.001 A 
ATOM     76  C   UNL A   1      43.967  27.363  27.418  1.00  0.00     0.001 A 
ATOM     77  C   UNL A   1      44.627  26.356  28.123  1.00  0.00     0.000 A 
ENDBRANCH  53  72
BRANCH  65  78
ATOM     78  C   UNL A   1      42.199  35.819  28.787  1.00  0.00    -0.014 A 
ATOM     79  C   UNL A   1      41.766  36.107  27.484  1.00  0.00     0.009 A 
ATOM     80  C   UNL A   1      42.993  36.786  29.434  1.00  0.00     0.009 A 
ATOM     81  C   UNL A   1      42.069  37.331  26.877  1.00  0.00     0.001 A 
ATOM     82  C   UNL A   1      43.315  37.998  28.822  1.00  0.00     0.001 A 
ATOM     83  C   UNL A   1      42.844  38.275  27.546  1.00  0.00     0.000 A 
ENDBRANCH  65  78
ENDBRANCH  39  40
ENDBRANCH  31  34
ENDBRANCH  29  30
ENDBRANCH  28  29
ENDBRANCH   1  28
TORSDOF 15
ENDMDL
MODEL 3
REMARK VINA RESULT:     -12.0      1.483      2.218
REMARK SMILES COc1cc(S(=O)(=O)Nc2cccc(C(=O)NCCCNC(=O)c3ccc(-c4c5nc(c(-c6ccccc6)c6ccc([nH]6)c(-c6ccccc6)c6nc(c(-c7ccccc7)c7ccc4[nH]7)C=C6)C=C5)cc3)c2)c(OC)cc1C
REMARK SMILES IDX 18 1 17 2 15 3 16 4 14 6 10 7 11 8 72 9 12 10 13 11 9 12
REMARK SMILES IDX 6 14 7 15 8 16 5 17 3 18 4 19 77 20 76 21 78 22 73 23 2 24
REMARK SMILES IDX 1 25 74 26 75 27 19 28 20 29 21 30 22 31 23 33 24 34 25 35
REMARK SMILES IDX 71 36 26 37 70 38 27 39 28 40 29 41 64 42 30 43 69 44 63 45
REMARK SMILES IDX 65 46 31 47 68 48 62 49 61 50 32 52 54 53 39 54 53 55 40 56
REMARK SMILES IDX 43 57 52 58 66 59 41 60 42 61 51 63 67 64 44 65 33 66 34 67
REMARK SMILES IDX 38 68 35 69 37 70 36 71 55 72 56 73 60 74 57 75 59 76 58 77
REMARK SMILES IDX 45 78 46 79 50 80 47 81 49 82 48 83
REMARK H PARENT 17 5 9 13 21 32 65 51 43 62
REMARK Flexibility Score: inf
ROOT
ATOM      1  C   UNL A   1      32.335  30.148  26.310  1.00  0.00     0.118 C 
ENDROOT
BRANCH   1   2
ATOM      2  N   UNL A   1      33.084  29.881  25.093  1.00  0.00    -0.352 N 
ATOM      3  C   UNL A   1      32.730  29.195  23.954  1.00  0.00     0.251 C 
ATOM      4  O   UNL A   1      33.481  29.235  22.981  1.00  0.00    -0.269 OA
ATOM      5  H   UNL A   1      33.995  30.253  25.081  1.00  0.00     0.163 HD
BRANCH   3   6
ATOM      6  C   UNL A   1      31.434  28.482  23.832  1.00  0.00     0.041 A 
ATOM      7  C   UNL A   1      30.286  26.340  23.873  1.00  0.00     0.050 A 
ATOM      8  C   UNL A   1      29.092  26.973  23.535  1.00  0.00     0.027 A 
ATOM      9  C   UNL A   1      31.437  27.108  24.091  1.00  0.00     0.040 A 
ATOM     10  C   UNL A   1      29.069  28.354  23.338  1.00  0.00     0.003 A 
ATOM     11  C   UNL A   1      30.237  29.106  23.483  1.00  0.00     0.014 A 
BRANCH   7  12
ATOM     12  N   UNL A   1      30.437  24.933  23.980  1.00  0.00    -0.279 N 
ATOM     13  H   UNL A   1      29.797  24.452  24.554  1.00  0.00     0.180 HD
BRANCH  12  14
ATOM     14  S   UNL A   1      31.612  24.026  23.213  1.00  0.00     0.265 S 
ATOM     15  O   UNL A   1      32.029  24.760  22.033  1.00  0.00    -0.201 OA
ATOM     16  O   UNL A   1      31.045  22.698  23.084  1.00  0.00    -0.201 OA
BRANCH  14  17
ATOM     17  C   UNL A   1      33.065  23.847  24.227  1.00  0.00     0.133 A 
ATOM     18  C   UNL A   1      35.457  23.407  24.156  1.00  0.00     0.123 A 
ATOM     19  C   UNL A   1      34.220  23.461  23.520  1.00  0.00     0.073 A 
ATOM     20  C   UNL A   1      35.589  23.871  25.465  1.00  0.00    -0.005 A 
ATOM     21  C   UNL A   1      34.422  24.169  26.184  1.00  0.00     0.055 A 
ATOM     22  C   UNL A   1      36.919  24.027  26.142  1.00  0.00     0.048 C 
ATOM     23  C   UNL A   1      33.147  24.108  25.595  1.00  0.00     0.139 A 
BRANCH  18  24
ATOM     24  O   UNL A   1      36.511  22.947  23.416  1.00  0.00    -0.496 OA
ATOM     25  C   UNL A   1      37.040  21.726  23.944  1.00  0.00     0.278 C 
ENDBRANCH  18  24
BRANCH  23  26
ATOM     26  O   UNL A   1      32.001  24.232  26.324  1.00  0.00    -0.495 OA
ATOM     27  C   UNL A   1      31.456  23.051  26.900  1.00  0.00     0.278 C 
ENDBRANCH  23  26
ENDBRANCH  14  17
ENDBRANCH  12  14
ENDBRANCH   7  12
ENDBRANCH   3   6
ENDBRANCH   1   2
BRANCH   1  28
ATOM     28  C   UNL A   1      33.094  31.051  27.275  1.00  0.00     0.042 C 
BRANCH  28  29
ATOM     29  C   UNL A   1      34.501  30.566  27.587  1.00  0.00     0.118 C 
BRANCH  29  30
ATOM     30  N   UNL A   1      35.341  31.569  28.234  1.00  0.00    -0.352 N 
ATOM     31  C   UNL A   1      36.649  31.443  28.685  1.00  0.00     0.251 C 
ATOM     32  H   UNL A   1      34.925  32.450  28.371  1.00  0.00     0.163 HD
ATOM     33  O   UNL A   1      37.245  32.396  29.138  1.00  0.00    -0.269 OA
BRANCH  31  34
ATOM     34  C   UNL A   1      37.341  30.148  28.468  1.00  0.00     0.039 A 
ATOM     35  C   UNL A   1      37.470  29.291  29.564  1.00  0.00     0.014 A 
ATOM     36  C   UNL A   1      38.062  29.921  27.300  1.00  0.00     0.014 A 
ATOM     37  C   UNL A   1      38.516  28.376  29.582  1.00  0.00     0.010 A 
ATOM     38  C   UNL A   1      39.170  29.101  27.362  1.00  0.00     0.010 A 
ATOM     39  C   UNL A   1      39.433  28.381  28.531  1.00  0.00    -0.014 A 
BRANCH  39  40
ATOM     40  C   UNL A   1      40.735  27.732  28.610  1.00  0.00     0.031 A 
ATOM     41  C   UNL A   1      40.848  26.281  28.391  1.00  0.00     0.074 A 
ATOM     42  C   UNL A   1      41.842  28.466  28.855  1.00  0.00     0.049 A 
ATOM     43  N   UNL A   1      41.811  25.554  28.846  1.00  0.00    -0.248 NA
ATOM     44  C   UNL A   1      39.832  25.518  27.678  1.00  0.00     0.031 C 
ATOM     45  C   UNL A   1      43.237  28.044  28.762  1.00  0.00     0.029 A 
ATOM     46  N   UNL A   1      41.898  29.711  29.485  1.00  0.00    -0.354 N 
ATOM     47  C   UNL A   1      41.695  24.310  28.276  1.00  0.00     0.074 A 
ATOM     48  C   UNL A   1      40.411  24.315  27.615  1.00  0.00     0.031 C 
ATOM     49  C   UNL A   1      43.983  28.849  29.535  1.00  0.00     0.029 A 
ATOM     50  C   UNL A   1      43.075  29.721  30.260  1.00  0.00     0.049 A 
ATOM     51  H   UNL A   1      41.243  30.441  29.402  1.00  0.00     0.167 HD
ATOM     52  C   UNL A   1      42.748  23.448  28.332  1.00  0.00     0.031 A 
ATOM     53  C   UNL A   1      42.997  29.822  31.620  1.00  0.00     0.031 A 
ATOM     54  C   UNL A   1      43.850  23.975  29.137  1.00  0.00     0.049 A 
ATOM     55  C   UNL A   1      43.497  28.599  32.367  1.00  0.00     0.074 A 
ATOM     56  C   UNL A   1      45.072  24.559  28.848  1.00  0.00     0.029 A 
ATOM     57  N   UNL A   1      43.624  24.206  30.484  1.00  0.00    -0.354 N 
ATOM     58  N   UNL A   1      43.925  27.506  31.796  1.00  0.00    -0.248 NA
ATOM     59  C   UNL A   1      43.455  28.482  33.827  1.00  0.00     0.031 C 
ATOM     60  C   UNL A   1      45.567  25.161  30.044  1.00  0.00     0.029 A 
ATOM     61  C   UNL A   1      44.655  24.925  31.055  1.00  0.00     0.049 A 
ATOM     62  H   UNL A   1      42.828  23.897  30.973  1.00  0.00     0.167 HD
ATOM     63  C   UNL A   1      44.166  26.558  32.753  1.00  0.00     0.074 A 
ATOM     64  C   UNL A   1      43.862  27.213  34.011  1.00  0.00     0.031 C 
ATOM     65  C   UNL A   1      44.558  25.287  32.457  1.00  0.00     0.031 A 
BRANCH  52  66
ATOM     66  C   UNL A   1      42.856  22.216  27.469  1.00  0.00    -0.014 A 
ATOM     67  C   UNL A   1      43.726  22.216  26.364  1.00  0.00     0.009 A 
ATOM     68  C   UNL A   1      42.105  21.043  27.659  1.00  0.00     0.009 A 
ATOM     69  C   UNL A   1      43.769  21.152  25.452  1.00  0.00     0.001 A 
ATOM     70  C   UNL A   1      42.109  19.994  26.730  1.00  0.00     0.001 A 
ATOM     71  C   UNL A   1      42.936  20.053  25.619  1.00  0.00     0.000 A 
ENDBRANCH  52  66
BRANCH  53  72
ATOM     72  C   UNL A   1      41.877  30.700  32.069  1.00  0.00    -0.014 A 
ATOM     73  C   UNL A   1      42.032  32.095  31.926  1.00  0.00     0.009 A 
ATOM     74  C   UNL A   1      40.589  30.186  32.261  1.00  0.00     0.009 A 
ATOM     75  C   UNL A   1      40.917  32.933  31.833  1.00  0.00     0.001 A 
ATOM     76  C   UNL A   1      39.476  31.034  32.190  1.00  0.00     0.001 A 
ATOM     77  C   UNL A   1      39.638  32.395  31.933  1.00  0.00     0.000 A 
ENDBRANCH  53  72
BRANCH  65  78
ATOM     78  C   UNL A   1      44.863  24.259  33.506  1.00  0.00    -0.014 A 
ATOM     79  C   UNL A   1      46.175  23.983  33.916  1.00  0.00     0.009 A 
ATOM     80  C   UNL A   1      43.837  23.443  34.022  1.00  0.00     0.009 A 
ATOM     81  C   UNL A   1      46.443  22.969  34.844  1.00  0.00     0.001 A 
ATOM     82  C   UNL A   1      44.104  22.418  34.930  1.00  0.00     0.001 A 
ATOM     83  C   UNL A   1      45.407  22.187  35.350  1.00  0.00     0.000 A 
ENDBRANCH  65  78
ENDBRANCH  39  40
ENDBRANCH  31  34
ENDBRANCH  29  30
ENDBRANCH  28  29
ENDBRANCH   1  28
TORSDOF 15
ENDMDL
