MODEL 1
REMARK VINA RESULT:     -10.2      0.000      0.000
REMARK SMILES O=C(C[C@H]1S/C(=[NH+]/N=C/c2cccc(Cl)c2)NC1=O)NCCCNC(=O)c1ccc(-c2c3nc(c(-c4ccccc4)c4ccc([nH]4)c(-c4ccccc4)c4nc(c(-c5ccccc5)c5ccc2[nH]5)C=C4)C=C3)cc1
REMARK SMILES IDX 21 1 20 2 1 3 2 4 3 6 4 7 5 8 18 9 6 10 17 11 19 12 7 13
REMARK SMILES IDX 8 16 9 17 10 18 11 19 16 20 12 21 14 22 13 23 15 24 22 25
REMARK SMILES IDX 23 26 24 27 25 28 26 30 27 31 28 32 74 33 29 34 73 35 30 36
REMARK SMILES IDX 31 37 32 38 67 39 33 40 72 41 66 42 68 43 34 44 71 45 65 46
REMARK SMILES IDX 64 47 35 49 57 50 42 51 56 52 43 53 46 54 55 55 69 56 44 57
REMARK SMILES IDX 45 58 54 60 70 61 47 62 36 63 37 64 41 65 38 66 40 67 39 68
REMARK SMILES IDX 58 69 59 70 63 71 60 72 62 73 61 74 48 75 49 76 53 77 50 78
REMARK SMILES IDX 52 79 51 80
REMARK H PARENT 20 5 17 14 7 15 24 29 68 48 46 59
REMARK Flexibility Score: inf
ROOT
ATOM      1  C   UNL A   1      46.164  21.203  24.661  1.00  0.00     0.117 C 
ENDROOT
BRANCH   1   2
ATOM      2  N   UNL A   1      45.879  22.600  24.398  1.00  0.00    -0.356 N 
ATOM      3  O   UNL A   1      46.809  23.413  26.334  1.00  0.00    -0.275 OA
ATOM      4  C   UNL A   1      46.271  23.604  25.249  1.00  0.00     0.221 C 
ATOM      5  H   UNL A   1      45.388  22.838  23.578  1.00  0.00     0.163 HD
BRANCH   4   6
ATOM      6  C   UNL A   1      45.969  25.001  24.754  1.00  0.00     0.127 C 
BRANCH   6   7
ATOM      7  C   UNL A   1      45.511  25.995  25.820  1.00  0.00     0.183 C 
ATOM      8  S   UNL A   1      46.918  27.007  26.426  1.00  0.00    -0.020 SA
ATOM      9  C   UNL A   1      44.459  27.008  25.400  1.00  0.00     0.322 C 
ATOM     10  C   UNL A   1      46.172  28.491  25.935  1.00  0.00     0.337 C 
ATOM     11  N   UNL A   1      44.943  28.279  25.417  1.00  0.00    -0.202 N 
ATOM     12  O   UNL A   1      43.296  26.725  25.139  1.00  0.00    -0.246 OA
ATOM     13  N   UNL A   1      46.725  29.648  26.066  1.00  0.00    -0.142 N 
ATOM     14  H   UNL A   1      44.410  29.025  25.060  1.00  0.00     0.316 HD
ATOM     15  H   UNL A   1      47.627  29.786  26.436  1.00  0.00     0.343 HD
BRANCH  13  16
ATOM     16  N   UNL A   1      45.896  30.685  25.622  1.00  0.00    -0.093 NA
ATOM     17  C   UNL A   1      45.537  31.440  26.612  1.00  0.00     0.166 C 
BRANCH  17  18
ATOM     18  C   UNL A   1      44.679  32.620  26.406  1.00  0.00    -0.002 A 
ATOM     19  C   UNL A   1      44.384  33.075  25.116  1.00  0.00     0.010 A 
ATOM     20  C   UNL A   1      44.184  33.292  27.526  1.00  0.00     0.030 A 
ATOM     21  C   UNL A   1      43.595  34.212  24.944  1.00  0.00     0.002 A 
ATOM     22  C   UNL A   1      43.405  34.434  27.342  1.00  0.00     0.041 A 
ATOM     23  C   UNL A   1      43.109  34.896  26.059  1.00  0.00     0.020 A 
ATOM     24  Cl  UNL A   1      42.815  35.289  28.714  1.00  0.00    -0.084 Cl
ENDBRANCH  17  18
ENDBRANCH  13  16
ENDBRANCH   6   7
ENDBRANCH   4   6
ENDBRANCH   1   2
BRANCH   1  25
ATOM     25  C   UNL A   1      45.017  20.288  24.252  1.00  0.00     0.042 C 
BRANCH  25  26
ATOM     26  C   UNL A   1      44.457  19.415  25.371  1.00  0.00     0.118 C 
BRANCH  26  27
ATOM     27  N   UNL A   1      43.028  19.168  25.257  1.00  0.00    -0.352 N 
ATOM     28  C   UNL A   1      41.962  19.866  25.769  1.00  0.00     0.251 C 
ATOM     29  H   UNL A   1      42.787  18.374  24.731  1.00  0.00     0.163 HD
ATOM     30  O   UNL A   1      40.829  19.406  25.646  1.00  0.00    -0.269 OA
BRANCH  28  31
ATOM     31  C   UNL A   1      42.148  21.153  26.482  1.00  0.00     0.039 A 
ATOM     32  C   UNL A   1      42.451  22.291  25.726  1.00  0.00     0.014 A 
ATOM     33  C   UNL A   1      42.086  21.248  27.875  1.00  0.00     0.014 A 
ATOM     34  C   UNL A   1      42.650  23.522  26.358  1.00  0.00     0.010 A 
ATOM     35  C   UNL A   1      42.208  22.492  28.499  1.00  0.00     0.010 A 
ATOM     36  C   UNL A   1      42.508  23.639  27.750  1.00  0.00    -0.014 A 
BRANCH  36  37
ATOM     37  C   UNL A   1      42.704  24.949  28.426  1.00  0.00     0.031 A 
ATOM     38  C   UNL A   1      44.041  25.310  29.018  1.00  0.00     0.074 A 
ATOM     39  C   UNL A   1      41.673  25.810  28.531  1.00  0.00     0.049 A 
ATOM     40  N   UNL A   1      44.403  26.410  29.632  1.00  0.00    -0.248 NA
ATOM     41  C   UNL A   1      45.104  24.296  28.931  1.00  0.00     0.031 C 
ATOM     42  C   UNL A   1      40.313  25.572  28.044  1.00  0.00     0.029 A 
ATOM     43  N   UNL A   1      41.612  27.067  29.083  1.00  0.00    -0.354 N 
ATOM     44  C   UNL A   1      45.723  26.214  30.014  1.00  0.00     0.074 A 
ATOM     45  C   UNL A   1      46.084  24.871  29.613  1.00  0.00     0.031 C 
ATOM     46  C   UNL A   1      39.564  26.660  28.284  1.00  0.00     0.029 A 
ATOM     47  C   UNL A   1      40.379  27.659  28.967  1.00  0.00     0.049 A 
ATOM     48  H   UNL A   1      42.381  27.501  29.520  1.00  0.00     0.167 HD
ATOM     49  C   UNL A   1      46.572  27.076  30.625  1.00  0.00     0.031 A 
ATOM     50  C   UNL A   1      39.952  28.876  29.356  1.00  0.00     0.031 A 
ATOM     51  C   UNL A   1      46.227  28.417  31.014  1.00  0.00     0.049 A 
ATOM     52  C   UNL A   1      40.917  29.822  30.014  1.00  0.00     0.074 A 
ATOM     53  C   UNL A   1      47.033  29.381  31.595  1.00  0.00     0.029 A 
ATOM     54  N   UNL A   1      44.972  28.984  30.860  1.00  0.00    -0.354 N 
ATOM     55  N   UNL A   1      42.183  29.643  30.307  1.00  0.00    -0.248 NA
ATOM     56  C   UNL A   1      40.397  31.148  30.374  1.00  0.00     0.031 C 
ATOM     57  C   UNL A   1      46.254  30.521  31.828  1.00  0.00     0.029 A 
ATOM     58  C   UNL A   1      44.978  30.282  31.344  1.00  0.00     0.049 A 
ATOM     59  H   UNL A   1      44.193  28.531  30.465  1.00  0.00     0.167 HD
ATOM     60  C   UNL A   1      42.618  30.845  30.852  1.00  0.00     0.074 A 
ATOM     61  C   UNL A   1      41.486  31.748  30.835  1.00  0.00     0.031 C 
ATOM     62  C   UNL A   1      43.847  31.173  31.319  1.00  0.00     0.031 A 
BRANCH  49  63
ATOM     63  C   UNL A   1      47.965  26.585  30.910  1.00  0.00    -0.014 A 
ATOM     64  C   UNL A   1      48.267  25.907  32.103  1.00  0.00     0.009 A 
ATOM     65  C   UNL A   1      48.983  26.777  29.964  1.00  0.00     0.009 A 
ATOM     66  C   UNL A   1      49.567  25.469  32.359  1.00  0.00     0.001 A 
ATOM     67  C   UNL A   1      50.277  26.312  30.209  1.00  0.00     0.001 A 
ATOM     68  C   UNL A   1      50.570  25.669  31.411  1.00  0.00     0.000 A 
ENDBRANCH  49  63
BRANCH  50  69
ATOM     69  C   UNL A   1      38.550  29.291  29.096  1.00  0.00    -0.014 A 
ATOM     70  C   UNL A   1      37.587  29.219  30.113  1.00  0.00     0.009 A 
ATOM     71  C   UNL A   1      38.165  29.750  27.826  1.00  0.00     0.009 A 
ATOM     72  C   UNL A   1      36.259  29.569  29.858  1.00  0.00     0.001 A 
ATOM     73  C   UNL A   1      36.843  30.124  27.581  1.00  0.00     0.001 A 
ATOM     74  C   UNL A   1      35.889  30.023  28.593  1.00  0.00     0.000 A 
ENDBRANCH  50  69
BRANCH  62  75
ATOM     75  C   UNL A   1      44.043  32.581  31.805  1.00  0.00    -0.014 A 
ATOM     76  C   UNL A   1      44.756  33.526  31.051  1.00  0.00     0.009 A 
ATOM     77  C   UNL A   1      43.486  32.971  33.033  1.00  0.00     0.009 A 
ATOM     78  C   UNL A   1      44.945  34.820  31.539  1.00  0.00     0.001 A 
ATOM     79  C   UNL A   1      43.652  34.275  33.505  1.00  0.00     0.001 A 
ATOM     80  C   UNL A   1      44.391  35.194  32.764  1.00  0.00     0.000 A 
ENDBRANCH  62  75
ENDBRANCH  36  37
ENDBRANCH  28  31
ENDBRANCH  26  27
ENDBRANCH  25  26
ENDBRANCH   1  25
TORSDOF 13
ENDMDL
MODEL 2
REMARK VINA RESULT:      -9.7      4.465     10.231
REMARK SMILES O=C(C[C@H]1S/C(=[NH+]/N=C/c2cccc(Cl)c2)NC1=O)NCCCNC(=O)c1ccc(-c2c3nc(c(-c4ccccc4)c4ccc([nH]4)c(-c4ccccc4)c4nc(c(-c5ccccc5)c5ccc2[nH]5)C=C4)C=C3)cc1
REMARK SMILES IDX 21 1 20 2 1 3 2 4 3 6 4 7 5 8 18 9 6 10 17 11 19 12 7 13
REMARK SMILES IDX 8 16 9 17 10 18 11 19 16 20 12 21 14 22 13 23 15 24 22 25
REMARK SMILES IDX 23 26 24 27 25 28 26 30 27 31 28 32 74 33 29 34 73 35 30 36
REMARK SMILES IDX 31 37 32 38 67 39 33 40 72 41 66 42 68 43 34 44 71 45 65 46
REMARK SMILES IDX 64 47 35 49 57 50 42 51 56 52 43 53 46 54 55 55 69 56 44 57
REMARK SMILES IDX 45 58 54 60 70 61 47 62 36 63 37 64 41 65 38 66 40 67 39 68
REMARK SMILES IDX 58 69 59 70 63 71 60 72 62 73 61 74 48 75 49 76 53 77 50 78
REMARK SMILES IDX 52 79 51 80
REMARK H PARENT 20 5 17 14 7 15 24 29 68 48 46 59
REMARK Flexibility Score: inf
ROOT
ATOM      1  C   UNL A   1      33.978  35.043  30.629  1.00  0.00     0.117 C 
ENDROOT
BRANCH   1   2
ATOM      2  N   UNL A   1      35.217  34.652  31.273  1.00  0.00    -0.356 N 
ATOM      3  O   UNL A   1      34.971  35.993  33.122  1.00  0.00    -0.275 OA
ATOM      4  C   UNL A   1      35.592  35.135  32.504  1.00  0.00     0.221 C 
ATOM      5  H   UNL A   1      35.811  34.016  30.812  1.00  0.00     0.163 HD
BRANCH   4   6
ATOM      6  C   UNL A   1      36.867  34.535  33.052  1.00  0.00     0.127 C 
BRANCH   6   7
ATOM      7  C   UNL A   1      36.685  33.372  34.025  1.00  0.00     0.183 C 
ATOM      8  S   UNL A   1      36.514  31.780  33.125  1.00  0.00    -0.020 SA
ATOM      9  C   UNL A   1      37.808  33.134  35.021  1.00  0.00     0.322 C 
ATOM     10  C   UNL A   1      37.906  31.097  33.899  1.00  0.00     0.337 C 
ATOM     11  N   UNL A   1      38.434  31.947  34.807  1.00  0.00    -0.202 N 
ATOM     12  O   UNL A   1      38.077  33.890  35.947  1.00  0.00    -0.246 OA
ATOM     13  N   UNL A   1      38.362  29.919  33.642  1.00  0.00    -0.142 N 
ATOM     14  H   UNL A   1      39.251  31.712  35.302  1.00  0.00     0.316 HD
ATOM     15  H   UNL A   1      37.973  29.315  32.969  1.00  0.00     0.343 HD
BRANCH  13  16
ATOM     16  N   UNL A   1      39.474  29.599  34.429  1.00  0.00    -0.093 NA
ATOM     17  C   UNL A   1      40.316  28.875  33.760  1.00  0.00     0.166 C 
BRANCH  17  18
ATOM     18  C   UNL A   1      41.585  28.424  34.356  1.00  0.00    -0.002 A 
ATOM     19  C   UNL A   1      42.275  29.232  35.267  1.00  0.00     0.010 A 
ATOM     20  C   UNL A   1      42.100  27.183  33.977  1.00  0.00     0.030 A 
ATOM     21  C   UNL A   1      43.491  28.799  35.796  1.00  0.00     0.002 A 
ATOM     22  C   UNL A   1      43.321  26.766  34.503  1.00  0.00     0.041 A 
ATOM     23  C   UNL A   1      44.018  27.566  35.410  1.00  0.00     0.020 A 
ATOM     24  Cl  UNL A   1      43.982  25.252  34.020  1.00  0.00    -0.084 Cl
ENDBRANCH  17  18
ENDBRANCH  13  16
ENDBRANCH   6   7
ENDBRANCH   4   6
ENDBRANCH   1   2
BRANCH   1  25
ATOM     25  C   UNL A   1      33.725  34.275  29.339  1.00  0.00     0.042 C 
BRANCH  25  26
ATOM     26  C   UNL A   1      34.568  33.016  29.161  1.00  0.00     0.118 C 
BRANCH  26  27
ATOM     27  N   UNL A   1      33.877  31.946  28.461  1.00  0.00    -0.352 N 
ATOM     28  C   UNL A   1      34.338  30.731  28.016  1.00  0.00     0.251 C 
ATOM     29  H   UNL A   1      32.927  32.120  28.275  1.00  0.00     0.163 HD
ATOM     30  O   UNL A   1      33.601  30.021  27.336  1.00  0.00    -0.269 OA
BRANCH  28  31
ATOM     31  C   UNL A   1      35.712  30.263  28.323  1.00  0.00     0.039 A 
ATOM     32  C   UNL A   1      35.950  29.687  29.576  1.00  0.00     0.014 A 
ATOM     33  C   UNL A   1      36.773  30.433  27.430  1.00  0.00     0.014 A 
ATOM     34  C   UNL A   1      37.234  29.246  29.914  1.00  0.00     0.010 A 
ATOM     35  C   UNL A   1      38.037  29.923  27.738  1.00  0.00     0.010 A 
ATOM     36  C   UNL A   1      38.285  29.341  28.989  1.00  0.00    -0.014 A 
BRANCH  36  37
ATOM     37  C   UNL A   1      39.649  28.861  29.338  1.00  0.00     0.031 A 
ATOM     38  C   UNL A   1      40.564  29.708  30.181  1.00  0.00     0.074 A 
ATOM     39  C   UNL A   1      40.079  27.669  28.877  1.00  0.00     0.049 A 
ATOM     40  N   UNL A   1      41.780  29.450  30.598  1.00  0.00    -0.248 NA
ATOM     41  C   UNL A   1      40.059  31.028  30.592  1.00  0.00     0.031 C 
ATOM     42  C   UNL A   1      39.315  26.766  28.013  1.00  0.00     0.029 A 
ATOM     43  N   UNL A   1      41.269  27.012  29.076  1.00  0.00    -0.354 N 
ATOM     44  C   UNL A   1      42.186  30.575  31.303  1.00  0.00     0.074 A 
ATOM     45  C   UNL A   1      41.111  31.540  31.214  1.00  0.00     0.031 C 
ATOM     46  C   UNL A   1      40.040  25.658  27.789  1.00  0.00     0.029 A 
ATOM     47  C   UNL A   1      41.327  25.784  28.465  1.00  0.00     0.049 A 
ATOM     48  H   UNL A   1      42.009  27.386  29.606  1.00  0.00     0.167 HD
ATOM     49  C   UNL A   1      43.339  30.785  31.984  1.00  0.00     0.031 A 
ATOM     50  C   UNL A   1      42.302  24.855  28.458  1.00  0.00     0.031 A 
ATOM     51  C   UNL A   1      44.406  29.826  32.090  1.00  0.00     0.049 A 
ATOM     52  C   UNL A   1      43.564  25.102  29.236  1.00  0.00     0.074 A 
ATOM     53  C   UNL A   1      45.592  29.929  32.797  1.00  0.00     0.029 A 
ATOM     54  N   UNL A   1      44.416  28.586  31.472  1.00  0.00    -0.354 N 
ATOM     55  N   UNL A   1      43.903  26.146  29.954  1.00  0.00    -0.248 NA
ATOM     56  C   UNL A   1      44.568  24.030  29.221  1.00  0.00     0.031 C 
ATOM     57  C   UNL A   1      46.337  28.765  32.576  1.00  0.00     0.029 A 
ATOM     58  C   UNL A   1      45.591  27.917  31.773  1.00  0.00     0.049 A 
ATOM     59  H   UNL A   1      43.694  28.233  30.904  1.00  0.00     0.167 HD
ATOM     60  C   UNL A   1      45.142  25.840  30.503  1.00  0.00     0.074 A 
ATOM     61  C   UNL A   1      45.487  24.510  30.047  1.00  0.00     0.031 C 
ATOM     62  C   UNL A   1      45.922  26.593  31.317  1.00  0.00     0.031 A 
BRANCH  49  63
ATOM     63  C   UNL A   1      43.501  32.114  32.669  1.00  0.00    -0.014 A 
ATOM     64  C   UNL A   1      44.091  33.205  32.009  1.00  0.00     0.009 A 
ATOM     65  C   UNL A   1      43.035  32.288  33.981  1.00  0.00     0.009 A 
ATOM     66  C   UNL A   1      44.246  34.428  32.664  1.00  0.00     0.001 A 
ATOM     67  C   UNL A   1      43.165  33.521  34.623  1.00  0.00     0.001 A 
ATOM     68  C   UNL A   1      43.781  34.586  33.968  1.00  0.00     0.000 A 
ENDBRANCH  49  63
BRANCH  50  69
ATOM     69  C   UNL A   1      42.110  23.580  27.721  1.00  0.00    -0.014 A 
ATOM     70  C   UNL A   1      41.533  22.471  28.358  1.00  0.00     0.009 A 
ATOM     71  C   UNL A   1      42.515  23.459  26.382  1.00  0.00     0.009 A 
ATOM     72  C   UNL A   1      41.391  21.258  27.681  1.00  0.00     0.001 A 
ATOM     73  C   UNL A   1      42.348  22.254  25.699  1.00  0.00     0.001 A 
ATOM     74  C   UNL A   1      41.796  21.151  26.351  1.00  0.00     0.000 A 
ENDBRANCH  50  69
BRANCH  62  75
ATOM     75  C   UNL A   1      47.201  25.974  31.805  1.00  0.00    -0.014 A 
ATOM     76  C   UNL A   1      48.376  26.016  31.039  1.00  0.00     0.009 A 
ATOM     77  C   UNL A   1      47.231  25.352  33.064  1.00  0.00     0.009 A 
ATOM     78  C   UNL A   1      49.544  25.408  31.505  1.00  0.00     0.001 A 
ATOM     79  C   UNL A   1      48.408  24.771  33.540  1.00  0.00     0.001 A 
ATOM     80  C   UNL A   1      49.559  24.789  32.756  1.00  0.00     0.000 A 
ENDBRANCH  62  75
ENDBRANCH  36  37
ENDBRANCH  28  31
ENDBRANCH  26  27
ENDBRANCH  25  26
ENDBRANCH   1  25
TORSDOF 13
ENDMDL
MODEL 3
REMARK VINA RESULT:      -9.5      5.011      7.635
REMARK SMILES O=C(C[C@H]1S/C(=[NH+]/N=C/c2cccc(Cl)c2)NC1=O)NCCCNC(=O)c1ccc(-c2c3nc(c(-c4ccccc4)c4ccc([nH]4)c(-c4ccccc4)c4nc(c(-c5ccccc5)c5ccc2[nH]5)C=C4)C=C3)cc1
REMARK SMILES IDX 21 1 20 2 1 3 2 4 3 6 4 7 5 8 18 9 6 10 17 11 19 12 7 13
REMARK SMILES IDX 8 16 9 17 10 18 11 19 16 20 12 21 14 22 13 23 15 24 22 25
REMARK SMILES IDX 23 26 24 27 25 28 26 30 27 31 28 32 74 33 29 34 73 35 30 36
REMARK SMILES IDX 31 37 32 38 67 39 33 40 72 41 66 42 68 43 34 44 71 45 65 46
REMARK SMILES IDX 64 47 35 49 57 50 42 51 56 52 43 53 46 54 55 55 69 56 44 57
REMARK SMILES IDX 45 58 54 60 70 61 47 62 36 63 37 64 41 65 38 66 40 67 39 68
REMARK SMILES IDX 58 69 59 70 63 71 60 72 62 73 61 74 48 75 49 76 53 77 50 78
REMARK SMILES IDX 52 79 51 80
REMARK H PARENT 20 5 17 14 7 15 24 29 68 48 46 59
REMARK Flexibility Score: inf
ROOT
ATOM      1  C   UNL A   1      37.062  21.220  24.317  1.00  0.00     0.117 C 
ENDROOT
BRANCH   1   2
ATOM      2  N   UNL A   1      35.975  21.474  25.242  1.00  0.00    -0.356 N 
ATOM      3  O   UNL A   1      34.438  22.101  23.654  1.00  0.00    -0.275 OA
ATOM      4  C   UNL A   1      34.724  21.857  24.821  1.00  0.00     0.221 C 
ATOM      5  H   UNL A   1      36.139  21.368  26.207  1.00  0.00     0.163 HD
BRANCH   4   6
ATOM      6  C   UNL A   1      33.699  21.979  25.927  1.00  0.00     0.127 C 
BRANCH   6   7
ATOM      7  C   UNL A   1      33.547  23.372  26.535  1.00  0.00     0.183 C 
ATOM      8  S   UNL A   1      34.313  24.648  25.460  1.00  0.00    -0.020 SA
ATOM      9  C   UNL A   1      32.128  23.862  26.766  1.00  0.00     0.322 C 
ATOM     10  C   UNL A   1      32.817  25.500  25.262  1.00  0.00     0.337 C 
ATOM     11  N   UNL A   1      31.826  24.931  25.983  1.00  0.00    -0.202 N 
ATOM     12  O   UNL A   1      31.366  23.394  27.604  1.00  0.00    -0.246 OA
ATOM     13  N   UNL A   1      32.683  26.550  24.527  1.00  0.00    -0.142 N 
ATOM     14  H   UNL A   1      30.907  25.283  25.943  1.00  0.00     0.316 HD
ATOM     15  H   UNL A   1      33.412  26.946  23.998  1.00  0.00     0.343 HD
BRANCH  13  16
ATOM     16  N   UNL A   1      31.380  27.062  24.568  1.00  0.00    -0.093 NA
ATOM     17  C   UNL A   1      31.212  27.961  23.650  1.00  0.00     0.166 C 
BRANCH  17  18
ATOM     18  C   UNL A   1      29.917  28.638  23.465  1.00  0.00    -0.002 A 
ATOM     19  C   UNL A   1      28.750  27.901  23.235  1.00  0.00     0.010 A 
ATOM     20  C   UNL A   1      29.880  30.033  23.501  1.00  0.00     0.030 A 
ATOM     21  C   UNL A   1      27.539  28.563  23.032  1.00  0.00     0.002 A 
ATOM     22  C   UNL A   1      28.666  30.685  23.286  1.00  0.00     0.041 A 
ATOM     23  C   UNL A   1      27.498  29.958  23.053  1.00  0.00     0.020 A 
ATOM     24  Cl  UNL A   1      28.612  32.405  23.297  1.00  0.00    -0.084 Cl
ENDBRANCH  17  18
ENDBRANCH  13  16
ENDBRANCH   6   7
ENDBRANCH   4   6
ENDBRANCH   1   2
BRANCH   1  25
ATOM     25  C   UNL A   1      37.813  19.935  24.640  1.00  0.00     0.042 C 
BRANCH  25  26
ATOM     26  C   UNL A   1      38.674  19.989  25.898  1.00  0.00     0.118 C 
BRANCH  26  27
ATOM     27  N   UNL A   1      39.912  19.234  25.790  1.00  0.00    -0.352 N 
ATOM     28  C   UNL A   1      41.211  19.620  26.007  1.00  0.00     0.251 C 
ATOM     29  H   UNL A   1      39.800  18.296  25.517  1.00  0.00     0.163 HD
ATOM     30  O   UNL A   1      42.123  18.841  25.738  1.00  0.00    -0.269 OA
BRANCH  28  31
ATOM     31  C   UNL A   1      41.542  20.965  26.540  1.00  0.00     0.039 A 
ATOM     32  C   UNL A   1      41.405  21.183  27.916  1.00  0.00     0.014 A 
ATOM     33  C   UNL A   1      41.925  22.021  25.710  1.00  0.00     0.014 A 
ATOM     34  C   UNL A   1      41.690  22.439  28.459  1.00  0.00     0.010 A 
ATOM     35  C   UNL A   1      42.285  23.252  26.264  1.00  0.00     0.010 A 
ATOM     36  C   UNL A   1      42.154  23.480  27.641  1.00  0.00    -0.014 A 
BRANCH  36  37
ATOM     37  C   UNL A   1      42.473  24.814  28.216  1.00  0.00     0.031 A 
ATOM     38  C   UNL A   1      43.884  25.155  28.618  1.00  0.00     0.074 A 
ATOM     39  C   UNL A   1      41.490  25.717  28.402  1.00  0.00     0.049 A 
ATOM     40  N   UNL A   1      44.353  26.270  29.123  1.00  0.00    -0.248 NA
ATOM     41  C   UNL A   1      44.897  24.100  28.455  1.00  0.00     0.031 C 
ATOM     42  C   UNL A   1      40.073  25.504  28.100  1.00  0.00     0.029 A 
ATOM     43  N   UNL A   1      41.536  27.000  28.889  1.00  0.00    -0.354 N 
ATOM     44  C   UNL A   1      45.704  26.045  29.349  1.00  0.00     0.074 A 
ATOM     45  C   UNL A   1      45.972  24.672  28.978  1.00  0.00     0.031 C 
ATOM     46  C   UNL A   1      39.393  26.629  28.373  1.00  0.00     0.029 A 
ATOM     47  C   UNL A   1      40.316  27.630  28.895  1.00  0.00     0.049 A 
ATOM     48  H   UNL A   1      42.366  27.427  29.203  1.00  0.00     0.167 HD
ATOM     49  C   UNL A   1      46.649  26.905  29.803  1.00  0.00     0.031 A 
ATOM     50  C   UNL A   1      39.979  28.880  29.269  1.00  0.00     0.031 A 
ATOM     51  C   UNL A   1      46.396  28.275  30.160  1.00  0.00     0.049 A 
ATOM     52  C   UNL A   1      41.047  29.821  29.751  1.00  0.00     0.074 A 
ATOM     53  C   UNL A   1      47.296  29.237  30.584  1.00  0.00     0.029 A 
ATOM     54  N   UNL A   1      45.149  28.879  30.131  1.00  0.00    -0.354 N 
ATOM     55  N   UNL A   1      42.333  29.611  29.894  1.00  0.00    -0.248 NA
ATOM     56  C   UNL A   1      40.616  31.182  30.101  1.00  0.00     0.031 C 
ATOM     57  C   UNL A   1      46.587  30.414  30.850  1.00  0.00     0.029 A 
ATOM     58  C   UNL A   1      45.254  30.198  30.541  1.00  0.00     0.049 A 
ATOM     59  H   UNL A   1      44.312  28.436  29.861  1.00  0.00     0.167 HD
ATOM     60  C   UNL A   1      42.868  30.822  30.316  1.00  0.00     0.074 A 
ATOM     61  C   UNL A   1      41.771  31.763  30.391  1.00  0.00     0.031 C 
ATOM     62  C   UNL A   1      44.157  31.127  30.609  1.00  0.00     0.031 A 
BRANCH  49  63
ATOM     63  C   UNL A   1      48.051  26.378  29.939  1.00  0.00    -0.014 A 
ATOM     64  C   UNL A   1      48.508  25.834  31.151  1.00  0.00     0.009 A 
ATOM     65  C   UNL A   1      48.918  26.399  28.836  1.00  0.00     0.009 A 
ATOM     66  C   UNL A   1      49.817  25.362  31.265  1.00  0.00     0.001 A 
ATOM     67  C   UNL A   1      50.217  25.898  28.944  1.00  0.00     0.001 A 
ATOM     68  C   UNL A   1      50.669  25.391  30.162  1.00  0.00     0.000 A 
ENDBRANCH  49  63
BRANCH  50  69
ATOM     69  C   UNL A   1      38.568  29.333  29.162  1.00  0.00    -0.014 A 
ATOM     70  C   UNL A   1      38.078  29.851  27.954  1.00  0.00     0.009 A 
ATOM     71  C   UNL A   1      37.709  29.262  30.269  1.00  0.00     0.009 A 
ATOM     72  C   UNL A   1      36.765  30.318  27.864  1.00  0.00     0.001 A 
ATOM     73  C   UNL A   1      36.389  29.704  30.169  1.00  0.00     0.001 A 
ATOM     74  C   UNL A   1      35.921  30.241  28.970  1.00  0.00     0.000 A 
ENDBRANCH  50  69
BRANCH  62  75
ATOM     75  C   UNL A   1      44.453  32.549  30.991  1.00  0.00    -0.014 A 
ATOM     76  C   UNL A   1      44.415  32.974  32.328  1.00  0.00     0.009 A 
ATOM     77  C   UNL A   1      44.794  33.476  29.992  1.00  0.00     0.009 A 
ATOM     78  C   UNL A   1      44.669  34.309  32.651  1.00  0.00     0.001 A 
ATOM     79  C   UNL A   1      45.076  34.802  30.322  1.00  0.00     0.001 A 
ATOM     80  C   UNL A   1      45.001  35.221  31.649  1.00  0.00     0.000 A 
ENDBRANCH  62  75
ENDBRANCH  36  37
ENDBRANCH  28  31
ENDBRANCH  26  27
ENDBRANCH  25  26
ENDBRANCH   1  25
TORSDOF 13
ENDMDL
