MODEL 1
REMARK VINA RESULT:     -10.8      0.000      0.000
REMARK SMILES Cc1cc(N(C)[C@H](C)C(=O)NCCCNC(=O)c2ccc(-c3c4nc(c(-c5ccccc5)c5ccc([nH]5)c(-c5ccccc5)c5nc(c(-c6ccccc6)c6ccc3[nH]6)C=C5)C=C4)cc2)ncc1[N+](=O)[O-]
REMARK SMILES IDX 12 1 11 2 9 3 10 4 7 6 8 7 5 8 6 9 4 10 1 11 2 12 3 13 68 14
REMARK SMILES IDX 67 15 66 16 69 17 70 18 71 19 13 20 14 21 15 22 16 23 17 25
REMARK SMILES IDX 18 26 19 27 65 28 20 29 64 30 21 31 22 32 23 33 58 34 24 35
REMARK SMILES IDX 63 36 57 37 59 38 25 39 62 40 56 41 55 42 26 44 48 45 33 46
REMARK SMILES IDX 47 47 34 48 37 49 46 50 60 51 35 52 36 53 45 55 61 56 38 57
REMARK SMILES IDX 27 58 28 59 32 60 29 61 31 62 30 63 49 64 50 65 54 66 51 67
REMARK SMILES IDX 53 68 52 69 39 70 40 71 44 72 41 73 43 74 42 75
REMARK H PARENT 11 5 15 24 59 43 37 54
REMARK Flexibility Score: inf
ROOT
ATOM      1  C   UNL A   1      31.815  30.403  25.776  1.00  0.00     0.117 C 
ENDROOT
BRANCH   1   2
ATOM      2  N   UNL A   1      31.463  29.164  26.443  1.00  0.00    -0.354 N 
ATOM      3  C   UNL A   1      31.786  27.872  26.152  1.00  0.00     0.242 C 
ATOM      4  O   UNL A   1      31.503  27.040  27.023  1.00  0.00    -0.273 OA
ATOM      5  H   UNL A   1      30.894  29.275  27.239  1.00  0.00     0.163 HD
BRANCH   3   6
ATOM      6  C   UNL A   1      32.449  27.439  24.825  1.00  0.00     0.169 C 
ATOM      7  C   UNL A   1      33.649  26.517  25.056  1.00  0.00     0.042 C 
BRANCH   6   8
ATOM      8  N   UNL A   1      31.521  26.917  23.781  1.00  0.00    -0.348 N 
ATOM      9  C   UNL A   1      31.354  25.498  23.521  1.00  0.00     0.146 C 
BRANCH   8  10
ATOM     10  C   UNL A   1      30.619  27.813  23.214  1.00  0.00     0.129 A 
ATOM     11  C   UNL A   1      26.891  28.416  23.356  1.00  0.00     0.052 C 
ATOM     12  C   UNL A   1      28.323  28.667  22.977  1.00  0.00     0.032 A 
ATOM     13  C   UNL A   1      29.238  27.673  23.380  1.00  0.00     0.057 A 
ATOM     14  C   UNL A   1      28.848  29.774  22.309  1.00  0.00     0.290 A 
ATOM     15  C   UNL A   1      30.222  29.824  22.104  1.00  0.00     0.199 A 
ATOM     16  N   UNL A   1      31.091  28.874  22.534  1.00  0.00    -0.232 NA
BRANCH  14  17
ATOM     17  N   UNL A   1      28.059  30.890  21.796  1.00  0.00     0.064 N 
ATOM     18  O   UNL A   1      27.709  31.762  22.605  1.00  0.00    -0.258 OA
ATOM     19  O   UNL A   1      27.804  30.928  20.587  1.00  0.00    -0.258 OA
ENDBRANCH  14  17
ENDBRANCH   8  10
ENDBRANCH   6   8
ENDBRANCH   3   6
ENDBRANCH   1   2
BRANCH   1  20
ATOM     20  C   UNL A   1      31.514  31.626  26.618  1.00  0.00     0.042 C 
BRANCH  20  21
ATOM     21  C   UNL A   1      32.769  32.293  27.163  1.00  0.00     0.118 C 
BRANCH  21  22
ATOM     22  N   UNL A   1      32.544  33.666  27.607  1.00  0.00    -0.352 N 
ATOM     23  C   UNL A   1      33.214  34.431  28.534  1.00  0.00     0.251 C 
ATOM     24  H   UNL A   1      31.786  34.120  27.171  1.00  0.00     0.163 HD
ATOM     25  O   UNL A   1      32.746  35.499  28.900  1.00  0.00    -0.269 OA
BRANCH  23  26
ATOM     26  C   UNL A   1      34.486  33.941  29.106  1.00  0.00     0.039 A 
ATOM     27  C   UNL A   1      34.467  33.214  30.298  1.00  0.00     0.014 A 
ATOM     28  C   UNL A   1      35.695  34.183  28.454  1.00  0.00     0.014 A 
ATOM     29  C   UNL A   1      35.650  32.645  30.775  1.00  0.00     0.010 A 
ATOM     30  C   UNL A   1      36.840  33.514  28.857  1.00  0.00     0.010 A 
ATOM     31  C   UNL A   1      36.834  32.743  30.028  1.00  0.00    -0.014 A 
BRANCH  31  32
ATOM     32  C   UNL A   1      38.086  32.067  30.448  1.00  0.00     0.031 A 
ATOM     33  C   UNL A   1      38.993  32.729  31.453  1.00  0.00     0.074 A 
ATOM     34  C   UNL A   1      38.450  30.905  29.869  1.00  0.00     0.049 A 
ATOM     35  N   UNL A   1      40.175  32.354  31.871  1.00  0.00    -0.248 NA
ATOM     36  C   UNL A   1      38.528  33.998  32.037  1.00  0.00     0.031 C 
ATOM     37  C   UNL A   1      37.685  30.187  28.847  1.00  0.00     0.029 A 
ATOM     38  N   UNL A   1      39.565  30.127  30.054  1.00  0.00    -0.354 N 
ATOM     39  C   UNL A   1      40.598  33.349  32.744  1.00  0.00     0.074 A 
ATOM     40  C   UNL A   1      39.580  34.374  32.747  1.00  0.00     0.031 C 
ATOM     41  C   UNL A   1      38.334  29.056  28.524  1.00  0.00     0.029 A 
ATOM     42  C   UNL A   1      39.582  28.994  29.276  1.00  0.00     0.049 A 
ATOM     43  H   UNL A   1      40.285  30.358  30.684  1.00  0.00     0.167 HD
ATOM     44  C   UNL A   1      41.720  33.394  33.501  1.00  0.00     0.031 A 
ATOM     45  C   UNL A   1      40.504  28.018  29.176  1.00  0.00     0.031 A 
ATOM     46  C   UNL A   1      42.720  32.362  33.517  1.00  0.00     0.049 A 
ATOM     47  C   UNL A   1      41.747  28.099  30.019  1.00  0.00     0.074 A 
ATOM     48  C   UNL A   1      43.866  32.286  34.289  1.00  0.00     0.029 A 
ATOM     49  N   UNL A   1      42.689  31.225  32.726  1.00  0.00    -0.354 N 
ATOM     50  N   UNL A   1      42.098  29.015  30.888  1.00  0.00    -0.248 NA
ATOM     51  C   UNL A   1      42.716  27.003  29.873  1.00  0.00     0.031 C 
ATOM     52  C   UNL A   1      44.555  31.124  33.929  1.00  0.00     0.029 A 
ATOM     53  C   UNL A   1      43.808  30.449  32.977  1.00  0.00     0.049 A 
ATOM     54  H   UNL A   1      41.980  31.002  32.082  1.00  0.00     0.167 HD
ATOM     55  C   UNL A   1      43.311  28.588  31.416  1.00  0.00     0.074 A 
ATOM     56  C   UNL A   1      43.624  27.325  30.782  1.00  0.00     0.031 C 
ATOM     57  C   UNL A   1      44.096  29.190  32.342  1.00  0.00     0.031 A 
BRANCH  44  58
ATOM     58  C   UNL A   1      41.916  34.596  34.380  1.00  0.00    -0.014 A 
ATOM     59  C   UNL A   1      42.615  35.725  33.922  1.00  0.00     0.009 A 
ATOM     60  C   UNL A   1      41.361  34.621  35.669  1.00  0.00     0.009 A 
ATOM     61  C   UNL A   1      42.785  36.838  34.748  1.00  0.00     0.001 A 
ATOM     62  C   UNL A   1      41.503  35.748  36.481  1.00  0.00     0.001 A 
ATOM     63  C   UNL A   1      42.223  36.851  36.023  1.00  0.00     0.000 A 
ENDBRANCH  44  58
BRANCH  45  64
ATOM     64  C   UNL A   1      40.290  26.870  28.254  1.00  0.00    -0.014 A 
ATOM     65  C   UNL A   1      40.761  26.921  26.932  1.00  0.00     0.009 A 
ATOM     66  C   UNL A   1      39.589  25.731  28.677  1.00  0.00     0.009 A 
ATOM     67  C   UNL A   1      40.504  25.873  26.046  1.00  0.00     0.001 A 
ATOM     68  C   UNL A   1      39.361  24.669  27.798  1.00  0.00     0.001 A 
ATOM     69  C   UNL A   1      39.806  24.747  26.480  1.00  0.00     0.000 A 
ENDBRANCH  45  64
BRANCH  57  70
ATOM     70  C   UNL A   1      45.344  28.465  32.761  1.00  0.00    -0.014 A 
ATOM     71  C   UNL A   1      46.572  28.696  32.125  1.00  0.00     0.009 A 
ATOM     72  C   UNL A   1      45.293  27.569  33.842  1.00  0.00     0.009 A 
ATOM     73  C   UNL A   1      47.719  28.016  32.539  1.00  0.00     0.001 A 
ATOM     74  C   UNL A   1      46.448  26.917  34.275  1.00  0.00     0.001 A 
ATOM     75  C   UNL A   1      47.657  27.133  33.617  1.00  0.00     0.000 A 
ENDBRANCH  57  70
ENDBRANCH  31  32
ENDBRANCH  23  26
ENDBRANCH  21  22
ENDBRANCH  20  21
ENDBRANCH   1  20
TORSDOF 13
ENDMDL
MODEL 2
REMARK VINA RESULT:     -10.8      0.429      6.108
REMARK SMILES Cc1cc(N(C)[C@H](C)C(=O)NCCCNC(=O)c2ccc(-c3c4nc(c(-c5ccccc5)c5ccc([nH]5)c(-c5ccccc5)c5nc(c(-c6ccccc6)c6ccc3[nH]6)C=C5)C=C4)cc2)ncc1[N+](=O)[O-]
REMARK SMILES IDX 12 1 11 2 9 3 10 4 7 6 8 7 5 8 6 9 4 10 1 11 2 12 3 13 68 14
REMARK SMILES IDX 67 15 66 16 69 17 70 18 71 19 13 20 14 21 15 22 16 23 17 25
REMARK SMILES IDX 18 26 19 27 65 28 20 29 64 30 21 31 22 32 23 33 58 34 24 35
REMARK SMILES IDX 63 36 57 37 59 38 25 39 62 40 56 41 55 42 26 44 48 45 33 46
REMARK SMILES IDX 47 47 34 48 37 49 46 50 60 51 35 52 36 53 45 55 61 56 38 57
REMARK SMILES IDX 27 58 28 59 32 60 29 61 31 62 30 63 49 64 50 65 54 66 51 67
REMARK SMILES IDX 53 68 52 69 39 70 40 71 44 72 41 73 43 74 42 75
REMARK H PARENT 11 5 15 24 59 43 37 54
REMARK Flexibility Score: inf
ROOT
ATOM      1  C   UNL A   1      32.098  30.038  25.806  1.00  0.00     0.117 C 
ENDROOT
BRANCH   1   2
ATOM      2  N   UNL A   1      31.568  28.807  26.360  1.00  0.00    -0.354 N 
ATOM      3  C   UNL A   1      31.700  27.514  25.945  1.00  0.00     0.242 C 
ATOM      4  O   UNL A   1      31.297  26.654  26.738  1.00  0.00    -0.273 OA
ATOM      5  H   UNL A   1      31.020  28.923  27.169  1.00  0.00     0.163 HD
BRANCH   3   6
ATOM      6  C   UNL A   1      32.296  27.117  24.576  1.00  0.00     0.169 C 
ATOM      7  C   UNL A   1      33.438  26.107  24.717  1.00  0.00     0.042 C 
BRANCH   6   8
ATOM      8  N   UNL A   1      31.306  26.715  23.535  1.00  0.00    -0.348 N 
ATOM      9  C   UNL A   1      31.086  25.331  23.156  1.00  0.00     0.146 C 
BRANCH   8  10
ATOM     10  C   UNL A   1      30.405  27.681  23.096  1.00  0.00     0.129 A 
ATOM     11  C   UNL A   1      26.708  28.365  23.483  1.00  0.00     0.052 C 
ATOM     12  C   UNL A   1      28.126  28.611  23.054  1.00  0.00     0.032 A 
ATOM     13  C   UNL A   1      29.029  27.562  23.320  1.00  0.00     0.057 A 
ATOM     14  C   UNL A   1      28.651  29.760  22.459  1.00  0.00     0.290 A 
ATOM     15  C   UNL A   1      30.014  29.792  22.189  1.00  0.00     0.199 A 
ATOM     16  N   UNL A   1      30.875  28.786  22.488  1.00  0.00    -0.232 NA
BRANCH  14  17
ATOM     17  N   UNL A   1      27.872  30.937  22.088  1.00  0.00     0.064 N 
ATOM     18  O   UNL A   1      27.317  31.566  23.001  1.00  0.00    -0.258 OA
ATOM     19  O   UNL A   1      27.826  31.265  20.897  1.00  0.00    -0.258 OA
ENDBRANCH  14  17
ENDBRANCH   8  10
ENDBRANCH   6   8
ENDBRANCH   3   6
ENDBRANCH   1   2
BRANCH   1  20
ATOM     20  C   UNL A   1      31.710  31.257  26.617  1.00  0.00     0.042 C 
BRANCH  20  21
ATOM     21  C   UNL A   1      32.913  32.031  27.137  1.00  0.00     0.118 C 
BRANCH  21  22
ATOM     22  N   UNL A   1      32.593  33.403  27.521  1.00  0.00    -0.352 N 
ATOM     23  C   UNL A   1      33.189  34.243  28.433  1.00  0.00     0.251 C 
ATOM     24  H   UNL A   1      31.822  33.793  27.048  1.00  0.00     0.163 HD
ATOM     25  O   UNL A   1      32.648  35.293  28.745  1.00  0.00    -0.269 OA
BRANCH  23  26
ATOM     26  C   UNL A   1      34.472  33.855  29.057  1.00  0.00     0.039 A 
ATOM     27  C   UNL A   1      34.463  33.087  30.223  1.00  0.00     0.014 A 
ATOM     28  C   UNL A   1      35.684  34.232  28.478  1.00  0.00     0.014 A 
ATOM     29  C   UNL A   1      35.670  32.614  30.745  1.00  0.00     0.010 A 
ATOM     30  C   UNL A   1      36.866  33.659  28.920  1.00  0.00     0.010 A 
ATOM     31  C   UNL A   1      36.875  32.849  30.065  1.00  0.00    -0.014 A 
BRANCH  31  32
ATOM     32  C   UNL A   1      38.164  32.280  30.529  1.00  0.00     0.031 A 
ATOM     33  C   UNL A   1      38.667  30.987  29.940  1.00  0.00     0.074 A 
ATOM     34  C   UNL A   1      38.839  32.875  31.533  1.00  0.00     0.049 A 
ATOM     35  N   UNL A   1      39.711  30.276  30.281  1.00  0.00    -0.248 NA
ATOM     36  C   UNL A   1      37.871  30.397  28.850  1.00  0.00     0.031 C 
ATOM     37  C   UNL A   1      38.434  34.103  32.222  1.00  0.00     0.029 A 
ATOM     38  N   UNL A   1      40.010  32.519  32.155  1.00  0.00    -0.354 N 
ATOM     39  C   UNL A   1      39.681  29.151  29.466  1.00  0.00     0.074 A 
ATOM     40  C   UNL A   1      38.484  29.239  28.661  1.00  0.00     0.031 C 
ATOM     41  C   UNL A   1      39.359  34.417  33.143  1.00  0.00     0.029 A 
ATOM     42  C   UNL A   1      40.394  33.390  33.146  1.00  0.00     0.049 A 
ATOM     43  H   UNL A   1      40.524  31.716  31.915  1.00  0.00     0.167 HD
ATOM     44  C   UNL A   1      40.584  28.146  29.372  1.00  0.00     0.031 A 
ATOM     45  C   UNL A   1      41.459  33.359  33.970  1.00  0.00     0.031 A 
ATOM     46  C   UNL A   1      41.787  28.072  30.155  1.00  0.00     0.049 A 
ATOM     47  C   UNL A   1      42.440  32.225  33.853  1.00  0.00     0.074 A 
ATOM     48  C   UNL A   1      42.794  27.124  30.096  1.00  0.00     0.029 A 
ATOM     49  N   UNL A   1      42.145  28.983  31.135  1.00  0.00    -0.354 N 
ATOM     50  N   UNL A   1      42.430  31.205  33.031  1.00  0.00    -0.248 NA
ATOM     51  C   UNL A   1      43.586  32.247  34.773  1.00  0.00     0.031 C 
ATOM     52  C   UNL A   1      43.740  27.436  31.077  1.00  0.00     0.029 A 
ATOM     53  C   UNL A   1      43.351  28.609  31.704  1.00  0.00     0.049 A 
ATOM     54  H   UNL A   1      41.622  29.776  31.389  1.00  0.00     0.167 HD
ATOM     55  C   UNL A   1      43.583  30.483  33.311  1.00  0.00     0.074 A 
ATOM     56  C   UNL A   1      44.276  31.191  34.366  1.00  0.00     0.031 C 
ATOM     57  C   UNL A   1      44.028  29.334  32.746  1.00  0.00     0.031 A 
BRANCH  44  58
ATOM     58  C   UNL A   1      40.305  27.053  28.379  1.00  0.00    -0.014 A 
ATOM     59  C   UNL A   1      40.843  27.095  27.082  1.00  0.00     0.009 A 
ATOM     60  C   UNL A   1      39.528  25.946  28.755  1.00  0.00     0.009 A 
ATOM     61  C   UNL A   1      40.580  26.069  26.172  1.00  0.00     0.001 A 
ATOM     62  C   UNL A   1      39.295  24.906  27.853  1.00  0.00     0.001 A 
ATOM     63  C   UNL A   1      39.812  24.973  26.561  1.00  0.00     0.000 A 
ENDBRANCH  44  58
BRANCH  45  64
ATOM     64  C   UNL A   1      41.668  34.439  34.973  1.00  0.00    -0.014 A 
ATOM     65  C   UNL A   1      41.128  34.325  36.264  1.00  0.00     0.009 A 
ATOM     66  C   UNL A   1      42.382  35.600  34.639  1.00  0.00     0.009 A 
ATOM     67  C   UNL A   1      41.266  35.365  37.184  1.00  0.00     0.001 A 
ATOM     68  C   UNL A   1      42.547  36.626  35.572  1.00  0.00     0.001 A 
ATOM     69  C   UNL A   1      41.977  36.514  36.839  1.00  0.00     0.000 A 
ENDBRANCH  45  64
BRANCH  57  70
ATOM     70  C   UNL A   1      45.349  28.800  33.224  1.00  0.00    -0.014 A 
ATOM     71  C   UNL A   1      45.423  27.841  34.246  1.00  0.00     0.009 A 
ATOM     72  C   UNL A   1      46.534  29.233  32.608  1.00  0.00     0.009 A 
ATOM     73  C   UNL A   1      46.663  27.354  34.665  1.00  0.00     0.001 A 
ATOM     74  C   UNL A   1      47.768  28.719  33.006  1.00  0.00     0.001 A 
ATOM     75  C   UNL A   1      47.832  27.787  34.041  1.00  0.00     0.000 A 
ENDBRANCH  57  70
ENDBRANCH  31  32
ENDBRANCH  23  26
ENDBRANCH  21  22
ENDBRANCH  20  21
ENDBRANCH   1  20
TORSDOF 13
ENDMDL
MODEL 3
REMARK VINA RESULT:     -10.6      4.984      9.805
REMARK SMILES Cc1cc(N(C)[C@H](C)C(=O)NCCCNC(=O)c2ccc(-c3c4nc(c(-c5ccccc5)c5ccc([nH]5)c(-c5ccccc5)c5nc(c(-c6ccccc6)c6ccc3[nH]6)C=C5)C=C4)cc2)ncc1[N+](=O)[O-]
REMARK SMILES IDX 12 1 11 2 9 3 10 4 7 6 8 7 5 8 6 9 4 10 1 11 2 12 3 13 68 14
REMARK SMILES IDX 67 15 66 16 69 17 70 18 71 19 13 20 14 21 15 22 16 23 17 25
REMARK SMILES IDX 18 26 19 27 65 28 20 29 64 30 21 31 22 32 23 33 58 34 24 35
REMARK SMILES IDX 63 36 57 37 59 38 25 39 62 40 56 41 55 42 26 44 48 45 33 46
REMARK SMILES IDX 47 47 34 48 37 49 46 50 60 51 35 52 36 53 45 55 61 56 38 57
REMARK SMILES IDX 27 58 28 59 32 60 29 61 31 62 30 63 49 64 50 65 54 66 51 67
REMARK SMILES IDX 53 68 52 69 39 70 40 71 44 72 41 73 43 74 42 75
REMARK H PARENT 11 5 15 24 59 43 37 54
REMARK Flexibility Score: inf
ROOT
ATOM      1  C   UNL A   1      36.731  21.417  25.215  1.00  0.00     0.117 C 
ENDROOT
BRANCH   1   2
ATOM      2  N   UNL A   1      36.200  22.033  24.015  1.00  0.00    -0.354 N 
ATOM      3  C   UNL A   1      35.072  22.775  23.818  1.00  0.00     0.242 C 
ATOM      4  O   UNL A   1      34.987  23.337  22.718  1.00  0.00    -0.273 OA
ATOM      5  H   UNL A   1      36.743  21.891  23.206  1.00  0.00     0.163 HD
BRANCH   3   6
ATOM      6  C   UNL A   1      33.951  22.914  24.870  1.00  0.00     0.169 C 
ATOM      7  C   UNL A   1      33.755  24.366  25.315  1.00  0.00     0.042 C 
BRANCH   6   8
ATOM      8  N   UNL A   1      32.662  22.243  24.531  1.00  0.00    -0.348 N 
ATOM      9  C   UNL A   1      31.533  22.959  23.964  1.00  0.00     0.146 C 
BRANCH   8  10
ATOM     10  C   UNL A   1      32.638  20.852  24.538  1.00  0.00     0.129 A 
ATOM     11  C   UNL A   1      32.314  18.097  21.971  1.00  0.00     0.052 C 
ATOM     12  C   UNL A   1      32.519  18.713  23.325  1.00  0.00     0.032 A 
ATOM     13  C   UNL A   1      32.362  20.113  23.384  1.00  0.00     0.057 A 
ATOM     14  C   UNL A   1      32.875  18.069  24.511  1.00  0.00     0.290 A 
ATOM     15  C   UNL A   1      33.062  18.846  25.647  1.00  0.00     0.199 A 
ATOM     16  N   UNL A   1      32.944  20.198  25.675  1.00  0.00    -0.232 NA
BRANCH  14  17
ATOM     17  N   UNL A   1      33.059  16.627  24.654  1.00  0.00     0.064 N 
ATOM     18  O   UNL A   1      32.258  16.017  25.377  1.00  0.00    -0.258 OA
ATOM     19  O   UNL A   1      33.977  16.084  24.029  1.00  0.00    -0.258 OA
ENDBRANCH  14  17
ENDBRANCH   8  10
ENDBRANCH   6   8
ENDBRANCH   3   6
ENDBRANCH   1   2
BRANCH   1  20
ATOM     20  C   UNL A   1      37.945  20.555  24.941  1.00  0.00     0.042 C 
BRANCH  20  21
ATOM     21  C   UNL A   1      38.994  20.641  26.042  1.00  0.00     0.118 C 
BRANCH  21  22
ATOM     22  N   UNL A   1      40.047  19.637  25.914  1.00  0.00    -0.352 N 
ATOM     23  C   UNL A   1      41.412  19.747  26.041  1.00  0.00     0.251 C 
ATOM     24  H   UNL A   1      39.726  18.731  25.700  1.00  0.00     0.163 HD
ATOM     25  O   UNL A   1      42.135  18.821  25.705  1.00  0.00    -0.269 OA
BRANCH  23  26
ATOM     26  C   UNL A   1      42.002  21.001  26.556  1.00  0.00     0.039 A 
ATOM     27  C   UNL A   1      42.432  21.978  25.656  1.00  0.00     0.014 A 
ATOM     28  C   UNL A   1      42.110  21.220  27.929  1.00  0.00     0.014 A 
ATOM     29  C   UNL A   1      42.873  23.212  26.139  1.00  0.00     0.010 A 
ATOM     30  C   UNL A   1      42.425  22.484  28.402  1.00  0.00     0.010 A 
ATOM     31  C   UNL A   1      42.820  23.495  27.513  1.00  0.00    -0.014 A 
BRANCH  31  32
ATOM     32  C   UNL A   1      43.182  24.826  28.056  1.00  0.00     0.031 A 
ATOM     33  C   UNL A   1      42.106  25.851  28.308  1.00  0.00     0.074 A 
ATOM     34  C   UNL A   1      44.478  25.145  28.245  1.00  0.00     0.049 A 
ATOM     35  N   UNL A   1      42.225  27.099  28.681  1.00  0.00    -0.248 NA
ATOM     36  C   UNL A   1      40.715  25.427  28.075  1.00  0.00     0.031 C 
ATOM     37  C   UNL A   1      45.619  24.261  27.992  1.00  0.00     0.029 A 
ATOM     38  N   UNL A   1      45.056  26.309  28.687  1.00  0.00    -0.354 N 
ATOM     39  C   UNL A   1      40.934  27.610  28.703  1.00  0.00     0.074 A 
ATOM     40  C   UNL A   1      40.053  26.561  28.245  1.00  0.00     0.031 C 
ATOM     41  C   UNL A   1      46.754  24.901  28.319  1.00  0.00     0.029 A 
ATOM     42  C   UNL A   1      46.427  26.254  28.755  1.00  0.00     0.049 A 
ATOM     43  H   UNL A   1      44.537  27.108  28.932  1.00  0.00     0.167 HD
ATOM     44  C   UNL A   1      40.511  28.834  29.097  1.00  0.00     0.031 A 
ATOM     45  C   UNL A   1      47.322  27.191  29.121  1.00  0.00     0.031 A 
ATOM     46  C   UNL A   1      41.385  29.870  29.576  1.00  0.00     0.049 A 
ATOM     47  C   UNL A   1      46.826  28.547  29.544  1.00  0.00     0.074 A 
ATOM     48  C   UNL A   1      41.052  31.126  30.053  1.00  0.00     0.029 A 
ATOM     49  N   UNL A   1      42.765  29.765  29.645  1.00  0.00    -0.354 N 
ATOM     50  N   UNL A   1      45.595  28.990  29.621  1.00  0.00    -0.248 NA
ATOM     51  C   UNL A   1      47.846  29.528  29.939  1.00  0.00     0.031 C 
ATOM     52  C   UNL A   1      42.236  31.801  30.363  1.00  0.00     0.029 A 
ATOM     53  C   UNL A   1      43.301  30.943  30.137  1.00  0.00     0.049 A 
ATOM     54  H   UNL A   1      43.286  28.974  29.381  1.00  0.00     0.167 HD
ATOM     55  C   UNL A   1      45.692  30.288  30.106  1.00  0.00     0.074 A 
ATOM     56  C   UNL A   1      47.099  30.553  30.320  1.00  0.00     0.031 C 
ATOM     57  C   UNL A   1      44.703  31.183  30.351  1.00  0.00     0.031 A 
BRANCH  44  58
ATOM     58  C   UNL A   1      39.036  29.113  29.034  1.00  0.00    -0.014 A 
ATOM     59  C   UNL A   1      38.213  28.929  30.158  1.00  0.00     0.009 A 
ATOM     60  C   UNL A   1      38.465  29.605  27.850  1.00  0.00     0.009 A 
ATOM     61  C   UNL A   1      36.844  29.198  30.086  1.00  0.00     0.001 A 
ATOM     62  C   UNL A   1      37.103  29.905  27.791  1.00  0.00     0.001 A 
ATOM     63  C   UNL A   1      36.293  29.692  28.904  1.00  0.00     0.000 A 
ENDBRANCH  44  58
BRANCH  45  64
ATOM     64  C   UNL A   1      48.778  26.885  29.121  1.00  0.00    -0.014 A 
ATOM     65  C   UNL A   1      49.543  27.068  27.959  1.00  0.00     0.009 A 
ATOM     66  C   UNL A   1      49.406  26.381  30.271  1.00  0.00     0.009 A 
ATOM     67  C   UNL A   1      50.894  26.719  27.937  1.00  0.00     0.001 A 
ATOM     68  C   UNL A   1      50.766  26.063  30.256  1.00  0.00     0.001 A 
ATOM     69  C   UNL A   1      51.506  26.219  29.085  1.00  0.00     0.000 A 
ENDBRANCH  45  64
BRANCH  57  70
ATOM     70  C   UNL A   1      45.106  32.512  30.924  1.00  0.00    -0.014 A 
ATOM     71  C   UNL A   1      45.383  33.611  30.097  1.00  0.00     0.009 A 
ATOM     72  C   UNL A   1      45.163  32.676  32.318  1.00  0.00     0.009 A 
ATOM     73  C   UNL A   1      45.746  34.839  30.655  1.00  0.00     0.001 A 
ATOM     74  C   UNL A   1      45.493  33.912  32.872  1.00  0.00     0.001 A 
ATOM     75  C   UNL A   1      45.794  34.990  32.041  1.00  0.00     0.000 A 
ENDBRANCH  57  70
ENDBRANCH  31  32
ENDBRANCH  23  26
ENDBRANCH  21  22
ENDBRANCH  20  21
ENDBRANCH   1  20
TORSDOF 13
ENDMDL
