MODEL 1
REMARK VINA RESULT:     -12.8      0.000      0.000
REMARK SMILES Cc1nnc(SCC(=O)Nc2cccc(C(=O)NCCCNC(=O)c3ccc(-c4c5nc(c(-c6ccccc6)c6ccc([nH]6)c(-c6ccccc6)c6nc(c(-c7ccccc7)c7ccc4[nH]7)C=C6)C=C5)cc3)c2)n1-c1ccccc1
REMARK SMILES IDX 16 1 17 2 18 3 15 5 11 6 12 7 73 8 13 9 14 10 10 11 8 12
REMARK SMILES IDX 9 13 7 15 6 16 5 17 1 18 2 19 3 20 74 21 4 22 75 23 76 24
REMARK SMILES IDX 80 25 77 26 79 27 78 28 19 29 20 30 21 31 22 32 23 33 24 35
REMARK SMILES IDX 25 36 26 37 72 38 27 39 71 40 28 41 29 42 30 43 65 44 31 45
REMARK SMILES IDX 70 46 64 47 66 48 32 49 69 50 63 51 62 52 33 54 55 55 40 56
REMARK SMILES IDX 54 57 41 58 44 59 53 60 67 61 42 62 43 63 52 65 68 66 45 67
REMARK SMILES IDX 34 68 35 69 39 70 36 71 38 72 37 73 56 74 57 75 61 76 58 77
REMARK SMILES IDX 60 78 59 79 46 80 47 81 51 82 48 83 50 84 49 85
REMARK H PARENT 18 4 10 14 22 34 66 53 44 64
REMARK Flexibility Score: inf
ROOT
ATOM      1  C   UNL A   1      35.205  22.512  25.916  1.00  0.00     0.251 C 
ATOM      2  O   UNL A   1      34.722  22.822  27.007  1.00  0.00    -0.269 OA
ATOM      3  N   UNL A   1      36.566  22.374  25.878  1.00  0.00    -0.352 N 
ATOM      4  H   UNL A   1      36.995  22.535  26.749  1.00  0.00     0.163 HD
ENDROOT
BRANCH   1   5
ATOM      5  C   UNL A   1      34.285  22.309  24.755  1.00  0.00     0.041 A 
ATOM      6  C   UNL A   1      33.244  22.871  22.639  1.00  0.00     0.041 A 
ATOM      7  C   UNL A   1      32.381  21.782  22.752  1.00  0.00     0.026 A 
ATOM      8  C   UNL A   1      34.162  23.152  23.647  1.00  0.00     0.040 A 
ATOM      9  C   UNL A   1      32.500  20.917  23.830  1.00  0.00     0.003 A 
ATOM     10  C   UNL A   1      33.449  21.178  24.818  1.00  0.00     0.014 A 
BRANCH   6  11
ATOM     11  N   UNL A   1      33.096  23.673  21.510  1.00  0.00    -0.325 N 
ATOM     12  C   UNL A   1      32.894  25.011  21.383  1.00  0.00     0.234 C 
ATOM     13  O   UNL A   1      33.072  25.422  20.231  1.00  0.00    -0.274 OA
ATOM     14  H   UNL A   1      33.147  23.187  20.657  1.00  0.00     0.169 HD
BRANCH  12  15
ATOM     15  C   UNL A   1      32.767  25.970  22.542  1.00  0.00     0.178 C 
BRANCH  15  16
ATOM     16  S   UNL A   1      31.225  26.288  23.395  1.00  0.00    -0.076 SA
BRANCH  16  17
ATOM     17  C   UNL A   1      30.593  27.883  23.182  1.00  0.00     0.196 A 
ATOM     18  C   UNL A   1      29.679  31.268  24.156  1.00  0.00     0.090 C 
ATOM     19  C   UNL A   1      29.825  29.895  23.633  1.00  0.00     0.135 A 
ATOM     20  N   UNL A   1      29.043  29.355  22.725  1.00  0.00    -0.134 NA
ATOM     21  N   UNL A   1      30.800  28.983  23.988  1.00  0.00    -0.274 N 
ATOM     22  N   UNL A   1      29.499  28.093  22.492  1.00  0.00    -0.123 NA
BRANCH  21  23
ATOM     23  C   UNL A   1      31.700  29.048  25.050  1.00  0.00     0.049 A 
ATOM     24  C   UNL A   1      33.041  29.213  24.733  1.00  0.00     0.027 A 
ATOM     25  C   UNL A   1      31.291  28.560  26.291  1.00  0.00     0.027 A 
ATOM     26  C   UNL A   1      34.003  28.749  25.621  1.00  0.00     0.002 A 
ATOM     27  C   UNL A   1      32.264  28.142  27.192  1.00  0.00     0.002 A 
ATOM     28  C   UNL A   1      33.615  28.196  26.839  1.00  0.00     0.000 A 
ENDBRANCH  21  23
ENDBRANCH  16  17
ENDBRANCH  15  16
ENDBRANCH  12  15
ENDBRANCH   6  11
ENDBRANCH   1   5
BRANCH   3  29
ATOM     29  C   UNL A   1      37.511  22.044  24.830  1.00  0.00     0.118 C 
BRANCH  29  30
ATOM     30  C   UNL A   1      38.119  20.660  25.055  1.00  0.00     0.042 C 
BRANCH  30  31
ATOM     31  C   UNL A   1      39.254  20.646  26.072  1.00  0.00     0.118 C 
BRANCH  31  32
ATOM     32  N   UNL A   1      40.245  19.558  25.936  1.00  0.00    -0.352 N 
ATOM     33  C   UNL A   1      41.638  19.636  25.886  1.00  0.00     0.251 C 
ATOM     34  H   UNL A   1      39.869  18.650  25.872  1.00  0.00     0.163 HD
ATOM     35  O   UNL A   1      42.328  18.747  25.430  1.00  0.00    -0.269 OA
BRANCH  33  36
ATOM     36  C   UNL A   1      42.259  20.864  26.420  1.00  0.00     0.039 A 
ATOM     37  C   UNL A   1      42.593  21.967  25.628  1.00  0.00     0.014 A 
ATOM     38  C   UNL A   1      42.283  20.941  27.797  1.00  0.00     0.014 A 
ATOM     39  C   UNL A   1      42.826  23.186  26.266  1.00  0.00     0.010 A 
ATOM     40  C   UNL A   1      42.121  22.175  28.343  1.00  0.00     0.010 A 
ATOM     41  C   UNL A   1      42.541  23.285  27.637  1.00  0.00    -0.014 A 
BRANCH  41  42
ATOM     42  C   UNL A   1      42.535  24.533  28.386  1.00  0.00     0.031 A 
ATOM     43  C   UNL A   1      41.381  25.405  28.074  1.00  0.00     0.074 A 
ATOM     44  C   UNL A   1      43.348  24.741  29.451  1.00  0.00     0.049 A 
ATOM     45  N   UNL A   1      41.386  26.458  27.328  1.00  0.00    -0.248 NA
ATOM     46  C   UNL A   1      40.033  24.962  28.471  1.00  0.00     0.031 C 
ATOM     47  C   UNL A   1      44.293  23.800  30.083  1.00  0.00     0.029 A 
ATOM     48  N   UNL A   1      43.427  25.817  30.279  1.00  0.00    -0.354 N 
ATOM     49  C   UNL A   1      40.092  26.961  27.386  1.00  0.00     0.074 A 
ATOM     50  C   UNL A   1      39.270  25.889  27.883  1.00  0.00     0.031 C 
ATOM     51  C   UNL A   1      44.653  24.253  31.304  1.00  0.00     0.029 A 
ATOM     52  C   UNL A   1      44.141  25.597  31.456  1.00  0.00     0.049 A 
ATOM     53  H   UNL A   1      43.012  26.683  30.063  1.00  0.00     0.167 HD
ATOM     54  C   UNL A   1      39.877  28.306  27.350  1.00  0.00     0.031 A 
ATOM     55  C   UNL A   1      44.309  26.472  32.477  1.00  0.00     0.031 A 
ATOM     56  C   UNL A   1      41.092  29.006  26.996  1.00  0.00     0.049 A 
ATOM     57  C   UNL A   1      44.046  27.816  31.927  1.00  0.00     0.074 A 
ATOM     58  C   UNL A   1      41.916  29.076  25.895  1.00  0.00     0.029 A 
ATOM     59  N   UNL A   1      41.828  29.430  28.076  1.00  0.00    -0.354 N 
ATOM     60  N   UNL A   1      44.796  28.378  31.023  1.00  0.00    -0.248 NA
ATOM     61  C   UNL A   1      42.711  28.374  32.068  1.00  0.00     0.031 C 
ATOM     62  C   UNL A   1      43.237  29.218  26.421  1.00  0.00     0.029 A 
ATOM     63  C   UNL A   1      43.163  29.313  27.812  1.00  0.00     0.049 A 
ATOM     64  H   UNL A   1      41.447  29.770  28.919  1.00  0.00     0.167 HD
ATOM     65  C   UNL A   1      43.902  29.027  30.187  1.00  0.00     0.074 A 
ATOM     66  C   UNL A   1      42.668  29.124  30.964  1.00  0.00     0.031 C 
ATOM     67  C   UNL A   1      44.161  29.142  28.850  1.00  0.00     0.031 A 
BRANCH  54  68
ATOM     68  C   UNL A   1      38.791  29.011  28.137  1.00  0.00    -0.014 A 
ATOM     69  C   UNL A   1      38.706  28.760  29.520  1.00  0.00     0.009 A 
ATOM     70  C   UNL A   1      37.686  29.656  27.550  1.00  0.00     0.009 A 
ATOM     71  C   UNL A   1      37.550  29.060  30.252  1.00  0.00     0.001 A 
ATOM     72  C   UNL A   1      36.543  29.991  28.284  1.00  0.00     0.001 A 
ATOM     73  C   UNL A   1      36.465  29.668  29.630  1.00  0.00     0.000 A 
ENDBRANCH  54  68
BRANCH  55  74
ATOM     74  C   UNL A   1      44.428  26.238  33.934  1.00  0.00    -0.014 A 
ATOM     75  C   UNL A   1      43.301  25.885  34.696  1.00  0.00     0.009 A 
ATOM     76  C   UNL A   1      45.695  26.045  34.512  1.00  0.00     0.009 A 
ATOM     77  C   UNL A   1      43.439  25.304  35.965  1.00  0.00     0.001 A 
ATOM     78  C   UNL A   1      45.833  25.463  35.779  1.00  0.00     0.001 A 
ATOM     79  C   UNL A   1      44.706  25.074  36.497  1.00  0.00     0.000 A 
ENDBRANCH  55  74
BRANCH  67  80
ATOM     80  C   UNL A   1      45.579  28.896  28.391  1.00  0.00    -0.014 A 
ATOM     81  C   UNL A   1      46.067  27.646  27.975  1.00  0.00     0.009 A 
ATOM     82  C   UNL A   1      46.417  30.014  28.267  1.00  0.00     0.009 A 
ATOM     83  C   UNL A   1      47.367  27.521  27.467  1.00  0.00     0.001 A 
ATOM     84  C   UNL A   1      47.704  29.894  27.742  1.00  0.00     0.001 A 
ATOM     85  C   UNL A   1      48.181  28.647  27.347  1.00  0.00     0.000 A 
ENDBRANCH  67  80
ENDBRANCH  41  42
ENDBRANCH  33  36
ENDBRANCH  31  32
ENDBRANCH  30  31
ENDBRANCH  29  30
ENDBRANCH   3  29
TORSDOF 15
ENDMDL
MODEL 2
REMARK VINA RESULT:     -12.4      3.735      8.873
REMARK SMILES Cc1nnc(SCC(=O)Nc2cccc(C(=O)NCCCNC(=O)c3ccc(-c4c5nc(c(-c6ccccc6)c6ccc([nH]6)c(-c6ccccc6)c6nc(c(-c7ccccc7)c7ccc4[nH]7)C=C6)C=C5)cc3)c2)n1-c1ccccc1
REMARK SMILES IDX 16 1 17 2 18 3 15 5 11 6 12 7 73 8 13 9 14 10 10 11 8 12
REMARK SMILES IDX 9 13 7 15 6 16 5 17 1 18 2 19 3 20 74 21 4 22 75 23 76 24
REMARK SMILES IDX 80 25 77 26 79 27 78 28 19 29 20 30 21 31 22 32 23 33 24 35
REMARK SMILES IDX 25 36 26 37 72 38 27 39 71 40 28 41 29 42 30 43 65 44 31 45
REMARK SMILES IDX 70 46 64 47 66 48 32 49 69 50 63 51 62 52 33 54 55 55 40 56
REMARK SMILES IDX 54 57 41 58 44 59 53 60 67 61 42 62 43 63 52 65 68 66 45 67
REMARK SMILES IDX 34 68 35 69 39 70 36 71 38 72 37 73 56 74 57 75 61 76 58 77
REMARK SMILES IDX 60 78 59 79 46 80 47 81 51 82 48 83 50 84 49 85
REMARK H PARENT 18 4 10 14 22 34 66 53 44 64
REMARK Flexibility Score: inf
ROOT
ATOM      1  C   UNL A   1      32.076  28.436  27.076  1.00  0.00     0.251 C 
ATOM      2  O   UNL A   1      31.443  27.685  27.820  1.00  0.00    -0.269 OA
ATOM      3  N   UNL A   1      32.879  29.356  27.691  1.00  0.00    -0.352 N 
ATOM      4  H   UNL A   1      32.857  29.293  28.674  1.00  0.00     0.163 HD
ENDROOT
BRANCH   1   5
ATOM      5  C   UNL A   1      31.922  28.278  25.597  1.00  0.00     0.041 A 
ATOM      6  C   UNL A   1      32.352  27.288  23.426  1.00  0.00     0.041 A 
ATOM      7  C   UNL A   1      31.575  28.265  22.805  1.00  0.00     0.026 A 
ATOM      8  C   UNL A   1      32.553  27.315  24.804  1.00  0.00     0.040 A 
ATOM      9  C   UNL A   1      30.921  29.217  23.573  1.00  0.00     0.003 A 
ATOM     10  C   UNL A   1      31.089  29.216  24.957  1.00  0.00     0.014 A 
BRANCH   6  11
ATOM     11  N   UNL A   1      32.947  26.340  22.597  1.00  0.00    -0.325 N 
ATOM     12  C   UNL A   1      32.635  25.040  22.355  1.00  0.00     0.234 C 
ATOM     13  O   UNL A   1      33.212  24.577  21.367  1.00  0.00    -0.274 OA
ATOM     14  H   UNL A   1      33.728  26.670  22.098  1.00  0.00     0.169 HD
BRANCH  12  15
ATOM     15  C   UNL A   1      31.490  24.301  23.008  1.00  0.00     0.178 C 
BRANCH  15  16
ATOM     16  S   UNL A   1      31.486  23.811  24.729  1.00  0.00    -0.076 SA
BRANCH  16  17
ATOM     17  C   UNL A   1      32.126  22.235  25.037  1.00  0.00     0.196 A 
ATOM     18  C   UNL A   1      34.599  19.566  24.967  1.00  0.00     0.090 C 
ATOM     19  C   UNL A   1      33.425  20.462  24.944  1.00  0.00     0.135 A 
ATOM     20  N   UNL A   1      32.176  20.054  24.896  1.00  0.00    -0.134 NA
ATOM     21  N   UNL A   1      33.448  21.842  24.989  1.00  0.00    -0.274 N 
ATOM     22  N   UNL A   1      31.385  21.162  24.905  1.00  0.00    -0.123 NA
BRANCH  21  23
ATOM     23  C   UNL A   1      34.539  22.695  24.837  1.00  0.00     0.049 A 
ATOM     24  C   UNL A   1      35.154  22.720  23.593  1.00  0.00     0.027 A 
ATOM     25  C   UNL A   1      35.185  23.149  25.987  1.00  0.00     0.027 A 
ATOM     26  C   UNL A   1      36.495  23.075  23.513  1.00  0.00     0.002 A 
ATOM     27  C   UNL A   1      36.513  23.548  25.887  1.00  0.00     0.002 A 
ATOM     28  C   UNL A   1      37.178  23.468  24.661  1.00  0.00     0.000 A 
ENDBRANCH  21  23
ENDBRANCH  16  17
ENDBRANCH  15  16
ENDBRANCH  12  15
ENDBRANCH   6  11
ENDBRANCH   1   5
BRANCH   3  29
ATOM     29  C   UNL A   1      33.756  30.405  27.208  1.00  0.00     0.118 C 
BRANCH  29  30
ATOM     30  C   UNL A   1      33.693  31.633  28.114  1.00  0.00     0.042 C 
BRANCH  30  31
ATOM     31  C   UNL A   1      33.532  32.947  27.358  1.00  0.00     0.118 C 
BRANCH  31  32
ATOM     32  N   UNL A   1      32.937  34.071  28.110  1.00  0.00    -0.352 N 
ATOM     33  C   UNL A   1      33.263  34.553  29.378  1.00  0.00     0.251 C 
ATOM     34  H   UNL A   1      32.207  34.547  27.651  1.00  0.00     0.163 HD
ATOM     35  O   UNL A   1      32.503  35.234  30.037  1.00  0.00    -0.269 OA
BRANCH  33  36
ATOM     36  C   UNL A   1      34.596  34.201  29.905  1.00  0.00     0.039 A 
ATOM     37  C   UNL A   1      34.795  33.331  30.983  1.00  0.00     0.014 A 
ATOM     38  C   UNL A   1      35.651  34.614  29.118  1.00  0.00     0.014 A 
ATOM     39  C   UNL A   1      36.069  32.789  31.161  1.00  0.00     0.010 A 
ATOM     40  C   UNL A   1      36.733  33.793  29.068  1.00  0.00     0.010 A 
ATOM     41  C   UNL A   1      37.028  32.998  30.158  1.00  0.00    -0.014 A 
BRANCH  41  42
ATOM     42  C   UNL A   1      38.319  32.329  30.105  1.00  0.00     0.031 A 
ATOM     43  C   UNL A   1      38.238  30.923  29.649  1.00  0.00     0.074 A 
ATOM     44  C   UNL A   1      39.490  33.007  30.196  1.00  0.00     0.049 A 
ATOM     45  N   UNL A   1      38.305  29.866  30.386  1.00  0.00    -0.248 NA
ATOM     46  C   UNL A   1      37.849  30.653  28.254  1.00  0.00     0.031 C 
ATOM     47  C   UNL A   1      39.703  34.464  30.289  1.00  0.00     0.029 A 
ATOM     48  N   UNL A   1      40.765  32.542  30.112  1.00  0.00    -0.354 N 
ATOM     49  C   UNL A   1      38.238  28.794  29.505  1.00  0.00     0.074 A 
ATOM     50  C   UNL A   1      37.718  29.324  28.272  1.00  0.00     0.031 C 
ATOM     51  C   UNL A   1      40.991  34.765  30.016  1.00  0.00     0.029 A 
ATOM     52  C   UNL A   1      41.736  33.527  29.936  1.00  0.00     0.049 A 
ATOM     53  H   UNL A   1      40.985  31.584  30.172  1.00  0.00     0.167 HD
ATOM     54  C   UNL A   1      38.936  27.652  29.760  1.00  0.00     0.031 A 
ATOM     55  C   UNL A   1      43.064  33.332  29.753  1.00  0.00     0.031 A 
ATOM     56  C   UNL A   1      39.468  27.670  31.105  1.00  0.00     0.049 A 
ATOM     57  C   UNL A   1      43.364  31.978  30.260  1.00  0.00     0.074 A 
ATOM     58  C   UNL A   1      38.948  27.676  32.381  1.00  0.00     0.029 A 
ATOM     59  N   UNL A   1      40.752  28.149  31.192  1.00  0.00    -0.354 N 
ATOM     60  N   UNL A   1      43.259  31.645  31.514  1.00  0.00    -0.248 NA
ATOM     61  C   UNL A   1      43.378  30.872  29.317  1.00  0.00     0.031 C 
ATOM     62  C   UNL A   1      39.839  28.490  33.147  1.00  0.00     0.029 A 
ATOM     63  C   UNL A   1      40.907  28.880  32.336  1.00  0.00     0.049 A 
ATOM     64  H   UNL A   1      41.460  27.988  30.527  1.00  0.00     0.167 HD
ATOM     65  C   UNL A   1      42.737  30.361  31.487  1.00  0.00     0.074 A 
ATOM     66  C   UNL A   1      42.986  29.886  30.127  1.00  0.00     0.031 C 
ATOM     67  C   UNL A   1      41.893  29.935  32.473  1.00  0.00     0.031 A 
BRANCH  54  68
ATOM     68  C   UNL A   1      39.597  26.806  28.690  1.00  0.00    -0.014 A 
ATOM     69  C   UNL A   1      40.418  27.454  27.747  1.00  0.00     0.009 A 
ATOM     70  C   UNL A   1      39.218  25.485  28.386  1.00  0.00     0.009 A 
ATOM     71  C   UNL A   1      40.768  26.844  26.536  1.00  0.00     0.001 A 
ATOM     72  C   UNL A   1      39.595  24.858  27.194  1.00  0.00     0.001 A 
ATOM     73  C   UNL A   1      40.347  25.549  26.256  1.00  0.00     0.000 A 
ENDBRANCH  54  68
BRANCH  55  74
ATOM     74  C   UNL A   1      44.048  34.099  28.957  1.00  0.00    -0.014 A 
ATOM     75  C   UNL A   1      43.951  34.149  27.555  1.00  0.00     0.009 A 
ATOM     76  C   UNL A   1      44.880  35.040  29.589  1.00  0.00     0.009 A 
ATOM     77  C   UNL A   1      44.615  35.141  26.820  1.00  0.00     0.001 A 
ATOM     78  C   UNL A   1      45.542  36.032  28.853  1.00  0.00     0.001 A 
ATOM     79  C   UNL A   1      45.394  36.095  27.471  1.00  0.00     0.000 A 
ENDBRANCH  55  74
BRANCH  67  80
ATOM     80  C   UNL A   1      41.851  30.738  33.751  1.00  0.00    -0.014 A 
ATOM     81  C   UNL A   1      40.990  31.826  33.972  1.00  0.00     0.009 A 
ATOM     82  C   UNL A   1      42.643  30.288  34.817  1.00  0.00     0.009 A 
ATOM     83  C   UNL A   1      40.942  32.455  35.222  1.00  0.00     0.001 A 
ATOM     84  C   UNL A   1      42.580  30.901  36.069  1.00  0.00     0.001 A 
ATOM     85  C   UNL A   1      41.734  31.988  36.271  1.00  0.00     0.000 A 
ENDBRANCH  67  80
ENDBRANCH  41  42
ENDBRANCH  33  36
ENDBRANCH  31  32
ENDBRANCH  30  31
ENDBRANCH  29  30
ENDBRANCH   3  29
TORSDOF 15
ENDMDL
MODEL 3
REMARK VINA RESULT:     -12.4      4.337      9.180
REMARK SMILES Cc1nnc(SCC(=O)Nc2cccc(C(=O)NCCCNC(=O)c3ccc(-c4c5nc(c(-c6ccccc6)c6ccc([nH]6)c(-c6ccccc6)c6nc(c(-c7ccccc7)c7ccc4[nH]7)C=C6)C=C5)cc3)c2)n1-c1ccccc1
REMARK SMILES IDX 16 1 17 2 18 3 15 5 11 6 12 7 73 8 13 9 14 10 10 11 8 12
REMARK SMILES IDX 9 13 7 15 6 16 5 17 1 18 2 19 3 20 74 21 4 22 75 23 76 24
REMARK SMILES IDX 80 25 77 26 79 27 78 28 19 29 20 30 21 31 22 32 23 33 24 35
REMARK SMILES IDX 25 36 26 37 72 38 27 39 71 40 28 41 29 42 30 43 65 44 31 45
REMARK SMILES IDX 70 46 64 47 66 48 32 49 69 50 63 51 62 52 33 54 55 55 40 56
REMARK SMILES IDX 54 57 41 58 44 59 53 60 67 61 42 62 43 63 52 65 68 66 45 67
REMARK SMILES IDX 34 68 35 69 39 70 36 71 38 72 37 73 56 74 57 75 61 76 58 77
REMARK SMILES IDX 60 78 59 79 46 80 47 81 51 82 48 83 50 84 49 85
REMARK H PARENT 18 4 10 14 22 34 66 53 44 64
REMARK Flexibility Score: inf
ROOT
ATOM      1  C   UNL A   1      37.849  29.099  32.314  1.00  0.00     0.251 C 
ATOM      2  O   UNL A   1      37.582  28.054  32.911  1.00  0.00    -0.269 OA
ATOM      3  N   UNL A   1      38.539  30.040  33.028  1.00  0.00    -0.352 N 
ATOM      4  H   UNL A   1      38.748  29.752  33.946  1.00  0.00     0.163 HD
ENDROOT
BRANCH   1   5
ATOM      5  C   UNL A   1      37.414  29.245  30.891  1.00  0.00     0.041 A 
ATOM      6  C   UNL A   1      35.912  29.875  29.096  1.00  0.00     0.041 A 
ATOM      7  C   UNL A   1      36.756  29.285  28.156  1.00  0.00     0.026 A 
ATOM      8  C   UNL A   1      36.220  29.824  30.453  1.00  0.00     0.040 A 
ATOM      9  C   UNL A   1      37.958  28.725  28.564  1.00  0.00     0.003 A 
ATOM     10  C   UNL A   1      38.284  28.713  29.920  1.00  0.00     0.014 A 
BRANCH   6  11
ATOM     11  N   UNL A   1      34.742  30.454  28.610  1.00  0.00    -0.325 N 
ATOM     12  C   UNL A   1      34.499  31.690  28.100  1.00  0.00     0.234 C 
ATOM     13  O   UNL A   1      33.410  31.772  27.524  1.00  0.00    -0.274 OA
ATOM     14  H   UNL A   1      33.955  29.864  28.640  1.00  0.00     0.169 HD
BRANCH  12  15
ATOM     15  C   UNL A   1      35.539  32.775  27.962  1.00  0.00     0.178 C 
BRANCH  15  16
ATOM     16  S   UNL A   1      35.928  33.941  29.263  1.00  0.00    -0.076 SA
BRANCH  16  17
ATOM     17  C   UNL A   1      34.609  34.941  29.761  1.00  0.00     0.196 A 
ATOM     18  C   UNL A   1      31.883  36.046  31.904  1.00  0.00     0.090 C 
ATOM     19  C   UNL A   1      32.828  35.652  30.840  1.00  0.00     0.135 A 
ATOM     20  N   UNL A   1      32.641  35.871  29.558  1.00  0.00    -0.134 NA
ATOM     21  N   UNL A   1      34.044  35.022  31.017  1.00  0.00    -0.274 N 
ATOM     22  N   UNL A   1      33.727  35.382  28.898  1.00  0.00    -0.123 NA
BRANCH  21  23
ATOM     23  C   UNL A   1      34.547  34.420  32.169  1.00  0.00     0.049 A 
ATOM     24  C   UNL A   1      35.331  35.207  33.002  1.00  0.00     0.027 A 
ATOM     25  C   UNL A   1      34.585  33.028  32.222  1.00  0.00     0.027 A 
ATOM     26  C   UNL A   1      36.278  34.592  33.812  1.00  0.00     0.002 A 
ATOM     27  C   UNL A   1      35.504  32.421  33.071  1.00  0.00     0.002 A 
ATOM     28  C   UNL A   1      36.378  33.203  33.831  1.00  0.00     0.000 A 
ENDBRANCH  21  23
ENDBRANCH  16  17
ENDBRANCH  15  16
ENDBRANCH  12  15
ENDBRANCH   6  11
ENDBRANCH   1   5
BRANCH   3  29
ATOM     29  C   UNL A   1      39.028  31.370  32.724  1.00  0.00     0.118 C 
BRANCH  29  30
ATOM     30  C   UNL A   1      40.106  31.799  33.719  1.00  0.00     0.042 C 
BRANCH  30  31
ATOM     31  C   UNL A   1      41.254  32.576  33.085  1.00  0.00     0.118 C 
BRANCH  31  32
ATOM     32  N   UNL A   1      40.884  33.590  32.076  1.00  0.00    -0.352 N 
ATOM     33  C   UNL A   1      41.258  33.675  30.734  1.00  0.00     0.251 C 
ATOM     34  H   UNL A   1      40.290  34.308  32.396  1.00  0.00     0.163 HD
ATOM     35  O   UNL A   1      41.193  34.709  30.099  1.00  0.00    -0.269 OA
BRANCH  33  36
ATOM     36  C   UNL A   1      41.746  32.437  30.096  1.00  0.00     0.039 A 
ATOM     37  C   UNL A   1      43.103  32.129  29.946  1.00  0.00     0.014 A 
ATOM     38  C   UNL A   1      40.770  31.493  29.856  1.00  0.00     0.014 A 
ATOM     39  C   UNL A   1      43.448  30.805  29.673  1.00  0.00     0.010 A 
ATOM     40  C   UNL A   1      41.134  30.190  29.989  1.00  0.00     0.010 A 
ATOM     41  C   UNL A   1      42.444  29.827  29.741  1.00  0.00    -0.014 A 
BRANCH  41  42
ATOM     42  C   UNL A   1      42.688  28.394  29.688  1.00  0.00     0.031 A 
ATOM     43  C   UNL A   1      43.299  27.851  30.922  1.00  0.00     0.074 A 
ATOM     44  C   UNL A   1      42.157  27.604  28.721  1.00  0.00     0.049 A 
ATOM     45  N   UNL A   1      44.536  27.530  31.095  1.00  0.00    -0.248 NA
ATOM     46  C   UNL A   1      42.501  27.842  32.160  1.00  0.00     0.031 C 
ATOM     47  C   UNL A   1      41.229  27.979  27.637  1.00  0.00     0.029 A 
ATOM     48  N   UNL A   1      42.246  26.257  28.562  1.00  0.00    -0.354 N 
ATOM     49  C   UNL A   1      44.610  27.021  32.386  1.00  0.00     0.074 A 
ATOM     50  C   UNL A   1      43.416  27.461  33.057  1.00  0.00     0.031 C 
ATOM     51  C   UNL A   1      40.666  26.872  27.103  1.00  0.00     0.029 A 
ATOM     52  C   UNL A   1      41.339  25.715  27.653  1.00  0.00     0.049 A 
ATOM     53  H   UNL A   1      42.899  25.707  29.051  1.00  0.00     0.167 HD
ATOM     54  C   UNL A   1      45.471  26.005  32.674  1.00  0.00     0.031 A 
ATOM     55  C   UNL A   1      41.167  24.403  27.363  1.00  0.00     0.031 A 
ATOM     56  C   UNL A   1      46.382  25.781  31.573  1.00  0.00     0.049 A 
ATOM     57  C   UNL A   1      42.404  23.715  27.784  1.00  0.00     0.074 A 
ATOM     58  C   UNL A   1      47.381  26.493  30.948  1.00  0.00     0.029 A 
ATOM     59  N   UNL A   1      45.966  24.813  30.692  1.00  0.00    -0.354 N 
ATOM     60  N   UNL A   1      43.562  23.919  27.224  1.00  0.00    -0.248 NA
ATOM     61  C   UNL A   1      42.445  23.108  29.104  1.00  0.00     0.031 C 
ATOM     62  C   UNL A   1      47.292  26.136  29.567  1.00  0.00     0.029 A 
ATOM     63  C   UNL A   1      46.302  25.163  29.414  1.00  0.00     0.049 A 
ATOM     64  H   UNL A   1      45.495  23.986  30.945  1.00  0.00     0.167 HD
ATOM     65  C   UNL A   1      44.462  23.902  28.278  1.00  0.00     0.074 A 
ATOM     66  C   UNL A   1      43.747  23.243  29.369  1.00  0.00     0.031 C 
ATOM     67  C   UNL A   1      45.576  24.692  28.250  1.00  0.00     0.031 A 
BRANCH  54  68
ATOM     68  C   UNL A   1      45.164  24.886  33.650  1.00  0.00    -0.014 A 
ATOM     69  C   UNL A   1      46.127  24.583  34.633  1.00  0.00     0.009 A 
ATOM     70  C   UNL A   1      44.140  23.939  33.466  1.00  0.00     0.009 A 
ATOM     71  C   UNL A   1      46.108  23.367  35.328  1.00  0.00     0.001 A 
ATOM     72  C   UNL A   1      44.097  22.739  34.183  1.00  0.00     0.001 A 
ATOM     73  C   UNL A   1      45.097  22.441  35.095  1.00  0.00     0.000 A 
ENDBRANCH  54  68
BRANCH  55  74
ATOM     74  C   UNL A   1      39.948  23.651  26.992  1.00  0.00    -0.014 A 
ATOM     75  C   UNL A   1      38.739  24.325  26.746  1.00  0.00     0.009 A 
ATOM     76  C   UNL A   1      40.050  22.315  26.565  1.00  0.00     0.009 A 
ATOM     77  C   UNL A   1      37.695  23.704  26.045  1.00  0.00     0.001 A 
ATOM     78  C   UNL A   1      39.007  21.696  25.864  1.00  0.00     0.001 A 
ATOM     79  C   UNL A   1      37.838  22.397  25.586  1.00  0.00     0.000 A 
ENDBRANCH  55  74
BRANCH  67  80
ATOM     80  C   UNL A   1      45.987  25.272  26.918  1.00  0.00    -0.014 A 
ATOM     81  C   UNL A   1      45.501  26.485  26.401  1.00  0.00     0.009 A 
ATOM     82  C   UNL A   1      47.002  24.608  26.214  1.00  0.00     0.009 A 
ATOM     83  C   UNL A   1      46.009  27.005  25.203  1.00  0.00     0.001 A 
ATOM     84  C   UNL A   1      47.523  25.135  25.032  1.00  0.00     0.001 A 
ATOM     85  C   UNL A   1      47.023  26.331  24.523  1.00  0.00     0.000 A 
ENDBRANCH  67  80
ENDBRANCH  41  42
ENDBRANCH  33  36
ENDBRANCH  31  32
ENDBRANCH  30  31
ENDBRANCH  29  30
ENDBRANCH   3  29
TORSDOF 15
ENDMDL
