MODEL 1
REMARK VINA RESULT:     -12.5      0.000      0.000
REMARK SMILES CCn1c(CC2CC[NH+](Cc3cn[nH]c3C(=O)NCCCNC(=O)c3ccc(-c4c5nc(c(-c6ccccc6)c6ccc([nH]6)c(-c6ccccc6)c6nc(c(-c7ccccc7)c7ccc4[nH]7)C=C6)C=C5)cc3)CC2)nn(C)c1=O
REMARK SMILES IDX 16 1 17 2 18 3 15 5 11 6 12 7 13 8 14 9 10 11 9 12 6 13 7 14
REMARK SMILES IDX 74 15 8 16 73 17 5 19 4 20 3 21 78 22 75 23 76 24 79 25
REMARK SMILES IDX 77 26 2 27 1 28 19 29 20 30 21 31 22 32 23 33 24 35 25 36
REMARK SMILES IDX 26 37 72 38 27 39 71 40 28 41 29 42 30 43 65 44 31 45 70 46
REMARK SMILES IDX 64 47 66 48 32 49 69 50 63 51 62 52 33 54 55 55 40 56 54 57
REMARK SMILES IDX 41 58 44 59 53 60 67 61 42 62 43 63 52 65 68 66 45 67 34 68
REMARK SMILES IDX 35 69 39 70 36 71 38 72 37 73 56 74 57 75 61 76 58 77 60 78
REMARK SMILES IDX 59 79 46 80 47 81 51 82 48 83 50 84 49 85
REMARK H PARENT 18 4 14 10 9 18 22 34 66 53 44 64
REMARK Flexibility Score: inf
ROOT
ATOM      1  C   UNL A   1      33.145  28.980  23.142  1.00  0.00     0.269 C 
ATOM      2  O   UNL A   1      34.067  28.834  22.337  1.00  0.00    -0.268 OA
ATOM      3  N   UNL A   1      33.486  29.497  24.364  1.00  0.00    -0.351 N 
ATOM      4  H   UNL A   1      34.431  29.757  24.457  1.00  0.00     0.163 HD
ENDROOT
BRANCH   1   5
ATOM      5  C   UNL A   1      31.771  28.775  22.749  1.00  0.00     0.131 A 
ATOM      6  C   UNL A   1      30.723  27.870  22.950  1.00  0.00     0.057 A 
ATOM      7  C   UNL A   1      29.600  28.552  22.420  1.00  0.00     0.145 A 
ATOM      8  N   UNL A   1      29.905  29.690  21.814  1.00  0.00    -0.183 NA
ATOM      9  N   UNL A   1      31.241  29.713  21.886  1.00  0.00    -0.272 N 
ATOM     10  H   UNL A   1      31.795  30.342  21.369  1.00  0.00     0.190 HD
BRANCH   6  11
ATOM     11  C   UNL A   1      30.546  26.567  23.658  1.00  0.00     0.303 C 
BRANCH  11  12
ATOM     12  N   UNL A   1      31.542  26.172  24.673  1.00  0.00    -0.331 N 
ATOM     13  C   UNL A   1      33.250  24.228  26.135  1.00  0.00     0.008 C 
ATOM     14  C   UNL A   1      31.882  24.650  26.668  1.00  0.00     0.065 C 
ATOM     15  C   UNL A   1      33.820  25.396  25.339  1.00  0.00     0.065 C 
ATOM     16  C   UNL A   1      30.946  25.199  25.596  1.00  0.00     0.262 C 
ATOM     17  C   UNL A   1      32.889  25.843  24.214  1.00  0.00     0.262 C 
ATOM     18  H   UNL A   1      31.762  27.025  25.186  1.00  0.00     0.348 HD
BRANCH  13  19
ATOM     19  C   UNL A   1      33.302  22.850  25.439  1.00  0.00     0.081 C 
BRANCH  19  20
ATOM     20  C   UNL A   1      34.582  22.041  25.381  1.00  0.00     0.133 A 
ATOM     21  N   UNL A   1      34.673  20.725  25.094  1.00  0.00    -0.279 N 
ATOM     22  C   UNL A   1      36.030  20.443  25.100  1.00  0.00     0.345 A 
ATOM     23  N   UNL A   1      35.732  22.638  25.550  1.00  0.00    -0.155 NA
ATOM     24  N   UNL A   1      36.659  21.647  25.387  1.00  0.00    -0.216 N 
ATOM     25  O   UNL A   1      36.549  19.355  24.895  1.00  0.00    -0.246 OA
ATOM     26  C   UNL A   1      38.075  21.862  25.529  1.00  0.00     0.179 C 
BRANCH  21  27
ATOM     27  C   UNL A   1      33.734  19.619  24.936  1.00  0.00     0.125 C 
ATOM     28  C   UNL A   1      32.721  19.701  23.817  1.00  0.00     0.028 C 
ENDBRANCH  21  27
ENDBRANCH  19  20
ENDBRANCH  13  19
ENDBRANCH  11  12
ENDBRANCH   6  11
ENDBRANCH   1   5
BRANCH   3  29
ATOM     29  C   UNL A   1      32.673  29.718  25.543  1.00  0.00     0.118 C 
BRANCH  29  30
ATOM     30  C   UNL A   1      33.130  28.792  26.670  1.00  0.00     0.042 C 
BRANCH  30  31
ATOM     31  C   UNL A   1      34.112  29.386  27.630  1.00  0.00     0.118 C 
BRANCH  31  32
ATOM     32  N   UNL A   1      34.053  30.845  27.567  1.00  0.00    -0.352 N 
ATOM     33  C   UNL A   1      35.002  31.760  27.981  1.00  0.00     0.251 C 
ATOM     34  H   UNL A   1      33.232  31.224  27.180  1.00  0.00     0.163 HD
ATOM     35  O   UNL A   1      34.710  32.908  28.240  1.00  0.00    -0.269 OA
BRANCH  33  36
ATOM     36  C   UNL A   1      36.381  31.264  28.104  1.00  0.00     0.039 A 
ATOM     37  C   UNL A   1      37.306  31.864  28.953  1.00  0.00     0.014 A 
ATOM     38  C   UNL A   1      36.650  30.058  27.473  1.00  0.00     0.014 A 
ATOM     39  C   UNL A   1      38.480  31.171  29.214  1.00  0.00     0.010 A 
ATOM     40  C   UNL A   1      37.608  29.256  28.012  1.00  0.00     0.010 A 
ATOM     41  C   UNL A   1      38.602  29.841  28.765  1.00  0.00    -0.014 A 
BRANCH  41  42
ATOM     42  C   UNL A   1      39.724  28.996  29.125  1.00  0.00     0.031 A 
ATOM     43  C   UNL A   1      39.847  28.762  30.576  1.00  0.00     0.074 A 
ATOM     44  C   UNL A   1      40.528  28.373  28.236  1.00  0.00     0.049 A 
ATOM     45  N   UNL A   1      40.598  29.431  31.380  1.00  0.00    -0.248 NA
ATOM     46  C   UNL A   1      38.905  27.852  31.240  1.00  0.00     0.031 C 
ATOM     47  C   UNL A   1      40.402  28.236  26.778  1.00  0.00     0.029 A 
ATOM     48  N   UNL A   1      41.652  27.659  28.497  1.00  0.00    -0.354 N 
ATOM     49  C   UNL A   1      40.404  28.872  32.630  1.00  0.00     0.074 A 
ATOM     50  C   UNL A   1      39.216  28.059  32.522  1.00  0.00     0.031 C 
ATOM     51  C   UNL A   1      41.287  27.320  26.322  1.00  0.00     0.029 A 
ATOM     52  C   UNL A   1      42.169  26.961  27.414  1.00  0.00     0.049 A 
ATOM     53  H   UNL A   1      42.070  27.639  29.388  1.00  0.00     0.167 HD
ATOM     54  C   UNL A   1      41.399  28.914  33.557  1.00  0.00     0.031 A 
ATOM     55  C   UNL A   1      43.268  26.167  27.421  1.00  0.00     0.031 A 
ATOM     56  C   UNL A   1      42.439  29.842  33.168  1.00  0.00     0.049 A 
ATOM     57  C   UNL A   1      44.099  26.596  28.570  1.00  0.00     0.074 A 
ATOM     58  C   UNL A   1      42.473  31.196  32.891  1.00  0.00     0.029 A 
ATOM     59  N   UNL A   1      43.556  29.308  32.566  1.00  0.00    -0.354 N 
ATOM     60  N   UNL A   1      44.687  27.757  28.624  1.00  0.00    -0.248 NA
ATOM     61  C   UNL A   1      43.884  25.944  29.850  1.00  0.00     0.031 C 
ATOM     62  C   UNL A   1      43.318  31.316  31.747  1.00  0.00     0.029 A 
ATOM     63  C   UNL A   1      43.830  30.052  31.444  1.00  0.00     0.049 A 
ATOM     64  H   UNL A   1      44.067  28.529  32.883  1.00  0.00     0.167 HD
ATOM     65  C   UNL A   1      44.501  28.184  29.931  1.00  0.00     0.074 A 
ATOM     66  C   UNL A   1      44.091  26.985  30.662  1.00  0.00     0.031 C 
ATOM     67  C   UNL A   1      44.420  29.514  30.236  1.00  0.00     0.031 A 
BRANCH  54  68
ATOM     68  C   UNL A   1      41.640  27.812  34.553  1.00  0.00    -0.014 A 
ATOM     69  C   UNL A   1      41.762  28.151  35.911  1.00  0.00     0.009 A 
ATOM     70  C   UNL A   1      42.021  26.507  34.188  1.00  0.00     0.009 A 
ATOM     71  C   UNL A   1      42.308  27.254  36.836  1.00  0.00     0.001 A 
ATOM     72  C   UNL A   1      42.528  25.596  35.115  1.00  0.00     0.001 A 
ATOM     73  C   UNL A   1      42.699  25.980  36.436  1.00  0.00     0.000 A 
ENDBRANCH  54  68
BRANCH  55  74
ATOM     74  C   UNL A   1      43.513  24.903  26.698  1.00  0.00    -0.014 A 
ATOM     75  C   UNL A   1      42.802  23.739  27.031  1.00  0.00     0.009 A 
ATOM     76  C   UNL A   1      44.214  24.917  25.479  1.00  0.00     0.009 A 
ATOM     77  C   UNL A   1      42.748  22.651  26.150  1.00  0.00     0.001 A 
ATOM     78  C   UNL A   1      44.160  23.831  24.599  1.00  0.00     0.001 A 
ATOM     79  C   UNL A   1      43.411  22.705  24.926  1.00  0.00     0.000 A 
ENDBRANCH  55  74
BRANCH  67  80
ATOM     80  C   UNL A   1      44.767  30.508  29.147  1.00  0.00    -0.014 A 
ATOM     81  C   UNL A   1      46.040  31.090  28.998  1.00  0.00     0.009 A 
ATOM     82  C   UNL A   1      43.807  30.761  28.156  1.00  0.00     0.009 A 
ATOM     83  C   UNL A   1      46.328  31.924  27.910  1.00  0.00     0.001 A 
ATOM     84  C   UNL A   1      44.101  31.576  27.059  1.00  0.00     0.001 A 
ATOM     85  C   UNL A   1      45.358  32.163  26.939  1.00  0.00     0.000 A 
ENDBRANCH  67  80
ENDBRANCH  41  42
ENDBRANCH  33  36
ENDBRANCH  31  32
ENDBRANCH  30  31
ENDBRANCH  29  30
ENDBRANCH   3  29
TORSDOF 15
ENDMDL
MODEL 2
REMARK VINA RESULT:     -12.5      2.311      8.026
REMARK SMILES CCn1c(CC2CC[NH+](Cc3cn[nH]c3C(=O)NCCCNC(=O)c3ccc(-c4c5nc(c(-c6ccccc6)c6ccc([nH]6)c(-c6ccccc6)c6nc(c(-c7ccccc7)c7ccc4[nH]7)C=C6)C=C5)cc3)CC2)nn(C)c1=O
REMARK SMILES IDX 16 1 17 2 18 3 15 5 11 6 12 7 13 8 14 9 10 11 9 12 6 13 7 14
REMARK SMILES IDX 74 15 8 16 73 17 5 19 4 20 3 21 78 22 75 23 76 24 79 25
REMARK SMILES IDX 77 26 2 27 1 28 19 29 20 30 21 31 22 32 23 33 24 35 25 36
REMARK SMILES IDX 26 37 72 38 27 39 71 40 28 41 29 42 30 43 65 44 31 45 70 46
REMARK SMILES IDX 64 47 66 48 32 49 69 50 63 51 62 52 33 54 55 55 40 56 54 57
REMARK SMILES IDX 41 58 44 59 53 60 67 61 42 62 43 63 52 65 68 66 45 67 34 68
REMARK SMILES IDX 35 69 39 70 36 71 38 72 37 73 56 74 57 75 61 76 58 77 60 78
REMARK SMILES IDX 59 79 46 80 47 81 51 82 48 83 50 84 49 85
REMARK H PARENT 18 4 14 10 9 18 22 34 66 53 44 64
REMARK Flexibility Score: inf
ROOT
ATOM      1  C   UNL A   1      34.540  21.433  26.576  1.00  0.00     0.269 C 
ATOM      2  O   UNL A   1      34.257  21.816  27.712  1.00  0.00    -0.268 OA
ATOM      3  N   UNL A   1      35.834  21.642  26.172  1.00  0.00    -0.351 N 
ATOM      4  H   UNL A   1      36.426  22.026  26.858  1.00  0.00     0.163 HD
ENDROOT
BRANCH   1   5
ATOM      5  C   UNL A   1      33.606  20.660  25.792  1.00  0.00     0.131 A 
ATOM      6  C   UNL A   1      32.939  20.712  24.563  1.00  0.00     0.057 A 
ATOM      7  C   UNL A   1      32.408  19.405  24.427  1.00  0.00     0.145 A 
ATOM      8  N   UNL A   1      32.577  18.647  25.502  1.00  0.00    -0.183 NA
ATOM      9  N   UNL A   1      33.156  19.488  26.366  1.00  0.00    -0.272 N 
ATOM     10  H   UNL A   1      33.253  19.287  27.325  1.00  0.00     0.190 HD
BRANCH   6  11
ATOM     11  C   UNL A   1      32.823  21.690  23.441  1.00  0.00     0.303 C 
BRANCH  11  12
ATOM     12  N   UNL A   1      33.152  23.106  23.699  1.00  0.00    -0.331 N 
ATOM     13  C   UNL A   1      32.712  26.038  23.499  1.00  0.00     0.008 C 
ATOM     14  C   UNL A   1      33.639  25.300  22.533  1.00  0.00     0.065 C 
ATOM     15  C   UNL A   1      32.738  25.294  24.828  1.00  0.00     0.065 C 
ATOM     16  C   UNL A   1      33.350  23.806  22.425  1.00  0.00     0.262 C 
ATOM     17  C   UNL A   1      32.345  23.825  24.681  1.00  0.00     0.262 C 
ATOM     18  H   UNL A   1      34.034  23.091  24.211  1.00  0.00     0.348 HD
BRANCH  13  19
ATOM     19  C   UNL A   1      31.311  26.387  22.950  1.00  0.00     0.081 C 
BRANCH  19  20
ATOM     20  C   UNL A   1      30.756  27.793  23.038  1.00  0.00     0.133 A 
ATOM     21  N   UNL A   1      30.858  28.619  24.101  1.00  0.00    -0.279 N 
ATOM     22  C   UNL A   1      30.260  29.804  23.703  1.00  0.00     0.345 A 
ATOM     23  N   UNL A   1      30.177  28.327  21.995  1.00  0.00    -0.155 NA
ATOM     24  N   UNL A   1      29.847  29.591  22.395  1.00  0.00    -0.216 N 
ATOM     25  O   UNL A   1      30.130  30.817  24.376  1.00  0.00    -0.246 OA
ATOM     26  C   UNL A   1      29.148  30.526  21.553  1.00  0.00     0.179 C 
BRANCH  21  27
ATOM     27  C   UNL A   1      31.292  28.492  25.489  1.00  0.00     0.125 C 
ATOM     28  C   UNL A   1      32.701  28.916  25.834  1.00  0.00     0.028 C 
ENDBRANCH  21  27
ENDBRANCH  19  20
ENDBRANCH  13  19
ENDBRANCH  11  12
ENDBRANCH   6  11
ENDBRANCH   1   5
BRANCH   3  29
ATOM     29  C   UNL A   1      36.464  21.387  24.893  1.00  0.00     0.118 C 
BRANCH  29  30
ATOM     30  C   UNL A   1      37.521  20.293  25.044  1.00  0.00     0.042 C 
BRANCH  30  31
ATOM     31  C   UNL A   1      38.805  20.724  25.681  1.00  0.00     0.118 C 
BRANCH  31  32
ATOM     32  N   UNL A   1      39.696  19.577  25.835  1.00  0.00    -0.352 N 
ATOM     33  C   UNL A   1      41.068  19.573  26.004  1.00  0.00     0.251 C 
ATOM     34  H   UNL A   1      39.264  18.693  25.816  1.00  0.00     0.163 HD
ATOM     35  O   UNL A   1      41.740  18.598  25.738  1.00  0.00    -0.269 OA
BRANCH  33  36
ATOM     36  C   UNL A   1      41.669  20.815  26.510  1.00  0.00     0.039 A 
ATOM     37  C   UNL A   1      41.810  21.943  25.707  1.00  0.00     0.014 A 
ATOM     38  C   UNL A   1      41.911  20.860  27.875  1.00  0.00     0.014 A 
ATOM     39  C   UNL A   1      42.124  23.141  26.336  1.00  0.00     0.010 A 
ATOM     40  C   UNL A   1      41.856  22.071  28.493  1.00  0.00     0.010 A 
ATOM     41  C   UNL A   1      42.105  23.200  27.742  1.00  0.00    -0.014 A 
BRANCH  41  42
ATOM     42  C   UNL A   1      42.266  24.441  28.474  1.00  0.00     0.031 A 
ATOM     43  C   UNL A   1      41.228  25.444  28.174  1.00  0.00     0.074 A 
ATOM     44  C   UNL A   1      43.198  24.649  29.431  1.00  0.00     0.049 A 
ATOM     45  N   UNL A   1      41.335  26.395  27.312  1.00  0.00    -0.248 NA
ATOM     46  C   UNL A   1      39.875  25.262  28.714  1.00  0.00     0.031 C 
ATOM     47  C   UNL A   1      44.118  23.704  30.079  1.00  0.00     0.029 A 
ATOM     48  N   UNL A   1      43.474  25.810  30.077  1.00  0.00    -0.354 N 
ATOM     49  C   UNL A   1      40.139  27.087  27.364  1.00  0.00     0.074 A 
ATOM     50  C   UNL A   1      39.217  26.235  28.077  1.00  0.00     0.031 C 
ATOM     51  C   UNL A   1      44.694  24.286  31.156  1.00  0.00     0.029 A 
ATOM     52  C   UNL A   1      44.341  25.691  31.154  1.00  0.00     0.049 A 
ATOM     53  H   UNL A   1      43.088  26.672  29.801  1.00  0.00     0.167 HD
ATOM     54  C   UNL A   1      40.104  28.412  27.057  1.00  0.00     0.031 A 
ATOM     55  C   UNL A   1      44.758  26.694  31.964  1.00  0.00     0.031 A 
ATOM     56  C   UNL A   1      41.327  28.832  26.407  1.00  0.00     0.049 A 
ATOM     57  C   UNL A   1      44.589  27.956  31.206  1.00  0.00     0.074 A 
ATOM     58  C   UNL A   1      41.986  28.455  25.252  1.00  0.00     0.029 A 
ATOM     59  N   UNL A   1      42.275  29.440  27.199  1.00  0.00    -0.354 N 
ATOM     60  N   UNL A   1      45.291  28.244  30.147  1.00  0.00    -0.248 NA
ATOM     61  C   UNL A   1      43.328  28.666  31.333  1.00  0.00     0.031 C 
ATOM     62  C   UNL A   1      43.367  28.413  25.613  1.00  0.00     0.029 A 
ATOM     63  C   UNL A   1      43.489  28.855  26.933  1.00  0.00     0.049 A 
ATOM     64  H   UNL A   1      42.111  30.166  27.842  1.00  0.00     0.167 HD
ATOM     65  C   UNL A   1      44.380  28.804  29.264  1.00  0.00     0.074 A 
ATOM     66  C   UNL A   1      43.213  29.130  30.084  1.00  0.00     0.031 C 
ATOM     67  C   UNL A   1      44.544  28.690  27.912  1.00  0.00     0.031 A 
BRANCH  54  68
ATOM     68  C   UNL A   1      39.183  29.388  27.736  1.00  0.00    -0.014 A 
ATOM     69  C   UNL A   1      39.556  29.900  28.991  1.00  0.00     0.009 A 
ATOM     70  C   UNL A   1      37.854  29.613  27.329  1.00  0.00     0.009 A 
ATOM     71  C   UNL A   1      38.625  30.534  29.821  1.00  0.00     0.001 A 
ATOM     72  C   UNL A   1      36.933  30.280  28.138  1.00  0.00     0.001 A 
ATOM     73  C   UNL A   1      37.312  30.716  29.398  1.00  0.00     0.000 A 
ENDBRANCH  54  68
BRANCH  55  74
ATOM     74  C   UNL A   1      45.016  26.676  33.418  1.00  0.00    -0.014 A 
ATOM     75  C   UNL A   1      46.236  27.142  33.934  1.00  0.00     0.009 A 
ATOM     76  C   UNL A   1      43.950  26.497  34.317  1.00  0.00     0.009 A 
ATOM     77  C   UNL A   1      46.367  27.470  35.290  1.00  0.00     0.001 A 
ATOM     78  C   UNL A   1      44.080  26.826  35.671  1.00  0.00     0.001 A 
ATOM     79  C   UNL A   1      45.283  27.330  36.154  1.00  0.00     0.000 A 
ENDBRANCH  55  74
BRANCH  67  80
ATOM     80  C   UNL A   1      45.861  28.137  27.407  1.00  0.00    -0.014 A 
ATOM     81  C   UNL A   1      46.978  28.937  27.102  1.00  0.00     0.009 A 
ATOM     82  C   UNL A   1      46.019  26.744  27.367  1.00  0.00     0.009 A 
ATOM     83  C   UNL A   1      48.200  28.359  26.737  1.00  0.00     0.001 A 
ATOM     84  C   UNL A   1      47.244  26.166  27.024  1.00  0.00     0.001 A 
ATOM     85  C   UNL A   1      48.333  26.973  26.702  1.00  0.00     0.000 A 
ENDBRANCH  67  80
ENDBRANCH  41  42
ENDBRANCH  33  36
ENDBRANCH  31  32
ENDBRANCH  30  31
ENDBRANCH  29  30
ENDBRANCH   3  29
TORSDOF 15
ENDMDL
MODEL 3
REMARK VINA RESULT:     -12.2      2.298      5.678
REMARK SMILES CCn1c(CC2CC[NH+](Cc3cn[nH]c3C(=O)NCCCNC(=O)c3ccc(-c4c5nc(c(-c6ccccc6)c6ccc([nH]6)c(-c6ccccc6)c6nc(c(-c7ccccc7)c7ccc4[nH]7)C=C6)C=C5)cc3)CC2)nn(C)c1=O
REMARK SMILES IDX 16 1 17 2 18 3 15 5 11 6 12 7 13 8 14 9 10 11 9 12 6 13 7 14
REMARK SMILES IDX 74 15 8 16 73 17 5 19 4 20 3 21 78 22 75 23 76 24 79 25
REMARK SMILES IDX 77 26 2 27 1 28 19 29 20 30 21 31 22 32 23 33 24 35 25 36
REMARK SMILES IDX 26 37 72 38 27 39 71 40 28 41 29 42 30 43 65 44 31 45 70 46
REMARK SMILES IDX 64 47 66 48 32 49 69 50 63 51 62 52 33 54 55 55 40 56 54 57
REMARK SMILES IDX 41 58 44 59 53 60 67 61 42 62 43 63 52 65 68 66 45 67 34 68
REMARK SMILES IDX 35 69 39 70 36 71 38 72 37 73 56 74 57 75 61 76 58 77 60 78
REMARK SMILES IDX 59 79 46 80 47 81 51 82 48 83 50 84 49 85
REMARK H PARENT 18 4 14 10 9 18 22 34 66 53 44 64
REMARK Flexibility Score: inf
ROOT
ATOM      1  C   UNL A   1      32.697  29.255  23.647  1.00  0.00     0.269 C 
ATOM      2  O   UNL A   1      33.602  29.320  22.814  1.00  0.00    -0.268 OA
ATOM      3  N   UNL A   1      33.001  29.701  24.907  1.00  0.00    -0.351 N 
ATOM      4  H   UNL A   1      33.901  30.086  25.006  1.00  0.00     0.163 HD
ENDROOT
BRANCH   1   5
ATOM      5  C   UNL A   1      31.354  28.889  23.265  1.00  0.00     0.131 A 
ATOM      6  C   UNL A   1      30.456  27.823  23.393  1.00  0.00     0.057 A 
ATOM      7  C   UNL A   1      29.227  28.380  22.960  1.00  0.00     0.145 A 
ATOM      8  N   UNL A   1      29.342  29.605  22.467  1.00  0.00    -0.183 NA
ATOM      9  N   UNL A   1      30.662  29.818  22.513  1.00  0.00    -0.272 N 
ATOM     10  H   UNL A   1      31.101  30.570  22.052  1.00  0.00     0.190 HD
BRANCH   6  11
ATOM     11  C   UNL A   1      30.496  26.445  23.967  1.00  0.00     0.303 C 
BRANCH  11  12
ATOM     12  N   UNL A   1      31.808  25.839  24.263  1.00  0.00    -0.331 N 
ATOM     13  C   UNL A   1      33.604  23.761  25.399  1.00  0.00     0.008 C 
ATOM     14  C   UNL A   1      33.265  25.035  26.172  1.00  0.00     0.065 C 
ATOM     15  C   UNL A   1      33.558  24.093  23.913  1.00  0.00     0.065 C 
ATOM     16  C   UNL A   1      31.974  25.706  25.715  1.00  0.00     0.262 C 
ATOM     17  C   UNL A   1      32.209  24.670  23.486  1.00  0.00     0.262 C 
ATOM     18  H   UNL A   1      32.500  26.499  23.909  1.00  0.00     0.348 HD
BRANCH  13  19
ATOM     19  C   UNL A   1      32.837  22.492  25.830  1.00  0.00     0.081 C 
BRANCH  19  20
ATOM     20  C   UNL A   1      33.206  21.124  25.292  1.00  0.00     0.133 A 
ATOM     21  N   UNL A   1      34.450  20.600  25.251  1.00  0.00    -0.279 N 
ATOM     22  C   UNL A   1      34.292  19.322  24.739  1.00  0.00     0.345 A 
ATOM     23  N   UNL A   1      32.266  20.314  24.884  1.00  0.00    -0.155 NA
ATOM     24  N   UNL A   1      32.928  19.175  24.521  1.00  0.00    -0.216 N 
ATOM     25  O   UNL A   1      35.178  18.506  24.530  1.00  0.00    -0.246 OA
ATOM     26  C   UNL A   1      32.267  18.022  23.970  1.00  0.00     0.179 C 
BRANCH  21  27
ATOM     27  C   UNL A   1      35.805  21.096  25.473  1.00  0.00     0.125 C 
ATOM     28  C   UNL A   1      36.477  21.852  24.349  1.00  0.00     0.028 C 
ENDBRANCH  21  27
ENDBRANCH  19  20
ENDBRANCH  13  19
ENDBRANCH  11  12
ENDBRANCH   6  11
ENDBRANCH   1   5
BRANCH   3  29
ATOM     29  C   UNL A   1      32.204  29.690  26.118  1.00  0.00     0.118 C 
BRANCH  29  30
ATOM     30  C   UNL A   1      31.862  31.123  26.525  1.00  0.00     0.042 C 
BRANCH  30  31
ATOM     31  C   UNL A   1      32.929  31.848  27.283  1.00  0.00     0.118 C 
BRANCH  31  32
ATOM     32  N   UNL A   1      32.537  33.240  27.491  1.00  0.00    -0.352 N 
ATOM     33  C   UNL A   1      33.030  34.142  28.414  1.00  0.00     0.251 C 
ATOM     34  H   UNL A   1      31.829  33.579  26.896  1.00  0.00     0.163 HD
ATOM     35  O   UNL A   1      32.393  35.115  28.758  1.00  0.00    -0.269 OA
BRANCH  33  36
ATOM     36  C   UNL A   1      34.362  33.852  28.965  1.00  0.00     0.039 A 
ATOM     37  C   UNL A   1      34.533  33.052  30.092  1.00  0.00     0.014 A 
ATOM     38  C   UNL A   1      35.440  34.260  28.194  1.00  0.00     0.014 A 
ATOM     39  C   UNL A   1      35.818  32.607  30.372  1.00  0.00     0.010 A 
ATOM     40  C   UNL A   1      36.590  33.537  28.273  1.00  0.00     0.010 A 
ATOM     41  C   UNL A   1      36.838  32.825  29.426  1.00  0.00    -0.014 A 
BRANCH  41  42
ATOM     42  C   UNL A   1      38.166  32.261  29.566  1.00  0.00     0.031 A 
ATOM     43  C   UNL A   1      38.229  30.817  29.274  1.00  0.00     0.074 A 
ATOM     44  C   UNL A   1      39.280  32.982  29.824  1.00  0.00     0.049 A 
ATOM     45  N   UNL A   1      38.163  29.874  30.149  1.00  0.00    -0.248 NA
ATOM     46  C   UNL A   1      38.145  30.361  27.881  1.00  0.00     0.031 C 
ATOM     47  C   UNL A   1      39.480  34.437  29.855  1.00  0.00     0.029 A 
ATOM     48  N   UNL A   1      40.528  32.513  30.072  1.00  0.00    -0.354 N 
ATOM     49  C   UNL A   1      38.267  28.692  29.438  1.00  0.00     0.074 A 
ATOM     50  C   UNL A   1      38.044  29.040  28.054  1.00  0.00     0.031 C 
ATOM     51  C   UNL A   1      40.803  34.720  29.900  1.00  0.00     0.029 A 
ATOM     52  C   UNL A   1      41.523  33.480  30.105  1.00  0.00     0.049 A 
ATOM     53  H   UNL A   1      40.715  31.557  30.218  1.00  0.00     0.167 HD
ATOM     54  C   UNL A   1      38.800  27.587  30.026  1.00  0.00     0.031 A 
ATOM     55  C   UNL A   1      42.845  33.266  30.317  1.00  0.00     0.031 A 
ATOM     56  C   UNL A   1      38.901  27.754  31.459  1.00  0.00     0.049 A 
ATOM     57  C   UNL A   1      42.961  31.971  31.029  1.00  0.00     0.074 A 
ATOM     58  C   UNL A   1      37.994  28.005  32.471  1.00  0.00     0.029 A 
ATOM     59  N   UNL A   1      40.130  28.131  31.955  1.00  0.00    -0.354 N 
ATOM     60  N   UNL A   1      42.528  31.791  32.244  1.00  0.00    -0.248 NA
ATOM     61  C   UNL A   1      43.112  30.765  30.233  1.00  0.00     0.031 C 
ATOM     62  C   UNL A   1      38.638  28.960  33.315  1.00  0.00     0.029 A 
ATOM     63  C   UNL A   1      39.933  29.169  32.833  1.00  0.00     0.049 A 
ATOM     64  H   UNL A   1      40.996  27.728  31.722  1.00  0.00     0.167 HD
ATOM     65  C   UNL A   1      41.925  30.541  32.219  1.00  0.00     0.074 A 
ATOM     66  C   UNL A   1      42.405  29.917  30.986  1.00  0.00     0.031 C 
ATOM     67  C   UNL A   1      40.880  30.244  33.048  1.00  0.00     0.031 A 
BRANCH  54  68
ATOM     68  C   UNL A   1      39.623  26.576  29.276  1.00  0.00    -0.014 A 
ATOM     69  C   UNL A   1      40.947  26.905  28.942  1.00  0.00     0.009 A 
ATOM     70  C   UNL A   1      39.076  25.438  28.653  1.00  0.00     0.009 A 
ATOM     71  C   UNL A   1      41.654  26.177  27.978  1.00  0.00     0.001 A 
ATOM     72  C   UNL A   1      39.792  24.686  27.721  1.00  0.00     0.001 A 
ATOM     73  C   UNL A   1      41.073  25.073  27.363  1.00  0.00     0.000 A 
ENDBRANCH  54  68
BRANCH  55  74
ATOM     74  C   UNL A   1      44.011  33.939  29.711  1.00  0.00    -0.014 A 
ATOM     75  C   UNL A   1      44.435  33.607  28.415  1.00  0.00     0.009 A 
ATOM     76  C   UNL A   1      44.511  35.124  30.282  1.00  0.00     0.009 A 
ATOM     77  C   UNL A   1      45.284  34.458  27.694  1.00  0.00     0.001 A 
ATOM     78  C   UNL A   1      45.357  35.974  29.561  1.00  0.00     0.001 A 
ATOM     79  C   UNL A   1      45.728  35.651  28.260  1.00  0.00     0.000 A 
ENDBRANCH  55  74
BRANCH  67  80
ATOM     80  C   UNL A   1      40.549  31.233  34.147  1.00  0.00    -0.014 A 
ATOM     81  C   UNL A   1      41.016  31.115  35.469  1.00  0.00     0.009 A 
ATOM     82  C   UNL A   1      39.851  32.398  33.797  1.00  0.00     0.009 A 
ATOM     83  C   UNL A   1      40.761  32.116  36.415  1.00  0.00     0.001 A 
ATOM     84  C   UNL A   1      39.614  33.406  34.734  1.00  0.00     0.001 A 
ATOM     85  C   UNL A   1      40.063  33.263  36.045  1.00  0.00     0.000 A 
ENDBRANCH  67  80
ENDBRANCH  41  42
ENDBRANCH  33  36
ENDBRANCH  31  32
ENDBRANCH  30  31
ENDBRANCH  29  30
ENDBRANCH   3  29
TORSDOF 15
ENDMDL
