MODEL 1
REMARK VINA RESULT:     -13.2      0.000      0.000
REMARK SMILES Cc1c(CC(=O)N[C@H](CO)C(=O)NCCCNC(=O)c2ccc(-c3c4nc(c(-c5ccccc5)c5ccc([nH]5)c(-c5ccccc5)c5nc(c(-c6ccccc6)c6ccc3[nH]6)C=C5)C=C4)cc2)cc(-c2ccc(S(C)(=O)=O)cc2)n1-c1cccc(F)c1
REMARK SMILES IDX 11 1 12 2 13 3 8 5 7 6 5 7 6 8 4 10 3 11 1 12 2 13 80 14
REMARK SMILES IDX 68 15 69 16 81 17 82 18 87 19 83 20 85 21 84 22 86 23 70 24
REMARK SMILES IDX 71 25 79 26 72 27 78 28 73 29 74 30 75 31 76 32 77 33 9 34
REMARK SMILES IDX 10 35 14 37 15 38 16 39 17 40 18 41 19 43 20 44 21 45 67 46
REMARK SMILES IDX 22 47 66 48 23 49 24 50 25 51 60 52 26 53 65 54 59 55 61 56
REMARK SMILES IDX 27 57 64 58 58 59 57 60 28 62 50 63 35 64 49 65 36 66 39 67
REMARK SMILES IDX 48 68 62 69 37 70 38 71 47 73 63 74 40 75 29 76 30 77 34 78
REMARK SMILES IDX 31 79 33 80 32 81 51 82 52 83 56 84 53 85 55 86 54 87 41 88
REMARK SMILES IDX 42 89 46 90 43 91 45 92 44 93
REMARK H PARENT 13 4 7 9 10 36 17 42 61 61 39 72
REMARK Flexibility Score: inf
ROOT
ATOM      1  C   UNL A   1      34.912  21.354  26.383  1.00  0.00     0.244 C 
ATOM      2  O   UNL A   1      34.093  21.374  27.307  1.00  0.00    -0.273 OA
ATOM      3  N   UNL A   1      36.038  22.108  26.534  1.00  0.00    -0.354 N 
ATOM      4  H   UNL A   1      36.145  22.460  27.448  1.00  0.00     0.163 HD
ENDROOT
BRANCH   1   5
ATOM      5  C   UNL A   1      34.572  20.634  25.082  1.00  0.00     0.197 C 
BRANCH   5   6
ATOM      6  N   UNL A   1      34.706  21.525  23.923  1.00  0.00    -0.342 N 
ATOM      7  C   UNL A   1      33.803  22.373  23.351  1.00  0.00     0.225 C 
ATOM      8  O   UNL A   1      34.242  23.092  22.446  1.00  0.00    -0.275 OA
ATOM      9  H   UNL A   1      35.590  21.508  23.489  1.00  0.00     0.164 HD
BRANCH   7  10
ATOM     10  C   UNL A   1      32.352  22.503  23.812  1.00  0.00     0.137 C 
BRANCH  10  11
ATOM     11  C   UNL A   1      31.879  23.863  24.275  1.00  0.00    -0.017 A 
ATOM     12  C   UNL A   1      33.646  24.561  26.069  1.00  0.00     0.065 C 
ATOM     13  C   UNL A   1      32.397  24.708  25.255  1.00  0.00     0.024 A 
ATOM     14  N   UNL A   1      31.560  25.834  25.356  1.00  0.00    -0.313 N 
ATOM     15  C   UNL A   1      30.762  24.558  23.714  1.00  0.00     0.033 A 
ATOM     16  C   UNL A   1      30.739  25.846  24.221  1.00  0.00     0.053 A 
BRANCH  14  17
ATOM     17  C   UNL A   1      31.918  27.024  26.035  1.00  0.00     0.049 A 
ATOM     18  C   UNL A   1      31.128  27.672  26.983  1.00  0.00     0.027 A 
ATOM     19  C   UNL A   1      33.079  27.612  25.583  1.00  0.00     0.065 A 
ATOM     20  C   UNL A   1      31.549  28.923  27.479  1.00  0.00     0.005 A 
ATOM     21  C   UNL A   1      33.462  28.836  26.074  1.00  0.00     0.125 A 
ATOM     22  C   UNL A   1      32.722  29.508  27.018  1.00  0.00     0.039 A 
ATOM     23  F   UNL A   1      34.551  29.414  25.600  1.00  0.00    -0.207 F 
ENDBRANCH  14  17
BRANCH  16  24
ATOM     24  C   UNL A   1      30.078  27.047  23.657  1.00  0.00    -0.001 A 
ATOM     25  C   UNL A   1      28.681  27.220  23.740  1.00  0.00     0.011 A 
ATOM     26  C   UNL A   1      30.818  28.067  23.062  1.00  0.00     0.011 A 
ATOM     27  C   UNL A   1      28.033  28.368  23.253  1.00  0.00     0.021 A 
ATOM     28  C   UNL A   1      30.183  29.226  22.582  1.00  0.00     0.021 A 
ATOM     29  C   UNL A   1      28.794  29.378  22.675  1.00  0.00     0.067 A 
BRANCH  29  30
ATOM     30  S   UNL A   1      28.052  30.969  22.331  1.00  0.00     0.175 S 
ATOM     31  C   UNL A   1      29.282  32.204  22.623  1.00  0.00     0.163 C 
ATOM     32  O   UNL A   1      27.709  31.001  20.935  1.00  0.00    -0.224 OA
ATOM     33  O   UNL A   1      27.019  31.165  23.352  1.00  0.00    -0.224 OA
ENDBRANCH  29  30
ENDBRANCH  16  24
ENDBRANCH  10  11
ENDBRANCH   7  10
ENDBRANCH   5   6
BRANCH   5  34
ATOM     34  C   UNL A   1      33.140  20.080  25.259  1.00  0.00     0.191 C 
BRANCH  34  35
ATOM     35  O   UNL A   1      33.080  19.075  26.270  1.00  0.00    -0.394 OA
ATOM     36  H   UNL A   1      33.339  18.220  25.892  1.00  0.00     0.210 HD
ENDBRANCH  34  35
ENDBRANCH   5  34
ENDBRANCH   1   5
BRANCH   3  37
ATOM     37  C   UNL A   1      37.116  22.505  25.643  1.00  0.00     0.117 C 
BRANCH  37  38
ATOM     38  C   UNL A   1      38.148  21.358  25.403  1.00  0.00     0.042 C 
BRANCH  38  39
ATOM     39  C   UNL A   1      39.432  21.470  26.259  1.00  0.00     0.118 C 
BRANCH  39  40
ATOM     40  N   UNL A   1      40.578  22.216  25.739  1.00  0.00    -0.352 N 
ATOM     41  C   UNL A   1      41.465  23.094  26.389  1.00  0.00     0.251 C 
ATOM     42  H   UNL A   1      40.757  22.081  24.780  1.00  0.00     0.163 HD
ATOM     43  O   UNL A   1      42.647  23.026  26.028  1.00  0.00    -0.269 OA
BRANCH  41  44
ATOM     44  C   UNL A   1      41.092  24.213  27.368  1.00  0.00     0.039 A 
ATOM     45  C   UNL A   1      39.905  24.890  27.103  1.00  0.00     0.014 A 
ATOM     46  C   UNL A   1      41.925  24.928  28.238  1.00  0.00     0.014 A 
ATOM     47  C   UNL A   1      39.467  26.063  27.843  1.00  0.00     0.010 A 
ATOM     48  C   UNL A   1      41.504  26.183  28.914  1.00  0.00     0.010 A 
ATOM     49  C   UNL A   1      40.209  26.768  28.849  1.00  0.00    -0.014 A 
BRANCH  49  50
ATOM     50  C   UNL A   1      39.731  28.357  29.175  1.00  0.00     0.031 A 
ATOM     51  C   UNL A   1      41.063  28.954  29.427  1.00  0.00     0.074 A 
ATOM     52  C   UNL A   1      38.679  29.281  29.426  1.00  0.00     0.049 A 
ATOM     53  N   UNL A   1      41.739  28.537  30.458  1.00  0.00    -0.248 NA
ATOM     54  C   UNL A   1      41.843  29.617  28.385  1.00  0.00     0.031 C 
ATOM     55  C   UNL A   1      37.232  29.030  29.622  1.00  0.00     0.029 A 
ATOM     56  N   UNL A   1      38.642  30.737  29.565  1.00  0.00    -0.354 N 
ATOM     57  C   UNL A   1      42.998  29.075  30.329  1.00  0.00     0.074 A 
ATOM     58  C   UNL A   1      43.058  29.515  28.937  1.00  0.00     0.031 C 
ATOM     59  C   UNL A   1      36.490  30.182  29.676  1.00  0.00     0.029 A 
ATOM     60  C   UNL A   1      37.323  31.379  29.556  1.00  0.00     0.049 A 
ATOM     61  H   UNL A   1      39.468  31.263  29.660  1.00  0.00     0.167 HD
ATOM     62  C   UNL A   1      43.445  29.750  31.428  1.00  0.00     0.031 A 
ATOM     63  C   UNL A   1      36.914  32.729  29.534  1.00  0.00     0.031 A 
ATOM     64  C   UNL A   1      43.140  31.156  31.340  1.00  0.00     0.049 A 
ATOM     65  C   UNL A   1      38.014  33.483  30.136  1.00  0.00     0.074 A 
ATOM     66  C   UNL A   1      43.212  32.061  30.299  1.00  0.00     0.029 A 
ATOM     67  N   UNL A   1      42.244  31.673  32.253  1.00  0.00    -0.354 N 
ATOM     68  N   UNL A   1      38.148  33.553  31.424  1.00  0.00    -0.248 NA
ATOM     69  C   UNL A   1      38.924  34.315  29.360  1.00  0.00     0.031 C 
ATOM     70  C   UNL A   1      41.978  32.734  30.347  1.00  0.00     0.029 A 
ATOM     71  C   UNL A   1      41.441  32.594  31.619  1.00  0.00     0.049 A 
ATOM     72  H   UNL A   1      42.186  31.422  33.203  1.00  0.00     0.167 HD
ATOM     73  C   UNL A   1      39.455  33.900  31.553  1.00  0.00     0.074 A 
ATOM     74  C   UNL A   1      39.779  34.627  30.336  1.00  0.00     0.031 C 
ATOM     75  C   UNL A   1      40.220  33.022  32.249  1.00  0.00     0.031 A 
BRANCH  62  76
ATOM     76  C   UNL A   1      43.334  28.963  32.706  1.00  0.00    -0.014 A 
ATOM     77  C   UNL A   1      44.493  28.686  33.434  1.00  0.00     0.009 A 
ATOM     78  C   UNL A   1      42.112  28.416  33.157  1.00  0.00     0.009 A 
ATOM     79  C   UNL A   1      44.437  27.852  34.556  1.00  0.00     0.001 A 
ATOM     80  C   UNL A   1      42.062  27.560  34.254  1.00  0.00     0.001 A 
ATOM     81  C   UNL A   1      43.228  27.277  34.954  1.00  0.00     0.000 A 
ENDBRANCH  62  76
BRANCH  63  82
ATOM     82  C   UNL A   1      35.733  33.778  29.358  1.00  0.00    -0.014 A 
ATOM     83  C   UNL A   1      35.066  33.906  28.079  1.00  0.00     0.009 A 
ATOM     84  C   UNL A   1      34.980  34.293  30.421  1.00  0.00     0.009 A 
ATOM     85  C   UNL A   1      33.741  34.374  27.898  1.00  0.00     0.001 A 
ATOM     86  C   UNL A   1      33.653  34.804  30.234  1.00  0.00     0.001 A 
ATOM     87  C   UNL A   1      33.020  34.809  28.989  1.00  0.00     0.000 A 
ENDBRANCH  63  82
BRANCH  75  88
ATOM     88  C   UNL A   1      39.611  32.406  33.496  1.00  0.00    -0.014 A 
ATOM     89  C   UNL A   1      38.904  31.183  33.542  1.00  0.00     0.009 A 
ATOM     90  C   UNL A   1      39.685  33.143  34.684  1.00  0.00     0.009 A 
ATOM     91  C   UNL A   1      38.245  30.755  34.702  1.00  0.00     0.001 A 
ATOM     92  C   UNL A   1      39.065  32.696  35.857  1.00  0.00     0.001 A 
ATOM     93  C   UNL A   1      38.330  31.513  35.862  1.00  0.00     0.000 A 
ENDBRANCH  75  88
ENDBRANCH  49  50
ENDBRANCH  41  44
ENDBRANCH  39  40
ENDBRANCH  38  39
ENDBRANCH  37  38
ENDBRANCH   3  37
TORSDOF 18
ENDMDL
MODEL 2
REMARK VINA RESULT:     -12.5      1.519      2.130
REMARK SMILES Cc1c(CC(=O)N[C@H](CO)C(=O)NCCCNC(=O)c2ccc(-c3c4nc(c(-c5ccccc5)c5ccc([nH]5)c(-c5ccccc5)c5nc(c(-c6ccccc6)c6ccc3[nH]6)C=C5)C=C4)cc2)cc(-c2ccc(S(C)(=O)=O)cc2)n1-c1cccc(F)c1
REMARK SMILES IDX 11 1 12 2 13 3 8 5 7 6 5 7 6 8 4 10 3 11 1 12 2 13 80 14
REMARK SMILES IDX 68 15 69 16 81 17 82 18 87 19 83 20 85 21 84 22 86 23 70 24
REMARK SMILES IDX 71 25 79 26 72 27 78 28 73 29 74 30 75 31 76 32 77 33 9 34
REMARK SMILES IDX 10 35 14 37 15 38 16 39 17 40 18 41 19 43 20 44 21 45 67 46
REMARK SMILES IDX 22 47 66 48 23 49 24 50 25 51 60 52 26 53 65 54 59 55 61 56
REMARK SMILES IDX 27 57 64 58 58 59 57 60 28 62 50 63 35 64 49 65 36 66 39 67
REMARK SMILES IDX 48 68 62 69 37 70 38 71 47 73 63 74 40 75 29 76 30 77 34 78
REMARK SMILES IDX 31 79 33 80 32 81 51 82 52 83 56 84 53 85 55 86 54 87 41 88
REMARK SMILES IDX 42 89 46 90 43 91 45 92 44 93
REMARK H PARENT 13 4 7 9 10 36 17 42 61 61 39 72
REMARK Flexibility Score: inf
ROOT
ATOM      1  C   UNL A   1      36.616  21.224  24.945  1.00  0.00     0.244 C 
ATOM      2  O   UNL A   1      36.396  20.010  24.976  1.00  0.00    -0.273 OA
ATOM      3  N   UNL A   1      37.725  21.671  25.600  1.00  0.00    -0.354 N 
ATOM      4  H   UNL A   1      38.320  20.942  25.890  1.00  0.00     0.163 HD
ENDROOT
BRANCH   1   5
ATOM      5  C   UNL A   1      35.589  22.169  24.329  1.00  0.00     0.197 C 
BRANCH   5   6
ATOM      6  N   UNL A   1      34.254  21.560  24.288  1.00  0.00    -0.342 N 
ATOM      7  C   UNL A   1      33.137  21.925  23.592  1.00  0.00     0.225 C 
ATOM      8  O   UNL A   1      32.182  21.144  23.665  1.00  0.00    -0.275 OA
ATOM      9  H   UNL A   1      34.147  20.761  24.852  1.00  0.00     0.164 HD
BRANCH   7  10
ATOM     10  C   UNL A   1      33.055  23.173  22.715  1.00  0.00     0.137 C 
BRANCH  10  11
ATOM     11  C   UNL A   1      32.503  24.436  23.338  1.00  0.00    -0.017 A 
ATOM     12  C   UNL A   1      34.331  25.127  25.072  1.00  0.00     0.065 C 
ATOM     13  C   UNL A   1      33.017  25.231  24.359  1.00  0.00     0.024 A 
ATOM     14  N   UNL A   1      32.097  26.261  24.624  1.00  0.00    -0.313 N 
ATOM     15  C   UNL A   1      31.292  25.073  22.921  1.00  0.00     0.033 A 
ATOM     16  C   UNL A   1      31.197  26.302  23.551  1.00  0.00     0.053 A 
BRANCH  14  17
ATOM     17  C   UNL A   1      32.400  27.413  25.391  1.00  0.00     0.049 A 
ATOM     18  C   UNL A   1      33.538  28.203  25.233  1.00  0.00     0.027 A 
ATOM     19  C   UNL A   1      31.541  27.640  26.443  1.00  0.00     0.065 A 
ATOM     20  C   UNL A   1      33.780  29.241  26.155  1.00  0.00     0.005 A 
ATOM     21  C   UNL A   1      31.805  28.652  27.335  1.00  0.00     0.125 A 
ATOM     22  C   UNL A   1      32.908  29.463  27.214  1.00  0.00     0.039 A 
ATOM     23  F   UNL A   1      31.001  28.831  28.368  1.00  0.00    -0.207 F 
ENDBRANCH  14  17
BRANCH  16  24
ATOM     24  C   UNL A   1      30.396  27.484  23.151  1.00  0.00    -0.001 A 
ATOM     25  C   UNL A   1      29.000  27.525  23.353  1.00  0.00     0.011 A 
ATOM     26  C   UNL A   1      30.999  28.612  22.599  1.00  0.00     0.011 A 
ATOM     27  C   UNL A   1      28.224  28.648  23.024  1.00  0.00     0.021 A 
ATOM     28  C   UNL A   1      30.234  29.747  22.277  1.00  0.00     0.021 A 
ATOM     29  C   UNL A   1      28.850  29.767  22.487  1.00  0.00     0.067 A 
BRANCH  29  30
ATOM     30  S   UNL A   1      27.955  31.310  22.347  1.00  0.00     0.175 S 
ATOM     31  C   UNL A   1      29.137  32.621  22.441  1.00  0.00     0.163 C 
ATOM     32  O   UNL A   1      27.347  31.349  21.045  1.00  0.00    -0.224 OA
ATOM     33  O   UNL A   1      27.129  31.411  23.554  1.00  0.00    -0.224 OA
ENDBRANCH  29  30
ENDBRANCH  16  24
ENDBRANCH  10  11
ENDBRANCH   7  10
ENDBRANCH   5   6
BRANCH   5  34
ATOM     34  C   UNL A   1      36.130  22.538  22.929  1.00  0.00     0.191 C 
BRANCH  34  35
ATOM     35  O   UNL A   1      37.243  23.428  23.007  1.00  0.00    -0.394 OA
ATOM     36  H   UNL A   1      37.344  23.741  23.920  1.00  0.00     0.210 HD
ENDBRANCH  34  35
ENDBRANCH   5  34
ENDBRANCH   1   5
BRANCH   3  37
ATOM     37  C   UNL A   1      38.224  22.988  25.963  1.00  0.00     0.117 C 
BRANCH  37  38
ATOM     38  C   UNL A   1      39.594  22.924  26.710  1.00  0.00     0.042 C 
BRANCH  38  39
ATOM     39  C   UNL A   1      40.422  21.652  26.411  1.00  0.00     0.118 C 
BRANCH  39  40
ATOM     40  N   UNL A   1      41.744  21.783  25.799  1.00  0.00    -0.352 N 
ATOM     41  C   UNL A   1      42.804  22.658  26.100  1.00  0.00     0.251 C 
ATOM     42  H   UNL A   1      41.920  21.159  25.059  1.00  0.00     0.163 HD
ATOM     43  O   UNL A   1      43.940  22.174  26.013  1.00  0.00    -0.269 OA
BRANCH  41  44
ATOM     44  C   UNL A   1      42.701  24.164  26.367  1.00  0.00     0.039 A 
ATOM     45  C   UNL A   1      42.427  24.538  27.679  1.00  0.00     0.014 A 
ATOM     46  C   UNL A   1      42.440  25.198  25.458  1.00  0.00     0.014 A 
ATOM     47  C   UNL A   1      42.161  25.909  28.086  1.00  0.00     0.010 A 
ATOM     48  C   UNL A   1      42.070  26.574  25.881  1.00  0.00     0.010 A 
ATOM     49  C   UNL A   1      42.019  27.046  27.222  1.00  0.00    -0.014 A 
BRANCH  49  50
ATOM     50  C   UNL A   1      41.211  28.389  27.856  1.00  0.00     0.031 A 
ATOM     51  C   UNL A   1      42.372  29.286  28.061  1.00  0.00     0.074 A 
ATOM     52  C   UNL A   1      40.009  28.952  28.369  1.00  0.00     0.049 A 
ATOM     53  N   UNL A   1      43.275  28.935  28.930  1.00  0.00    -0.248 NA
ATOM     54  C   UNL A   1      42.800  30.267  27.067  1.00  0.00     0.031 C 
ATOM     55  C   UNL A   1      38.717  28.295  28.673  1.00  0.00     0.029 A 
ATOM     56  N   UNL A   1      39.628  30.312  28.751  1.00  0.00    -0.354 N 
ATOM     57  C   UNL A   1      44.325  29.805  28.759  1.00  0.00     0.074 A 
ATOM     58  C   UNL A   1      44.069  30.426  27.462  1.00  0.00     0.031 C 
ATOM     59  C   UNL A   1      37.725  29.186  28.997  1.00  0.00     0.029 A 
ATOM     60  C   UNL A   1      38.204  30.569  28.990  1.00  0.00     0.049 A 
ATOM     61  H   UNL A   1      40.300  31.025  28.844  1.00  0.00     0.167 HD
ATOM     62  C   UNL A   1      44.745  30.424  29.901  1.00  0.00     0.031 A 
ATOM     63  C   UNL A   1      37.470  31.748  29.237  1.00  0.00     0.031 A 
ATOM     64  C   UNL A   1      44.087  31.694  30.082  1.00  0.00     0.049 A 
ATOM     65  C   UNL A   1      38.421  32.685  29.835  1.00  0.00     0.074 A 
ATOM     66  C   UNL A   1      43.776  32.715  29.204  1.00  0.00     0.029 A 
ATOM     67  N   UNL A   1      43.233  31.822  31.158  1.00  0.00    -0.354 N 
ATOM     68  N   UNL A   1      38.721  32.616  31.096  1.00  0.00    -0.248 NA
ATOM     69  C   UNL A   1      38.969  33.827  29.116  1.00  0.00     0.031 C 
ATOM     70  C   UNL A   1      42.433  33.015  29.495  1.00  0.00     0.029 A 
ATOM     71  C   UNL A   1      42.141  32.568  30.776  1.00  0.00     0.049 A 
ATOM     72  H   UNL A   1      43.380  31.442  32.054  1.00  0.00     0.167 HD
ATOM     73  C   UNL A   1      39.903  33.284  31.140  1.00  0.00     0.074 A 
ATOM     74  C   UNL A   1      39.852  34.227  30.035  1.00  0.00     0.031 C 
ATOM     75  C   UNL A   1      40.958  32.562  31.595  1.00  0.00     0.031 A 
BRANCH  62  76
ATOM     76  C   UNL A   1      45.023  29.474  31.035  1.00  0.00    -0.014 A 
ATOM     77  C   UNL A   1      43.956  28.798  31.630  1.00  0.00     0.009 A 
ATOM     78  C   UNL A   1      46.314  29.304  31.583  1.00  0.00     0.009 A 
ATOM     79  C   UNL A   1      44.169  28.008  32.766  1.00  0.00     0.001 A 
ATOM     80  C   UNL A   1      46.520  28.544  32.732  1.00  0.00     0.001 A 
ATOM     81  C   UNL A   1      45.444  27.896  33.324  1.00  0.00     0.000 A 
ENDBRANCH  62  76
BRANCH  63  82
ATOM     82  C   UNL A   1      36.051  32.451  29.365  1.00  0.00    -0.014 A 
ATOM     83  C   UNL A   1      35.356  32.450  30.635  1.00  0.00     0.009 A 
ATOM     84  C   UNL A   1      35.587  33.443  28.490  1.00  0.00     0.009 A 
ATOM     85  C   UNL A   1      34.400  33.414  31.039  1.00  0.00     0.001 A 
ATOM     86  C   UNL A   1      34.590  34.396  28.882  1.00  0.00     0.001 A 
ATOM     87  C   UNL A   1      34.027  34.409  30.160  1.00  0.00     0.000 A 
ENDBRANCH  63  82
BRANCH  75  88
ATOM     88  C   UNL A   1      40.713  31.645  32.780  1.00  0.00    -0.014 A 
ATOM     89  C   UNL A   1      40.431  30.261  32.698  1.00  0.00     0.009 A 
ATOM     90  C   UNL A   1      40.684  32.225  34.053  1.00  0.00     0.009 A 
ATOM     91  C   UNL A   1      40.071  29.514  33.828  1.00  0.00     0.001 A 
ATOM     92  C   UNL A   1      40.368  31.472  35.189  1.00  0.00     0.001 A 
ATOM     93  C   UNL A   1      40.043  30.122  35.075  1.00  0.00     0.000 A 
ENDBRANCH  75  88
ENDBRANCH  49  50
ENDBRANCH  41  44
ENDBRANCH  39  40
ENDBRANCH  38  39
ENDBRANCH  37  38
ENDBRANCH   3  37
TORSDOF 18
ENDMDL
MODEL 3
REMARK VINA RESULT:     -11.9      1.749      2.488
REMARK SMILES Cc1c(CC(=O)N[C@H](CO)C(=O)NCCCNC(=O)c2ccc(-c3c4nc(c(-c5ccccc5)c5ccc([nH]5)c(-c5ccccc5)c5nc(c(-c6ccccc6)c6ccc3[nH]6)C=C5)C=C4)cc2)cc(-c2ccc(S(C)(=O)=O)cc2)n1-c1cccc(F)c1
REMARK SMILES IDX 11 1 12 2 13 3 8 5 7 6 5 7 6 8 4 10 3 11 1 12 2 13 80 14
REMARK SMILES IDX 68 15 69 16 81 17 82 18 87 19 83 20 85 21 84 22 86 23 70 24
REMARK SMILES IDX 71 25 79 26 72 27 78 28 73 29 74 30 75 31 76 32 77 33 9 34
REMARK SMILES IDX 10 35 14 37 15 38 16 39 17 40 18 41 19 43 20 44 21 45 67 46
REMARK SMILES IDX 22 47 66 48 23 49 24 50 25 51 60 52 26 53 65 54 59 55 61 56
REMARK SMILES IDX 27 57 64 58 58 59 57 60 28 62 50 63 35 64 49 65 36 66 39 67
REMARK SMILES IDX 48 68 62 69 37 70 38 71 47 73 63 74 40 75 29 76 30 77 34 78
REMARK SMILES IDX 31 79 33 80 32 81 51 82 52 83 56 84 53 85 55 86 54 87 41 88
REMARK SMILES IDX 42 89 46 90 43 91 45 92 44 93
REMARK H PARENT 13 4 7 9 10 36 17 42 61 61 39 72
REMARK Flexibility Score: inf
ROOT
ATOM      1  C   UNL A   1      34.530  21.466  26.485  1.00  0.00     0.244 C 
ATOM      2  O   UNL A   1      34.271  21.288  27.679  1.00  0.00    -0.273 OA
ATOM      3  N   UNL A   1      35.703  22.096  26.191  1.00  0.00    -0.354 N 
ATOM      4  H   UNL A   1      36.293  22.193  26.973  1.00  0.00     0.163 HD
ENDROOT
BRANCH   1   5
ATOM      5  C   UNL A   1      33.490  21.127  25.421  1.00  0.00     0.197 C 
BRANCH   5   6
ATOM      6  N   UNL A   1      32.124  21.281  25.935  1.00  0.00    -0.342 N 
ATOM      7  C   UNL A   1      31.070  21.995  25.443  1.00  0.00     0.225 C 
ATOM      8  O   UNL A   1      29.995  21.839  26.033  1.00  0.00    -0.275 OA
ATOM      9  H   UNL A   1      31.938  20.790  26.768  1.00  0.00     0.164 HD
BRANCH   7  10
ATOM     10  C   UNL A   1      31.155  22.888  24.206  1.00  0.00     0.137 C 
BRANCH  10  11
ATOM     11  C   UNL A   1      31.083  24.384  24.412  1.00  0.00    -0.017 A 
ATOM     12  C   UNL A   1      33.325  24.956  25.625  1.00  0.00     0.065 C 
ATOM     13  C   UNL A   1      31.973  25.247  25.048  1.00  0.00     0.024 A 
ATOM     14  N   UNL A   1      31.423  26.541  25.033  1.00  0.00    -0.313 N 
ATOM     15  C   UNL A   1      30.024  25.212  23.921  1.00  0.00     0.033 A 
ATOM     16  C   UNL A   1      30.376  26.539  24.101  1.00  0.00     0.053 A 
BRANCH  14  17
ATOM     17  C   UNL A   1      32.159  27.715  25.330  1.00  0.00     0.049 A 
ATOM     18  C   UNL A   1      33.454  27.980  24.889  1.00  0.00     0.027 A 
ATOM     19  C   UNL A   1      31.550  28.556  26.235  1.00  0.00     0.065 A 
ATOM     20  C   UNL A   1      34.116  29.127  25.372  1.00  0.00     0.005 A 
ATOM     21  C   UNL A   1      32.220  29.661  26.699  1.00  0.00     0.125 A 
ATOM     22  C   UNL A   1      33.495  29.969  26.285  1.00  0.00     0.039 A 
ATOM     23  F   UNL A   1      31.648  30.436  27.603  1.00  0.00    -0.207 F 
ENDBRANCH  14  17
BRANCH  16  24
ATOM     24  C   UNL A   1      29.852  27.736  23.401  1.00  0.00    -0.001 A 
ATOM     25  C   UNL A   1      28.478  28.054  23.426  1.00  0.00     0.011 A 
ATOM     26  C   UNL A   1      30.703  28.610  22.729  1.00  0.00     0.011 A 
ATOM     27  C   UNL A   1      27.960  29.204  22.809  1.00  0.00     0.021 A 
ATOM     28  C   UNL A   1      30.198  29.772  22.118  1.00  0.00     0.021 A 
ATOM     29  C   UNL A   1      28.830  30.070  22.155  1.00  0.00     0.067 A 
BRANCH  29  30
ATOM     30  S   UNL A   1      28.260  31.683  21.633  1.00  0.00     0.175 S 
ATOM     31  C   UNL A   1      29.188  32.891  22.530  1.00  0.00     0.163 C 
ATOM     32  O   UNL A   1      28.571  31.828  20.237  1.00  0.00    -0.224 OA
ATOM     33  O   UNL A   1      26.875  31.795  22.099  1.00  0.00    -0.224 OA
ENDBRANCH  29  30
ENDBRANCH  16  24
ENDBRANCH  10  11
ENDBRANCH   7  10
ENDBRANCH   5   6
BRANCH   5  34
ATOM     34  C   UNL A   1      33.805  19.686  24.957  1.00  0.00     0.191 C 
BRANCH  34  35
ATOM     35  O   UNL A   1      35.178  19.351  25.156  1.00  0.00    -0.394 OA
ATOM     36  H   UNL A   1      35.569  19.961  25.801  1.00  0.00     0.210 HD
ENDBRANCH  34  35
ENDBRANCH   5  34
ENDBRANCH   1   5
BRANCH   3  37
ATOM     37  C   UNL A   1      36.274  22.656  24.976  1.00  0.00     0.117 C 
BRANCH  37  38
ATOM     38  C   UNL A   1      37.792  22.323  24.820  1.00  0.00     0.042 C 
BRANCH  38  39
ATOM     39  C   UNL A   1      38.338  21.336  25.880  1.00  0.00     0.118 C 
BRANCH  39  40
ATOM     40  N   UNL A   1      39.782  21.231  26.086  1.00  0.00    -0.352 N 
ATOM     41  C   UNL A   1      40.641  21.975  26.917  1.00  0.00     0.251 C 
ATOM     42  H   UNL A   1      40.224  20.527  25.559  1.00  0.00     0.163 HD
ATOM     43  O   UNL A   1      41.548  21.333  27.461  1.00  0.00    -0.269 OA
BRANCH  41  44
ATOM     44  C   UNL A   1      40.656  23.498  27.088  1.00  0.00     0.039 A 
ATOM     45  C   UNL A   1      41.318  23.983  28.213  1.00  0.00     0.014 A 
ATOM     46  C   UNL A   1      39.792  24.450  26.532  1.00  0.00     0.014 A 
ATOM     47  C   UNL A   1      41.316  25.384  28.605  1.00  0.00     0.010 A 
ATOM     48  C   UNL A   1      39.724  25.857  27.006  1.00  0.00     0.010 A 
ATOM     49  C   UNL A   1      40.563  26.443  27.995  1.00  0.00    -0.014 A 
BRANCH  49  50
ATOM     50  C   UNL A   1      40.318  27.835  28.923  1.00  0.00     0.031 A 
ATOM     51  C   UNL A   1      41.676  28.417  28.835  1.00  0.00     0.074 A 
ATOM     52  C   UNL A   1      39.477  28.577  29.800  1.00  0.00     0.049 A 
ATOM     53  N   UNL A   1      42.662  27.763  29.378  1.00  0.00    -0.248 NA
ATOM     54  C   UNL A   1      42.052  29.403  27.824  1.00  0.00     0.031 C 
ATOM     55  C   UNL A   1      38.193  28.187  30.426  1.00  0.00     0.029 A 
ATOM     56  N   UNL A   1      39.565  29.924  30.362  1.00  0.00    -0.354 N 
ATOM     57  C   UNL A   1      43.811  28.394  28.963  1.00  0.00     0.074 A 
ATOM     58  C   UNL A   1      43.378  29.222  27.840  1.00  0.00     0.031 C 
ATOM     59  C   UNL A   1      37.580  29.224  31.082  1.00  0.00     0.029 A 
ATOM     60  C   UNL A   1      38.369  30.455  31.024  1.00  0.00     0.049 A 
ATOM     61  H   UNL A   1      40.394  30.452  30.300  1.00  0.00     0.167 HD
ATOM     62  C   UNL A   1      44.662  28.748  29.969  1.00  0.00     0.031 A 
ATOM     63  C   UNL A   1      38.047  31.724  31.549  1.00  0.00     0.031 A 
ATOM     64  C   UNL A   1      44.417  30.097  30.415  1.00  0.00     0.049 A 
ATOM     65  C   UNL A   1      39.327  32.340  31.901  1.00  0.00     0.074 A 
ATOM     66  C   UNL A   1      44.146  31.268  29.734  1.00  0.00     0.029 A 
ATOM     67  N   UNL A   1      43.944  30.267  31.700  1.00  0.00    -0.354 N 
ATOM     68  N   UNL A   1      39.928  32.041  33.012  1.00  0.00    -0.248 NA
ATOM     69  C   UNL A   1      39.929  33.418  31.128  1.00  0.00     0.031 C 
ATOM     70  C   UNL A   1      43.050  31.817  30.423  1.00  0.00     0.029 A 
ATOM     71  C   UNL A   1      43.011  31.280  31.703  1.00  0.00     0.049 A 
ATOM     72  H   UNL A   1      44.226  29.749  32.487  1.00  0.00     0.167 HD
ATOM     73  C   UNL A   1      41.206  32.418  32.750  1.00  0.00     0.074 A 
ATOM     74  C   UNL A   1      41.097  33.487  31.771  1.00  0.00     0.031 C 
ATOM     75  C   UNL A   1      42.129  31.427  32.830  1.00  0.00     0.031 A 
BRANCH  62  76
ATOM     76  C   UNL A   1      44.989  27.619  30.909  1.00  0.00    -0.014 A 
ATOM     77  C   UNL A   1      43.996  27.143  31.767  1.00  0.00     0.009 A 
ATOM     78  C   UNL A   1      46.288  27.076  31.021  1.00  0.00     0.009 A 
ATOM     79  C   UNL A   1      44.305  26.183  32.737  1.00  0.00     0.001 A 
ATOM     80  C   UNL A   1      46.603  26.145  32.007  1.00  0.00     0.001 A 
ATOM     81  C   UNL A   1      45.608  25.699  32.867  1.00  0.00     0.000 A 
ENDBRANCH  62  76
BRANCH  63  82
ATOM     82  C   UNL A   1      36.937  32.701  32.132  1.00  0.00    -0.014 A 
ATOM     83  C   UNL A   1      35.904  33.222  31.261  1.00  0.00     0.009 A 
ATOM     84  C   UNL A   1      36.598  32.779  33.489  1.00  0.00     0.009 A 
ATOM     85  C   UNL A   1      34.622  33.647  31.686  1.00  0.00     0.001 A 
ATOM     86  C   UNL A   1      35.314  33.246  33.925  1.00  0.00     0.001 A 
ATOM     87  C   UNL A   1      34.317  33.641  33.031  1.00  0.00     0.000 A 
ENDBRANCH  63  82
BRANCH  75  88
ATOM     88  C   UNL A   1      41.991  30.438  33.973  1.00  0.00    -0.014 A 
ATOM     89  C   UNL A   1      42.327  30.695  35.323  1.00  0.00     0.009 A 
ATOM     90  C   UNL A   1      41.572  29.140  33.658  1.00  0.00     0.009 A 
ATOM     91  C   UNL A   1      42.310  29.683  36.292  1.00  0.00     0.001 A 
ATOM     92  C   UNL A   1      41.510  28.138  34.634  1.00  0.00     0.001 A 
ATOM     93  C   UNL A   1      41.897  28.404  35.945  1.00  0.00     0.000 A 
ENDBRANCH  75  88
ENDBRANCH  49  50
ENDBRANCH  41  44
ENDBRANCH  39  40
ENDBRANCH  38  39
ENDBRANCH  37  38
ENDBRANCH   3  37
TORSDOF 18
ENDMDL
