MODEL 1
REMARK VINA RESULT:     -10.8      0.000      0.000
REMARK SMILES [NH3+][C@@H](Cc1c[nH]c2ccccc12)C(=O)N[C@@H](CS)C(=O)N[C@@H](CO)C(=O)NCCCNC(=O)c1ccc(-c2c3nc(c(-c4ccccc4)c4ccc([nH]4)c(-c4ccccc4)c4nc(c(-c5ccccc5)c5ccc2[nH]5)C=C4)C=C3)cc1
REMARK SMILES IDX 25 1 26 2 27 3 22 5 21 6 19 7 20 8 16 10 15 11 13 12 14 13
REMARK SMILES IDX 2 15 1 16 3 20 4 21 5 22 12 23 6 24 7 25 11 26 8 28 10 29
REMARK SMILES IDX 9 30 17 31 18 32 23 34 24 35 28 37 29 38 30 39 31 40 32 41
REMARK SMILES IDX 33 43 34 44 35 45 81 46 36 47 80 48 37 49 38 50 39 51 74 52
REMARK SMILES IDX 40 53 79 54 73 55 75 56 41 57 78 58 72 59 71 60 42 62 64 63
REMARK SMILES IDX 49 64 63 65 50 66 53 67 62 68 76 69 51 70 52 71 61 73 77 74
REMARK SMILES IDX 54 75 43 76 44 77 48 78 45 79 47 80 46 81 65 82 66 83 70 84
REMARK SMILES IDX 67 85 69 86 68 87 55 88 56 89 60 90 57 91 59 92 58 93
REMARK H PARENT 27 4 21 9 15 14 1 17 1 18 1 19 6 27 18 33 24 36 31 42 75 61
REMARK H PARENT 53 72
REMARK Flexibility Score: inf
ROOT
ATOM      1  C   UNL A   1      34.618  21.264  26.343  1.00  0.00     0.244 C 
ATOM      2  O   UNL A   1      34.304  21.453  27.522  1.00  0.00    -0.273 OA
ATOM      3  N   UNL A   1      35.936  21.378  26.032  1.00  0.00    -0.354 N 
ATOM      4  H   UNL A   1      36.494  21.751  26.752  1.00  0.00     0.163 HD
ENDROOT
BRANCH   1   5
ATOM      5  C   UNL A   1      33.555  20.935  25.294  1.00  0.00     0.197 C 
BRANCH   5   6
ATOM      6  N   UNL A   1      33.905  21.508  23.986  1.00  0.00    -0.340 N 
ATOM      7  C   UNL A   1      32.955  22.253  23.350  1.00  0.00     0.244 C 
ATOM      8  O   UNL A   1      31.973  21.655  22.899  1.00  0.00    -0.273 OA
ATOM      9  H   UNL A   1      34.791  21.360  23.584  1.00  0.00     0.164 HD
BRANCH   7  10
ATOM     10  C   UNL A   1      33.202  23.769  23.118  1.00  0.00     0.181 C 
BRANCH  10  11
ATOM     11  N   UNL A   1      34.505  24.026  23.739  1.00  0.00    -0.338 N 
ATOM     12  C   UNL A   1      34.726  24.728  24.894  1.00  0.00     0.279 C 
ATOM     13  O   UNL A   1      35.571  24.270  25.672  1.00  0.00    -0.268 OA
ATOM     14  H   UNL A   1      35.295  23.658  23.282  1.00  0.00     0.164 HD
BRANCH  12  15
ATOM     15  C   UNL A   1      34.046  26.088  25.195  1.00  0.00     0.275 C 
BRANCH  15  16
ATOM     16  N   UNL A   1      33.991  26.967  24.002  1.00  0.00    -0.347 N 
ATOM     17  H   UNL A   1      34.543  27.808  24.174  1.00  0.00     0.345 HD
ATOM     18  H   UNL A   1      33.022  27.228  23.817  1.00  0.00     0.345 HD
ATOM     19  H   UNL A   1      34.370  26.471  23.196  1.00  0.00     0.345 HD
ENDBRANCH  15  16
BRANCH  15  20
ATOM     20  C   UNL A   1      32.751  26.025  26.053  1.00  0.00     0.113 C 
BRANCH  20  21
ATOM     21  C   UNL A   1      31.458  26.229  25.312  1.00  0.00    -0.016 A 
ATOM     22  C   UNL A   1      30.458  25.288  25.187  1.00  0.00     0.087 A 
ATOM     23  C   UNL A   1      30.912  27.425  24.730  1.00  0.00     0.003 A 
ATOM     24  N   UNL A   1      29.587  25.712  24.227  1.00  0.00    -0.361 N 
ATOM     25  C   UNL A   1      29.798  27.043  23.976  1.00  0.00     0.046 A 
ATOM     26  C   UNL A   1      31.231  28.797  24.777  1.00  0.00     0.010 A 
ATOM     27  H   UNL A   1      28.912  25.150  23.782  1.00  0.00     0.166 HD
ATOM     28  C   UNL A   1      29.057  27.927  23.188  1.00  0.00     0.026 A 
ATOM     29  C   UNL A   1      30.422  29.716  24.089  1.00  0.00     0.001 A 
ATOM     30  C   UNL A   1      29.371  29.283  23.282  1.00  0.00     0.002 A 
ENDBRANCH  20  21
ENDBRANCH  15  20
ENDBRANCH  12  15
ENDBRANCH  10  11
BRANCH  10  31
ATOM     31  C   UNL A   1      33.044  24.303  21.692  1.00  0.00     0.101 C 
BRANCH  31  32
ATOM     32  S   UNL A   1      32.163  25.878  21.478  1.00  0.00    -0.177 SA
ATOM     33  H   UNL A   1      32.310  26.636  22.599  1.00  0.00     0.102 HD
ENDBRANCH  31  32
ENDBRANCH  10  31
ENDBRANCH   7  10
ENDBRANCH   5   6
BRANCH   5  34
ATOM     34  C   UNL A   1      33.117  19.455  25.311  1.00  0.00     0.191 C 
BRANCH  34  35
ATOM     35  O   UNL A   1      32.972  18.904  26.617  1.00  0.00    -0.394 OA
ATOM     36  H   UNL A   1      33.237  19.564  27.276  1.00  0.00     0.210 HD
ENDBRANCH  34  35
ENDBRANCH   5  34
ENDBRANCH   1   5
BRANCH   3  37
ATOM     37  C   UNL A   1      36.660  21.045  24.821  1.00  0.00     0.117 C 
BRANCH  37  38
ATOM     38  C   UNL A   1      37.705  19.965  25.043  1.00  0.00     0.042 C 
BRANCH  38  39
ATOM     39  C   UNL A   1      38.935  20.424  25.808  1.00  0.00     0.118 C 
BRANCH  39  40
ATOM     40  N   UNL A   1      39.971  19.406  25.887  1.00  0.00    -0.352 N 
ATOM     41  C   UNL A   1      41.309  19.534  26.174  1.00  0.00     0.251 C 
ATOM     42  H   UNL A   1      39.668  18.486  25.709  1.00  0.00     0.163 HD
ATOM     43  O   UNL A   1      42.062  18.581  26.034  1.00  0.00    -0.269 OA
BRANCH  41  44
ATOM     44  C   UNL A   1      41.837  20.838  26.626  1.00  0.00     0.039 A 
ATOM     45  C   UNL A   1      42.253  21.767  25.671  1.00  0.00     0.014 A 
ATOM     46  C   UNL A   1      41.913  21.142  27.987  1.00  0.00     0.014 A 
ATOM     47  C   UNL A   1      42.690  23.027  26.082  1.00  0.00     0.010 A 
ATOM     48  C   UNL A   1      42.243  22.430  28.387  1.00  0.00     0.010 A 
ATOM     49  C   UNL A   1      42.656  23.379  27.441  1.00  0.00    -0.014 A 
BRANCH  49  50
ATOM     50  C   UNL A   1      43.099  24.714  27.911  1.00  0.00     0.031 A 
ATOM     51  C   UNL A   1      42.069  25.770  28.215  1.00  0.00     0.074 A 
ATOM     52  C   UNL A   1      44.413  24.995  28.009  1.00  0.00     0.049 A 
ATOM     53  N   UNL A   1      42.243  27.024  28.541  1.00  0.00    -0.248 NA
ATOM     54  C   UNL A   1      40.655  25.371  28.106  1.00  0.00     0.031 C 
ATOM     55  C   UNL A   1      45.508  24.067  27.714  1.00  0.00     0.029 A 
ATOM     56  N   UNL A   1      45.051  26.150  28.383  1.00  0.00    -0.354 N 
ATOM     57  C   UNL A   1      40.968  27.562  28.658  1.00  0.00     0.074 A 
ATOM     58  C   UNL A   1      40.030  26.521  28.303  1.00  0.00     0.031 C 
ATOM     59  C   UNL A   1      46.680  24.680  27.952  1.00  0.00     0.029 A 
ATOM     60  C   UNL A   1      46.422  26.053  28.370  1.00  0.00     0.049 A 
ATOM     61  H   UNL A   1      44.571  26.971  28.636  1.00  0.00     0.167 HD
ATOM     62  C   UNL A   1      40.604  28.803  29.058  1.00  0.00     0.031 A 
ATOM     63  C   UNL A   1      47.361  26.973  28.659  1.00  0.00     0.031 A 
ATOM     64  C   UNL A   1      41.533  29.830  29.435  1.00  0.00     0.049 A 
ATOM     65  C   UNL A   1      46.927  28.351  29.080  1.00  0.00     0.074 A 
ATOM     66  C   UNL A   1      41.268  31.112  29.884  1.00  0.00     0.029 A 
ATOM     67  N   UNL A   1      42.911  29.686  29.422  1.00  0.00    -0.354 N 
ATOM     68  N   UNL A   1      45.715  28.829  29.226  1.00  0.00    -0.248 NA
ATOM     69  C   UNL A   1      47.995  29.313  29.389  1.00  0.00     0.031 C 
ATOM     70  C   UNL A   1      42.488  31.756  30.106  1.00  0.00     0.029 A 
ATOM     71  C   UNL A   1      43.510  30.857  29.848  1.00  0.00     0.049 A 
ATOM     72  H   UNL A   1      43.391  28.871  29.149  1.00  0.00     0.167 HD
ATOM     73  C   UNL A   1      45.876  30.130  29.684  1.00  0.00     0.074 A 
ATOM     74  C   UNL A   1      47.300  30.361  29.804  1.00  0.00     0.031 C 
ATOM     75  C   UNL A   1      44.929  31.054  29.979  1.00  0.00     0.031 A 
BRANCH  62  76
ATOM     76  C   UNL A   1      39.133  29.107  29.125  1.00  0.00    -0.014 A 
ATOM     77  C   UNL A   1      38.448  29.606  28.005  1.00  0.00     0.009 A 
ATOM     78  C   UNL A   1      38.414  28.854  30.303  1.00  0.00     0.009 A 
ATOM     79  C   UNL A   1      37.079  29.873  28.073  1.00  0.00     0.001 A 
ATOM     80  C   UNL A   1      37.040  29.095  30.359  1.00  0.00     0.001 A 
ATOM     81  C   UNL A   1      36.376  29.612  29.248  1.00  0.00     0.000 A 
ENDBRANCH  62  76
BRANCH  63  82
ATOM     82  C   UNL A   1      48.807  26.632  28.579  1.00  0.00    -0.014 A 
ATOM     83  C   UNL A   1      49.516  26.266  29.734  1.00  0.00     0.009 A 
ATOM     84  C   UNL A   1      49.497  26.715  27.360  1.00  0.00     0.009 A 
ATOM     85  C   UNL A   1      50.893  26.037  29.679  1.00  0.00     0.001 A 
ATOM     86  C   UNL A   1      50.868  26.451  27.302  1.00  0.00     0.001 A 
ATOM     87  C   UNL A   1      51.567  26.128  28.464  1.00  0.00     0.000 A 
ENDBRANCH  63  82
BRANCH  75  88
ATOM     88  C   UNL A   1      45.402  32.373  30.521  1.00  0.00    -0.014 A 
ATOM     89  C   UNL A   1      45.587  32.577  31.896  1.00  0.00     0.009 A 
ATOM     90  C   UNL A   1      45.705  33.415  29.629  1.00  0.00     0.009 A 
ATOM     91  C   UNL A   1      46.031  33.812  32.371  1.00  0.00     0.001 A 
ATOM     92  C   UNL A   1      46.179  34.637  30.105  1.00  0.00     0.001 A 
ATOM     93  C   UNL A   1      46.332  34.839  31.476  1.00  0.00     0.000 A 
ENDBRANCH  75  88
ENDBRANCH  49  50
ENDBRANCH  41  44
ENDBRANCH  39  40
ENDBRANCH  38  39
ENDBRANCH  37  38
ENDBRANCH   3  37
TORSDOF 21
ENDMDL
MODEL 2
REMARK VINA RESULT:     -10.6      5.311     11.154
REMARK SMILES [NH3+][C@@H](Cc1c[nH]c2ccccc12)C(=O)N[C@@H](CS)C(=O)N[C@@H](CO)C(=O)NCCCNC(=O)c1ccc(-c2c3nc(c(-c4ccccc4)c4ccc([nH]4)c(-c4ccccc4)c4nc(c(-c5ccccc5)c5ccc2[nH]5)C=C4)C=C3)cc1
REMARK SMILES IDX 25 1 26 2 27 3 22 5 21 6 19 7 20 8 16 10 15 11 13 12 14 13
REMARK SMILES IDX 2 15 1 16 3 20 4 21 5 22 12 23 6 24 7 25 11 26 8 28 10 29
REMARK SMILES IDX 9 30 17 31 18 32 23 34 24 35 28 37 29 38 30 39 31 40 32 41
REMARK SMILES IDX 33 43 34 44 35 45 81 46 36 47 80 48 37 49 38 50 39 51 74 52
REMARK SMILES IDX 40 53 79 54 73 55 75 56 41 57 78 58 72 59 71 60 42 62 64 63
REMARK SMILES IDX 49 64 63 65 50 66 53 67 62 68 76 69 51 70 52 71 61 73 77 74
REMARK SMILES IDX 54 75 43 76 44 77 48 78 45 79 47 80 46 81 65 82 66 83 70 84
REMARK SMILES IDX 67 85 69 86 68 87 55 88 56 89 60 90 57 91 59 92 58 93
REMARK H PARENT 27 4 21 9 15 14 1 17 1 18 1 19 6 27 18 33 24 36 31 42 75 61
REMARK H PARENT 53 72
REMARK Flexibility Score: inf
ROOT
ATOM      1  C   UNL A   1      33.548  35.331  31.056  1.00  0.00     0.244 C 
ATOM      2  O   UNL A   1      33.203  36.220  31.839  1.00  0.00    -0.273 OA
ATOM      3  N   UNL A   1      32.944  35.315  29.839  1.00  0.00    -0.354 N 
ATOM      4  H   UNL A   1      32.176  35.925  29.757  1.00  0.00     0.163 HD
ENDROOT
BRANCH   1   5
ATOM      5  C   UNL A   1      34.598  34.295  31.462  1.00  0.00     0.197 C 
BRANCH   5   6
ATOM      6  N   UNL A   1      35.840  34.944  31.905  1.00  0.00    -0.340 N 
ATOM      7  C   UNL A   1      36.255  34.706  33.183  1.00  0.00     0.244 C 
ATOM      8  O   UNL A   1      35.591  35.205  34.097  1.00  0.00    -0.273 OA
ATOM      9  H   UNL A   1      36.354  35.529  31.302  1.00  0.00     0.164 HD
BRANCH   7  10
ATOM     10  C   UNL A   1      37.583  33.938  33.424  1.00  0.00     0.181 C 
BRANCH  10  11
ATOM     11  N   UNL A   1      37.245  32.935  34.439  1.00  0.00    -0.338 N 
ATOM     12  C   UNL A   1      37.937  32.688  35.595  1.00  0.00     0.279 C 
ATOM     13  O   UNL A   1      37.267  32.482  36.614  1.00  0.00    -0.268 OA
ATOM     14  H   UNL A   1      36.444  32.387  34.273  1.00  0.00     0.164 HD
BRANCH  12  15
ATOM     15  C   UNL A   1      39.482  32.561  35.640  1.00  0.00     0.275 C 
BRANCH  15  16
ATOM     16  N   UNL A   1      40.134  33.793  36.146  1.00  0.00    -0.347 N 
ATOM     17  H   UNL A   1      39.622  34.139  36.958  1.00  0.00     0.345 HD
ATOM     18  H   UNL A   1      40.130  34.504  35.414  1.00  0.00     0.345 HD
ATOM     19  H   UNL A   1      41.095  33.585  36.412  1.00  0.00     0.345 HD
ENDBRANCH  15  16
BRANCH  15  20
ATOM     20  C   UNL A   1      40.037  31.220  36.197  1.00  0.00     0.113 C 
BRANCH  20  21
ATOM     21  C   UNL A   1      40.415  30.185  35.173  1.00  0.00    -0.016 A 
ATOM     22  C   UNL A   1      39.735  29.945  33.998  1.00  0.00     0.087 A 
ATOM     23  C   UNL A   1      41.589  29.359  35.093  1.00  0.00     0.003 A 
ATOM     24  N   UNL A   1      40.184  28.769  33.473  1.00  0.00    -0.361 N 
ATOM     25  C   UNL A   1      41.362  28.421  34.081  1.00  0.00     0.046 A 
ATOM     26  C   UNL A   1      42.831  29.318  35.757  1.00  0.00     0.010 A 
ATOM     27  H   UNL A   1      39.733  28.251  32.768  1.00  0.00     0.166 HD
ATOM     28  C   UNL A   1      42.250  27.387  33.771  1.00  0.00     0.026 A 
ATOM     29  C   UNL A   1      43.786  28.361  35.373  1.00  0.00     0.001 A 
ATOM     30  C   UNL A   1      43.486  27.392  34.418  1.00  0.00     0.002 A 
ENDBRANCH  20  21
ENDBRANCH  15  20
ENDBRANCH  12  15
ENDBRANCH  10  11
BRANCH  10  31
ATOM     31  C   UNL A   1      38.324  33.398  32.198  1.00  0.00     0.101 C 
BRANCH  31  32
ATOM     32  S   UNL A   1      39.221  34.596  31.166  1.00  0.00    -0.177 SA
ATOM     33  H   UNL A   1      40.377  34.034  30.719  1.00  0.00     0.102 HD
ENDBRANCH  31  32
ENDBRANCH  10  31
ENDBRANCH   7  10
ENDBRANCH   5   6
BRANCH   5  34
ATOM     34  C   UNL A   1      34.035  33.178  32.366  1.00  0.00     0.191 C 
BRANCH  34  35
ATOM     35  O   UNL A   1      33.110  33.633  33.351  1.00  0.00    -0.394 OA
ATOM     36  H   UNL A   1      33.596  33.955  34.125  1.00  0.00     0.210 HD
ENDBRANCH  34  35
ENDBRANCH   5  34
ENDBRANCH   1   5
BRANCH   3  37
ATOM     37  C   UNL A   1      33.236  34.551  28.641  1.00  0.00     0.117 C 
BRANCH  37  38
ATOM     38  C   UNL A   1      34.713  34.563  28.287  1.00  0.00     0.042 C 
BRANCH  38  39
ATOM     39  C   UNL A   1      35.336  33.187  28.124  1.00  0.00     0.118 C 
BRANCH  39  40
ATOM     40  N   UNL A   1      34.353  32.140  27.889  1.00  0.00    -0.352 N 
ATOM     41  C   UNL A   1      34.522  30.778  27.813  1.00  0.00     0.251 C 
ATOM     42  H   UNL A   1      33.429  32.454  27.766  1.00  0.00     0.163 HD
ATOM     43  O   UNL A   1      33.601  30.064  27.444  1.00  0.00    -0.269 OA
BRANCH  41  44
ATOM     44  C   UNL A   1      35.831  30.184  28.152  1.00  0.00     0.039 A 
ATOM     45  C   UNL A   1      36.849  30.198  27.197  1.00  0.00     0.014 A 
ATOM     46  C   UNL A   1      36.053  29.623  29.412  1.00  0.00     0.014 A 
ATOM     47  C   UNL A   1      38.111  29.702  27.529  1.00  0.00     0.010 A 
ATOM     48  C   UNL A   1      37.334  29.231  29.775  1.00  0.00     0.010 A 
ATOM     49  C   UNL A   1      38.372  29.245  28.831  1.00  0.00    -0.014 A 
BRANCH  49  50
ATOM     50  C   UNL A   1      39.704  28.725  29.221  1.00  0.00     0.031 A 
ATOM     51  C   UNL A   1      40.625  29.592  30.039  1.00  0.00     0.074 A 
ATOM     52  C   UNL A   1      40.106  27.511  28.799  1.00  0.00     0.049 A 
ATOM     53  N   UNL A   1      41.862  29.371  30.402  1.00  0.00    -0.248 NA
ATOM     54  C   UNL A   1      40.096  30.894  30.480  1.00  0.00     0.031 C 
ATOM     55  C   UNL A   1      39.318  26.590  27.977  1.00  0.00     0.029 A 
ATOM     56  N   UNL A   1      41.288  26.844  29.002  1.00  0.00    -0.354 N 
ATOM     57  C   UNL A   1      42.259  30.508  31.095  1.00  0.00     0.074 A 
ATOM     58  C   UNL A   1      41.160  31.444  31.045  1.00  0.00     0.031 C 
ATOM     59  C   UNL A   1      40.026  25.465  27.776  1.00  0.00     0.029 A 
ATOM     60  C   UNL A   1      41.330  25.603  28.413  1.00  0.00     0.049 A 
ATOM     61  H   UNL A   1      42.035  27.220  29.521  1.00  0.00     0.167 HD
ATOM     62  C   UNL A   1      43.423  30.742  31.745  1.00  0.00     0.031 A 
ATOM     63  C   UNL A   1      42.315  24.685  28.389  1.00  0.00     0.031 A 
ATOM     64  C   UNL A   1      44.506  29.803  31.817  1.00  0.00     0.049 A 
ATOM     65  C   UNL A   1      43.606  24.982  29.102  1.00  0.00     0.074 A 
ATOM     66  C   UNL A   1      45.717  29.929  32.474  1.00  0.00     0.029 A 
ATOM     67  N   UNL A   1      44.502  28.552  31.219  1.00  0.00    -0.354 N 
ATOM     68  N   UNL A   1      43.947  26.046  29.789  1.00  0.00    -0.248 NA
ATOM     69  C   UNL A   1      44.643  23.942  29.047  1.00  0.00     0.031 C 
ATOM     70  C   UNL A   1      46.461  28.769  32.243  1.00  0.00     0.029 A 
ATOM     71  C   UNL A   1      45.691  27.899  31.487  1.00  0.00     0.049 A 
ATOM     72  H   UNL A   1      43.762  28.185  30.683  1.00  0.00     0.167 HD
ATOM     73  C   UNL A   1      45.219  25.785  30.281  1.00  0.00     0.074 A 
ATOM     74  C   UNL A   1      45.582  24.458  29.827  1.00  0.00     0.031 C 
ATOM     75  C   UNL A   1      46.019  26.571  31.042  1.00  0.00     0.031 A 
BRANCH  62  76
ATOM     76  C   UNL A   1      43.572  32.063  32.446  1.00  0.00    -0.014 A 
ATOM     77  C   UNL A   1      43.145  32.228  33.774  1.00  0.00     0.009 A 
ATOM     78  C   UNL A   1      44.182  33.144  31.791  1.00  0.00     0.009 A 
ATOM     79  C   UNL A   1      43.299  33.455  34.421  1.00  0.00     0.001 A 
ATOM     80  C   UNL A   1      44.362  34.361  32.451  1.00  0.00     0.001 A 
ATOM     81  C   UNL A   1      43.913  34.518  33.761  1.00  0.00     0.000 A 
ENDBRANCH  62  76
BRANCH  63  82
ATOM     82  C   UNL A   1      42.127  23.390  27.682  1.00  0.00    -0.014 A 
ATOM     83  C   UNL A   1      41.454  22.329  28.308  1.00  0.00     0.009 A 
ATOM     84  C   UNL A   1      42.658  23.190  26.398  1.00  0.00     0.009 A 
ATOM     85  C   UNL A   1      41.358  21.082  27.684  1.00  0.00     0.001 A 
ATOM     86  C   UNL A   1      42.531  21.953  25.763  1.00  0.00     0.001 A 
ATOM     87  C   UNL A   1      41.895  20.896  26.413  1.00  0.00     0.000 A 
ENDBRANCH  63  82
BRANCH  75  88
ATOM     88  C   UNL A   1      47.333  25.993  31.483  1.00  0.00    -0.014 A 
ATOM     89  C   UNL A   1      48.447  25.971  30.630  1.00  0.00     0.009 A 
ATOM     90  C   UNL A   1      47.465  25.498  32.790  1.00  0.00     0.009 A 
ATOM     91  C   UNL A   1      49.657  25.431  31.067  1.00  0.00     0.001 A 
ATOM     92  C   UNL A   1      48.685  24.989  33.234  1.00  0.00     0.001 A 
ATOM     93  C   UNL A   1      49.777  24.946  32.370  1.00  0.00     0.000 A 
ENDBRANCH  75  88
ENDBRANCH  49  50
ENDBRANCH  41  44
ENDBRANCH  39  40
ENDBRANCH  38  39
ENDBRANCH  37  38
ENDBRANCH   3  37
TORSDOF 21
ENDMDL
MODEL 3
REMARK VINA RESULT:     -10.2      5.212     11.305
REMARK SMILES [NH3+][C@@H](Cc1c[nH]c2ccccc12)C(=O)N[C@@H](CS)C(=O)N[C@@H](CO)C(=O)NCCCNC(=O)c1ccc(-c2c3nc(c(-c4ccccc4)c4ccc([nH]4)c(-c4ccccc4)c4nc(c(-c5ccccc5)c5ccc2[nH]5)C=C4)C=C3)cc1
REMARK SMILES IDX 25 1 26 2 27 3 22 5 21 6 19 7 20 8 16 10 15 11 13 12 14 13
REMARK SMILES IDX 2 15 1 16 3 20 4 21 5 22 12 23 6 24 7 25 11 26 8 28 10 29
REMARK SMILES IDX 9 30 17 31 18 32 23 34 24 35 28 37 29 38 30 39 31 40 32 41
REMARK SMILES IDX 33 43 34 44 35 45 81 46 36 47 80 48 37 49 38 50 39 51 74 52
REMARK SMILES IDX 40 53 79 54 73 55 75 56 41 57 78 58 72 59 71 60 42 62 64 63
REMARK SMILES IDX 49 64 63 65 50 66 53 67 62 68 76 69 51 70 52 71 61 73 77 74
REMARK SMILES IDX 54 75 43 76 44 77 48 78 45 79 47 80 46 81 65 82 66 83 70 84
REMARK SMILES IDX 67 85 69 86 68 87 55 88 56 89 60 90 57 91 59 92 58 93
REMARK H PARENT 27 4 21 9 15 14 1 17 1 18 1 19 6 27 18 33 24 36 31 42 75 61
REMARK H PARENT 53 72
REMARK Flexibility Score: inf
ROOT
ATOM      1  C   UNL A   1      33.573  35.297  31.043  1.00  0.00     0.244 C 
ATOM      2  O   UNL A   1      33.312  36.258  31.772  1.00  0.00    -0.273 OA
ATOM      3  N   UNL A   1      32.946  35.253  29.838  1.00  0.00    -0.354 N 
ATOM      4  H   UNL A   1      32.228  35.916  29.727  1.00  0.00     0.163 HD
ENDROOT
BRANCH   1   5
ATOM      5  C   UNL A   1      34.544  34.208  31.501  1.00  0.00     0.197 C 
BRANCH   5   6
ATOM      6  N   UNL A   1      35.828  34.786  31.924  1.00  0.00    -0.340 N 
ATOM      7  C   UNL A   1      36.183  34.642  33.233  1.00  0.00     0.244 C 
ATOM      8  O   UNL A   1      35.542  35.286  34.069  1.00  0.00    -0.273 OA
ATOM      9  H   UNL A   1      36.409  35.261  31.287  1.00  0.00     0.164 HD
BRANCH   7  10
ATOM     10  C   UNL A   1      37.428  33.788  33.597  1.00  0.00     0.181 C 
BRANCH  10  11
ATOM     11  N   UNL A   1      37.152  33.298  34.951  1.00  0.00    -0.338 N 
ATOM     12  C   UNL A   1      38.021  33.312  36.010  1.00  0.00     0.279 C 
ATOM     13  O   UNL A   1      37.553  33.625  37.111  1.00  0.00    -0.268 OA
ATOM     14  H   UNL A   1      36.256  32.924  35.114  1.00  0.00     0.164 HD
BRANCH  12  15
ATOM     15  C   UNL A   1      39.499  32.860  35.891  1.00  0.00     0.275 C 
BRANCH  15  16
ATOM     16  N   UNL A   1      40.449  33.951  36.217  1.00  0.00    -0.347 N 
ATOM     17  H   UNL A   1      41.100  34.077  35.441  1.00  0.00     0.345 HD
ATOM     18  H   UNL A   1      40.969  33.708  37.061  1.00  0.00     0.345 HD
ATOM     19  H   UNL A   1      39.934  34.817  36.372  1.00  0.00     0.345 HD
ENDBRANCH  15  16
BRANCH  15  20
ATOM     20  C   UNL A   1      39.834  31.466  36.492  1.00  0.00     0.113 C 
BRANCH  20  21
ATOM     21  C   UNL A   1      40.336  30.432  35.521  1.00  0.00    -0.016 A 
ATOM     22  C   UNL A   1      39.767  30.151  34.296  1.00  0.00     0.087 A 
ATOM     23  C   UNL A   1      41.541  29.649  35.555  1.00  0.00     0.003 A 
ATOM     24  N   UNL A   1      40.302  28.985  33.832  1.00  0.00    -0.361 N 
ATOM     25  C   UNL A   1      41.436  28.690  34.543  1.00  0.00     0.046 A 
ATOM     26  C   UNL A   1      42.723  29.665  36.322  1.00  0.00     0.010 A 
ATOM     27  H   UNL A   1      39.932  28.440  33.100  1.00  0.00     0.166 HD
ATOM     28  C   UNL A   1      42.384  27.686  34.327  1.00  0.00     0.026 A 
ATOM     29  C   UNL A   1      43.741  28.739  36.037  1.00  0.00     0.001 A 
ATOM     30  C   UNL A   1      43.559  27.747  35.076  1.00  0.00     0.002 A 
ENDBRANCH  20  21
ENDBRANCH  15  20
ENDBRANCH  12  15
ENDBRANCH  10  11
BRANCH  10  31
ATOM     31  C   UNL A   1      37.873  32.719  32.596  1.00  0.00     0.101 C 
BRANCH  31  32
ATOM     32  S   UNL A   1      36.928  31.166  32.553  1.00  0.00    -0.177 SA
ATOM     33  H   UNL A   1      36.093  31.113  33.625  1.00  0.00     0.102 HD
ENDBRANCH  31  32
ENDBRANCH  10  31
ENDBRANCH   7  10
ENDBRANCH   5   6
BRANCH   5  34
ATOM     34  C   UNL A   1      33.901  33.173  32.448  1.00  0.00     0.191 C 
BRANCH  34  35
ATOM     35  O   UNL A   1      32.893  33.709  33.301  1.00  0.00    -0.394 OA
ATOM     36  H   UNL A   1      32.031  33.343  33.051  1.00  0.00     0.210 HD
ENDBRANCH  34  35
ENDBRANCH   5  34
ENDBRANCH   1   5
BRANCH   3  37
ATOM     37  C   UNL A   1      33.156  34.395  28.688  1.00  0.00     0.117 C 
BRANCH  37  38
ATOM     38  C   UNL A   1      34.577  34.467  28.156  1.00  0.00     0.042 C 
BRANCH  38  39
ATOM     39  C   UNL A   1      35.266  33.121  28.008  1.00  0.00     0.118 C 
BRANCH  39  40
ATOM     40  N   UNL A   1      34.336  32.025  27.780  1.00  0.00    -0.352 N 
ATOM     41  C   UNL A   1      34.569  30.672  27.723  1.00  0.00     0.251 C 
ATOM     42  H   UNL A   1      33.398  32.294  27.648  1.00  0.00     0.163 HD
ATOM     43  O   UNL A   1      33.685  29.911  27.358  1.00  0.00    -0.269 OA
BRANCH  41  44
ATOM     44  C   UNL A   1      35.903  30.146  28.077  1.00  0.00     0.039 A 
ATOM     45  C   UNL A   1      36.950  30.286  27.165  1.00  0.00     0.014 A 
ATOM     46  C   UNL A   1      36.118  29.523  29.309  1.00  0.00     0.014 A 
ATOM     47  C   UNL A   1      38.230  29.853  27.516  1.00  0.00     0.010 A 
ATOM     48  C   UNL A   1      37.409  29.195  29.698  1.00  0.00     0.010 A 
ATOM     49  C   UNL A   1      38.476  29.335  28.798  1.00  0.00    -0.014 A 
BRANCH  49  50
ATOM     50  C   UNL A   1      39.826  28.881  29.208  1.00  0.00     0.031 A 
ATOM     51  C   UNL A   1      40.299  27.509  28.803  1.00  0.00     0.074 A 
ATOM     52  C   UNL A   1      40.598  29.667  29.983  1.00  0.00     0.049 A 
ATOM     53  N   UNL A   1      41.397  26.882  29.136  1.00  0.00    -0.248 NA
ATOM     54  C   UNL A   1      39.403  26.726  27.934  1.00  0.00     0.031 C 
ATOM     55  C   UNL A   1      40.240  31.002  30.466  1.00  0.00     0.029 A 
ATOM     56  N   UNL A   1      41.847  29.450  30.506  1.00  0.00    -0.354 N 
ATOM     57  C   UNL A   1      41.314  25.633  28.534  1.00  0.00     0.074 A 
ATOM     58  C   UNL A   1      40.031  25.562  27.872  1.00  0.00     0.031 C 
ATOM     59  C   UNL A   1      41.262  31.498  31.185  1.00  0.00     0.029 A 
ATOM     60  C   UNL A   1      42.324  30.501  31.252  1.00  0.00     0.049 A 
ATOM     61  H   UNL A   1      42.355  28.619  30.360  1.00  0.00     0.167 HD
ATOM     62  C   UNL A   1      42.235  24.642  28.504  1.00  0.00     0.031 A 
ATOM     63  C   UNL A   1      43.486  30.638  31.918  1.00  0.00     0.031 A 
ATOM     64  C   UNL A   1      43.520  24.721  29.140  1.00  0.00     0.049 A 
ATOM     65  C   UNL A   1      44.482  29.511  31.885  1.00  0.00     0.074 A 
ATOM     66  C   UNL A   1      44.540  23.785  29.146  1.00  0.00     0.029 A 
ATOM     67  N   UNL A   1      43.968  25.808  29.873  1.00  0.00    -0.354 N 
ATOM     68  N   UNL A   1      44.404  28.354  31.275  1.00  0.00    -0.248 NA
ATOM     69  C   UNL A   1      45.736  29.718  32.625  1.00  0.00     0.031 C 
ATOM     70  C   UNL A   1      45.591  24.292  29.915  1.00  0.00     0.029 A 
ATOM     71  C   UNL A   1      45.246  25.565  30.341  1.00  0.00     0.049 A 
ATOM     72  H   UNL A   1      43.452  26.631  30.036  1.00  0.00     0.167 HD
ATOM     73  C   UNL A   1      45.612  27.715  31.521  1.00  0.00     0.074 A 
ATOM     74  C   UNL A   1      46.409  28.618  32.324  1.00  0.00     0.031 C 
ATOM     75  C   UNL A   1      46.027  26.489  31.120  1.00  0.00     0.031 A 
BRANCH  62  76
ATOM     76  C   UNL A   1      41.889  23.395  27.740  1.00  0.00    -0.014 A 
ATOM     77  C   UNL A   1      42.283  23.235  26.402  1.00  0.00     0.009 A 
ATOM     78  C   UNL A   1      41.197  22.350  28.373  1.00  0.00     0.009 A 
ATOM     79  C   UNL A   1      41.968  22.067  25.705  1.00  0.00     0.001 A 
ATOM     80  C   UNL A   1      40.909  21.172  27.682  1.00  0.00     0.001 A 
ATOM     81  C   UNL A   1      41.287  21.035  26.347  1.00  0.00     0.000 A 
ENDBRANCH  62  76
BRANCH  63  82
ATOM     82  C   UNL A   1      43.790  31.890  32.664  1.00  0.00    -0.014 A 
ATOM     83  C   UNL A   1      44.615  32.873  32.096  1.00  0.00     0.009 A 
ATOM     84  C   UNL A   1      43.297  32.088  33.963  1.00  0.00     0.009 A 
ATOM     85  C   UNL A   1      44.978  34.005  32.829  1.00  0.00     0.001 A 
ATOM     86  C   UNL A   1      43.635  33.237  34.681  1.00  0.00     0.001 A 
ATOM     87  C   UNL A   1      44.487  34.187  34.120  1.00  0.00     0.000 A 
ENDBRANCH  63  82
BRANCH  75  88
ATOM     88  C   UNL A   1      47.425  26.082  31.488  1.00  0.00    -0.014 A 
ATOM     89  C   UNL A   1      47.717  25.507  32.734  1.00  0.00     0.009 A 
ATOM     90  C   UNL A   1      48.459  26.242  30.552  1.00  0.00     0.009 A 
ATOM     91  C   UNL A   1      49.025  25.135  33.049  1.00  0.00     0.001 A 
ATOM     92  C   UNL A   1      49.759  25.839  30.857  1.00  0.00     0.001 A 
ATOM     93  C   UNL A   1      50.043  25.296  32.109  1.00  0.00     0.000 A 
ENDBRANCH  75  88
ENDBRANCH  49  50
ENDBRANCH  41  44
ENDBRANCH  39  40
ENDBRANCH  38  39
ENDBRANCH  37  38
ENDBRANCH   3  37
TORSDOF 21
ENDMDL
