MODEL 1
REMARK VINA RESULT:     -13.7      0.000      0.000
REMARK SMILES COc1ccc(NC(=O)N[C@@H]2C=C[C@H](C(=O)NCCCNC(=O)c3ccc(-c4c5nc(c(-c6ccccc6)c6ccc([nH]6)c(-c6ccccc6)c6nc(c(-c7ccccc7)c7ccc4[nH]7)C=C6)C=C5)cc3)C2)c(C)c1
REMARK SMILES IDX 18 1 17 2 15 3 16 4 14 6 11 7 12 8 72 9 13 10 10 11 7 12
REMARK SMILES IDX 8 13 9 15 6 17 3 18 4 19 75 20 5 21 73 22 74 23 2 24 1 25
REMARK SMILES IDX 19 26 20 27 21 28 22 29 23 31 24 32 25 33 71 34 26 35 70 36
REMARK SMILES IDX 27 37 28 38 29 39 64 40 30 41 69 42 63 43 65 44 31 45 68 46
REMARK SMILES IDX 62 47 61 48 32 50 54 51 39 52 53 53 40 54 43 55 52 56 66 57
REMARK SMILES IDX 41 58 42 59 51 61 67 62 44 63 33 64 34 65 38 66 35 67 37 68
REMARK SMILES IDX 36 69 55 70 56 71 60 72 57 73 59 74 58 75 45 76 46 77 50 78
REMARK SMILES IDX 47 79 49 80 48 81
REMARK H PARENT 17 5 7 14 10 16 21 30 65 49 43 60
REMARK Flexibility Score: inf
ROOT
ATOM      1  C   UNL A   1      38.814  22.391  26.124  1.00  0.00     0.117 C 
ENDROOT
BRANCH   1   2
ATOM      2  N   UNL A   1      38.167  21.430  25.271  1.00  0.00    -0.356 N 
ATOM      3  C   UNL A   1      36.814  21.528  25.080  1.00  0.00     0.227 C 
ATOM      4  O   UNL A   1      36.180  20.655  25.673  1.00  0.00    -0.274 OA
ATOM      5  H   UNL A   1      38.685  20.715  24.836  1.00  0.00     0.163 HD
BRANCH   3   6
ATOM      6  C   UNL A   1      36.269  22.854  24.087  1.00  0.00     0.103 C 
ATOM      7  C   UNL A   1      34.240  25.019  25.222  1.00  0.00     0.107 C 
ATOM      8  C   UNL A   1      33.669  24.611  23.357  1.00  0.00    -0.006 C 
ATOM      9  C   UNL A   1      36.004  24.224  25.562  1.00  0.00     0.047 C 
ATOM     10  C   UNL A   1      34.568  23.328  22.738  1.00  0.00    -0.016 C 
BRANCH   7  11
ATOM     11  N   UNL A   1      33.376  23.991  26.366  1.00  0.00    -0.332 N 
ATOM     12  N   UNL A   1      31.036  25.083  26.823  1.00  0.00    -0.308 N 
ATOM     13  C   UNL A   1      31.985  23.939  26.884  1.00  0.00     0.319 C 
ATOM     14  H   UNL A   1      30.195  24.997  27.329  1.00  0.00     0.171 HD
ATOM     15  O   UNL A   1      31.610  22.875  27.390  1.00  0.00    -0.248 OA
ATOM     16  H   UNL A   1      33.950  23.289  26.751  1.00  0.00     0.165 HD
BRANCH  12  17
ATOM     17  C   UNL A   1      31.241  26.304  26.093  1.00  0.00     0.046 A 
ATOM     18  C   UNL A   1      30.247  28.867  23.596  1.00  0.00     0.119 A 
ATOM     19  C   UNL A   1      29.585  27.243  23.513  1.00  0.00     0.048 A 
ATOM     20  C   UNL A   1      31.292  29.152  24.947  1.00  0.00     0.052 A 
ATOM     21  C   UNL A   1      30.316  26.014  24.957  1.00  0.00     0.030 A 
ATOM     22  C   UNL A   1      31.754  27.927  26.145  1.00  0.00    -0.024 A 
ATOM     23  C   UNL A   1      32.241  28.566  27.429  1.00  0.00     0.047 C 
BRANCH  18  24
ATOM     24  O   UNL A   1      30.042  29.894  22.743  1.00  0.00    -0.497 OA
ATOM     25  C   UNL A   1      28.982  30.764  23.101  1.00  0.00     0.278 C 
ENDBRANCH  18  24
ENDBRANCH  12  17
ENDBRANCH   7  11
ENDBRANCH   3   6
ENDBRANCH   1   2
BRANCH   1  26
ATOM     26  C   UNL A   1      40.126  21.855  26.697  1.00  0.00     0.042 C 
BRANCH  26  27
ATOM     27  C   UNL A   1      41.370  22.524  26.160  1.00  0.00     0.118 C 
BRANCH  27  28
ATOM     28  N   UNL A   1      42.307  21.573  25.611  1.00  0.00    -0.352 N 
ATOM     29  C   UNL A   1      43.638  21.768  25.329  1.00  0.00     0.251 C 
ATOM     30  H   UNL A   1      41.949  20.676  25.416  1.00  0.00     0.163 HD
ATOM     31  O   UNL A   1      44.153  21.128  24.416  1.00  0.00    -0.269 OA
BRANCH  29  32
ATOM     32  C   UNL A   1      44.485  22.498  26.324  1.00  0.00     0.039 A 
ATOM     33  C   UNL A   1      43.935  22.488  27.614  1.00  0.00     0.014 A 
ATOM     34  C   UNL A   1      45.186  23.617  25.900  1.00  0.00     0.014 A 
ATOM     35  C   UNL A   1      43.726  23.696  28.258  1.00  0.00     0.010 A 
ATOM     36  C   UNL A   1      44.785  24.820  26.384  1.00  0.00     0.010 A 
ATOM     37  C   UNL A   1      44.002  24.847  27.534  1.00  0.00    -0.014 A 
BRANCH  37  38
ATOM     38  C   UNL A   1      43.873  26.200  28.013  1.00  0.00     0.031 A 
ATOM     39  C   UNL A   1      42.559  26.754  27.598  1.00  0.00     0.074 A 
ATOM     40  C   UNL A   1      44.780  26.538  28.970  1.00  0.00     0.049 A 
ATOM     41  N   UNL A   1      42.243  27.987  27.591  1.00  0.00    -0.248 NA
ATOM     42  C   UNL A   1      41.447  25.932  27.053  1.00  0.00     0.031 C 
ATOM     43  C   UNL A   1      44.838  27.579  29.995  1.00  0.00     0.029 A 
ATOM     44  N   UNL A   1      46.080  26.003  29.038  1.00  0.00    -0.354 N 
ATOM     45  C   UNL A   1      40.859  28.032  27.590  1.00  0.00     0.074 A 
ATOM     46  C   UNL A   1      40.422  26.791  27.031  1.00  0.00     0.031 C 
ATOM     47  C   UNL A   1      46.133  27.887  30.239  1.00  0.00     0.029 A 
ATOM     48  C   UNL A   1      46.941  27.085  29.335  1.00  0.00     0.049 A 
ATOM     49  H   UNL A   1      46.338  25.063  28.907  1.00  0.00     0.167 HD
ATOM     50  C   UNL A   1      40.275  29.043  28.286  1.00  0.00     0.031 A 
ATOM     51  C   UNL A   1      47.718  27.571  28.316  1.00  0.00     0.031 A 
ATOM     52  C   UNL A   1      41.340  29.862  28.875  1.00  0.00     0.049 A 
ATOM     53  C   UNL A   1      47.111  28.865  27.786  1.00  0.00     0.074 A 
ATOM     54  C   UNL A   1      41.933  29.875  30.124  1.00  0.00     0.029 A 
ATOM     55  N   UNL A   1      42.267  30.410  28.005  1.00  0.00    -0.354 N 
ATOM     56  N   UNL A   1      45.856  29.213  27.938  1.00  0.00    -0.248 NA
ATOM     57  C   UNL A   1      47.885  29.888  27.097  1.00  0.00     0.031 C 
ATOM     58  C   UNL A   1      43.259  30.401  29.964  1.00  0.00     0.029 A 
ATOM     59  C   UNL A   1      43.470  30.685  28.624  1.00  0.00     0.049 A 
ATOM     60  H   UNL A   1      42.089  30.585  27.052  1.00  0.00     0.167 HD
ATOM     61  C   UNL A   1      45.674  30.509  27.540  1.00  0.00     0.074 A 
ATOM     62  C   UNL A   1      46.946  30.831  26.897  1.00  0.00     0.031 C 
ATOM     63  C   UNL A   1      44.540  31.245  27.799  1.00  0.00     0.031 A 
BRANCH  50  64
ATOM     64  C   UNL A   1      38.824  29.215  28.650  1.00  0.00    -0.014 A 
ATOM     65  C   UNL A   1      37.952  29.642  27.630  1.00  0.00     0.009 A 
ATOM     66  C   UNL A   1      38.242  29.014  29.915  1.00  0.00     0.009 A 
ATOM     67  C   UNL A   1      36.591  29.877  27.847  1.00  0.00     0.001 A 
ATOM     68  C   UNL A   1      36.869  29.241  30.139  1.00  0.00     0.001 A 
ATOM     69  C   UNL A   1      36.045  29.675  29.106  1.00  0.00     0.000 A 
ENDBRANCH  50  64
BRANCH  51  70
ATOM     70  C   UNL A   1      48.282  26.415  27.523  1.00  0.00    -0.014 A 
ATOM     71  C   UNL A   1      48.087  26.473  26.116  1.00  0.00     0.009 A 
ATOM     72  C   UNL A   1      49.394  25.711  28.000  1.00  0.00     0.009 A 
ATOM     73  C   UNL A   1      49.123  26.130  25.236  1.00  0.00     0.001 A 
ATOM     74  C   UNL A   1      50.384  25.289  27.099  1.00  0.00     0.001 A 
ATOM     75  C   UNL A   1      50.294  25.584  25.739  1.00  0.00     0.000 A 
ENDBRANCH  51  70
BRANCH  63  76
ATOM     76  C   UNL A   1      44.282  32.617  27.210  1.00  0.00    -0.014 A 
ATOM     77  C   UNL A   1      44.227  32.871  25.843  1.00  0.00     0.009 A 
ATOM     78  C   UNL A   1      44.090  33.738  28.053  1.00  0.00     0.009 A 
ATOM     79  C   UNL A   1      43.777  34.101  25.355  1.00  0.00     0.001 A 
ATOM     80  C   UNL A   1      43.686  34.980  27.578  1.00  0.00     0.001 A 
ATOM     81  C   UNL A   1      43.479  35.145  26.223  1.00  0.00     0.000 A 
ENDBRANCH  63  76
ENDBRANCH  37  38
ENDBRANCH  29  32
ENDBRANCH  27  28
ENDBRANCH  26  27
ENDBRANCH   1  26
TORSDOF 13
ENDMDL
MODEL 2
REMARK VINA RESULT:     -13.1      4.602      9.917
REMARK SMILES COc1ccc(NC(=O)N[C@@H]2C=C[C@H](C(=O)NCCCNC(=O)c3ccc(-c4c5nc(c(-c6ccccc6)c6ccc([nH]6)c(-c6ccccc6)c6nc(c(-c7ccccc7)c7ccc4[nH]7)C=C6)C=C5)cc3)C2)c(C)c1
REMARK SMILES IDX 18 1 17 2 15 3 16 4 14 6 11 7 12 8 72 9 13 10 10 11 7 12
REMARK SMILES IDX 8 13 9 15 6 17 3 18 4 19 75 20 5 21 73 22 74 23 2 24 1 25
REMARK SMILES IDX 19 26 20 27 21 28 22 29 23 31 24 32 25 33 71 34 26 35 70 36
REMARK SMILES IDX 27 37 28 38 29 39 64 40 30 41 69 42 63 43 65 44 31 45 68 46
REMARK SMILES IDX 62 47 61 48 32 50 54 51 39 52 53 53 40 54 43 55 52 56 66 57
REMARK SMILES IDX 41 58 42 59 51 61 67 62 44 63 33 64 34 65 38 66 35 67 37 68
REMARK SMILES IDX 36 69 55 70 56 71 60 72 57 73 59 74 58 75 45 76 46 77 50 78
REMARK SMILES IDX 47 79 49 80 48 81
REMARK H PARENT 17 5 7 14 10 16 21 30 65 49 43 60
REMARK Flexibility Score: inf
ROOT
ATOM      1  C   UNL A   1      34.151  30.579  27.680  1.00  0.00     0.117 C 
ENDROOT
BRANCH   1   2
ATOM      2  N   UNL A   1      32.915  30.594  26.944  1.00  0.00    -0.356 N 
ATOM      3  C   UNL A   1      32.680  29.594  26.037  1.00  0.00     0.227 C 
ATOM      4  O   UNL A   1      32.778  29.971  24.869  1.00  0.00    -0.274 OA
ATOM      5  H   UNL A   1      32.253  31.308  27.086  1.00  0.00     0.163 HD
BRANCH   3   6
ATOM      6  C   UNL A   1      32.327  28.020  26.698  1.00  0.00     0.103 C 
ATOM      7  C   UNL A   1      33.561  25.392  25.409  1.00  0.00     0.107 C 
ATOM      8  C   UNL A   1      31.667  24.978  25.865  1.00  0.00    -0.006 C 
ATOM      9  C   UNL A   1      34.076  27.110  26.213  1.00  0.00     0.047 C 
ATOM     10  C   UNL A   1      30.871  26.372  26.376  1.00  0.00    -0.016 C 
BRANCH   7  11
ATOM     11  N   UNL A   1      33.682  25.953  23.740  1.00  0.00    -0.332 N 
ATOM     12  N   UNL A   1      33.726  23.844  22.183  1.00  0.00    -0.308 N 
ATOM     13  C   UNL A   1      33.572  25.306  22.408  1.00  0.00     0.319 C 
ATOM     14  H   UNL A   1      33.789  23.537  21.249  1.00  0.00     0.171 HD
ATOM     15  O   UNL A   1      33.339  26.041  21.441  1.00  0.00    -0.248 OA
ATOM     16  H   UNL A   1      33.864  26.919  23.679  1.00  0.00     0.165 HD
BRANCH  12  17
ATOM     17  C   UNL A   1      33.793  22.840  23.209  1.00  0.00     0.046 A 
ATOM     18  C   UNL A   1      33.155  19.436  24.548  1.00  0.00     0.119 A 
ATOM     19  C   UNL A   1      32.196  20.060  23.217  1.00  0.00     0.048 A 
ATOM     20  C   UNL A   1      34.420  20.491  25.084  1.00  0.00     0.052 A 
ATOM     21  C   UNL A   1      32.703  21.958  22.697  1.00  0.00     0.030 A 
ATOM     22  C   UNL A   1      34.729  22.112  24.432  1.00  0.00    -0.024 A 
ATOM     23  C   UNL A   1      36.143  22.566  24.727  1.00  0.00     0.047 C 
BRANCH  18  24
ATOM     24  O   UNL A   1      33.019  18.254  25.190  1.00  0.00    -0.497 OA
ATOM     25  C   UNL A   1      33.602  17.145  24.528  1.00  0.00     0.278 C 
ENDBRANCH  18  24
ENDBRANCH  12  17
ENDBRANCH   7  11
ENDBRANCH   3   6
ENDBRANCH   1   2
BRANCH   1  26
ATOM     26  C   UNL A   1      34.630  31.989  28.021  1.00  0.00     0.042 C 
BRANCH  26  27
ATOM     27  C   UNL A   1      35.059  32.182  29.457  1.00  0.00     0.118 C 
BRANCH  27  28
ATOM     28  N   UNL A   1      34.309  33.227  30.114  1.00  0.00    -0.352 N 
ATOM     29  C   UNL A   1      34.516  33.750  31.368  1.00  0.00     0.251 C 
ATOM     30  H   UNL A   1      33.561  33.611  29.601  1.00  0.00     0.163 HD
ATOM     31  O   UNL A   1      33.557  34.193  31.993  1.00  0.00    -0.269 OA
BRANCH  29  32
ATOM     32  C   UNL A   1      35.916  34.056  31.800  1.00  0.00     0.039 A 
ATOM     33  C   UNL A   1      36.777  34.287  30.717  1.00  0.00     0.014 A 
ATOM     34  C   UNL A   1      36.412  33.424  32.930  1.00  0.00     0.014 A 
ATOM     35  C   UNL A   1      37.935  33.534  30.613  1.00  0.00     0.010 A 
ATOM     36  C   UNL A   1      37.396  32.507  32.747  1.00  0.00     0.010 A 
ATOM     37  C   UNL A   1      38.116  32.532  31.556  1.00  0.00    -0.014 A 
BRANCH  37  38
ATOM     38  C   UNL A   1      39.249  31.646  31.644  1.00  0.00     0.031 A 
ATOM     39  C   UNL A   1      38.907  30.335  31.035  1.00  0.00     0.074 A 
ATOM     40  C   UNL A   1      40.420  32.273  31.939  1.00  0.00     0.049 A 
ATOM     41  N   UNL A   1      39.551  29.250  31.202  1.00  0.00    -0.248 NA
ATOM     42  C   UNL A   1      37.701  30.098  30.200  1.00  0.00     0.031 C 
ATOM     43  C   UNL A   1      41.830  31.925  31.772  1.00  0.00     0.029 A 
ATOM     44  N   UNL A   1      40.508  33.433  32.730  1.00  0.00    -0.354 N 
ATOM     45  C   UNL A   1      39.199  28.424  30.148  1.00  0.00     0.074 A 
ATOM     46  C   UNL A   1      37.917  28.875  29.703  1.00  0.00     0.031 C 
ATOM     47  C   UNL A   1      42.553  32.531  32.743  1.00  0.00     0.029 A 
ATOM     48  C   UNL A   1      41.613  33.245  33.592  1.00  0.00     0.049 A 
ATOM     49  H   UNL A   1      39.919  34.221  32.690  1.00  0.00     0.167 HD
ATOM     50  C   UNL A   1      40.167  27.609  29.653  1.00  0.00     0.031 A 
ATOM     51  C   UNL A   1      41.346  32.956  34.905  1.00  0.00     0.031 A 
ATOM     52  C   UNL A   1      41.391  27.838  30.429  1.00  0.00     0.049 A 
ATOM     53  C   UNL A   1      41.553  31.466  35.150  1.00  0.00     0.074 A 
ATOM     54  C   UNL A   1      42.503  28.631  30.214  1.00  0.00     0.029 A 
ATOM     55  N   UNL A   1      41.316  27.645  31.797  1.00  0.00    -0.354 N 
ATOM     56  N   UNL A   1      41.533  30.550  34.212  1.00  0.00    -0.248 NA
ATOM     57  C   UNL A   1      41.856  30.905  36.459  1.00  0.00     0.031 C 
ATOM     58  C   UNL A   1      43.059  28.946  31.500  1.00  0.00     0.029 A 
ATOM     59  C   UNL A   1      42.275  28.362  32.483  1.00  0.00     0.049 A 
ATOM     60  H   UNL A   1      40.652  27.062  32.233  1.00  0.00     0.167 HD
ATOM     61  C   UNL A   1      41.955  29.350  34.716  1.00  0.00     0.074 A 
ATOM     62  C   UNL A   1      42.011  29.604  36.153  1.00  0.00     0.031 C 
ATOM     63  C   UNL A   1      42.280  28.259  33.942  1.00  0.00     0.031 A 
BRANCH  50  64
ATOM     64  C   UNL A   1      40.148  26.788  28.391  1.00  0.00    -0.014 A 
ATOM     65  C   UNL A   1      39.418  25.583  28.420  1.00  0.00     0.009 A 
ATOM     66  C   UNL A   1      40.801  27.084  27.181  1.00  0.00     0.009 A 
ATOM     67  C   UNL A   1      39.353  24.713  27.328  1.00  0.00     0.001 A 
ATOM     68  C   UNL A   1      40.734  26.214  26.074  1.00  0.00     0.001 A 
ATOM     69  C   UNL A   1      40.011  25.028  26.150  1.00  0.00     0.000 A 
ENDBRANCH  50  64
BRANCH  51  70
ATOM     70  C   UNL A   1      40.213  33.831  35.389  1.00  0.00    -0.014 A 
ATOM     71  C   UNL A   1      39.053  33.147  35.847  1.00  0.00     0.009 A 
ATOM     72  C   UNL A   1      40.479  35.096  35.924  1.00  0.00     0.009 A 
ATOM     73  C   UNL A   1      38.391  33.564  37.008  1.00  0.00     0.001 A 
ATOM     74  C   UNL A   1      39.747  35.546  37.034  1.00  0.00     0.001 A 
ATOM     75  C   UNL A   1      38.776  34.742  37.631  1.00  0.00     0.000 A 
ENDBRANCH  51  70
BRANCH  63  76
ATOM     76  C   UNL A   1      42.583  26.890  34.514  1.00  0.00    -0.014 A 
ATOM     77  C   UNL A   1      41.691  26.167  35.299  1.00  0.00     0.009 A 
ATOM     78  C   UNL A   1      43.834  26.270  34.275  1.00  0.00     0.009 A 
ATOM     79  C   UNL A   1      41.932  24.829  35.623  1.00  0.00     0.001 A 
ATOM     80  C   UNL A   1      44.106  24.954  34.630  1.00  0.00     0.001 A 
ATOM     81  C   UNL A   1      43.127  24.215  35.264  1.00  0.00     0.000 A 
ENDBRANCH  63  76
ENDBRANCH  37  38
ENDBRANCH  29  32
ENDBRANCH  27  28
ENDBRANCH  26  27
ENDBRANCH   1  26
TORSDOF 13
ENDMDL
MODEL 3
REMARK VINA RESULT:     -13.0      2.149      3.381
REMARK SMILES COc1ccc(NC(=O)N[C@@H]2C=C[C@H](C(=O)NCCCNC(=O)c3ccc(-c4c5nc(c(-c6ccccc6)c6ccc([nH]6)c(-c6ccccc6)c6nc(c(-c7ccccc7)c7ccc4[nH]7)C=C6)C=C5)cc3)C2)c(C)c1
REMARK SMILES IDX 18 1 17 2 15 3 16 4 14 6 11 7 12 8 72 9 13 10 10 11 7 12
REMARK SMILES IDX 8 13 9 15 6 17 3 18 4 19 75 20 5 21 73 22 74 23 2 24 1 25
REMARK SMILES IDX 19 26 20 27 21 28 22 29 23 31 24 32 25 33 71 34 26 35 70 36
REMARK SMILES IDX 27 37 28 38 29 39 64 40 30 41 69 42 63 43 65 44 31 45 68 46
REMARK SMILES IDX 62 47 61 48 32 50 54 51 39 52 53 53 40 54 43 55 52 56 66 57
REMARK SMILES IDX 41 58 42 59 51 61 67 62 44 63 33 64 34 65 38 66 35 67 37 68
REMARK SMILES IDX 36 69 55 70 56 71 60 72 57 73 59 74 58 75 45 76 46 77 50 78
REMARK SMILES IDX 47 79 49 80 48 81
REMARK H PARENT 17 5 7 14 10 16 21 30 65 49 43 60
REMARK Flexibility Score: inf
ROOT
ATOM      1  C   UNL A   1      36.986  20.158  24.977  1.00  0.00     0.117 C 
ENDROOT
BRANCH   1   2
ATOM      2  N   UNL A   1      35.584  19.839  24.964  1.00  0.00    -0.356 N 
ATOM      3  C   UNL A   1      34.684  20.820  25.286  1.00  0.00     0.227 C 
ATOM      4  O   UNL A   1      34.179  20.664  26.398  1.00  0.00    -0.274 OA
ATOM      5  H   UNL A   1      35.277  18.933  24.731  1.00  0.00     0.163 HD
BRANCH   3   6
ATOM      6  C   UNL A   1      34.460  22.081  24.103  1.00  0.00     0.103 C 
ATOM      7  C   UNL A   1      33.053  24.821  24.879  1.00  0.00     0.107 C 
ATOM      8  C   UNL A   1      32.358  24.300  23.087  1.00  0.00    -0.006 C 
ATOM      9  C   UNL A   1      34.574  23.672  25.358  1.00  0.00     0.047 C 
ATOM     10  C   UNL A   1      32.899  22.759  22.675  1.00  0.00    -0.016 C 
BRANCH   7  11
ATOM     11  N   UNL A   1      31.989  24.215  26.150  1.00  0.00    -0.332 N 
ATOM     12  N   UNL A   1      29.784  25.633  26.096  1.00  0.00    -0.308 N 
ATOM     13  C   UNL A   1      30.571  24.446  26.525  1.00  0.00     0.319 C 
ATOM     14  H   UNL A   1      28.906  25.769  26.523  1.00  0.00     0.171 HD
ATOM     15  O   UNL A   1      30.029  23.592  27.237  1.00  0.00    -0.248 OA
ATOM     16  H   UNL A   1      32.440  23.577  26.748  1.00  0.00     0.165 HD
BRANCH  12  17
ATOM     17  C   UNL A   1      30.192  26.600  25.113  1.00  0.00     0.046 A 
ATOM     18  C   UNL A   1      29.508  29.130  22.483  1.00  0.00     0.119 A 
ATOM     19  C   UNL A   1      28.304  27.917  22.882  1.00  0.00     0.048 A 
ATOM     20  C   UNL A   1      30.940  29.073  23.456  1.00  0.00     0.052 A 
ATOM     21  C   UNL A   1      28.930  26.620  24.317  1.00  0.00     0.030 A 
ATOM     22  C   UNL A   1      31.256  27.870  24.721  1.00  0.00    -0.024 A 
ATOM     23  C   UNL A   1      32.307  28.358  25.698  1.00  0.00     0.047 C 
BRANCH  18  24
ATOM     24  O   UNL A   1      29.448  30.077  21.522  1.00  0.00    -0.497 OA
ATOM     25  C   UNL A   1      28.275  30.872  21.540  1.00  0.00     0.278 C 
ENDBRANCH  18  24
ENDBRANCH  12  17
ENDBRANCH   7  11
ENDBRANCH   3   6
ENDBRANCH   1   2
BRANCH   1  26
ATOM     26  C   UNL A   1      37.295  21.339  25.897  1.00  0.00     0.042 C 
BRANCH  26  27
ATOM     27  C   UNL A   1      38.564  22.088  25.561  1.00  0.00     0.118 C 
BRANCH  27  28
ATOM     28  N   UNL A   1      39.461  22.174  26.689  1.00  0.00    -0.352 N 
ATOM     29  C   UNL A   1      40.227  23.248  27.076  1.00  0.00     0.251 C 
ATOM     30  H   UNL A   1      39.533  21.366  27.248  1.00  0.00     0.163 HD
ATOM     31  O   UNL A   1      41.287  23.043  27.660  1.00  0.00    -0.269 OA
BRANCH  29  32
ATOM     32  C   UNL A   1      39.611  24.612  27.065  1.00  0.00     0.039 A 
ATOM     33  C   UNL A   1      40.332  25.525  26.280  1.00  0.00     0.014 A 
ATOM     34  C   UNL A   1      38.986  25.064  28.218  1.00  0.00     0.014 A 
ATOM     35  C   UNL A   1      40.759  26.708  26.858  1.00  0.00     0.010 A 
ATOM     36  C   UNL A   1      39.581  26.084  28.888  1.00  0.00     0.010 A 
ATOM     37  C   UNL A   1      40.514  26.867  28.215  1.00  0.00    -0.014 A 
BRANCH  37  38
ATOM     38  C   UNL A   1      40.856  28.020  29.009  1.00  0.00     0.031 A 
ATOM     39  C   UNL A   1      39.738  28.997  28.980  1.00  0.00     0.074 A 
ATOM     40  C   UNL A   1      41.919  27.825  29.837  1.00  0.00     0.049 A 
ATOM     41  N   UNL A   1      39.816  30.222  29.316  1.00  0.00    -0.248 NA
ATOM     42  C   UNL A   1      38.377  28.686  28.470  1.00  0.00     0.031 C 
ATOM     43  C   UNL A   1      42.400  28.489  31.047  1.00  0.00     0.029 A 
ATOM     44  N   UNL A   1      42.992  26.965  29.542  1.00  0.00    -0.354 N 
ATOM     45  C   UNL A   1      38.520  30.635  29.577  1.00  0.00     0.074 A 
ATOM     46  C   UNL A   1      37.668  29.760  28.835  1.00  0.00     0.031 C 
ATOM     47  C   UNL A   1      43.746  28.360  31.117  1.00  0.00     0.029 A 
ATOM     48  C   UNL A   1      44.169  27.651  29.920  1.00  0.00     0.049 A 
ATOM     49  H   UNL A   1      42.935  26.063  29.152  1.00  0.00     0.167 HD
ATOM     50  C   UNL A   1      38.350  31.534  30.583  1.00  0.00     0.031 A 
ATOM     51  C   UNL A   1      44.945  28.172  28.918  1.00  0.00     0.031 A 
ATOM     52  C   UNL A   1      39.671  31.843  31.142  1.00  0.00     0.049 A 
ATOM     53  C   UNL A   1      44.711  29.675  28.822  1.00  0.00     0.074 A 
ATOM     54  C   UNL A   1      40.367  31.352  32.231  1.00  0.00     0.029 A 
ATOM     55  N   UNL A   1      40.624  32.340  30.270  1.00  0.00    -0.354 N 
ATOM     56  N   UNL A   1      43.646  30.291  29.276  1.00  0.00    -0.248 NA
ATOM     57  C   UNL A   1      45.684  30.602  28.260  1.00  0.00     0.031 C 
ATOM     58  C   UNL A   1      41.766  31.526  31.959  1.00  0.00     0.029 A 
ATOM     59  C   UNL A   1      41.911  32.101  30.706  1.00  0.00     0.049 A 
ATOM     60  H   UNL A   1      40.408  32.810  29.432  1.00  0.00     0.167 HD
ATOM     61  C   UNL A   1      43.828  31.646  29.229  1.00  0.00     0.074 A 
ATOM     62  C   UNL A   1      45.063  31.779  28.459  1.00  0.00     0.031 C 
ATOM     63  C   UNL A   1      43.008  32.558  29.853  1.00  0.00     0.031 A 
BRANCH  50  64
ATOM     64  C   UNL A   1      37.069  31.981  31.234  1.00  0.00    -0.014 A 
ATOM     65  C   UNL A   1      36.026  32.394  30.382  1.00  0.00     0.009 A 
ATOM     66  C   UNL A   1      36.803  32.052  32.614  1.00  0.00     0.009 A 
ATOM     67  C   UNL A   1      34.800  32.868  30.862  1.00  0.00     0.001 A 
ATOM     68  C   UNL A   1      35.568  32.522  33.104  1.00  0.00     0.001 A 
ATOM     69  C   UNL A   1      34.569  32.932  32.227  1.00  0.00     0.000 A 
ENDBRANCH  50  64
BRANCH  51  70
ATOM     70  C   UNL A   1      45.041  27.171  27.790  1.00  0.00    -0.014 A 
ATOM     71  C   UNL A   1      44.419  27.550  26.569  1.00  0.00     0.009 A 
ATOM     72  C   UNL A   1      46.124  26.287  27.724  1.00  0.00     0.009 A 
ATOM     73  C   UNL A   1      45.054  27.318  25.342  1.00  0.00     0.001 A 
ATOM     74  C   UNL A   1      46.698  25.987  26.479  1.00  0.00     0.001 A 
ATOM     75  C   UNL A   1      46.225  26.577  25.306  1.00  0.00     0.000 A 
ENDBRANCH  51  70
BRANCH  63  76
ATOM     76  C   UNL A   1      43.122  34.055  29.656  1.00  0.00    -0.014 A 
ATOM     77  C   UNL A   1      43.496  34.939  30.663  1.00  0.00     0.009 A 
ATOM     78  C   UNL A   1      42.832  34.641  28.400  1.00  0.00     0.009 A 
ATOM     79  C   UNL A   1      43.792  36.275  30.378  1.00  0.00     0.001 A 
ATOM     80  C   UNL A   1      43.078  35.978  28.114  1.00  0.00     0.001 A 
ATOM     81  C   UNL A   1      43.610  36.787  29.098  1.00  0.00     0.000 A 
ENDBRANCH  63  76
ENDBRANCH  37  38
ENDBRANCH  29  32
ENDBRANCH  27  28
ENDBRANCH  26  27
ENDBRANCH   1  26
TORSDOF 13
ENDMDL
