MODEL 1
REMARK VINA RESULT:     -11.3      0.000      0.000
REMARK SMILES COc1ccc(-c2noc(CC(=O)NCCCNC(=O)c3ccc(-c4c5nc(c(-c6ccccc6)c6ccc([nH]6)c(-c6ccccc6)c6nc(c(-c7ccccc7)c7ccc4[nH]7)C=C6)C=C5)cc3)c2-c2ccc(OC)cc2)cc1
REMARK SMILES IDX 15 1 14 2 12 3 13 4 11 6 10 7 7 8 8 9 69 10 9 11 6 12 3 13
REMARK SMILES IDX 4 14 79 15 5 16 78 17 2 18 1 19 70 20 71 21 77 22 72 23
REMARK SMILES IDX 76 24 73 25 74 26 75 27 16 28 17 29 18 30 19 31 20 33 21 34
REMARK SMILES IDX 22 35 68 36 23 37 67 38 24 39 25 40 26 41 61 42 27 43 66 44
REMARK SMILES IDX 60 45 62 46 28 47 65 48 59 49 58 50 29 52 51 53 36 54 50 55
REMARK SMILES IDX 37 56 40 57 49 58 63 59 38 60 39 61 48 63 64 64 41 65 30 66
REMARK SMILES IDX 31 67 35 68 32 69 34 70 33 71 52 72 53 73 57 74 54 75 56 76
REMARK SMILES IDX 55 77 42 78 43 79 47 80 44 81 46 82 45 83
REMARK H PARENT 14 5 18 32 62 51 40 62
REMARK Flexibility Score: inf
ROOT
ATOM      1  C   UNL A   1      31.869  26.723  26.340  1.00  0.00     0.117 C 
ENDROOT
BRANCH   1   2
ATOM      2  N   UNL A   1      31.170  27.268  25.192  1.00  0.00    -0.356 N 
ATOM      3  C   UNL A   1      31.512  27.212  23.870  1.00  0.00     0.227 C 
ATOM      4  O   UNL A   1      30.795  27.804  23.061  1.00  0.00    -0.275 OA
ATOM      5  H   UNL A   1      30.334  27.746  25.393  1.00  0.00     0.163 HD
BRANCH   3   6
ATOM      6  C   UNL A   1      32.686  26.367  23.417  1.00  0.00     0.179 C 
BRANCH   6   7
ATOM      7  C   UNL A   1      32.361  24.922  23.386  1.00  0.00     0.154 A 
ATOM      8  C   UNL A   1      32.100  22.722  23.472  1.00  0.00     0.122 A 
ATOM      9  N   UNL A   1      30.974  23.213  22.938  1.00  0.00    -0.079 NA
ATOM     10  C   UNL A   1      33.027  23.769  23.748  1.00  0.00     0.053 A 
ATOM     11  O   UNL A   1      31.130  24.586  22.910  1.00  0.00    -0.360 OA
BRANCH   8  12
ATOM     12  C   UNL A   1      32.285  21.299  23.723  1.00  0.00     0.005 A 
ATOM     13  C   UNL A   1      32.490  18.540  24.177  1.00  0.00     0.118 A 
ATOM     14  C   UNL A   1      32.571  19.440  25.243  1.00  0.00     0.047 A 
ATOM     15  C   UNL A   1      32.290  19.019  22.884  1.00  0.00     0.047 A 
ATOM     16  C   UNL A   1      32.485  20.818  25.019  1.00  0.00     0.014 A 
ATOM     17  C   UNL A   1      32.190  20.394  22.658  1.00  0.00     0.014 A 
BRANCH  13  18
ATOM     18  O   UNL A   1      32.572  17.216  24.512  1.00  0.00    -0.497 OA
ATOM     19  C   UNL A   1      33.490  16.454  23.732  1.00  0.00     0.278 C 
ENDBRANCH  13  18
ENDBRANCH   8  12
BRANCH  10  20
ATOM     20  C   UNL A   1      34.397  23.696  24.213  1.00  0.00    -0.012 A 
ATOM     21  C   UNL A   1      34.702  24.103  25.516  1.00  0.00     0.013 A 
ATOM     22  C   UNL A   1      35.424  23.235  23.385  1.00  0.00     0.013 A 
ATOM     23  C   UNL A   1      36.011  24.021  25.993  1.00  0.00     0.047 A 
ATOM     24  C   UNL A   1      36.739  23.161  23.864  1.00  0.00     0.047 A 
ATOM     25  C   UNL A   1      37.034  23.547  25.173  1.00  0.00     0.118 A 
BRANCH  25  26
ATOM     26  O   UNL A   1      38.264  23.515  25.768  1.00  0.00    -0.497 OA
ATOM     27  C   UNL A   1      38.790  22.235  26.094  1.00  0.00     0.278 C 
ENDBRANCH  25  26
ENDBRANCH  10  20
ENDBRANCH   6   7
ENDBRANCH   3   6
ENDBRANCH   1   2
BRANCH   1  28
ATOM     28  C   UNL A   1      32.291  27.818  27.317  1.00  0.00     0.042 C 
BRANCH  28  29
ATOM     29  C   UNL A   1      33.616  28.481  26.958  1.00  0.00     0.118 C 
BRANCH  29  30
ATOM     30  N   UNL A   1      33.597  29.917  27.202  1.00  0.00    -0.352 N 
ATOM     31  C   UNL A   1      34.504  30.719  27.843  1.00  0.00     0.251 C 
ATOM     32  H   UNL A   1      32.805  30.387  26.850  1.00  0.00     0.163 HD
ATOM     33  O   UNL A   1      34.199  31.881  28.111  1.00  0.00    -0.269 OA
BRANCH  31  34
ATOM     34  C   UNL A   1      35.836  30.207  28.231  1.00  0.00     0.039 A 
ATOM     35  C   UNL A   1      36.865  30.232  27.284  1.00  0.00     0.014 A 
ATOM     36  C   UNL A   1      36.068  29.655  29.494  1.00  0.00     0.014 A 
ATOM     37  C   UNL A   1      38.135  29.757  27.618  1.00  0.00     0.010 A 
ATOM     38  C   UNL A   1      37.351  29.241  29.850  1.00  0.00     0.010 A 
ATOM     39  C   UNL A   1      38.396  29.285  28.915  1.00  0.00    -0.014 A 
BRANCH  39  40
ATOM     40  C   UNL A   1      39.752  28.829  29.308  1.00  0.00     0.031 A 
ATOM     41  C   UNL A   1      40.646  29.720  30.126  1.00  0.00     0.074 A 
ATOM     42  C   UNL A   1      40.201  27.629  28.886  1.00  0.00     0.049 A 
ATOM     43  N   UNL A   1      41.888  29.529  30.496  1.00  0.00    -0.248 NA
ATOM     44  C   UNL A   1      40.077  31.003  30.572  1.00  0.00     0.031 C 
ATOM     45  C   UNL A   1      39.444  26.679  28.069  1.00  0.00     0.029 A 
ATOM     46  N   UNL A   1      41.411  27.010  29.081  1.00  0.00    -0.354 N 
ATOM     47  C   UNL A   1      42.248  30.666  31.209  1.00  0.00     0.074 A 
ATOM     48  C   UNL A   1      41.113  31.562  31.181  1.00  0.00     0.031 C 
ATOM     49  C   UNL A   1      40.200  25.591  27.848  1.00  0.00     0.029 A 
ATOM     50  C   UNL A   1      41.505  25.783  28.470  1.00  0.00     0.049 A 
ATOM     51  H   UNL A   1      42.141  27.407  29.608  1.00  0.00     0.167 HD
ATOM     52  C   UNL A   1      43.412  30.932  31.848  1.00  0.00     0.031 A 
ATOM     53  C   UNL A   1      42.532  24.915  28.409  1.00  0.00     0.031 A 
ATOM     54  C   UNL A   1      44.543  30.044  31.885  1.00  0.00     0.049 A 
ATOM     55  C   UNL A   1      43.823  25.251  29.102  1.00  0.00     0.074 A 
ATOM     56  C   UNL A   1      45.760  30.220  32.522  1.00  0.00     0.029 A 
ATOM     57  N   UNL A   1      44.592  28.808  31.261  1.00  0.00    -0.354 N 
ATOM     58  N   UNL A   1      44.132  26.314  29.803  1.00  0.00    -0.248 NA
ATOM     59  C   UNL A   1      44.904  24.259  29.002  1.00  0.00     0.031 C 
ATOM     60  C   UNL A   1      46.558  29.104  32.256  1.00  0.00     0.029 A 
ATOM     61  C   UNL A   1      45.821  28.213  31.492  1.00  0.00     0.049 A 
ATOM     62  H   UNL A   1      43.863  28.410  30.733  1.00  0.00     0.167 HD
ATOM     63  C   UNL A   1      45.429  26.106  30.253  1.00  0.00     0.074 A 
ATOM     64  C   UNL A   1      45.842  24.809  29.760  1.00  0.00     0.031 C 
ATOM     65  C   UNL A   1      46.210  26.916  31.006  1.00  0.00     0.031 A 
BRANCH  52  66
ATOM     66  C   UNL A   1      43.518  32.243  32.575  1.00  0.00    -0.014 A 
ATOM     67  C   UNL A   1      43.981  33.395  31.919  1.00  0.00     0.009 A 
ATOM     68  C   UNL A   1      43.101  32.343  33.912  1.00  0.00     0.009 A 
ATOM     69  C   UNL A   1      44.051  34.615  32.595  1.00  0.00     0.001 A 
ATOM     70  C   UNL A   1      43.148  33.570  34.577  1.00  0.00     0.001 A 
ATOM     71  C   UNL A   1      43.628  34.702  33.921  1.00  0.00     0.000 A 
ENDBRANCH  52  66
BRANCH  53  72
ATOM     72  C   UNL A   1      42.392  23.636  27.664  1.00  0.00    -0.014 A 
ATOM     73  C   UNL A   1      42.073  22.449  28.341  1.00  0.00     0.009 A 
ATOM     74  C   UNL A   1      42.613  23.590  26.279  1.00  0.00     0.009 A 
ATOM     75  C   UNL A   1      42.015  21.235  27.652  1.00  0.00     0.001 A 
ATOM     76  C   UNL A   1      42.525  22.380  25.588  1.00  0.00     0.001 A 
ATOM     77  C   UNL A   1      42.238  21.202  26.276  1.00  0.00     0.000 A 
ENDBRANCH  53  72
BRANCH  65  78
ATOM     78  C   UNL A   1      47.571  26.403  31.382  1.00  0.00    -0.014 A 
ATOM     79  C   UNL A   1      47.782  25.705  32.580  1.00  0.00     0.009 A 
ATOM     80  C   UNL A   1      48.649  26.595  30.503  1.00  0.00     0.009 A 
ATOM     81  C   UNL A   1      49.057  25.239  32.907  1.00  0.00     0.001 A 
ATOM     82  C   UNL A   1      49.916  26.103  30.820  1.00  0.00     0.001 A 
ATOM     83  C   UNL A   1      50.121  25.433  32.026  1.00  0.00     0.000 A 
ENDBRANCH  65  78
ENDBRANCH  39  40
ENDBRANCH  31  34
ENDBRANCH  29  30
ENDBRANCH  28  29
ENDBRANCH   1  28
TORSDOF 15
ENDMDL
MODEL 2
REMARK VINA RESULT:     -11.1      2.441      6.202
REMARK SMILES COc1ccc(-c2noc(CC(=O)NCCCNC(=O)c3ccc(-c4c5nc(c(-c6ccccc6)c6ccc([nH]6)c(-c6ccccc6)c6nc(c(-c7ccccc7)c7ccc4[nH]7)C=C6)C=C5)cc3)c2-c2ccc(OC)cc2)cc1
REMARK SMILES IDX 15 1 14 2 12 3 13 4 11 6 10 7 7 8 8 9 69 10 9 11 6 12 3 13
REMARK SMILES IDX 4 14 79 15 5 16 78 17 2 18 1 19 70 20 71 21 77 22 72 23
REMARK SMILES IDX 76 24 73 25 74 26 75 27 16 28 17 29 18 30 19 31 20 33 21 34
REMARK SMILES IDX 22 35 68 36 23 37 67 38 24 39 25 40 26 41 61 42 27 43 66 44
REMARK SMILES IDX 60 45 62 46 28 47 65 48 59 49 58 50 29 52 51 53 36 54 50 55
REMARK SMILES IDX 37 56 40 57 49 58 63 59 38 60 39 61 48 63 64 64 41 65 30 66
REMARK SMILES IDX 31 67 35 68 32 69 34 70 33 71 52 72 53 73 57 74 54 75 56 76
REMARK SMILES IDX 55 77 42 78 43 79 47 80 44 81 46 82 45 83
REMARK H PARENT 14 5 18 32 62 51 40 62
REMARK Flexibility Score: inf
ROOT
ATOM      1  C   UNL A   1      32.440  28.711  22.771  1.00  0.00     0.117 C 
ENDROOT
BRANCH   1   2
ATOM      2  N   UNL A   1      32.961  27.631  21.956  1.00  0.00    -0.356 N 
ATOM      3  C   UNL A   1      33.173  26.324  22.292  1.00  0.00     0.227 C 
ATOM      4  O   UNL A   1      33.687  25.586  21.450  1.00  0.00    -0.275 OA
ATOM      5  H   UNL A   1      33.196  27.874  21.032  1.00  0.00     0.163 HD
BRANCH   3   6
ATOM      6  C   UNL A   1      32.700  25.790  23.630  1.00  0.00     0.179 C 
BRANCH   6   7
ATOM      7  C   UNL A   1      32.365  24.348  23.574  1.00  0.00     0.154 A 
ATOM      8  C   UNL A   1      32.092  22.148  23.615  1.00  0.00     0.122 A 
ATOM      9  N   UNL A   1      30.955  22.658  23.126  1.00  0.00    -0.079 NA
ATOM     10  C   UNL A   1      33.034  23.183  23.889  1.00  0.00     0.053 A 
ATOM     11  O   UNL A   1      31.119  24.031  23.126  1.00  0.00    -0.360 OA
BRANCH   8  12
ATOM     12  C   UNL A   1      32.276  20.719  23.826  1.00  0.00     0.005 A 
ATOM     13  C   UNL A   1      32.781  17.995  24.257  1.00  0.00     0.118 A 
ATOM     14  C   UNL A   1      32.480  18.464  22.976  1.00  0.00     0.047 A 
ATOM     15  C   UNL A   1      32.846  18.891  25.323  1.00  0.00     0.047 A 
ATOM     16  C   UNL A   1      32.211  19.819  22.759  1.00  0.00     0.014 A 
ATOM     17  C   UNL A   1      32.592  20.248  25.107  1.00  0.00     0.014 A 
BRANCH  13  18
ATOM     18  O   UNL A   1      33.040  16.655  24.351  1.00  0.00    -0.497 OA
ATOM     19  C   UNL A   1      32.985  16.123  25.672  1.00  0.00     0.278 C 
ENDBRANCH  13  18
ENDBRANCH   8  12
BRANCH  10  20
ATOM     20  C   UNL A   1      34.416  23.091  24.312  1.00  0.00    -0.012 A 
ATOM     21  C   UNL A   1      34.729  23.225  25.669  1.00  0.00     0.013 A 
ATOM     22  C   UNL A   1      35.447  22.878  23.393  1.00  0.00     0.013 A 
ATOM     23  C   UNL A   1      36.050  23.119  26.103  1.00  0.00     0.047 A 
ATOM     24  C   UNL A   1      36.775  22.779  23.830  1.00  0.00     0.047 A 
ATOM     25  C   UNL A   1      37.079  22.891  25.189  1.00  0.00     0.118 A 
BRANCH  25  26
ATOM     26  O   UNL A   1      38.322  22.803  25.749  1.00  0.00    -0.497 OA
ATOM     27  C   UNL A   1      38.819  23.963  26.403  1.00  0.00     0.278 C 
ENDBRANCH  25  26
ENDBRANCH  10  20
ENDBRANCH   6   7
ENDBRANCH   3   6
ENDBRANCH   1   2
BRANCH   1  28
ATOM     28  C   UNL A   1      33.512  29.294  23.689  1.00  0.00     0.042 C 
BRANCH  28  29
ATOM     29  C   UNL A   1      33.184  29.166  25.173  1.00  0.00     0.118 C 
BRANCH  29  30
ATOM     30  N   UNL A   1      32.570  30.374  25.707  1.00  0.00    -0.352 N 
ATOM     31  C   UNL A   1      32.914  31.139  26.790  1.00  0.00     0.251 C 
ATOM     32  H   UNL A   1      31.782  30.693  25.210  1.00  0.00     0.163 HD
ATOM     33  O   UNL A   1      32.141  32.013  27.182  1.00  0.00    -0.269 OA
BRANCH  31  34
ATOM     34  C   UNL A   1      34.192  30.922  27.503  1.00  0.00     0.039 A 
ATOM     35  C   UNL A   1      35.043  32.013  27.700  1.00  0.00     0.014 A 
ATOM     36  C   UNL A   1      34.582  29.649  27.931  1.00  0.00     0.014 A 
ATOM     37  C   UNL A   1      36.256  31.842  28.371  1.00  0.00     0.010 A 
ATOM     38  C   UNL A   1      35.762  29.489  28.657  1.00  0.00     0.010 A 
ATOM     39  C   UNL A   1      36.611  30.583  28.882  1.00  0.00    -0.014 A 
BRANCH  39  40
ATOM     40  C   UNL A   1      37.869  30.391  29.647  1.00  0.00     0.031 A 
ATOM     41  C   UNL A   1      39.008  29.608  29.052  1.00  0.00     0.074 A 
ATOM     42  C   UNL A   1      37.969  30.878  30.900  1.00  0.00     0.049 A 
ATOM     43  N   UNL A   1      40.149  29.268  29.596  1.00  0.00    -0.248 NA
ATOM     44  C   UNL A   1      38.835  29.130  27.670  1.00  0.00     0.031 C 
ATOM     45  C   UNL A   1      36.930  31.635  31.602  1.00  0.00     0.029 A 
ATOM     46  N   UNL A   1      38.995  30.800  31.808  1.00  0.00    -0.354 N 
ATOM     47  C   UNL A   1      40.824  28.533  28.630  1.00  0.00     0.074 A 
ATOM     48  C   UNL A   1      39.948  28.435  27.483  1.00  0.00     0.031 C 
ATOM     49  C   UNL A   1      37.379  31.966  32.824  1.00  0.00     0.029 A 
ATOM     50  C   UNL A   1      38.715  31.412  33.007  1.00  0.00     0.049 A 
ATOM     51  H   UNL A   1      39.849  30.349  31.620  1.00  0.00     0.167 HD
ATOM     52  C   UNL A   1      42.069  28.003  28.683  1.00  0.00     0.031 A 
ATOM     53  C   UNL A   1      39.450  31.507  34.131  1.00  0.00     0.031 A 
ATOM     54  C   UNL A   1      42.947  28.100  29.818  1.00  0.00     0.049 A 
ATOM     55  C   UNL A   1      40.817  30.882  34.172  1.00  0.00     0.074 A 
ATOM     56  C   UNL A   1      44.234  27.609  29.959  1.00  0.00     0.029 A 
ATOM     57  N   UNL A   1      42.628  28.736  31.007  1.00  0.00    -0.354 N 
ATOM     58  N   UNL A   1      41.453  30.223  33.235  1.00  0.00    -0.248 NA
ATOM     59  C   UNL A   1      41.571  31.024  35.427  1.00  0.00     0.031 C 
ATOM     60  C   UNL A   1      44.682  27.921  31.246  1.00  0.00     0.029 A 
ATOM     61  C   UNL A   1      43.692  28.645  31.889  1.00  0.00     0.049 A 
ATOM     62  H   UNL A   1      41.774  29.186  31.197  1.00  0.00     0.167 HD
ATOM     63  C   UNL A   1      42.692  29.900  33.774  1.00  0.00     0.074 A 
ATOM     64  C   UNL A   1      42.723  30.449  35.114  1.00  0.00     0.031 C 
ATOM     65  C   UNL A   1      43.712  29.209  33.212  1.00  0.00     0.031 A 
BRANCH  52  66
ATOM     66  C   UNL A   1      42.564  27.275  27.465  1.00  0.00    -0.014 A 
ATOM     67  C   UNL A   1      42.371  25.891  27.326  1.00  0.00     0.009 A 
ATOM     68  C   UNL A   1      43.182  27.984  26.422  1.00  0.00     0.009 A 
ATOM     69  C   UNL A   1      42.810  25.227  26.179  1.00  0.00     0.001 A 
ATOM     70  C   UNL A   1      43.597  27.321  25.266  1.00  0.00     0.001 A 
ATOM     71  C   UNL A   1      43.417  25.943  25.148  1.00  0.00     0.000 A 
ENDBRANCH  52  66
BRANCH  53  72
ATOM     72  C   UNL A   1      38.916  32.221  35.320  1.00  0.00    -0.014 A 
ATOM     73  C   UNL A   1      39.148  33.594  35.489  1.00  0.00     0.009 A 
ATOM     74  C   UNL A   1      38.204  31.525  36.309  1.00  0.00     0.009 A 
ATOM     75  C   UNL A   1      38.710  34.249  36.643  1.00  0.00     0.001 A 
ATOM     76  C   UNL A   1      37.742  32.189  37.447  1.00  0.00     0.001 A 
ATOM     77  C   UNL A   1      38.006  33.546  37.619  1.00  0.00     0.000 A 
ENDBRANCH  53  72
BRANCH  65  78
ATOM     78  C   UNL A   1      44.964  29.050  34.027  1.00  0.00    -0.014 A 
ATOM     79  C   UNL A   1      45.989  30.006  33.982  1.00  0.00     0.009 A 
ATOM     80  C   UNL A   1      45.099  27.940  34.876  1.00  0.00     0.009 A 
ATOM     81  C   UNL A   1      47.144  29.835  34.747  1.00  0.00     0.001 A 
ATOM     82  C   UNL A   1      46.243  27.787  35.661  1.00  0.00     0.001 A 
ATOM     83  C   UNL A   1      47.268  28.730  35.589  1.00  0.00     0.000 A 
ENDBRANCH  65  78
ENDBRANCH  39  40
ENDBRANCH  31  34
ENDBRANCH  29  30
ENDBRANCH  28  29
ENDBRANCH   1  28
TORSDOF 15
ENDMDL
MODEL 3
REMARK VINA RESULT:     -10.9      3.231      7.028
REMARK SMILES COc1ccc(-c2noc(CC(=O)NCCCNC(=O)c3ccc(-c4c5nc(c(-c6ccccc6)c6ccc([nH]6)c(-c6ccccc6)c6nc(c(-c7ccccc7)c7ccc4[nH]7)C=C6)C=C5)cc3)c2-c2ccc(OC)cc2)cc1
REMARK SMILES IDX 15 1 14 2 12 3 13 4 11 6 10 7 7 8 8 9 69 10 9 11 6 12 3 13
REMARK SMILES IDX 4 14 79 15 5 16 78 17 2 18 1 19 70 20 71 21 77 22 72 23
REMARK SMILES IDX 76 24 73 25 74 26 75 27 16 28 17 29 18 30 19 31 20 33 21 34
REMARK SMILES IDX 22 35 68 36 23 37 67 38 24 39 25 40 26 41 61 42 27 43 66 44
REMARK SMILES IDX 60 45 62 46 28 47 65 48 59 49 58 50 29 52 51 53 36 54 50 55
REMARK SMILES IDX 37 56 40 57 49 58 63 59 38 60 39 61 48 63 64 64 41 65 30 66
REMARK SMILES IDX 31 67 35 68 32 69 34 70 33 71 52 72 53 73 57 74 54 75 56 76
REMARK SMILES IDX 55 77 42 78 43 79 47 80 44 81 46 82 45 83
REMARK H PARENT 14 5 18 32 62 51 40 62
REMARK Flexibility Score: inf
ROOT
ATOM      1  C   UNL A   1      33.152  21.420  26.522  1.00  0.00     0.117 C 
ENDROOT
BRANCH   1   2
ATOM      2  N   UNL A   1      32.002  22.180  26.974  1.00  0.00    -0.356 N 
ATOM      3  C   UNL A   1      31.605  23.436  26.610  1.00  0.00     0.227 C 
ATOM      4  O   UNL A   1      30.618  23.916  27.172  1.00  0.00    -0.275 OA
ATOM      5  H   UNL A   1      31.429  21.729  27.633  1.00  0.00     0.163 HD
BRANCH   3   6
ATOM      6  C   UNL A   1      32.309  24.168  25.485  1.00  0.00     0.179 C 
BRANCH   6   7
ATOM      7  C   UNL A   1      31.388  25.039  24.717  1.00  0.00     0.154 A 
ATOM      8  C   UNL A   1      30.153  26.544  23.657  1.00  0.00     0.122 A 
ATOM      9  N   UNL A   1      29.710  25.346  23.256  1.00  0.00    -0.079 NA
ATOM     10  C   UNL A   1      31.203  26.401  24.611  1.00  0.00     0.053 A 
ATOM     11  O   UNL A   1      30.500  24.410  23.899  1.00  0.00    -0.360 OA
BRANCH   8  12
ATOM     12  C   UNL A   1      29.602  27.790  23.141  1.00  0.00     0.005 A 
ATOM     13  C   UNL A   1      28.627  30.264  22.254  1.00  0.00     0.118 A 
ATOM     14  C   UNL A   1      27.795  29.385  22.953  1.00  0.00     0.047 A 
ATOM     15  C   UNL A   1      29.954  29.913  22.012  1.00  0.00     0.047 A 
ATOM     16  C   UNL A   1      28.273  28.143  23.383  1.00  0.00     0.014 A 
ATOM     17  C   UNL A   1      30.438  28.678  22.452  1.00  0.00     0.014 A 
BRANCH  13  18
ATOM     18  O   UNL A   1      28.060  31.455  21.893  1.00  0.00    -0.497 OA
ATOM     19  C   UNL A   1      28.052  31.719  20.493  1.00  0.00     0.278 C 
ENDBRANCH  13  18
ENDBRANCH   8  12
BRANCH  10  20
ATOM     20  C   UNL A   1      31.891  27.410  25.391  1.00  0.00    -0.012 A 
ATOM     21  C   UNL A   1      33.087  27.954  24.907  1.00  0.00     0.013 A 
ATOM     22  C   UNL A   1      31.392  27.848  26.620  1.00  0.00     0.013 A 
ATOM     23  C   UNL A   1      33.756  28.942  25.630  1.00  0.00     0.047 A 
ATOM     24  C   UNL A   1      32.070  28.835  27.348  1.00  0.00     0.047 A 
ATOM     25  C   UNL A   1      33.250  29.391  26.850  1.00  0.00     0.118 A 
BRANCH  25  26
ATOM     26  O   UNL A   1      34.001  30.363  27.447  1.00  0.00    -0.497 OA
ATOM     27  C   UNL A   1      33.398  31.641  27.601  1.00  0.00     0.278 C 
ENDBRANCH  25  26
ENDBRANCH  10  20
ENDBRANCH   6   7
ENDBRANCH   3   6
ENDBRANCH   1   2
BRANCH   1  28
ATOM     28  C   UNL A   1      34.382  21.692  27.385  1.00  0.00     0.042 C 
BRANCH  28  29
ATOM     29  C   UNL A   1      35.556  22.282  26.610  1.00  0.00     0.118 C 
BRANCH  29  30
ATOM     30  N   UNL A   1      36.401  21.251  26.023  1.00  0.00    -0.352 N 
ATOM     31  C   UNL A   1      37.727  21.282  25.679  1.00  0.00     0.251 C 
ATOM     32  H   UNL A   1      35.947  20.396  25.844  1.00  0.00     0.163 HD
ATOM     33  O   UNL A   1      38.199  20.360  25.013  1.00  0.00    -0.269 OA
BRANCH  31  34
ATOM     34  C   UNL A   1      38.595  22.409  26.083  1.00  0.00     0.039 A 
ATOM     35  C   UNL A   1      38.274  23.695  25.635  1.00  0.00     0.014 A 
ATOM     36  C   UNL A   1      39.746  22.207  26.850  1.00  0.00     0.014 A 
ATOM     37  C   UNL A   1      39.072  24.782  26.000  1.00  0.00     0.010 A 
ATOM     38  C   UNL A   1      40.505  23.299  27.268  1.00  0.00     0.010 A 
ATOM     39  C   UNL A   1      40.178  24.596  26.844  1.00  0.00    -0.014 A 
BRANCH  39  40
ATOM     40  C   UNL A   1      41.006  25.745  27.290  1.00  0.00     0.031 A 
ATOM     41  C   UNL A   1      40.451  26.748  28.265  1.00  0.00     0.074 A 
ATOM     42  C   UNL A   1      42.241  25.916  26.777  1.00  0.00     0.049 A 
ATOM     43  N   UNL A   1      40.992  27.856  28.707  1.00  0.00    -0.248 NA
ATOM     44  C   UNL A   1      39.107  26.480  28.800  1.00  0.00     0.031 C 
ATOM     45  C   UNL A   1      42.888  25.029  25.808  1.00  0.00     0.029 A 
ATOM     46  N   UNL A   1      43.170  26.902  26.998  1.00  0.00    -0.354 N 
ATOM     47  C   UNL A   1      40.054  28.418  29.563  1.00  0.00     0.074 A 
ATOM     48  C   UNL A   1      38.892  27.557  29.544  1.00  0.00     0.031 C 
ATOM     49  C   UNL A   1      44.114  25.503  25.530  1.00  0.00     0.029 A 
ATOM     50  C   UNL A   1      44.323  26.743  26.268  1.00  0.00     0.049 A 
ATOM     51  H   UNL A   1      43.024  27.652  27.618  1.00  0.00     0.167 HD
ATOM     52  C   UNL A   1      40.156  29.540  30.315  1.00  0.00     0.031 A 
ATOM     53  C   UNL A   1      45.423  27.517  26.193  1.00  0.00     0.031 A 
ATOM     54  C   UNL A   1      41.310  30.398  30.343  1.00  0.00     0.049 A 
ATOM     55  C   UNL A   1      45.496  28.774  27.016  1.00  0.00     0.074 A 
ATOM     56  C   UNL A   1      41.513  31.548  31.087  1.00  0.00     0.029 A 
ATOM     57  N   UNL A   1      42.459  30.196  29.596  1.00  0.00    -0.354 N 
ATOM     58  N   UNL A   1      44.614  29.269  27.848  1.00  0.00    -0.248 NA
ATOM     59  C   UNL A   1      46.725  29.572  26.893  1.00  0.00     0.031 C 
ATOM     60  C   UNL A   1      42.774  32.060  30.765  1.00  0.00     0.029 A 
ATOM     61  C   UNL A   1      43.373  31.203  29.856  1.00  0.00     0.049 A 
ATOM     62  H   UNL A   1      42.605  29.447  28.973  1.00  0.00     0.167 HD
ATOM     63  C   UNL A   1      45.192  30.418  28.372  1.00  0.00     0.074 A 
ATOM     64  C   UNL A   1      46.506  30.536  27.775  1.00  0.00     0.031 C 
ATOM     65  C   UNL A   1      44.681  31.298  29.265  1.00  0.00     0.031 A 
BRANCH  52  66
ATOM     66  C   UNL A   1      38.984  29.900  31.184  1.00  0.00    -0.014 A 
ATOM     67  C   UNL A   1      38.905  29.446  32.510  1.00  0.00     0.009 A 
ATOM     68  C   UNL A   1      37.976  30.745  30.693  1.00  0.00     0.009 A 
ATOM     69  C   UNL A   1      37.826  29.807  33.319  1.00  0.00     0.001 A 
ATOM     70  C   UNL A   1      36.912  31.126  31.513  1.00  0.00     0.001 A 
ATOM     71  C   UNL A   1      36.834  30.653  32.822  1.00  0.00     0.000 A 
ENDBRANCH  52  66
BRANCH  53  72
ATOM     72  C   UNL A   1      46.553  27.134  25.307  1.00  0.00    -0.014 A 
ATOM     73  C   UNL A   1      47.479  26.162  25.714  1.00  0.00     0.009 A 
ATOM     74  C   UNL A   1      46.731  27.766  24.066  1.00  0.00     0.009 A 
ATOM     75  C   UNL A   1      48.582  25.857  24.914  1.00  0.00     0.001 A 
ATOM     76  C   UNL A   1      47.819  27.436  23.255  1.00  0.00     0.001 A 
ATOM     77  C   UNL A   1      48.750  26.492  23.684  1.00  0.00     0.000 A 
ENDBRANCH  53  72
BRANCH  65  78
ATOM     78  C   UNL A   1      45.563  32.439  29.687  1.00  0.00    -0.014 A 
ATOM     79  C   UNL A   1      46.441  32.318  30.774  1.00  0.00     0.009 A 
ATOM     80  C   UNL A   1      45.535  33.639  28.960  1.00  0.00     0.009 A 
ATOM     81  C   UNL A   1      47.250  33.393  31.148  1.00  0.00     0.001 A 
ATOM     82  C   UNL A   1      46.365  34.702  29.319  1.00  0.00     0.001 A 
ATOM     83  C   UNL A   1      47.216  34.581  30.418  1.00  0.00     0.000 A 
ENDBRANCH  65  78
ENDBRANCH  39  40
ENDBRANCH  31  34
ENDBRANCH  29  30
ENDBRANCH  28  29
ENDBRANCH   1  28
TORSDOF 15
ENDMDL
