MODEL 1
REMARK VINA RESULT:     -11.7      0.000      0.000
REMARK SMILES CCCc1cc2c(cc1Cl)C=C(C(=O)NCCCNC(=O)c1ccc(-c3c4nc(c(-c5ccccc5)c5ccc([nH]5)c(-c5ccccc5)c5nc(c(-c6ccccc6)c6ccc3[nH]6)C=C5)C=C4)cc1)[C@@H](C(F)(F)F)O2
REMARK SMILES IDX 17 1 16 2 15 3 13 4 14 5 12 7 4 8 5 9 9 10 6 11 8 12 10 13
REMARK SMILES IDX 7 14 75 15 11 16 70 17 3 18 2 19 1 20 71 21 72 22 73 23
REMARK SMILES IDX 74 24 18 25 19 26 20 27 21 29 22 30 23 31 69 32 24 33 68 34
REMARK SMILES IDX 25 35 26 36 27 37 62 38 28 39 67 40 61 41 63 42 29 43 66 44
REMARK SMILES IDX 60 45 59 46 30 48 52 49 37 50 51 51 38 52 41 53 50 54 64 55
REMARK SMILES IDX 39 56 40 57 49 59 65 60 42 61 31 62 32 63 36 64 33 65 35 66
REMARK SMILES IDX 34 67 53 68 54 69 58 70 55 71 57 72 56 73 43 74 44 75 48 76
REMARK SMILES IDX 45 77 47 78 46 79
REMARK H PARENT 15 6 19 28 63 47 41 58
REMARK Flexibility Score: inf
ROOT
ATOM      1  C   UNL A   1      37.740  19.830  25.001  1.00  0.00     0.042 C 
ENDROOT
BRANCH   1   2
ATOM      2  C   UNL A   1      36.522  20.680  25.332  1.00  0.00     0.118 C 
BRANCH   2   3
ATOM      3  N   UNL A   1      35.289  20.068  24.862  1.00  0.00    -0.352 N 
ATOM      4  C   UNL A   1      33.988  20.422  24.746  1.00  0.00     0.251 C 
ATOM      5  O   UNL A   1      33.245  19.550  24.284  1.00  0.00    -0.270 OA
ATOM      6  H   UNL A   1      35.442  19.149  24.542  1.00  0.00     0.163 HD
BRANCH   4   7
ATOM      7  C   UNL A   1      33.422  21.745  25.132  1.00  0.00     0.067 C 
ATOM      8  C   UNL A   1      32.120  26.598  25.451  1.00  0.00    -0.026 A 
ATOM      9  C   UNL A   1      31.637  25.409  26.016  1.00  0.00     0.052 A 
ATOM     10  C   UNL A   1      33.061  26.488  24.405  1.00  0.00     0.045 A 
ATOM     11  C   UNL A   1      32.158  24.177  25.629  1.00  0.00     0.128 A 
ATOM     12  C   UNL A   1      33.543  25.240  23.984  1.00  0.00     0.032 A 
ATOM     13  Cl  UNL A   1      33.671  27.885  23.587  1.00  0.00    -0.084 Cl
ATOM     14  C   UNL A   1      33.110  24.077  24.617  1.00  0.00     0.019 A 
ATOM     15  O   UNL A   1      31.698  23.076  26.300  1.00  0.00    -0.475 OA
ATOM     16  C   UNL A   1      33.618  22.755  24.261  1.00  0.00     0.025 C 
ATOM     17  C   UNL A   1      32.682  22.010  26.412  1.00  0.00     0.314 C 
BRANCH   8  18
ATOM     18  C   UNL A   1      31.648  27.956  25.937  1.00  0.00     0.037 C 
BRANCH  18  19
ATOM     19  C   UNL A   1      32.226  28.505  27.251  1.00  0.00     0.001 C 
ATOM     20  C   UNL A   1      33.744  28.647  27.245  1.00  0.00     0.004 C 
ENDBRANCH  18  19
ENDBRANCH   8  18
BRANCH  17  21
ATOM     21  C   UNL A   1      33.626  22.279  27.605  1.00  0.00     0.429 C 
ATOM     22  F   UNL A   1      32.906  22.578  28.716  1.00  0.00    -0.167 F 
ATOM     23  F   UNL A   1      34.383  21.199  27.917  1.00  0.00    -0.167 F 
ATOM     24  F   UNL A   1      34.480  23.302  27.389  1.00  0.00    -0.167 F 
ENDBRANCH  17  21
ENDBRANCH   4   7
ENDBRANCH   2   3
ENDBRANCH   1   2
BRANCH   1  25
ATOM     25  C   UNL A   1      38.987  20.292  25.745  1.00  0.00     0.118 C 
BRANCH  25  26
ATOM     26  N   UNL A   1      40.003  19.245  25.822  1.00  0.00    -0.352 N 
ATOM     27  C   UNL A   1      41.364  19.333  25.987  1.00  0.00     0.251 C 
ATOM     28  H   UNL A   1      39.655  18.327  25.743  1.00  0.00     0.163 HD
ATOM     29  O   UNL A   1      42.067  18.343  25.800  1.00  0.00    -0.269 OA
BRANCH  27  30
ATOM     30  C   UNL A   1      41.984  20.616  26.369  1.00  0.00     0.039 A 
ATOM     31  C   UNL A   1      42.233  20.907  27.709  1.00  0.00     0.014 A 
ATOM     32  C   UNL A   1      42.323  21.541  25.376  1.00  0.00     0.014 A 
ATOM     33  C   UNL A   1      42.628  22.186  28.072  1.00  0.00     0.010 A 
ATOM     34  C   UNL A   1      42.828  22.794  25.739  1.00  0.00     0.010 A 
ATOM     35  C   UNL A   1      42.934  23.144  27.093  1.00  0.00    -0.014 A 
BRANCH  35  36
ATOM     36  C   UNL A   1      43.364  24.497  27.523  1.00  0.00     0.031 A 
ATOM     37  C   UNL A   1      44.801  24.926  27.400  1.00  0.00     0.074 A 
ATOM     38  C   UNL A   1      42.432  25.374  27.940  1.00  0.00     0.049 A 
ATOM     39  N   UNL A   1      45.336  26.090  27.674  1.00  0.00    -0.248 NA
ATOM     40  C   UNL A   1      45.763  23.925  26.910  1.00  0.00     0.031 C 
ATOM     41  C   UNL A   1      41.003  25.079  28.073  1.00  0.00     0.029 A 
ATOM     42  N   UNL A   1      42.532  26.699  28.281  1.00  0.00    -0.354 N 
ATOM     43  C   UNL A   1      46.692  25.956  27.404  1.00  0.00     0.074 A 
ATOM     44  C   UNL A   1      46.907  24.592  26.977  1.00  0.00     0.031 C 
ATOM     45  C   UNL A   1      40.350  26.208  28.383  1.00  0.00     0.029 A 
ATOM     46  C   UNL A   1      41.319  27.286  28.549  1.00  0.00     0.049 A 
ATOM     47  H   UNL A   1      43.388  27.182  28.329  1.00  0.00     0.167 HD
ATOM     48  C   UNL A   1      47.668  26.891  27.495  1.00  0.00     0.031 A 
ATOM     49  C   UNL A   1      41.012  28.549  28.898  1.00  0.00     0.031 A 
ATOM     50  C   UNL A   1      47.449  28.248  27.923  1.00  0.00     0.049 A 
ATOM     51  C   UNL A   1      42.115  29.553  29.042  1.00  0.00     0.074 A 
ATOM     52  C   UNL A   1      48.378  29.264  28.064  1.00  0.00     0.029 A 
ATOM     53  N   UNL A   1      46.216  28.779  28.271  1.00  0.00    -0.354 N 
ATOM     54  N   UNL A   1      43.397  29.401  28.815  1.00  0.00    -0.248 NA
ATOM     55  C   UNL A   1      41.736  30.897  29.499  1.00  0.00     0.031 C 
ATOM     56  C   UNL A   1      47.714  30.397  28.545  1.00  0.00     0.029 A 
ATOM     57  C   UNL A   1      46.363  30.104  28.644  1.00  0.00     0.049 A 
ATOM     58  H   UNL A   1      45.364  28.287  28.254  1.00  0.00     0.167 HD
ATOM     59  C   UNL A   1      43.981  30.627  29.103  1.00  0.00     0.074 A 
ATOM     60  C   UNL A   1      42.909  31.518  29.497  1.00  0.00     0.031 C 
ATOM     61  C   UNL A   1      45.289  30.974  29.052  1.00  0.00     0.031 A 
BRANCH  48  62
ATOM     62  C   UNL A   1      49.069  26.474  27.144  1.00  0.00    -0.014 A 
ATOM     63  C   UNL A   1      49.493  26.508  25.805  1.00  0.00     0.009 A 
ATOM     64  C   UNL A   1      49.951  25.991  28.122  1.00  0.00     0.009 A 
ATOM     65  C   UNL A   1      50.771  26.066  25.454  1.00  0.00     0.001 A 
ATOM     66  C   UNL A   1      51.238  25.575  27.772  1.00  0.00     0.001 A 
ATOM     67  C   UNL A   1      51.644  25.606  26.439  1.00  0.00     0.000 A 
ENDBRANCH  48  62
BRANCH  49  68
ATOM     68  C   UNL A   1      39.589  28.906  29.126  1.00  0.00    -0.014 A 
ATOM     69  C   UNL A   1      39.007  28.732  30.393  1.00  0.00     0.009 A 
ATOM     70  C   UNL A   1      38.780  29.325  28.060  1.00  0.00     0.009 A 
ATOM     71  C   UNL A   1      37.638  28.929  30.579  1.00  0.00     0.001 A 
ATOM     72  C   UNL A   1      37.416  29.549  28.255  1.00  0.00     0.001 A 
ATOM     73  C   UNL A   1      36.843  29.338  29.510  1.00  0.00     0.000 A 
ENDBRANCH  49  68
BRANCH  61  74
ATOM     74  C   UNL A   1      45.649  32.380  29.435  1.00  0.00    -0.014 A 
ATOM     75  C   UNL A   1      45.708  33.379  28.451  1.00  0.00     0.009 A 
ATOM     76  C   UNL A   1      46.027  32.694  30.750  1.00  0.00     0.009 A 
ATOM     77  C   UNL A   1      46.150  34.664  28.772  1.00  0.00     0.001 A 
ATOM     78  C   UNL A   1      46.445  33.986  31.073  1.00  0.00     0.001 A 
ATOM     79  C   UNL A   1      46.515  34.966  30.084  1.00  0.00     0.000 A 
ENDBRANCH  61  74
ENDBRANCH  35  36
ENDBRANCH  27  30
ENDBRANCH  25  26
ENDBRANCH   1  25
TORSDOF 13
ENDMDL
MODEL 2
REMARK VINA RESULT:     -11.6      1.469      1.930
REMARK SMILES CCCc1cc2c(cc1Cl)C=C(C(=O)NCCCNC(=O)c1ccc(-c3c4nc(c(-c5ccccc5)c5ccc([nH]5)c(-c5ccccc5)c5nc(c(-c6ccccc6)c6ccc3[nH]6)C=C5)C=C4)cc1)[C@@H](C(F)(F)F)O2
REMARK SMILES IDX 17 1 16 2 15 3 13 4 14 5 12 7 4 8 5 9 9 10 6 11 8 12 10 13
REMARK SMILES IDX 7 14 75 15 11 16 70 17 3 18 2 19 1 20 71 21 72 22 73 23
REMARK SMILES IDX 74 24 18 25 19 26 20 27 21 29 22 30 23 31 69 32 24 33 68 34
REMARK SMILES IDX 25 35 26 36 27 37 62 38 28 39 67 40 61 41 63 42 29 43 66 44
REMARK SMILES IDX 60 45 59 46 30 48 52 49 37 50 51 51 38 52 41 53 50 54 64 55
REMARK SMILES IDX 39 56 40 57 49 59 65 60 42 61 31 62 32 63 36 64 33 65 35 66
REMARK SMILES IDX 34 67 53 68 54 69 58 70 55 71 57 72 56 73 43 74 44 75 48 76
REMARK SMILES IDX 45 77 47 78 46 79
REMARK H PARENT 15 6 19 28 63 47 41 58
REMARK Flexibility Score: inf
ROOT
ATOM      1  C   UNL A   1      37.999  19.578  24.992  1.00  0.00     0.042 C 
ENDROOT
BRANCH   1   2
ATOM      2  C   UNL A   1      37.023  20.709  24.702  1.00  0.00     0.118 C 
BRANCH   2   3
ATOM      3  N   UNL A   1      35.659  20.355  25.064  1.00  0.00    -0.352 N 
ATOM      4  C   UNL A   1      34.439  20.938  25.018  1.00  0.00     0.251 C 
ATOM      5  O   UNL A   1      33.512  20.252  25.459  1.00  0.00    -0.270 OA
ATOM      6  H   UNL A   1      35.611  19.448  25.444  1.00  0.00     0.163 HD
BRANCH   4   7
ATOM      7  C   UNL A   1      34.160  22.304  24.492  1.00  0.00     0.067 C 
ATOM      8  C   UNL A   1      33.468  27.250  23.858  1.00  0.00    -0.026 A 
ATOM      9  C   UNL A   1      33.662  26.164  22.993  1.00  0.00     0.052 A 
ATOM     10  C   UNL A   1      33.684  27.034  25.236  1.00  0.00     0.045 A 
ATOM     11  C   UNL A   1      33.945  24.897  23.498  1.00  0.00     0.128 A 
ATOM     12  C   UNL A   1      34.021  25.766  25.733  1.00  0.00     0.032 A 
ATOM     13  Cl  UNL A   1      33.544  28.319  26.387  1.00  0.00    -0.084 Cl
ATOM     14  C   UNL A   1      34.126  24.683  24.862  1.00  0.00     0.019 A 
ATOM     15  O   UNL A   1      34.023  23.876  22.589  1.00  0.00    -0.475 OA
ATOM     16  C   UNL A   1      34.418  23.331  25.327  1.00  0.00     0.025 C 
ATOM     17  C   UNL A   1      33.607  22.589  23.124  1.00  0.00     0.314 C 
BRANCH   8  18
ATOM     18  C   UNL A   1      33.048  28.614  23.339  1.00  0.00     0.037 C 
BRANCH  18  19
ATOM     19  C   UNL A   1      31.608  28.793  22.833  1.00  0.00     0.001 C 
ATOM     20  C   UNL A   1      30.546  28.307  23.814  1.00  0.00     0.004 C 
ENDBRANCH  18  19
ENDBRANCH   8  18
BRANCH  17  21
ATOM     21  C   UNL A   1      32.069  22.458  23.062  1.00  0.00     0.429 C 
ATOM     22  F   UNL A   1      31.719  21.348  22.364  1.00  0.00    -0.167 F 
ATOM     23  F   UNL A   1      31.513  22.330  24.291  1.00  0.00    -0.167 F 
ATOM     24  F   UNL A   1      31.466  23.512  22.472  1.00  0.00    -0.167 F 
ENDBRANCH  17  21
ENDBRANCH   4   7
ENDBRANCH   2   3
ENDBRANCH   1   2
BRANCH   1  25
ATOM     25  C   UNL A   1      39.206  20.047  25.795  1.00  0.00     0.118 C 
BRANCH  25  26
ATOM     26  N   UNL A   1      40.269  19.045  25.828  1.00  0.00    -0.352 N 
ATOM     27  C   UNL A   1      41.628  19.191  25.972  1.00  0.00     0.251 C 
ATOM     28  H   UNL A   1      39.962  18.115  25.731  1.00  0.00     0.163 HD
ATOM     29  O   UNL A   1      42.371  18.239  25.749  1.00  0.00    -0.269 OA
BRANCH  27  30
ATOM     30  C   UNL A   1      42.196  20.492  26.376  1.00  0.00     0.039 A 
ATOM     31  C   UNL A   1      42.304  20.824  27.725  1.00  0.00     0.014 A 
ATOM     32  C   UNL A   1      42.628  21.390  25.396  1.00  0.00     0.014 A 
ATOM     33  C   UNL A   1      42.650  22.117  28.088  1.00  0.00     0.010 A 
ATOM     34  C   UNL A   1      43.085  22.658  25.770  1.00  0.00     0.010 A 
ATOM     35  C   UNL A   1      43.049  23.049  27.116  1.00  0.00    -0.014 A 
BRANCH  35  36
ATOM     36  C   UNL A   1      43.423  24.419  27.547  1.00  0.00     0.031 A 
ATOM     37  C   UNL A   1      44.845  24.898  27.446  1.00  0.00     0.074 A 
ATOM     38  C   UNL A   1      42.453  25.264  27.944  1.00  0.00     0.049 A 
ATOM     39  N   UNL A   1      45.333  26.081  27.723  1.00  0.00    -0.248 NA
ATOM     40  C   UNL A   1      45.850  23.930  26.977  1.00  0.00     0.031 C 
ATOM     41  C   UNL A   1      41.033  24.918  28.055  1.00  0.00     0.029 A 
ATOM     42  N   UNL A   1      42.499  26.592  28.280  1.00  0.00    -0.354 N 
ATOM     43  C   UNL A   1      46.698  25.995  27.477  1.00  0.00     0.074 A 
ATOM     44  C   UNL A   1      46.969  24.638  27.060  1.00  0.00     0.031 C 
ATOM     45  C   UNL A   1      40.335  26.024  28.348  1.00  0.00     0.029 A 
ATOM     46  C   UNL A   1      41.262  27.137  28.525  1.00  0.00     0.049 A 
ATOM     47  H   UNL A   1      43.337  27.106  28.340  1.00  0.00     0.167 HD
ATOM     48  C   UNL A   1      47.638  26.965  27.580  1.00  0.00     0.031 A 
ATOM     49  C   UNL A   1      40.905  28.390  28.862  1.00  0.00     0.031 A 
ATOM     50  C   UNL A   1      47.364  28.315  27.997  1.00  0.00     0.049 A 
ATOM     51  C   UNL A   1      41.968  29.433  29.020  1.00  0.00     0.074 A 
ATOM     52  C   UNL A   1      48.253  29.364  28.148  1.00  0.00     0.029 A 
ATOM     53  N   UNL A   1      46.107  28.803  28.321  1.00  0.00    -0.354 N 
ATOM     54  N   UNL A   1      43.258  29.326  28.815  1.00  0.00    -0.248 NA
ATOM     55  C   UNL A   1      41.534  30.764  29.464  1.00  0.00     0.031 C 
ATOM     56  C   UNL A   1      47.540  30.475  28.613  1.00  0.00     0.029 A 
ATOM     57  C   UNL A   1      46.200  30.134  28.690  1.00  0.00     0.049 A 
ATOM     58  H   UNL A   1      45.274  28.280  28.293  1.00  0.00     0.167 HD
ATOM     59  C   UNL A   1      43.793  30.573  29.107  1.00  0.00     0.074 A 
ATOM     60  C   UNL A   1      42.683  31.427  29.478  1.00  0.00     0.031 C 
ATOM     61  C   UNL A   1      45.089  30.967  29.076  1.00  0.00     0.031 A 
BRANCH  48  62
ATOM     62  C   UNL A   1      49.059  26.597  27.254  1.00  0.00    -0.014 A 
ATOM     63  C   UNL A   1      49.503  26.637  25.922  1.00  0.00     0.009 A 
ATOM     64  C   UNL A   1      49.942  26.154  28.250  1.00  0.00     0.009 A 
ATOM     65  C   UNL A   1      50.802  26.239  25.595  1.00  0.00     0.001 A 
ATOM     66  C   UNL A   1      51.249  25.783  27.923  1.00  0.00     0.001 A 
ATOM     67  C   UNL A   1      51.675  25.819  26.597  1.00  0.00     0.000 A 
ENDBRANCH  48  62
BRANCH  49  68
ATOM     68  C   UNL A   1      39.465  28.696  29.065  1.00  0.00    -0.014 A 
ATOM     69  C   UNL A   1      38.698  29.228  28.016  1.00  0.00     0.009 A 
ATOM     70  C   UNL A   1      38.879  28.553  30.330  1.00  0.00     0.009 A 
ATOM     71  C   UNL A   1      37.387  29.651  28.238  1.00  0.00     0.001 A 
ATOM     72  C   UNL A   1      37.557  28.950  30.543  1.00  0.00     0.001 A 
ATOM     73  C   UNL A   1      36.817  29.510  29.502  1.00  0.00     0.000 A 
ENDBRANCH  49  68
BRANCH  61  74
ATOM     74  C   UNL A   1      45.392  32.386  29.458  1.00  0.00    -0.014 A 
ATOM     75  C   UNL A   1      45.430  33.383  28.470  1.00  0.00     0.009 A 
ATOM     76  C   UNL A   1      45.737  32.719  30.777  1.00  0.00     0.009 A 
ATOM     77  C   UNL A   1      45.820  34.684  28.793  1.00  0.00     0.001 A 
ATOM     78  C   UNL A   1      46.103  34.027  31.101  1.00  0.00     0.001 A 
ATOM     79  C   UNL A   1      46.153  35.005  30.108  1.00  0.00     0.000 A 
ENDBRANCH  61  74
ENDBRANCH  35  36
ENDBRANCH  27  30
ENDBRANCH  25  26
ENDBRANCH   1  25
TORSDOF 13
ENDMDL
MODEL 3
REMARK VINA RESULT:     -11.6      1.786      6.166
REMARK SMILES CCCc1cc2c(cc1Cl)C=C(C(=O)NCCCNC(=O)c1ccc(-c3c4nc(c(-c5ccccc5)c5ccc([nH]5)c(-c5ccccc5)c5nc(c(-c6ccccc6)c6ccc3[nH]6)C=C5)C=C4)cc1)[C@@H](C(F)(F)F)O2
REMARK SMILES IDX 17 1 16 2 15 3 13 4 14 5 12 7 4 8 5 9 9 10 6 11 8 12 10 13
REMARK SMILES IDX 7 14 75 15 11 16 70 17 3 18 2 19 1 20 71 21 72 22 73 23
REMARK SMILES IDX 74 24 18 25 19 26 20 27 21 29 22 30 23 31 69 32 24 33 68 34
REMARK SMILES IDX 25 35 26 36 27 37 62 38 28 39 67 40 61 41 63 42 29 43 66 44
REMARK SMILES IDX 60 45 59 46 30 48 52 49 37 50 51 51 38 52 41 53 50 54 64 55
REMARK SMILES IDX 39 56 40 57 49 59 65 60 42 61 31 62 32 63 36 64 33 65 35 66
REMARK SMILES IDX 34 67 53 68 54 69 58 70 55 71 57 72 56 73 43 74 44 75 48 76
REMARK SMILES IDX 45 77 47 78 46 79
REMARK H PARENT 15 6 19 28 63 47 41 58
REMARK Flexibility Score: inf
ROOT
ATOM      1  C   UNL A   1      37.640  20.029  24.891  1.00  0.00     0.042 C 
ENDROOT
BRANCH   1   2
ATOM      2  C   UNL A   1      36.555  21.088  24.762  1.00  0.00     0.118 C 
BRANCH   2   3
ATOM      3  N   UNL A   1      35.710  21.147  25.944  1.00  0.00    -0.352 N 
ATOM      4  C   UNL A   1      34.681  21.905  26.391  1.00  0.00     0.251 C 
ATOM      5  O   UNL A   1      34.249  21.599  27.506  1.00  0.00    -0.270 OA
ATOM      6  H   UNL A   1      35.951  20.448  26.594  1.00  0.00     0.163 HD
BRANCH   4   7
ATOM      7  C   UNL A   1      34.068  23.041  25.647  1.00  0.00     0.067 C 
ATOM      8  C   UNL A   1      32.614  27.549  23.943  1.00  0.00    -0.026 A 
ATOM      9  C   UNL A   1      32.595  26.247  23.424  1.00  0.00     0.052 A 
ATOM     10  C   UNL A   1      33.353  27.770  25.125  1.00  0.00     0.045 A 
ATOM     11  C   UNL A   1      33.193  25.199  24.118  1.00  0.00     0.128 A 
ATOM     12  C   UNL A   1      33.998  26.718  25.792  1.00  0.00     0.032 A 
ATOM     13  Cl  UNL A   1      33.503  29.350  25.816  1.00  0.00    -0.084 Cl
ATOM     14  C   UNL A   1      33.896  25.418  25.301  1.00  0.00     0.019 A 
ATOM     15  O   UNL A   1      33.045  23.946  23.587  1.00  0.00    -0.475 OA
ATOM     16  C   UNL A   1      34.497  24.275  25.982  1.00  0.00     0.025 C 
ATOM     17  C   UNL A   1      33.014  22.890  24.588  1.00  0.00     0.314 C 
BRANCH   8  18
ATOM     18  C   UNL A   1      31.873  28.686  23.262  1.00  0.00     0.037 C 
BRANCH  18  19
ATOM     19  C   UNL A   1      30.454  29.029  23.745  1.00  0.00     0.001 C 
ATOM     20  C   UNL A   1      29.372  28.119  23.170  1.00  0.00     0.004 C 
ENDBRANCH  18  19
ENDBRANCH   8  18
BRANCH  17  21
ATOM     21  C   UNL A   1      31.591  22.754  25.174  1.00  0.00     0.429 C 
ATOM     22  F   UNL A   1      30.668  23.168  24.269  1.00  0.00    -0.167 F 
ATOM     23  F   UNL A   1      31.280  21.471  25.480  1.00  0.00    -0.167 F 
ATOM     24  F   UNL A   1      31.406  23.476  26.300  1.00  0.00    -0.167 F 
ENDBRANCH  17  21
ENDBRANCH   4   7
ENDBRANCH   2   3
ENDBRANCH   1   2
BRANCH   1  25
ATOM     25  C   UNL A   1      38.804  20.495  25.756  1.00  0.00     0.118 C 
BRANCH  25  26
ATOM     26  N   UNL A   1      39.864  19.494  25.841  1.00  0.00    -0.352 N 
ATOM     27  C   UNL A   1      41.209  19.636  26.084  1.00  0.00     0.251 C 
ATOM     28  H   UNL A   1      39.567  18.566  25.698  1.00  0.00     0.163 HD
ATOM     29  O   UNL A   1      41.969  18.691  25.890  1.00  0.00    -0.269 OA
BRANCH  27  30
ATOM     30  C   UNL A   1      41.744  20.927  26.561  1.00  0.00     0.039 A 
ATOM     31  C   UNL A   1      41.773  21.217  27.923  1.00  0.00     0.014 A 
ATOM     32  C   UNL A   1      42.224  21.858  25.635  1.00  0.00     0.014 A 
ATOM     33  C   UNL A   1      42.089  22.500  28.345  1.00  0.00     0.010 A 
ATOM     34  C   UNL A   1      42.649  23.116  26.074  1.00  0.00     0.010 A 
ATOM     35  C   UNL A   1      42.534  23.464  27.428  1.00  0.00    -0.014 A 
BRANCH  35  36
ATOM     36  C   UNL A   1      42.873  24.822  27.922  1.00  0.00     0.031 A 
ATOM     37  C   UNL A   1      41.799  25.845  28.166  1.00  0.00     0.074 A 
ATOM     38  C   UNL A   1      44.152  25.098  28.239  1.00  0.00     0.049 A 
ATOM     39  N   UNL A   1      41.914  27.056  28.650  1.00  0.00    -0.248 NA
ATOM     40  C   UNL A   1      40.418  25.466  27.824  1.00  0.00     0.031 C 
ATOM     41  C   UNL A   1      45.277  24.173  28.072  1.00  0.00     0.029 A 
ATOM     42  N   UNL A   1      44.717  26.208  28.812  1.00  0.00    -0.354 N 
ATOM     43  C   UNL A   1      40.630  27.586  28.656  1.00  0.00     0.074 A 
ATOM     44  C   UNL A   1      39.754  26.580  28.098  1.00  0.00     0.031 C 
ATOM     45  C   UNL A   1      46.377  24.720  28.608  1.00  0.00     0.029 A 
ATOM     46  C   UNL A   1      46.056  26.061  29.083  1.00  0.00     0.049 A 
ATOM     47  H   UNL A   1      44.213  27.030  29.009  1.00  0.00     0.167 HD
ATOM     48  C   UNL A   1      40.218  28.798  29.098  1.00  0.00     0.031 A 
ATOM     49  C   UNL A   1      46.937  26.909  29.645  1.00  0.00     0.031 A 
ATOM     50  C   UNL A   1      41.094  29.797  29.651  1.00  0.00     0.049 A 
ATOM     51  C   UNL A   1      46.468  28.265  30.079  1.00  0.00     0.074 A 
ATOM     52  C   UNL A   1      40.773  31.062  30.110  1.00  0.00     0.029 A 
ATOM     53  N   UNL A   1      42.460  29.640  29.828  1.00  0.00    -0.354 N 
ATOM     54  N   UNL A   1      45.256  28.762  30.047  1.00  0.00    -0.248 NA
ATOM     55  C   UNL A   1      47.484  29.180  30.615  1.00  0.00     0.031 C 
ATOM     56  C   UNL A   1      41.954  31.690  30.519  1.00  0.00     0.029 A 
ATOM     57  C   UNL A   1      43.000  30.793  30.372  1.00  0.00     0.049 A 
ATOM     58  H   UNL A   1      42.970  28.830  29.600  1.00  0.00     0.167 HD
ATOM     59  C   UNL A   1      45.361  30.049  30.556  1.00  0.00     0.074 A 
ATOM     60  C   UNL A   1      46.751  30.245  30.912  1.00  0.00     0.031 C 
ATOM     61  C   UNL A   1      44.390  30.982  30.705  1.00  0.00     0.031 A 
BRANCH  48  62
ATOM     62  C   UNL A   1      38.754  29.123  28.982  1.00  0.00    -0.014 A 
ATOM     63  C   UNL A   1      38.238  29.600  27.766  1.00  0.00     0.009 A 
ATOM     64  C   UNL A   1      37.896  29.014  30.087  1.00  0.00     0.009 A 
ATOM     65  C   UNL A   1      36.894  29.964  27.661  1.00  0.00     0.001 A 
ATOM     66  C   UNL A   1      36.546  29.353  29.971  1.00  0.00     0.001 A 
ATOM     67  C   UNL A   1      36.048  29.834  28.761  1.00  0.00     0.000 A 
ENDBRANCH  48  62
BRANCH  49  68
ATOM     68  C   UNL A   1      48.346  26.471  29.819  1.00  0.00    -0.014 A 
ATOM     69  C   UNL A   1      48.751  25.836  31.004  1.00  0.00     0.009 A 
ATOM     70  C   UNL A   1      49.310  26.774  28.847  1.00  0.00     0.009 A 
ATOM     71  C   UNL A   1      50.098  25.551  31.233  1.00  0.00     0.001 A 
ATOM     72  C   UNL A   1      50.653  26.461  29.066  1.00  0.00     0.001 A 
ATOM     73  C   UNL A   1      51.048  25.863  30.262  1.00  0.00     0.000 A 
ENDBRANCH  49  68
BRANCH  61  74
ATOM     74  C   UNL A   1      44.787  32.312  31.274  1.00  0.00    -0.014 A 
ATOM     75  C   UNL A   1      45.240  33.331  30.420  1.00  0.00     0.009 A 
ATOM     76  C   UNL A   1      44.809  32.524  32.661  1.00  0.00     0.009 A 
ATOM     77  C   UNL A   1      45.719  34.533  30.945  1.00  0.00     0.001 A 
ATOM     78  C   UNL A   1      45.266  33.736  33.181  1.00  0.00     0.001 A 
ATOM     79  C   UNL A   1      45.728  34.735  32.325  1.00  0.00     0.000 A 
ENDBRANCH  61  74
ENDBRANCH  35  36
ENDBRANCH  27  30
ENDBRANCH  25  26
ENDBRANCH   1  25
TORSDOF 13
ENDMDL
