MODEL 1
REMARK VINA RESULT:     -11.9      0.000      0.000
REMARK SMILES CS(=O)(=O)c1ccc(N2N=C(C(=O)NCCCNC(=O)c3ccc(-c4c5nc(c(-c6ccccc6)c6ccc([nH]6)c(-c6ccccc6)c6nc(c(-c7ccccc7)c7ccc4[nH]7)C=C6)C=C5)cc3)C[C@H]2c2ccco2)cc1
REMARK SMILES IDX 16 1 15 2 14 3 12 4 13 5 11 7 9 8 10 9 70 10 69 11 8 12 5 13
REMARK SMILES IDX 6 14 77 15 7 16 76 17 2 18 1 19 3 20 4 21 71 22 72 23 75 24
REMARK SMILES IDX 73 25 74 26 17 27 18 28 19 29 20 31 21 32 22 33 68 34 23 35
REMARK SMILES IDX 67 36 24 37 25 38 26 39 61 40 27 41 66 42 60 43 62 44 28 45
REMARK SMILES IDX 65 46 59 47 58 48 29 50 51 51 36 52 50 53 37 54 40 55 49 56
REMARK SMILES IDX 63 57 38 58 39 59 48 61 64 62 41 63 30 64 31 65 35 66 32 67
REMARK SMILES IDX 34 68 33 69 52 70 53 71 57 72 54 73 56 74 55 75 42 76 43 77
REMARK SMILES IDX 47 78 44 79 46 80 45 81
REMARK H PARENT 14 6 18 30 62 49 40 60
REMARK Flexibility Score: inf
ROOT
ATOM      1  C   UNL A   1      32.148  28.146  26.729  1.00  0.00     0.042 C 
ENDROOT
BRANCH   1   2
ATOM      2  C   UNL A   1      32.043  26.638  26.540  1.00  0.00     0.118 C 
BRANCH   2   3
ATOM      3  N   UNL A   1      31.151  26.304  25.445  1.00  0.00    -0.351 N 
ATOM      4  C   UNL A   1      31.228  25.486  24.349  1.00  0.00     0.267 C 
ATOM      5  O   UNL A   1      30.309  25.549  23.536  1.00  0.00    -0.268 OA
ATOM      6  H   UNL A   1      30.289  26.778  25.503  1.00  0.00     0.163 HD
BRANCH   4   7
ATOM      7  C   UNL A   1      32.341  24.479  24.110  1.00  0.00     0.128 C 
ATOM      8  N   UNL A   1      33.332  22.595  24.131  1.00  0.00    -0.254 N 
ATOM      9  N   UNL A   1      32.129  23.208  24.272  1.00  0.00    -0.171 NA
ATOM     10  C   UNL A   1      34.399  23.473  23.654  1.00  0.00     0.180 C 
ATOM     11  C   UNL A   1      33.730  24.852  23.721  1.00  0.00     0.099 C 
BRANCH   8  12
ATOM     12  C   UNL A   1      33.412  21.212  24.145  1.00  0.00     0.060 A 
ATOM     13  C   UNL A   1      33.599  18.409  24.230  1.00  0.00     0.067 A 
ATOM     14  C   UNL A   1      32.526  19.019  23.571  1.00  0.00     0.022 A 
ATOM     15  C   UNL A   1      34.570  19.185  24.859  1.00  0.00     0.022 A 
ATOM     16  C   UNL A   1      32.432  20.413  23.542  1.00  0.00     0.029 A 
ATOM     17  C   UNL A   1      34.467  20.577  24.811  1.00  0.00     0.029 A 
BRANCH  13  18
ATOM     18  S   UNL A   1      33.663  16.636  24.245  1.00  0.00     0.175 S 
ATOM     19  C   UNL A   1      35.081  16.172  25.196  1.00  0.00     0.163 C 
ATOM     20  O   UNL A   1      33.904  16.224  22.878  1.00  0.00    -0.224 OA
ATOM     21  O   UNL A   1      32.489  16.185  24.971  1.00  0.00    -0.224 OA
ENDBRANCH  13  18
ENDBRANCH   8  12
BRANCH  10  22
ATOM     22  C   UNL A   1      35.712  23.438  24.385  1.00  0.00     0.128 A 
ATOM     23  C   UNL A   1      36.958  22.940  24.052  1.00  0.00     0.048 A 
ATOM     24  O   UNL A   1      35.763  23.975  25.642  1.00  0.00    -0.467 OA
ATOM     25  C   UNL A   1      37.803  23.181  25.163  1.00  0.00     0.042 A 
ATOM     26  C   UNL A   1      37.030  23.825  26.099  1.00  0.00     0.195 A 
ENDBRANCH  10  22
ENDBRANCH   4   7
ENDBRANCH   2   3
ENDBRANCH   1   2
BRANCH   1  27
ATOM     27  C   UNL A   1      33.519  28.592  27.230  1.00  0.00     0.118 C 
BRANCH  27  28
ATOM     28  N   UNL A   1      33.538  30.005  27.587  1.00  0.00    -0.352 N 
ATOM     29  C   UNL A   1      34.488  30.746  28.242  1.00  0.00     0.251 C 
ATOM     30  H   UNL A   1      32.738  30.510  27.313  1.00  0.00     0.163 HD
ATOM     31  O   UNL A   1      34.203  31.866  28.653  1.00  0.00    -0.269 OA
BRANCH  29  32
ATOM     32  C   UNL A   1      35.846  30.205  28.464  1.00  0.00     0.039 A 
ATOM     33  C   UNL A   1      36.754  30.203  27.401  1.00  0.00     0.014 A 
ATOM     34  C   UNL A   1      36.214  29.658  29.695  1.00  0.00     0.014 A 
ATOM     35  C   UNL A   1      38.046  29.710  27.592  1.00  0.00     0.010 A 
ATOM     36  C   UNL A   1      37.525  29.244  29.908  1.00  0.00     0.010 A 
ATOM     37  C   UNL A   1      38.452  29.259  28.857  1.00  0.00    -0.014 A 
BRANCH  37  38
ATOM     38  C   UNL A   1      39.840  28.794  29.097  1.00  0.00     0.031 A 
ATOM     39  C   UNL A   1      40.853  29.716  29.720  1.00  0.00     0.074 A 
ATOM     40  C   UNL A   1      40.207  27.561  28.695  1.00  0.00     0.049 A 
ATOM     41  N   UNL A   1      42.124  29.505  29.956  1.00  0.00    -0.248 NA
ATOM     42  C   UNL A   1      40.386  31.058  30.102  1.00  0.00     0.031 C 
ATOM     43  C   UNL A   1      39.331  26.589  28.034  1.00  0.00     0.029 A 
ATOM     44  N   UNL A   1      41.415  26.917  28.779  1.00  0.00    -0.354 N 
ATOM     45  C   UNL A   1      42.610  30.692  30.490  1.00  0.00     0.074 A 
ATOM     46  C   UNL A   1      41.511  31.633  30.501  1.00  0.00     0.031 C 
ATOM     47  C   UNL A   1      40.025  25.463  27.800  1.00  0.00     0.029 A 
ATOM     48  C   UNL A   1      41.398  25.646  28.258  1.00  0.00     0.049 A 
ATOM     49  H   UNL A   1      42.218  27.327  29.174  1.00  0.00     0.167 HD
ATOM     50  C   UNL A   1      43.854  30.970  30.946  1.00  0.00     0.031 A 
ATOM     51  C   UNL A   1      42.378  24.730  28.160  1.00  0.00     0.031 A 
ATOM     52  C   UNL A   1      44.941  30.028  30.958  1.00  0.00     0.049 A 
ATOM     53  C   UNL A   1      43.746  25.057  28.688  1.00  0.00     0.074 A 
ATOM     54  C   UNL A   1      46.220  30.193  31.461  1.00  0.00     0.029 A 
ATOM     55  N   UNL A   1      44.875  28.744  30.442  1.00  0.00    -0.354 N 
ATOM     56  N   UNL A   1      44.169  26.161  29.254  1.00  0.00    -0.248 NA
ATOM     57  C   UNL A   1      44.766  24.006  28.575  1.00  0.00     0.031 C 
ATOM     58  C   UNL A   1      46.942  29.022  31.213  1.00  0.00     0.029 A 
ATOM     59  C   UNL A   1      46.097  28.111  30.598  1.00  0.00     0.049 A 
ATOM     60  H   UNL A   1      44.079  28.342  30.026  1.00  0.00     0.167 HD
ATOM     61  C   UNL A   1      45.496  25.929  29.587  1.00  0.00     0.074 A 
ATOM     62  C   UNL A   1      45.803  24.576  29.174  1.00  0.00     0.031 C 
ATOM     63  C   UNL A   1      46.384  26.764  30.181  1.00  0.00     0.031 A 
BRANCH  50  64
ATOM     64  C   UNL A   1      44.104  32.355  31.475  1.00  0.00    -0.014 A 
ATOM     65  C   UNL A   1      44.467  33.405  30.618  1.00  0.00     0.009 A 
ATOM     66  C   UNL A   1      43.941  32.620  32.844  1.00  0.00     0.009 A 
ATOM     67  C   UNL A   1      44.694  34.687  31.125  1.00  0.00     0.001 A 
ATOM     68  C   UNL A   1      44.142  33.908  33.344  1.00  0.00     0.001 A 
ATOM     69  C   UNL A   1      44.527  34.937  32.486  1.00  0.00     0.000 A 
ENDBRANCH  50  64
BRANCH  51  70
ATOM     70  C   UNL A   1      42.097  23.402  27.557  1.00  0.00    -0.014 A 
ATOM     71  C   UNL A   1      41.465  22.400  28.309  1.00  0.00     0.009 A 
ATOM     72  C   UNL A   1      42.459  23.130  26.228  1.00  0.00     0.009 A 
ATOM     73  C   UNL A   1      41.226  21.142  27.752  1.00  0.00     0.001 A 
ATOM     74  C   UNL A   1      42.194  21.879  25.666  1.00  0.00     0.001 A 
ATOM     75  C   UNL A   1      41.586  20.884  26.430  1.00  0.00     0.000 A 
ENDBRANCH  51  70
BRANCH  63  76
ATOM     76  C   UNL A   1      47.759  26.223  30.446  1.00  0.00    -0.014 A 
ATOM     77  C   UNL A   1      48.741  26.212  29.445  1.00  0.00     0.009 A 
ATOM     78  C   UNL A   1      48.083  25.751  31.727  1.00  0.00     0.009 A 
ATOM     79  C   UNL A   1      50.014  25.708  29.713  1.00  0.00     0.001 A 
ATOM     80  C   UNL A   1      49.366  25.273  32.000  1.00  0.00     0.001 A 
ATOM     81  C   UNL A   1      50.327  25.243  30.991  1.00  0.00     0.000 A 
ENDBRANCH  63  76
ENDBRANCH  37  38
ENDBRANCH  29  32
ENDBRANCH  27  28
ENDBRANCH   1  27
TORSDOF 13
ENDMDL
MODEL 2
REMARK VINA RESULT:     -11.9      0.818      5.929
REMARK SMILES CS(=O)(=O)c1ccc(N2N=C(C(=O)NCCCNC(=O)c3ccc(-c4c5nc(c(-c6ccccc6)c6ccc([nH]6)c(-c6ccccc6)c6nc(c(-c7ccccc7)c7ccc4[nH]7)C=C6)C=C5)cc3)C[C@H]2c2ccco2)cc1
REMARK SMILES IDX 16 1 15 2 14 3 12 4 13 5 11 7 9 8 10 9 70 10 69 11 8 12 5 13
REMARK SMILES IDX 6 14 77 15 7 16 76 17 2 18 1 19 3 20 4 21 71 22 72 23 75 24
REMARK SMILES IDX 73 25 74 26 17 27 18 28 19 29 20 31 21 32 22 33 68 34 23 35
REMARK SMILES IDX 67 36 24 37 25 38 26 39 61 40 27 41 66 42 60 43 62 44 28 45
REMARK SMILES IDX 65 46 59 47 58 48 29 50 51 51 36 52 50 53 37 54 40 55 49 56
REMARK SMILES IDX 63 57 38 58 39 59 48 61 64 62 41 63 30 64 31 65 35 66 32 67
REMARK SMILES IDX 34 68 33 69 52 70 53 71 57 72 54 73 56 74 55 75 42 76 43 77
REMARK SMILES IDX 47 78 44 79 46 80 45 81
REMARK H PARENT 14 6 18 30 62 49 40 60
REMARK Flexibility Score: inf
ROOT
ATOM      1  C   UNL A   1      32.270  28.063  27.419  1.00  0.00     0.042 C 
ENDROOT
BRANCH   1   2
ATOM      2  C   UNL A   1      31.897  27.201  26.219  1.00  0.00     0.118 C 
BRANCH   2   3
ATOM      3  N   UNL A   1      30.983  26.139  26.596  1.00  0.00    -0.351 N 
ATOM      4  C   UNL A   1      30.896  24.798  26.330  1.00  0.00     0.267 C 
ATOM      5  O   UNL A   1      29.887  24.214  26.718  1.00  0.00    -0.268 OA
ATOM      6  H   UNL A   1      30.255  26.457  27.179  1.00  0.00     0.163 HD
BRANCH   4   7
ATOM      7  C   UNL A   1      31.982  23.990  25.639  1.00  0.00     0.128 C 
ATOM      8  N   UNL A   1      33.141  22.279  25.126  1.00  0.00    -0.254 N 
ATOM      9  N   UNL A   1      31.984  22.693  25.704  1.00  0.00    -0.171 NA
ATOM     10  C   UNL A   1      33.887  23.342  24.453  1.00  0.00     0.180 C 
ATOM     11  C   UNL A   1      33.118  24.595  24.888  1.00  0.00     0.099 C 
BRANCH   8  12
ATOM     12  C   UNL A   1      33.382  20.927  24.947  1.00  0.00     0.060 A 
ATOM     13  C   UNL A   1      33.828  18.182  24.540  1.00  0.00     0.067 A 
ATOM     14  C   UNL A   1      34.893  19.020  24.889  1.00  0.00     0.022 A 
ATOM     15  C   UNL A   1      32.547  18.705  24.380  1.00  0.00     0.022 A 
ATOM     16  C   UNL A   1      34.668  20.386  25.078  1.00  0.00     0.029 A 
ATOM     17  C   UNL A   1      32.336  20.070  24.584  1.00  0.00     0.029 A 
BRANCH  13  18
ATOM     18  S   UNL A   1      34.173  16.459  24.302  1.00  0.00     0.175 S 
ATOM     19  C   UNL A   1      32.851  15.551  25.053  1.00  0.00     0.163 C 
ATOM     20  O   UNL A   1      35.376  16.174  25.055  1.00  0.00    -0.224 OA
ATOM     21  O   UNL A   1      34.105  16.216  22.871  1.00  0.00    -0.224 OA
ENDBRANCH  13  18
ENDBRANCH   8  12
BRANCH  10  22
ATOM     22  C   UNL A   1      35.360  23.446  24.733  1.00  0.00     0.128 A 
ATOM     23  C   UNL A   1      36.480  23.290  23.938  1.00  0.00     0.048 A 
ATOM     24  O   UNL A   1      35.752  23.740  26.010  1.00  0.00    -0.467 OA
ATOM     25  C   UNL A   1      37.604  23.492  24.775  1.00  0.00     0.042 A 
ATOM     26  C   UNL A   1      37.106  23.776  26.024  1.00  0.00     0.195 A 
ENDBRANCH  10  22
ENDBRANCH   4   7
ENDBRANCH   2   3
ENDBRANCH   1   2
BRANCH   1  27
ATOM     27  C   UNL A   1      33.656  28.689  27.297  1.00  0.00     0.118 C 
BRANCH  27  28
ATOM     28  N   UNL A   1      33.658  30.093  27.688  1.00  0.00    -0.352 N 
ATOM     29  C   UNL A   1      34.604  30.832  28.353  1.00  0.00     0.251 C 
ATOM     30  H   UNL A   1      32.850  30.593  27.433  1.00  0.00     0.163 HD
ATOM     31  O   UNL A   1      34.306  31.938  28.794  1.00  0.00    -0.269 OA
BRANCH  29  32
ATOM     32  C   UNL A   1      35.970  30.304  28.553  1.00  0.00     0.039 A 
ATOM     33  C   UNL A   1      36.885  30.388  27.498  1.00  0.00     0.014 A 
ATOM     34  C   UNL A   1      36.341  29.689  29.750  1.00  0.00     0.014 A 
ATOM     35  C   UNL A   1      38.186  29.909  27.668  1.00  0.00     0.010 A 
ATOM     36  C   UNL A   1      37.659  29.289  29.947  1.00  0.00     0.010 A 
ATOM     37  C   UNL A   1      38.592  29.387  28.906  1.00  0.00    -0.014 A 
BRANCH  37  38
ATOM     38  C   UNL A   1      39.988  28.936  29.129  1.00  0.00     0.031 A 
ATOM     39  C   UNL A   1      40.420  27.562  28.694  1.00  0.00     0.074 A 
ATOM     40  C   UNL A   1      40.849  29.740  29.782  1.00  0.00     0.049 A 
ATOM     41  N   UNL A   1      41.580  26.974  28.853  1.00  0.00    -0.248 NA
ATOM     42  C   UNL A   1      39.413  26.730  28.017  1.00  0.00     0.031 C 
ATOM     43  C   UNL A   1      40.538  31.076  30.299  1.00  0.00     0.029 A 
ATOM     44  N   UNL A   1      42.163  29.547  30.129  1.00  0.00    -0.354 N 
ATOM     45  C   UNL A   1      41.433  25.700  28.320  1.00  0.00     0.074 A 
ATOM     46  C   UNL A   1      40.062  25.583  27.873  1.00  0.00     0.031 C 
ATOM     47  C   UNL A   1      41.639  31.592  30.869  1.00  0.00     0.029 A 
ATOM     48  C   UNL A   1      42.718  30.615  30.793  1.00  0.00     0.049 A 
ATOM     49  H   UNL A   1      42.659  28.723  29.922  1.00  0.00     0.167 HD
ATOM     50  C   UNL A   1      42.360  24.720  28.196  1.00  0.00     0.031 A 
ATOM     51  C   UNL A   1      43.958  30.785  31.285  1.00  0.00     0.031 A 
ATOM     52  C   UNL A   1      43.729  24.844  28.617  1.00  0.00     0.049 A 
ATOM     53  C   UNL A   1      44.973  29.690  31.121  1.00  0.00     0.074 A 
ATOM     54  C   UNL A   1      44.761  23.932  28.474  1.00  0.00     0.029 A 
ATOM     55  N   UNL A   1      44.257  25.949  29.265  1.00  0.00    -0.354 N 
ATOM     56  N   UNL A   1      44.835  28.517  30.550  1.00  0.00    -0.248 NA
ATOM     57  C   UNL A   1      46.315  29.947  31.658  1.00  0.00     0.031 C 
ATOM     58  C   UNL A   1      45.905  24.471  29.072  1.00  0.00     0.029 A 
ATOM     59  C   UNL A   1      45.596  25.736  29.545  1.00  0.00     0.049 A 
ATOM     60  H   UNL A   1      43.754  26.765  29.493  1.00  0.00     0.167 HD
ATOM     61  C   UNL A   1      46.080  27.908  30.637  1.00  0.00     0.074 A 
ATOM     62  C   UNL A   1      46.962  28.845  31.299  1.00  0.00     0.031 C 
ATOM     63  C   UNL A   1      46.458  26.680  30.206  1.00  0.00     0.031 A 
BRANCH  50  64
ATOM     64  C   UNL A   1      41.919  23.425  27.574  1.00  0.00    -0.014 A 
ATOM     65  C   UNL A   1      42.134  23.162  26.212  1.00  0.00     0.009 A 
ATOM     66  C   UNL A   1      41.312  22.439  28.369  1.00  0.00     0.009 A 
ATOM     67  C   UNL A   1      41.719  21.952  25.651  1.00  0.00     0.001 A 
ATOM     68  C   UNL A   1      40.924  21.220  27.810  1.00  0.00     0.001 A 
ATOM     69  C   UNL A   1      41.119  20.982  26.451  1.00  0.00     0.000 A 
ENDBRANCH  50  64
BRANCH  51  70
ATOM     70  C   UNL A   1      44.320  32.057  31.961  1.00  0.00    -0.014 A 
ATOM     71  C   UNL A   1      44.839  33.131  31.223  1.00  0.00     0.009 A 
ATOM     72  C   UNL A   1      44.149  32.203  33.347  1.00  0.00     0.009 A 
ATOM     73  C   UNL A   1      45.206  34.317  31.862  1.00  0.00     0.001 A 
ATOM     74  C   UNL A   1      44.493  33.400  33.979  1.00  0.00     0.001 A 
ATOM     75  C   UNL A   1      45.029  34.453  33.238  1.00  0.00     0.000 A 
ENDBRANCH  51  70
BRANCH  63  76
ATOM     76  C   UNL A   1      47.895  26.297  30.412  1.00  0.00    -0.014 A 
ATOM     77  C   UNL A   1      48.321  25.692  31.604  1.00  0.00     0.009 A 
ATOM     78  C   UNL A   1      48.825  26.512  29.384  1.00  0.00     0.009 A 
ATOM     79  C   UNL A   1      49.661  25.340  31.774  1.00  0.00     0.001 A 
ATOM     80  C   UNL A   1      50.158  26.134  29.546  1.00  0.00     0.001 A 
ATOM     81  C   UNL A   1      50.577  25.557  30.744  1.00  0.00     0.000 A 
ENDBRANCH  63  76
ENDBRANCH  37  38
ENDBRANCH  29  32
ENDBRANCH  27  28
ENDBRANCH   1  27
TORSDOF 13
ENDMDL
MODEL 3
REMARK VINA RESULT:     -11.4      4.978      8.473
REMARK SMILES CS(=O)(=O)c1ccc(N2N=C(C(=O)NCCCNC(=O)c3ccc(-c4c5nc(c(-c6ccccc6)c6ccc([nH]6)c(-c6ccccc6)c6nc(c(-c7ccccc7)c7ccc4[nH]7)C=C6)C=C5)cc3)C[C@H]2c2ccco2)cc1
REMARK SMILES IDX 16 1 15 2 14 3 12 4 13 5 11 7 9 8 10 9 70 10 69 11 8 12 5 13
REMARK SMILES IDX 6 14 77 15 7 16 76 17 2 18 1 19 3 20 4 21 71 22 72 23 75 24
REMARK SMILES IDX 73 25 74 26 17 27 18 28 19 29 20 31 21 32 22 33 68 34 23 35
REMARK SMILES IDX 67 36 24 37 25 38 26 39 61 40 27 41 66 42 60 43 62 44 28 45
REMARK SMILES IDX 65 46 59 47 58 48 29 50 51 51 36 52 50 53 37 54 40 55 49 56
REMARK SMILES IDX 63 57 38 58 39 59 48 61 64 62 41 63 30 64 31 65 35 66 32 67
REMARK SMILES IDX 34 68 33 69 52 70 53 71 57 72 54 73 56 74 55 75 42 76 43 77
REMARK SMILES IDX 47 78 44 79 46 80 45 81
REMARK H PARENT 14 6 18 30 62 49 40 60
REMARK Flexibility Score: inf
ROOT
ATOM      1  C   UNL A   1      35.357  33.085  29.514  1.00  0.00     0.042 C 
ENDROOT
BRANCH   1   2
ATOM      2  C   UNL A   1      34.760  34.252  30.292  1.00  0.00     0.118 C 
BRANCH   2   3
ATOM      3  N   UNL A   1      33.969  33.787  31.416  1.00  0.00    -0.351 N 
ATOM      4  C   UNL A   1      34.254  33.258  32.646  1.00  0.00     0.267 C 
ATOM      5  O   UNL A   1      33.308  32.841  33.311  1.00  0.00    -0.268 OA
ATOM      6  H   UNL A   1      33.000  33.872  31.256  1.00  0.00     0.163 HD
BRANCH   4   7
ATOM      7  C   UNL A   1      35.647  33.204  33.253  1.00  0.00     0.128 C 
ATOM      8  N   UNL A   1      37.499  32.350  33.862  1.00  0.00    -0.254 N 
ATOM      9  N   UNL A   1      36.398  32.158  33.091  1.00  0.00    -0.171 NA
ATOM     10  C   UNL A   1      37.600  33.691  34.438  1.00  0.00     0.180 C 
ATOM     11  C   UNL A   1      36.233  34.291  34.087  1.00  0.00     0.099 C 
BRANCH   8  12
ATOM     12  C   UNL A   1      38.545  31.443  33.817  1.00  0.00     0.060 A 
ATOM     13  C   UNL A   1      40.692  29.630  33.776  1.00  0.00     0.067 A 
ATOM     14  C   UNL A   1      39.427  29.226  33.336  1.00  0.00     0.022 A 
ATOM     15  C   UNL A   1      40.891  30.925  34.248  1.00  0.00     0.022 A 
ATOM     16  C   UNL A   1      38.360  30.129  33.370  1.00  0.00     0.029 A 
ATOM     17  C   UNL A   1      39.818  31.817  34.265  1.00  0.00     0.029 A 
BRANCH  13  18
ATOM     18  S   UNL A   1      42.006  28.439  33.721  1.00  0.00     0.175 S 
ATOM     19  C   UNL A   1      41.720  27.284  35.031  1.00  0.00     0.163 C 
ATOM     20  O   UNL A   1      43.223  29.159  34.036  1.00  0.00    -0.224 OA
ATOM     21  O   UNL A   1      41.861  27.717  32.469  1.00  0.00    -0.224 OA
ENDBRANCH  13  18
ENDBRANCH   8  12
BRANCH  10  22
ATOM     22  C   UNL A   1      37.916  33.800  35.903  1.00  0.00     0.128 A 
ATOM     23  C   UNL A   1      38.853  34.531  36.609  1.00  0.00     0.048 A 
ATOM     24  O   UNL A   1      37.179  33.048  36.776  1.00  0.00    -0.467 OA
ATOM     25  C   UNL A   1      38.681  34.200  37.975  1.00  0.00     0.042 A 
ATOM     26  C   UNL A   1      37.641  33.303  38.025  1.00  0.00     0.195 A 
ENDBRANCH  10  22
ENDBRANCH   4   7
ENDBRANCH   2   3
ENDBRANCH   1   2
BRANCH   1  27
ATOM     27  C   UNL A   1      34.751  32.922  28.124  1.00  0.00     0.118 C 
BRANCH  27  28
ATOM     28  N   UNL A   1      34.003  31.677  27.996  1.00  0.00    -0.352 N 
ATOM     29  C   UNL A   1      34.440  30.380  27.910  1.00  0.00     0.251 C 
ATOM     30  H   UNL A   1      33.025  31.785  27.967  1.00  0.00     0.163 HD
ATOM     31  O   UNL A   1      33.656  29.500  27.565  1.00  0.00    -0.269 OA
BRANCH  29  32
ATOM     32  C   UNL A   1      35.844  30.034  28.218  1.00  0.00     0.039 A 
ATOM     33  C   UNL A   1      36.155  29.549  29.492  1.00  0.00     0.014 A 
ATOM     34  C   UNL A   1      36.859  30.228  27.280  1.00  0.00     0.014 A 
ATOM     35  C   UNL A   1      37.471  29.203  29.801  1.00  0.00     0.010 A 
ATOM     36  C   UNL A   1      38.155  29.806  27.560  1.00  0.00     0.010 A 
ATOM     37  C   UNL A   1      38.476  29.296  28.825  1.00  0.00    -0.014 A 
BRANCH  37  38
ATOM     38  C   UNL A   1      39.867  28.870  29.112  1.00  0.00     0.031 A 
ATOM     39  C   UNL A   1      40.822  29.807  29.801  1.00  0.00     0.074 A 
ATOM     40  C   UNL A   1      40.292  27.662  28.692  1.00  0.00     0.049 A 
ATOM     41  N   UNL A   1      42.089  29.631  30.085  1.00  0.00    -0.248 NA
ATOM     42  C   UNL A   1      40.295  31.122  30.198  1.00  0.00     0.031 C 
ATOM     43  C   UNL A   1      39.477  26.680  27.970  1.00  0.00     0.029 A 
ATOM     44  N   UNL A   1      41.516  27.055  28.810  1.00  0.00    -0.354 N 
ATOM     45  C   UNL A   1      42.513  30.817  30.669  1.00  0.00     0.074 A 
ATOM     46  C   UNL A   1      41.383  31.722  30.660  1.00  0.00     0.031 C 
ATOM     47  C   UNL A   1      40.217  25.585  27.735  1.00  0.00     0.029 A 
ATOM     48  C   UNL A   1      41.563  25.799  28.255  1.00  0.00     0.049 A 
ATOM     49  H   UNL A   1      42.288  27.480  29.249  1.00  0.00     0.167 HD
ATOM     50  C   UNL A   1      43.727  31.123  31.185  1.00  0.00     0.031 A 
ATOM     51  C   UNL A   1      42.577  24.919  28.174  1.00  0.00     0.031 A 
ATOM     52  C   UNL A   1      44.843  30.217  31.217  1.00  0.00     0.049 A 
ATOM     53  C   UNL A   1      43.910  25.275  28.768  1.00  0.00     0.074 A 
ATOM     54  C   UNL A   1      46.094  30.409  31.778  1.00  0.00     0.029 A 
ATOM     55  N   UNL A   1      44.842  28.946  30.665  1.00  0.00    -0.354 N 
ATOM     56  N   UNL A   1      44.272  26.376  29.381  1.00  0.00    -0.248 NA
ATOM     57  C   UNL A   1      44.969  24.261  28.669  1.00  0.00     0.031 C 
ATOM     58  C   UNL A   1      46.864  29.269  31.529  1.00  0.00     0.029 A 
ATOM     59  C   UNL A   1      46.077  28.349  30.856  1.00  0.00     0.049 A 
ATOM     60  H   UNL A   1      44.077  28.530  30.205  1.00  0.00     0.167 HD
ATOM     61  C   UNL A   1      45.592  26.178  29.762  1.00  0.00     0.074 A 
ATOM     62  C   UNL A   1      45.961  24.847  29.327  1.00  0.00     0.031 C 
ATOM     63  C   UNL A   1      46.426  27.024  30.415  1.00  0.00     0.031 A 
BRANCH  50  64
ATOM     64  C   UNL A   1      43.909  32.500  31.760  1.00  0.00    -0.014 A 
ATOM     65  C   UNL A   1      44.274  33.584  30.948  1.00  0.00     0.009 A 
ATOM     66  C   UNL A   1      43.676  32.722  33.127  1.00  0.00     0.009 A 
ATOM     67  C   UNL A   1      44.437  34.857  31.498  1.00  0.00     0.001 A 
ATOM     68  C   UNL A   1      43.813  34.001  33.669  1.00  0.00     0.001 A 
ATOM     69  C   UNL A   1      44.202  35.065  32.857  1.00  0.00     0.000 A 
ENDBRANCH  50  64
BRANCH  51  70
ATOM     70  C   UNL A   1      42.365  23.600  27.524  1.00  0.00    -0.014 A 
ATOM     71  C   UNL A   1      41.887  22.510  28.268  1.00  0.00     0.009 A 
ATOM     72  C   UNL A   1      42.641  23.423  26.160  1.00  0.00     0.009 A 
ATOM     73  C   UNL A   1      41.714  21.263  27.665  1.00  0.00     0.001 A 
ATOM     74  C   UNL A   1      42.443  22.180  25.554  1.00  0.00     0.001 A 
ATOM     75  C   UNL A   1      41.988  21.100  26.308  1.00  0.00     0.000 A 
ENDBRANCH  51  70
BRANCH  63  76
ATOM     76  C   UNL A   1      47.806  26.521  30.723  1.00  0.00    -0.014 A 
ATOM     77  C   UNL A   1      48.873  26.739  29.840  1.00  0.00     0.009 A 
ATOM     78  C   UNL A   1      48.046  25.850  31.932  1.00  0.00     0.009 A 
ATOM     79  C   UNL A   1      50.149  26.266  30.147  1.00  0.00     0.001 A 
ATOM     80  C   UNL A   1      49.329  25.402  32.249  1.00  0.00     0.001 A 
ATOM     81  C   UNL A   1      50.377  25.602  31.353  1.00  0.00     0.000 A 
ENDBRANCH  63  76
ENDBRANCH  37  38
ENDBRANCH  29  32
ENDBRANCH  27  28
ENDBRANCH   1  27
TORSDOF 13
ENDMDL
