MODEL 1
REMARK VINA RESULT:     -11.3      0.000      0.000
REMARK SMILES N#C/C(=C\c1ccc(Oc2ccccc2Cl)c([N+](=O)[O-])c1)C(=O)NCCCNC(=O)c1ccc(-c2c3nc(c(-c4ccccc4)c4ccc([nH]4)c(-c4ccccc4)c4nc(c(-c5ccccc5)c5ccc2[nH]5)C=C4)C=C3)cc1
REMARK SMILES IDX 25 1 24 2 22 3 23 4 3 6 4 7 2 8 1 9 5 10 6 11 21 12 7 13
REMARK SMILES IDX 17 14 8 15 18 16 19 17 20 18 9 19 10 20 11 21 15 22 12 23
REMARK SMILES IDX 14 24 16 25 13 26 26 27 27 28 28 29 29 30 30 32 31 33 32 34
REMARK SMILES IDX 78 35 33 36 77 37 34 38 35 39 36 40 71 41 37 42 76 43 70 44
REMARK SMILES IDX 72 45 38 46 75 47 69 48 68 49 39 51 61 52 46 53 60 54 47 55
REMARK SMILES IDX 50 56 59 57 73 58 48 59 49 60 58 62 74 63 51 64 40 65 41 66
REMARK SMILES IDX 45 67 42 68 44 69 43 70 62 71 63 72 67 73 64 74 66 75 65 76
REMARK SMILES IDX 52 77 53 78 57 79 54 80 56 81 55 82
REMARK H PARENT 24 5 28 31 72 50 50 61
REMARK Flexibility Score: inf
ROOT
ATOM      1  C   UNL A   1      31.474  30.615  26.194  1.00  0.00     0.118 C 
ENDROOT
BRANCH   1   2
ATOM      2  N   UNL A   1      30.976  30.451  24.840  1.00  0.00    -0.351 N 
ATOM      3  C   UNL A   1      30.865  29.370  24.019  1.00  0.00     0.261 C 
ATOM      4  O   UNL A   1      30.304  29.548  22.938  1.00  0.00    -0.268 OA
ATOM      5  H   UNL A   1      30.655  31.288  24.434  1.00  0.00     0.163 HD
BRANCH   3   6
ATOM      6  C   UNL A   1      31.377  28.016  24.367  1.00  0.00     0.117 C 
ATOM      7  C   UNL A   1      32.672  27.666  24.567  1.00  0.00     0.033 C 
BRANCH   6   8
ATOM      8  C   UNL A   1      30.402  26.856  24.241  1.00  0.00     0.105 C 
ATOM      9  N   UNL A   1      29.593  25.895  24.136  1.00  0.00    -0.192 NA
ENDBRANCH   6   8
BRANCH   7  10
ATOM     10  C   UNL A   1      33.155  26.289  24.827  1.00  0.00    -0.017 A 
ATOM     11  C   UNL A   1      33.123  25.780  26.128  1.00  0.00     0.012 A 
ATOM     12  C   UNL A   1      33.601  25.451  23.798  1.00  0.00     0.098 A 
ATOM     13  C   UNL A   1      33.485  24.446  26.380  1.00  0.00     0.055 A 
ATOM     14  C   UNL A   1      33.875  24.094  24.050  1.00  0.00     0.312 A 
ATOM     15  C   UNL A   1      33.855  23.572  25.345  1.00  0.00     0.204 A 
BRANCH  14  16
ATOM     16  N   UNL A   1      34.039  23.278  22.866  1.00  0.00     0.066 N 
ATOM     17  O   UNL A   1      33.021  22.760  22.392  1.00  0.00    -0.258 OA
ATOM     18  O   UNL A   1      35.178  23.222  22.379  1.00  0.00    -0.258 OA
ENDBRANCH  14  16
BRANCH  15  19
ATOM     19  O   UNL A   1      34.127  22.300  25.802  1.00  0.00    -0.449 OA
BRANCH  19  20
ATOM     20  C   UNL A   1      35.325  21.693  25.522  1.00  0.00     0.146 A 
ATOM     21  C   UNL A   1      36.469  22.471  25.726  1.00  0.00     0.049 A 
ATOM     22  C   UNL A   1      35.442  20.399  25.003  1.00  0.00     0.083 A 
ATOM     23  C   UNL A   1      37.733  21.923  25.510  1.00  0.00     0.004 A 
ATOM     24  C   UNL A   1      36.711  19.850  24.801  1.00  0.00     0.024 A 
ATOM     25  Cl  UNL A   1      34.059  19.441  24.618  1.00  0.00    -0.080 Cl
ATOM     26  C   UNL A   1      37.854  20.608  25.066  1.00  0.00     0.002 A 
ENDBRANCH  19  20
ENDBRANCH  15  19
ENDBRANCH   7  10
ENDBRANCH   3   6
ENDBRANCH   1   2
BRANCH   1  27
ATOM     27  C   UNL A   1      31.343  32.059  26.688  1.00  0.00     0.042 C 
BRANCH  27  28
ATOM     28  C   UNL A   1      32.676  32.779  26.893  1.00  0.00     0.118 C 
BRANCH  28  29
ATOM     29  N   UNL A   1      32.514  34.023  27.626  1.00  0.00    -0.352 N 
ATOM     30  C   UNL A   1      33.170  34.512  28.724  1.00  0.00     0.251 C 
ATOM     31  H   UNL A   1      31.812  34.616  27.273  1.00  0.00     0.163 HD
ATOM     32  O   UNL A   1      32.706  35.500  29.291  1.00  0.00    -0.269 OA
BRANCH  30  33
ATOM     33  C   UNL A   1      34.411  33.891  29.246  1.00  0.00     0.039 A 
ATOM     34  C   UNL A   1      35.616  34.200  28.602  1.00  0.00     0.014 A 
ATOM     35  C   UNL A   1      34.403  32.943  30.274  1.00  0.00     0.014 A 
ATOM     36  C   UNL A   1      36.804  33.584  29.000  1.00  0.00     0.010 A 
ATOM     37  C   UNL A   1      35.602  32.369  30.709  1.00  0.00     0.010 A 
ATOM     38  C   UNL A   1      36.810  32.672  30.067  1.00  0.00    -0.014 A 
BRANCH  38  39
ATOM     39  C   UNL A   1      38.080  32.033  30.496  1.00  0.00     0.031 A 
ATOM     40  C   UNL A   1      38.916  32.643  31.588  1.00  0.00     0.074 A 
ATOM     41  C   UNL A   1      38.483  30.896  29.898  1.00  0.00     0.049 A 
ATOM     42  N   UNL A   1      40.038  32.208  32.107  1.00  0.00    -0.248 NA
ATOM     43  C   UNL A   1      38.443  33.912  32.161  1.00  0.00     0.031 C 
ATOM     44  C   UNL A   1      37.783  30.220  28.803  1.00  0.00     0.029 A 
ATOM     45  N   UNL A   1      39.578  30.103  30.131  1.00  0.00    -0.354 N 
ATOM     46  C   UNL A   1      40.404  33.149  33.062  1.00  0.00     0.074 A 
ATOM     47  C   UNL A   1      39.410  34.200  33.021  1.00  0.00     0.031 C 
ATOM     48  C   UNL A   1      38.451  29.102  28.479  1.00  0.00     0.029 A 
ATOM     49  C   UNL A   1      39.634  28.992  29.325  1.00  0.00     0.049 A 
ATOM     50  H   UNL A   1      40.260  30.311  30.811  1.00  0.00     0.167 HD
ATOM     51  C   UNL A   1      41.460  33.132  33.910  1.00  0.00     0.031 A 
ATOM     52  C   UNL A   1      40.535  27.994  29.277  1.00  0.00     0.031 A 
ATOM     53  C   UNL A   1      42.450  32.089  33.960  1.00  0.00     0.049 A 
ATOM     54  C   UNL A   1      41.688  27.992  30.238  1.00  0.00     0.074 A 
ATOM     55  C   UNL A   1      43.544  31.975  34.801  1.00  0.00     0.029 A 
ATOM     56  N   UNL A   1      42.460  30.975  33.137  1.00  0.00    -0.354 N 
ATOM     57  N   UNL A   1      41.990  28.867  31.166  1.00  0.00    -0.248 NA
ATOM     58  C   UNL A   1      42.614  26.853  30.157  1.00  0.00     0.031 C 
ATOM     59  C   UNL A   1      44.233  30.804  34.468  1.00  0.00     0.029 A 
ATOM     60  C   UNL A   1      43.545  30.170  33.446  1.00  0.00     0.049 A 
ATOM     61  H   UNL A   1      41.795  30.782  32.436  1.00  0.00     0.167 HD
ATOM     62  C   UNL A   1      43.129  28.376  31.790  1.00  0.00     0.074 A 
ATOM     63  C   UNL A   1      43.450  27.116  31.151  1.00  0.00     0.031 C 
ATOM     64  C   UNL A   1      43.849  28.923  32.799  1.00  0.00     0.031 A 
BRANCH  51  65
ATOM     65  C   UNL A   1      41.596  34.284  34.866  1.00  0.00    -0.014 A 
ATOM     66  C   UNL A   1      42.333  35.426  34.515  1.00  0.00     0.009 A 
ATOM     67  C   UNL A   1      40.947  34.248  36.109  1.00  0.00     0.009 A 
ATOM     68  C   UNL A   1      42.440  36.499  35.402  1.00  0.00     0.001 A 
ATOM     69  C   UNL A   1      41.037  35.332  36.986  1.00  0.00     0.001 A 
ATOM     70  C   UNL A   1      41.788  36.453  36.635  1.00  0.00     0.000 A 
ENDBRANCH  51  65
BRANCH  52  71
ATOM     71  C   UNL A   1      40.371  26.893  28.293  1.00  0.00    -0.014 A 
ATOM     72  C   UNL A   1      40.970  26.973  27.028  1.00  0.00     0.009 A 
ATOM     73  C   UNL A   1      39.600  25.765  28.612  1.00  0.00     0.009 A 
ATOM     74  C   UNL A   1      40.778  25.957  26.089  1.00  0.00     0.001 A 
ATOM     75  C   UNL A   1      39.431  24.739  27.682  1.00  0.00     0.001 A 
ATOM     76  C   UNL A   1      40.011  24.839  26.419  1.00  0.00     0.000 A 
ENDBRANCH  52  71
BRANCH  64  77
ATOM     77  C   UNL A   1      45.038  28.144  33.282  1.00  0.00    -0.014 A 
ATOM     78  C   UNL A   1      44.913  27.195  34.309  1.00  0.00     0.009 A 
ATOM     79  C   UNL A   1      46.295  28.354  32.695  1.00  0.00     0.009 A 
ATOM     80  C   UNL A   1      46.034  26.498  34.765  1.00  0.00     0.001 A 
ATOM     81  C   UNL A   1      47.409  27.639  33.136  1.00  0.00     0.001 A 
ATOM     82  C   UNL A   1      47.280  26.719  34.177  1.00  0.00     0.000 A 
ENDBRANCH  64  77
ENDBRANCH  38  39
ENDBRANCH  30  33
ENDBRANCH  28  29
ENDBRANCH  27  28
ENDBRANCH   1  27
TORSDOF 15
ENDMDL
MODEL 2
REMARK VINA RESULT:     -11.3      3.616      9.083
REMARK SMILES N#C/C(=C\c1ccc(Oc2ccccc2Cl)c([N+](=O)[O-])c1)C(=O)NCCCNC(=O)c1ccc(-c2c3nc(c(-c4ccccc4)c4ccc([nH]4)c(-c4ccccc4)c4nc(c(-c5ccccc5)c5ccc2[nH]5)C=C4)C=C3)cc1
REMARK SMILES IDX 25 1 24 2 22 3 23 4 3 6 4 7 2 8 1 9 5 10 6 11 21 12 7 13
REMARK SMILES IDX 17 14 8 15 18 16 19 17 20 18 9 19 10 20 11 21 15 22 12 23
REMARK SMILES IDX 14 24 16 25 13 26 26 27 27 28 28 29 29 30 30 32 31 33 32 34
REMARK SMILES IDX 78 35 33 36 77 37 34 38 35 39 36 40 71 41 37 42 76 43 70 44
REMARK SMILES IDX 72 45 38 46 75 47 69 48 68 49 39 51 61 52 46 53 60 54 47 55
REMARK SMILES IDX 50 56 59 57 73 58 48 59 49 60 58 62 74 63 51 64 40 65 41 66
REMARK SMILES IDX 45 67 42 68 44 69 43 70 62 71 63 72 67 73 64 74 66 75 65 76
REMARK SMILES IDX 52 77 53 78 57 79 54 80 56 81 55 82
REMARK H PARENT 24 5 28 31 72 50 50 61
REMARK Flexibility Score: inf
ROOT
ATOM      1  C   UNL A   1      36.339  20.132  24.764  1.00  0.00     0.118 C 
ENDROOT
BRANCH   1   2
ATOM      2  N   UNL A   1      35.123  19.382  25.020  1.00  0.00    -0.351 N 
ATOM      3  C   UNL A   1      33.804  19.720  24.996  1.00  0.00     0.261 C 
ATOM      4  O   UNL A   1      32.993  18.810  25.176  1.00  0.00    -0.268 OA
ATOM      5  H   UNL A   1      35.284  18.440  25.260  1.00  0.00     0.163 HD
BRANCH   3   6
ATOM      6  C   UNL A   1      33.313  21.106  24.762  1.00  0.00     0.117 C 
ATOM      7  C   UNL A   1      32.512  21.520  23.749  1.00  0.00     0.033 C 
BRANCH   6   8
ATOM      8  C   UNL A   1      33.964  22.215  25.572  1.00  0.00     0.105 C 
ATOM      9  N   UNL A   1      34.504  23.134  26.245  1.00  0.00    -0.192 NA
ENDBRANCH   6   8
BRANCH   7  10
ATOM     10  C   UNL A   1      32.113  22.926  23.496  1.00  0.00    -0.017 A 
ATOM     11  C   UNL A   1      31.251  23.570  24.386  1.00  0.00     0.012 A 
ATOM     12  C   UNL A   1      32.612  23.656  22.411  1.00  0.00     0.098 A 
ATOM     13  C   UNL A   1      30.937  24.929  24.218  1.00  0.00     0.055 A 
ATOM     14  C   UNL A   1      32.362  25.036  22.304  1.00  0.00     0.312 A 
ATOM     15  C   UNL A   1      31.497  25.694  23.182  1.00  0.00     0.204 A 
BRANCH  14  16
ATOM     16  N   UNL A   1      33.166  25.724  21.316  1.00  0.00     0.066 N 
ATOM     17  O   UNL A   1      33.925  26.612  21.724  1.00  0.00    -0.258 OA
ATOM     18  O   UNL A   1      33.083  25.319  20.147  1.00  0.00    -0.258 OA
ENDBRANCH  14  16
BRANCH  15  19
ATOM     19  O   UNL A   1      31.094  27.011  23.223  1.00  0.00    -0.449 OA
BRANCH  19  20
ATOM     20  C   UNL A   1      31.573  27.864  24.185  1.00  0.00     0.146 A 
ATOM     21  C   UNL A   1      32.630  27.380  24.962  1.00  0.00     0.049 A 
ATOM     22  C   UNL A   1      31.029  29.126  24.450  1.00  0.00     0.083 A 
ATOM     23  C   UNL A   1      33.210  28.194  25.936  1.00  0.00     0.004 A 
ATOM     24  C   UNL A   1      31.623  29.942  25.416  1.00  0.00     0.024 A 
ATOM     25  Cl  UNL A   1      29.649  29.722  23.604  1.00  0.00    -0.080 Cl
ATOM     26  C   UNL A   1      32.718  29.480  26.149  1.00  0.00     0.002 A 
ENDBRANCH  19  20
ENDBRANCH  15  19
ENDBRANCH   7  10
ENDBRANCH   3   6
ENDBRANCH   1   2
BRANCH   1  27
ATOM     27  C   UNL A   1      37.598  19.290  24.993  1.00  0.00     0.042 C 
BRANCH  27  28
ATOM     28  C   UNL A   1      38.776  20.065  25.583  1.00  0.00     0.118 C 
BRANCH  28  29
ATOM     29  N   UNL A   1      39.959  19.233  25.722  1.00  0.00    -0.352 N 
ATOM     30  C   UNL A   1      41.252  19.553  26.041  1.00  0.00     0.251 C 
ATOM     31  H   UNL A   1      39.805  18.274  25.559  1.00  0.00     0.163 HD
ATOM     32  O   UNL A   1      42.121  18.698  25.886  1.00  0.00    -0.269 OA
BRANCH  30  33
ATOM     33  C   UNL A   1      41.631  20.889  26.559  1.00  0.00     0.039 A 
ATOM     34  C   UNL A   1      41.441  21.137  27.925  1.00  0.00     0.014 A 
ATOM     35  C   UNL A   1      42.065  21.924  25.726  1.00  0.00     0.014 A 
ATOM     36  C   UNL A   1      41.705  22.402  28.453  1.00  0.00     0.010 A 
ATOM     37  C   UNL A   1      42.384  23.175  26.266  1.00  0.00     0.010 A 
ATOM     38  C   UNL A   1      42.193  23.429  27.631  1.00  0.00    -0.014 A 
BRANCH  38  39
ATOM     39  C   UNL A   1      42.489  24.767  28.202  1.00  0.00     0.031 A 
ATOM     40  C   UNL A   1      43.887  25.131  28.623  1.00  0.00     0.074 A 
ATOM     41  C   UNL A   1      41.492  25.661  28.345  1.00  0.00     0.049 A 
ATOM     42  N   UNL A   1      44.331  26.261  29.117  1.00  0.00    -0.248 NA
ATOM     43  C   UNL A   1      44.916  24.089  28.488  1.00  0.00     0.031 C 
ATOM     44  C   UNL A   1      40.086  25.423  28.008  1.00  0.00     0.029 A 
ATOM     45  N   UNL A   1      41.509  26.954  28.804  1.00  0.00    -0.354 N 
ATOM     46  C   UNL A   1      45.687  26.064  29.353  1.00  0.00     0.074 A 
ATOM     47  C   UNL A   1      45.983  24.694  28.991  1.00  0.00     0.031 C 
ATOM     48  C   UNL A   1      39.382  26.541  28.247  1.00  0.00     0.029 A 
ATOM     49  C   UNL A   1      40.279  27.565  28.771  1.00  0.00     0.049 A 
ATOM     50  H   UNL A   1      42.325  27.401  29.126  1.00  0.00     0.167 HD
ATOM     51  C   UNL A   1      46.606  26.947  29.812  1.00  0.00     0.031 A 
ATOM     52  C   UNL A   1      39.915  28.813  29.120  1.00  0.00     0.031 A 
ATOM     53  C   UNL A   1      46.320  28.310  30.170  1.00  0.00     0.049 A 
ATOM     54  C   UNL A   1      40.957  29.776  29.611  1.00  0.00     0.074 A 
ATOM     55  C   UNL A   1      47.191  29.286  30.624  1.00  0.00     0.029 A 
ATOM     56  N   UNL A   1      45.065  28.893  30.107  1.00  0.00    -0.354 N 
ATOM     57  N   UNL A   1      42.242  29.585  29.782  1.00  0.00    -0.248 NA
ATOM     58  C   UNL A   1      40.499  31.133  29.939  1.00  0.00     0.031 C 
ATOM     59  C   UNL A   1      46.457  30.453  30.863  1.00  0.00     0.029 A 
ATOM     60  C   UNL A   1      45.136  30.214  30.520  1.00  0.00     0.049 A 
ATOM     61  H   UNL A   1      44.243  28.437  29.813  1.00  0.00     0.167 HD
ATOM     62  C   UNL A   1      42.749  30.800  30.221  1.00  0.00     0.074 A 
ATOM     63  C   UNL A   1      41.638  31.728  30.266  1.00  0.00     0.031 C 
ATOM     64  C   UNL A   1      44.021  31.120  30.561  1.00  0.00     0.031 A 
BRANCH  51  65
ATOM     65  C   UNL A   1      48.022  26.461  29.947  1.00  0.00    -0.014 A 
ATOM     66  C   UNL A   1      48.470  25.877  31.142  1.00  0.00     0.009 A 
ATOM     67  C   UNL A   1      48.903  26.547  28.859  1.00  0.00     0.009 A 
ATOM     68  C   UNL A   1      49.783  25.412  31.253  1.00  0.00     0.001 A 
ATOM     69  C   UNL A   1      50.208  26.061  28.965  1.00  0.00     0.001 A 
ATOM     70  C   UNL A   1      50.649  25.500  30.164  1.00  0.00     0.000 A 
ENDBRANCH  51  65
BRANCH  52  71
ATOM     71  C   UNL A   1      38.497  29.235  28.995  1.00  0.00    -0.014 A 
ATOM     72  C   UNL A   1      38.001  29.713  27.773  1.00  0.00     0.009 A 
ATOM     73  C   UNL A   1      37.638  29.176  30.103  1.00  0.00     0.009 A 
ATOM     74  C   UNL A   1      36.679  30.151  27.670  1.00  0.00     0.001 A 
ATOM     75  C   UNL A   1      36.310  29.590  29.990  1.00  0.00     0.001 A 
ATOM     76  C   UNL A   1      35.834  30.086  28.777  1.00  0.00     0.000 A 
ENDBRANCH  52  71
BRANCH  64  77
ATOM     77  C   UNL A   1      44.273  32.536  30.988  1.00  0.00    -0.014 A 
ATOM     78  C   UNL A   1      44.183  32.912  32.338  1.00  0.00     0.009 A 
ATOM     79  C   UNL A   1      44.616  33.503  30.031  1.00  0.00     0.009 A 
ATOM     80  C   UNL A   1      44.396  34.240  32.715  1.00  0.00     0.001 A 
ATOM     81  C   UNL A   1      44.850  34.824  30.414  1.00  0.00     0.001 A 
ATOM     82  C   UNL A   1      44.731  35.194  31.754  1.00  0.00     0.000 A 
ENDBRANCH  64  77
ENDBRANCH  38  39
ENDBRANCH  30  33
ENDBRANCH  28  29
ENDBRANCH  27  28
ENDBRANCH   1  27
TORSDOF 15
ENDMDL
MODEL 3
REMARK VINA RESULT:     -11.3      3.800      9.063
REMARK SMILES N#C/C(=C\c1ccc(Oc2ccccc2Cl)c([N+](=O)[O-])c1)C(=O)NCCCNC(=O)c1ccc(-c2c3nc(c(-c4ccccc4)c4ccc([nH]4)c(-c4ccccc4)c4nc(c(-c5ccccc5)c5ccc2[nH]5)C=C4)C=C3)cc1
REMARK SMILES IDX 25 1 24 2 22 3 23 4 3 6 4 7 2 8 1 9 5 10 6 11 21 12 7 13
REMARK SMILES IDX 17 14 8 15 18 16 19 17 20 18 9 19 10 20 11 21 15 22 12 23
REMARK SMILES IDX 14 24 16 25 13 26 26 27 27 28 28 29 29 30 30 32 31 33 32 34
REMARK SMILES IDX 78 35 33 36 77 37 34 38 35 39 36 40 71 41 37 42 76 43 70 44
REMARK SMILES IDX 72 45 38 46 75 47 69 48 68 49 39 51 61 52 46 53 60 54 47 55
REMARK SMILES IDX 50 56 59 57 73 58 48 59 49 60 58 62 74 63 51 64 40 65 41 66
REMARK SMILES IDX 45 67 42 68 44 69 43 70 62 71 63 72 67 73 64 74 66 75 65 76
REMARK SMILES IDX 52 77 53 78 57 79 54 80 56 81 55 82
REMARK H PARENT 24 5 28 31 72 50 50 61
REMARK Flexibility Score: inf
ROOT
ATOM      1  C   UNL A   1      36.480  20.395  24.815  1.00  0.00     0.118 C 
ENDROOT
BRANCH   1   2
ATOM      2  N   UNL A   1      35.326  19.534  25.002  1.00  0.00    -0.351 N 
ATOM      3  C   UNL A   1      33.986  19.745  24.887  1.00  0.00     0.261 C 
ATOM      4  O   UNL A   1      33.255  18.764  25.026  1.00  0.00    -0.268 OA
ATOM      5  H   UNL A   1      35.560  18.615  25.264  1.00  0.00     0.163 HD
BRANCH   3   6
ATOM      6  C   UNL A   1      33.383  21.076  24.602  1.00  0.00     0.117 C 
ATOM      7  C   UNL A   1      32.594  21.398  23.547  1.00  0.00     0.033 C 
BRANCH   6   8
ATOM      8  C   UNL A   1      33.893  22.253  25.417  1.00  0.00     0.105 C 
ATOM      9  N   UNL A   1      34.316  23.230  26.093  1.00  0.00    -0.192 NA
ENDBRANCH   6   8
BRANCH   7  10
ATOM     10  C   UNL A   1      32.081  22.757  23.246  1.00  0.00    -0.017 A 
ATOM     11  C   UNL A   1      31.045  23.290  24.017  1.00  0.00     0.012 A 
ATOM     12  C   UNL A   1      32.636  23.554  22.239  1.00  0.00     0.098 A 
ATOM     13  C   UNL A   1      30.611  24.609  23.813  1.00  0.00     0.055 A 
ATOM     14  C   UNL A   1      32.253  24.901  22.104  1.00  0.00     0.312 A 
ATOM     15  C   UNL A   1      31.215  25.447  22.861  1.00  0.00     0.204 A 
BRANCH  14  16
ATOM     16  N   UNL A   1      33.100  25.688  21.231  1.00  0.00     0.066 N 
ATOM     17  O   UNL A   1      32.912  25.579  20.014  1.00  0.00    -0.258 OA
ATOM     18  O   UNL A   1      33.898  26.463  21.778  1.00  0.00    -0.258 OA
ENDBRANCH  14  16
BRANCH  15  19
ATOM     19  O   UNL A   1      30.669  26.713  22.852  1.00  0.00    -0.449 OA
BRANCH  19  20
ATOM     20  C   UNL A   1      31.066  27.658  23.764  1.00  0.00     0.146 A 
ATOM     21  C   UNL A   1      32.030  27.248  24.691  1.00  0.00     0.049 A 
ATOM     22  C   UNL A   1      30.525  28.945  23.841  1.00  0.00     0.083 A 
ATOM     23  C   UNL A   1      32.526  28.153  25.629  1.00  0.00     0.004 A 
ATOM     24  C   UNL A   1      31.035  29.853  24.772  1.00  0.00     0.024 A 
ATOM     25  Cl  UNL A   1      29.249  29.463  22.801  1.00  0.00    -0.080 Cl
ATOM     26  C   UNL A   1      32.043  29.460  25.657  1.00  0.00     0.002 A 
ENDBRANCH  19  20
ENDBRANCH  15  19
ENDBRANCH   7  10
ENDBRANCH   3   6
ENDBRANCH   1   2
BRANCH   1  27
ATOM     27  C   UNL A   1      37.796  19.611  24.831  1.00  0.00     0.042 C 
BRANCH  27  28
ATOM     28  C   UNL A   1      38.868  20.197  25.751  1.00  0.00     0.118 C 
BRANCH  28  29
ATOM     29  N   UNL A   1      40.029  19.330  25.854  1.00  0.00    -0.352 N 
ATOM     30  C   UNL A   1      41.349  19.616  26.081  1.00  0.00     0.251 C 
ATOM     31  H   UNL A   1      39.833  18.372  25.740  1.00  0.00     0.163 HD
ATOM     32  O   UNL A   1      42.178  18.725  25.911  1.00  0.00    -0.269 OA
BRANCH  30  33
ATOM     33  C   UNL A   1      41.802  20.957  26.521  1.00  0.00     0.039 A 
ATOM     34  C   UNL A   1      41.705  21.265  27.884  1.00  0.00     0.014 A 
ATOM     35  C   UNL A   1      42.218  21.943  25.621  1.00  0.00     0.014 A 
ATOM     36  C   UNL A   1      42.043  22.539  28.343  1.00  0.00     0.010 A 
ATOM     37  C   UNL A   1      42.611  23.201  26.089  1.00  0.00     0.010 A 
ATOM     38  C   UNL A   1      42.512  23.516  27.451  1.00  0.00    -0.014 A 
BRANCH  38  39
ATOM     39  C   UNL A   1      42.887  24.864  27.948  1.00  0.00     0.031 A 
ATOM     40  C   UNL A   1      41.837  25.918  28.176  1.00  0.00     0.074 A 
ATOM     41  C   UNL A   1      44.181  25.143  28.195  1.00  0.00     0.049 A 
ATOM     42  N   UNL A   1      41.980  27.139  28.629  1.00  0.00    -0.248 NA
ATOM     43  C   UNL A   1      40.450  25.562  27.836  1.00  0.00     0.031 C 
ATOM     44  C   UNL A   1      45.301  24.222  27.983  1.00  0.00     0.029 A 
ATOM     45  N   UNL A   1      44.773  26.279  28.685  1.00  0.00    -0.354 N 
ATOM     46  C   UNL A   1      40.706  27.696  28.627  1.00  0.00     0.074 A 
ATOM     47  C   UNL A   1      39.811  26.696  28.085  1.00  0.00     0.031 C 
ATOM     48  C   UNL A   1      46.440  24.821  28.366  1.00  0.00     0.029 A 
ATOM     49  C   UNL A   1      46.135  26.171  28.829  1.00  0.00     0.049 A 
ATOM     50  H   UNL A   1      44.270  27.095  28.910  1.00  0.00     0.167 HD
ATOM     51  C   UNL A   1      40.314  28.920  29.053  1.00  0.00     0.031 A 
ATOM     52  C   UNL A   1      47.037  27.058  29.288  1.00  0.00     0.031 A 
ATOM     53  C   UNL A   1      41.197  29.917  29.596  1.00  0.00     0.049 A 
ATOM     54  C   UNL A   1      46.573  28.402  29.768  1.00  0.00     0.074 A 
ATOM     55  C   UNL A   1      40.887  31.179  30.074  1.00  0.00     0.029 A 
ATOM     56  N   UNL A   1      42.567  29.761  29.739  1.00  0.00    -0.354 N 
ATOM     57  N   UNL A   1      45.357  28.892  29.801  1.00  0.00    -0.248 NA
ATOM     58  C   UNL A   1      47.604  29.309  30.292  1.00  0.00     0.031 C 
ATOM     59  C   UNL A   1      42.074  31.797  30.481  1.00  0.00     0.029 A 
ATOM     60  C   UNL A   1      43.117  30.905  30.293  1.00  0.00     0.049 A 
ATOM     61  H   UNL A   1      43.074  28.956  29.485  1.00  0.00     0.167 HD
ATOM     62  C   UNL A   1      45.476  30.155  30.364  1.00  0.00     0.074 A 
ATOM     63  C   UNL A   1      46.877  30.346  30.679  1.00  0.00     0.031 C 
ATOM     64  C   UNL A   1      44.512  31.078  30.596  1.00  0.00     0.031 A 
BRANCH  51  65
ATOM     65  C   UNL A   1      38.850  29.249  28.954  1.00  0.00    -0.014 A 
ATOM     66  C   UNL A   1      38.295  29.698  27.745  1.00  0.00     0.009 A 
ATOM     67  C   UNL A   1      38.011  29.068  30.063  1.00  0.00     0.009 A 
ATOM     68  C   UNL A   1      36.931  29.984  27.657  1.00  0.00     0.001 A 
ATOM     69  C   UNL A   1      36.643  29.334  29.966  1.00  0.00     0.001 A 
ATOM     70  C   UNL A   1      36.105  29.797  28.765  1.00  0.00     0.000 A 
ENDBRANCH  51  65
BRANCH  52  71
ATOM     71  C   UNL A   1      48.476  26.694  29.339  1.00  0.00    -0.014 A 
ATOM     72  C   UNL A   1      49.330  27.013  28.272  1.00  0.00     0.009 A 
ATOM     73  C   UNL A   1      48.997  26.011  30.448  1.00  0.00     0.009 A 
ATOM     74  C   UNL A   1      50.672  26.630  28.303  1.00  0.00     0.001 A 
ATOM     75  C   UNL A   1      50.346  25.654  30.488  1.00  0.00     0.001 A 
ATOM     76  C   UNL A   1      51.179  25.954  29.412  1.00  0.00     0.000 A 
ENDBRANCH  52  71
BRANCH  64  77
ATOM     77  C   UNL A   1      44.943  32.363  31.240  1.00  0.00    -0.014 A 
ATOM     78  C   UNL A   1      45.341  33.464  30.463  1.00  0.00     0.009 A 
ATOM     79  C   UNL A   1      44.941  32.479  32.638  1.00  0.00     0.009 A 
ATOM     80  C   UNL A   1      45.764  34.643  31.079  1.00  0.00     0.001 A 
ATOM     81  C   UNL A   1      45.342  33.667  33.249  1.00  0.00     0.001 A 
ATOM     82  C   UNL A   1      45.763  34.745  32.470  1.00  0.00     0.000 A 
ENDBRANCH  64  77
ENDBRANCH  38  39
ENDBRANCH  30  33
ENDBRANCH  28  29
ENDBRANCH  27  28
ENDBRANCH   1  27
TORSDOF 15
ENDMDL
