MODEL 1
REMARK VINA RESULT:     -12.2      0.000      0.000
REMARK SMILES COC(=O)c1ccc(NC(=O)[C@@H]2CC=CC[C@@H]2C(=O)NCCCNC(=O)c2ccc(-c3c4nc(c(-c5ccccc5)c5ccc([nH]5)c(-c5ccccc5)c5nc(c(-c6ccccc6)c6ccc3[nH]6)C=C5)C=C4)cc2)c(C)c1
REMARK SMILES IDX 21 1 20 2 18 3 19 4 17 6 12 7 13 8 14 9 16 10 15 11 10 12
REMARK SMILES IDX 9 13 11 15 8 16 5 17 6 18 77 19 7 20 75 21 76 22 3 23 4 24
REMARK SMILES IDX 2 25 1 26 22 27 23 28 24 29 25 30 26 32 27 33 28 34 74 35
REMARK SMILES IDX 29 36 73 37 30 38 31 39 32 40 67 41 33 42 72 43 66 44 68 45
REMARK SMILES IDX 34 46 71 47 65 48 64 49 35 51 57 52 42 53 56 54 43 55 46 56
REMARK SMILES IDX 55 57 69 58 44 59 45 60 54 62 70 63 47 64 36 65 37 66 41 67
REMARK SMILES IDX 38 68 40 69 39 70 58 71 59 72 63 73 60 74 62 75 61 76 48 77
REMARK SMILES IDX 49 78 53 79 50 80 52 81 51 82
REMARK H PARENT 20 5 9 14 24 31 68 50 46 61
REMARK Flexibility Score: inf
ROOT
ATOM      1  C   UNL A   1      37.639  22.688  25.556  1.00  0.00     0.117 C 
ENDROOT
BRANCH   1   2
ATOM      2  N   UNL A   1      36.375  22.623  26.265  1.00  0.00    -0.356 N 
ATOM      3  C   UNL A   1      35.252  21.879  26.048  1.00  0.00     0.224 C 
ATOM      4  O   UNL A   1      34.407  21.875  26.945  1.00  0.00    -0.275 OA
ATOM      5  H   UNL A   1      36.318  23.222  27.045  1.00  0.00     0.163 HD
BRANCH   3   6
ATOM      6  C   UNL A   1      35.051  21.104  24.740  1.00  0.00     0.095 C 
ATOM      7  C   UNL A   1      34.380  21.959  23.647  1.00  0.00     0.095 C 
ATOM      8  C   UNL A   1      32.945  22.361  24.017  1.00  0.00     0.041 C 
ATOM      9  C   UNL A   1      32.143  21.171  24.453  1.00  0.00    -0.030 C 
ATOM     10  C   UNL A   1      34.199  19.837  24.996  1.00  0.00     0.041 C 
ATOM     11  C   UNL A   1      32.710  20.030  24.873  1.00  0.00    -0.030 C 
BRANCH   7  12
ATOM     12  C   UNL A   1      35.198  23.181  23.314  1.00  0.00     0.228 C 
ATOM     13  N   UNL A   1      34.810  24.460  23.549  1.00  0.00    -0.326 N 
ATOM     14  H   UNL A   1      35.311  25.089  22.981  1.00  0.00     0.169 HD
ATOM     15  O   UNL A   1      36.281  23.062  22.724  1.00  0.00    -0.274 OA
BRANCH  13  16
ATOM     16  C   UNL A   1      33.895  25.145  24.371  1.00  0.00     0.044 A 
ATOM     17  C   UNL A   1      32.361  27.026  25.816  1.00  0.00     0.060 A 
ATOM     18  C   UNL A   1      33.171  26.118  26.488  1.00  0.00     0.018 A 
ATOM     19  C   UNL A   1      32.221  26.916  24.431  1.00  0.00     0.021 A 
ATOM     20  C   UNL A   1      33.932  25.186  25.768  1.00  0.00     0.027 A 
ATOM     21  C   UNL A   1      32.949  25.961  23.705  1.00  0.00    -0.027 A 
ATOM     22  C   UNL A   1      32.687  25.879  22.221  1.00  0.00     0.046 C 
BRANCH  17  23
ATOM     23  C   UNL A   1      31.606  28.040  26.599  1.00  0.00     0.337 C 
ATOM     24  O   UNL A   1      31.099  27.846  27.683  1.00  0.00    -0.246 OA
BRANCH  23  25
ATOM     25  O   UNL A   1      31.506  29.174  25.863  1.00  0.00    -0.465 OA
ATOM     26  C   UNL A   1      32.288  30.245  26.381  1.00  0.00     0.282 C 
ENDBRANCH  23  25
ENDBRANCH  17  23
ENDBRANCH  13  16
ENDBRANCH   7  12
ENDBRANCH   3   6
ENDBRANCH   1   2
BRANCH   1  27
ATOM     27  C   UNL A   1      38.556  21.486  25.766  1.00  0.00     0.042 C 
BRANCH  27  28
ATOM     28  C   UNL A   1      39.976  21.834  26.207  1.00  0.00     0.118 C 
BRANCH  28  29
ATOM     29  N   UNL A   1      40.937  20.843  25.705  1.00  0.00    -0.352 N 
ATOM     30  C   UNL A   1      42.291  20.708  25.933  1.00  0.00     0.251 C 
ATOM     31  H   UNL A   1      40.552  20.162  25.107  1.00  0.00     0.163 HD
ATOM     32  O   UNL A   1      42.889  19.710  25.546  1.00  0.00    -0.269 OA
BRANCH  30  33
ATOM     33  C   UNL A   1      42.971  21.706  26.775  1.00  0.00     0.039 A 
ATOM     34  C   UNL A   1      42.775  21.618  28.156  1.00  0.00     0.014 A 
ATOM     35  C   UNL A   1      43.537  22.836  26.193  1.00  0.00     0.014 A 
ATOM     36  C   UNL A   1      42.886  22.771  28.920  1.00  0.00     0.010 A 
ATOM     37  C   UNL A   1      43.578  23.999  26.938  1.00  0.00     0.010 A 
ATOM     38  C   UNL A   1      43.167  23.976  28.275  1.00  0.00    -0.014 A 
BRANCH  38  39
ATOM     39  C   UNL A   1      42.878  25.261  28.896  1.00  0.00     0.031 A 
ATOM     40  C   UNL A   1      41.692  26.034  28.500  1.00  0.00     0.074 A 
ATOM     41  C   UNL A   1      43.729  25.771  29.814  1.00  0.00     0.049 A 
ATOM     42  N   UNL A   1      41.641  27.324  28.506  1.00  0.00    -0.248 NA
ATOM     43  C   UNL A   1      40.477  25.401  28.001  1.00  0.00     0.031 C 
ATOM     44  C   UNL A   1      43.517  26.926  30.680  1.00  0.00     0.029 A 
ATOM     45  N   UNL A   1      45.077  25.458  29.976  1.00  0.00    -0.354 N 
ATOM     46  C   UNL A   1      40.331  27.675  28.301  1.00  0.00     0.074 A 
ATOM     47  C   UNL A   1      39.663  26.456  27.902  1.00  0.00     0.031 C 
ATOM     48  C   UNL A   1      44.710  27.377  31.101  1.00  0.00     0.029 A 
ATOM     49  C   UNL A   1      45.736  26.622  30.402  1.00  0.00     0.049 A 
ATOM     50  H   UNL A   1      45.492  24.580  29.819  1.00  0.00     0.167 HD
ATOM     51  C   UNL A   1      39.900  28.922  28.635  1.00  0.00     0.031 A 
ATOM     52  C   UNL A   1      46.749  27.173  29.673  1.00  0.00     0.031 A 
ATOM     53  C   UNL A   1      40.969  29.760  29.164  1.00  0.00     0.049 A 
ATOM     54  C   UNL A   1      46.477  28.588  29.215  1.00  0.00     0.074 A 
ATOM     55  C   UNL A   1      41.351  30.088  30.456  1.00  0.00     0.029 A 
ATOM     56  N   UNL A   1      42.013  30.146  28.334  1.00  0.00    -0.354 N 
ATOM     57  N   UNL A   1      45.292  29.130  29.179  1.00  0.00    -0.248 NA
ATOM     58  C   UNL A   1      47.512  29.481  28.702  1.00  0.00     0.031 C 
ATOM     59  C   UNL A   1      42.655  30.641  30.401  1.00  0.00     0.029 A 
ATOM     60  C   UNL A   1      43.054  30.668  29.078  1.00  0.00     0.049 A 
ATOM     61  H   UNL A   1      42.011  30.061  27.354  1.00  0.00     0.167 HD
ATOM     62  C   UNL A   1      45.376  30.384  28.632  1.00  0.00     0.074 A 
ATOM     63  C   UNL A   1      46.792  30.568  28.372  1.00  0.00     0.031 C 
ATOM     64  C   UNL A   1      44.263  31.147  28.420  1.00  0.00     0.031 A 
BRANCH  51  65
ATOM     65  C   UNL A   1      38.435  29.237  28.777  1.00  0.00    -0.014 A 
ATOM     66  C   UNL A   1      37.720  29.746  27.679  1.00  0.00     0.009 A 
ATOM     67  C   UNL A   1      37.725  29.112  29.983  1.00  0.00     0.009 A 
ATOM     68  C   UNL A   1      36.406  30.210  27.804  1.00  0.00     0.001 A 
ATOM     69  C   UNL A   1      36.424  29.614  30.127  1.00  0.00     0.001 A 
ATOM     70  C   UNL A   1      35.770  30.176  29.038  1.00  0.00     0.000 A 
ENDBRANCH  51  65
BRANCH  52  71
ATOM     71  C   UNL A   1      47.535  26.185  28.883  1.00  0.00    -0.014 A 
ATOM     72  C   UNL A   1      47.264  26.047  27.508  1.00  0.00     0.009 A 
ATOM     73  C   UNL A   1      48.731  25.654  29.388  1.00  0.00     0.009 A 
ATOM     74  C   UNL A   1      48.213  25.493  26.644  1.00  0.00     0.001 A 
ATOM     75  C   UNL A   1      49.673  25.090  28.520  1.00  0.00     0.001 A 
ATOM     76  C   UNL A   1      49.429  25.040  27.148  1.00  0.00     0.000 A 
ENDBRANCH  52  71
BRANCH  64  77
ATOM     77  C   UNL A   1      44.181  32.437  27.635  1.00  0.00    -0.014 A 
ATOM     78  C   UNL A   1      44.033  33.709  28.199  1.00  0.00     0.009 A 
ATOM     79  C   UNL A   1      44.389  32.392  26.236  1.00  0.00     0.009 A 
ATOM     80  C   UNL A   1      44.054  34.868  27.408  1.00  0.00     0.001 A 
ATOM     81  C   UNL A   1      44.458  33.546  25.450  1.00  0.00     0.001 A 
ATOM     82  C   UNL A   1      44.278  34.788  26.037  1.00  0.00     0.000 A 
ENDBRANCH  64  77
ENDBRANCH  38  39
ENDBRANCH  30  33
ENDBRANCH  28  29
ENDBRANCH  27  28
ENDBRANCH   1  27
TORSDOF 14
ENDMDL
MODEL 2
REMARK VINA RESULT:     -12.2      3.823      9.222
REMARK SMILES COC(=O)c1ccc(NC(=O)[C@@H]2CC=CC[C@@H]2C(=O)NCCCNC(=O)c2ccc(-c3c4nc(c(-c5ccccc5)c5ccc([nH]5)c(-c5ccccc5)c5nc(c(-c6ccccc6)c6ccc3[nH]6)C=C5)C=C4)cc2)c(C)c1
REMARK SMILES IDX 21 1 20 2 18 3 19 4 17 6 12 7 13 8 14 9 16 10 15 11 10 12
REMARK SMILES IDX 9 13 11 15 8 16 5 17 6 18 77 19 7 20 75 21 76 22 3 23 4 24
REMARK SMILES IDX 2 25 1 26 22 27 23 28 24 29 25 30 26 32 27 33 28 34 74 35
REMARK SMILES IDX 29 36 73 37 30 38 31 39 32 40 67 41 33 42 72 43 66 44 68 45
REMARK SMILES IDX 34 46 71 47 65 48 64 49 35 51 57 52 42 53 56 54 43 55 46 56
REMARK SMILES IDX 55 57 69 58 44 59 45 60 54 62 70 63 47 64 36 65 37 66 41 67
REMARK SMILES IDX 38 68 40 69 39 70 58 71 59 72 63 73 60 74 62 75 61 76 48 77
REMARK SMILES IDX 49 78 53 79 50 80 52 81 51 82
REMARK H PARENT 20 5 9 14 24 31 68 50 46 61
REMARK Flexibility Score: inf
ROOT
ATOM      1  C   UNL A   1      33.203  30.115  26.696  1.00  0.00     0.117 C 
ENDROOT
BRANCH   1   2
ATOM      2  N   UNL A   1      33.594  29.731  25.352  1.00  0.00    -0.356 N 
ATOM      3  C   UNL A   1      32.955  28.992  24.399  1.00  0.00     0.224 C 
ATOM      4  O   UNL A   1      33.440  29.010  23.267  1.00  0.00    -0.275 OA
ATOM      5  H   UNL A   1      34.479  30.064  25.079  1.00  0.00     0.163 HD
BRANCH   3   6
ATOM      6  C   UNL A   1      31.706  28.169  24.735  1.00  0.00     0.095 C 
ATOM      7  C   UNL A   1      31.938  26.654  24.567  1.00  0.00     0.095 C 
ATOM      8  C   UNL A   1      32.210  26.262  23.108  1.00  0.00     0.041 C 
ATOM      9  C   UNL A   1      31.174  26.836  22.188  1.00  0.00    -0.030 C 
ATOM     10  C   UNL A   1      30.521  28.610  23.842  1.00  0.00     0.041 C 
ATOM     11  C   UNL A   1      30.402  27.879  22.529  1.00  0.00    -0.030 C 
BRANCH   7  12
ATOM     12  C   UNL A   1      33.046  26.157  25.460  1.00  0.00     0.228 C 
ATOM     13  N   UNL A   1      33.301  24.850  25.722  1.00  0.00    -0.326 N 
ATOM     14  H   UNL A   1      33.825  24.754  26.550  1.00  0.00     0.169 HD
ATOM     15  O   UNL A   1      33.762  26.963  26.070  1.00  0.00    -0.274 OA
BRANCH  13  16
ATOM     16  C   UNL A   1      33.030  23.593  25.150  1.00  0.00     0.044 A 
ATOM     17  C   UNL A   1      32.625  20.857  24.573  1.00  0.00     0.060 A 
ATOM     18  C   UNL A   1      33.657  21.558  23.961  1.00  0.00     0.018 A 
ATOM     19  C   UNL A   1      31.720  21.550  25.379  1.00  0.00     0.021 A 
ATOM     20  C   UNL A   1      33.857  22.914  24.250  1.00  0.00     0.027 A 
ATOM     21  C   UNL A   1      31.887  22.917  25.644  1.00  0.00    -0.027 A 
ATOM     22  C   UNL A   1      30.825  23.592  26.478  1.00  0.00     0.046 C 
BRANCH  17  23
ATOM     23  C   UNL A   1      32.468  19.405  24.293  1.00  0.00     0.337 C 
ATOM     24  O   UNL A   1      32.538  18.898  23.194  1.00  0.00    -0.246 OA
BRANCH  23  25
ATOM     25  O   UNL A   1      32.150  18.769  25.446  1.00  0.00    -0.465 OA
ATOM     26  C   UNL A   1      32.648  17.437  25.504  1.00  0.00     0.282 C 
ENDBRANCH  23  25
ENDBRANCH  17  23
ENDBRANCH  13  16
ENDBRANCH   7  12
ENDBRANCH   3   6
ENDBRANCH   1   2
BRANCH   1  27
ATOM     27  C   UNL A   1      34.360  30.292  27.676  1.00  0.00     0.042 C 
BRANCH  27  28
ATOM     28  C   UNL A   1      34.953  31.698  27.717  1.00  0.00     0.118 C 
BRANCH  28  29
ATOM     29  N   UNL A   1      34.019  32.642  28.344  1.00  0.00    -0.352 N 
ATOM     30  C   UNL A   1      34.186  33.492  29.418  1.00  0.00     0.251 C 
ATOM     31  H   UNL A   1      33.126  32.673  27.931  1.00  0.00     0.163 HD
ATOM     32  O   UNL A   1      33.328  34.325  29.690  1.00  0.00    -0.269 OA
BRANCH  30  33
ATOM     33  C   UNL A   1      35.471  33.484  30.136  1.00  0.00     0.039 A 
ATOM     34  C   UNL A   1      36.527  34.199  29.566  1.00  0.00     0.014 A 
ATOM     35  C   UNL A   1      35.684  32.575  31.168  1.00  0.00     0.014 A 
ATOM     36  C   UNL A   1      37.828  33.798  29.837  1.00  0.00     0.010 A 
ATOM     37  C   UNL A   1      36.973  32.127  31.384  1.00  0.00     0.010 A 
ATOM     38  C   UNL A   1      38.028  32.682  30.651  1.00  0.00    -0.014 A 
BRANCH  38  39
ATOM     39  C   UNL A   1      39.281  31.942  30.639  1.00  0.00     0.031 A 
ATOM     40  C   UNL A   1      39.389  30.664  29.920  1.00  0.00     0.074 A 
ATOM     41  C   UNL A   1      40.345  32.409  31.329  1.00  0.00     0.049 A 
ATOM     42  N   UNL A   1      40.157  29.695  30.291  1.00  0.00    -0.248 NA
ATOM     43  C   UNL A   1      38.580  30.356  28.748  1.00  0.00     0.031 C 
ATOM     44  C   UNL A   1      41.722  31.927  31.278  1.00  0.00     0.029 A 
ATOM     45  N   UNL A   1      40.326  33.293  32.406  1.00  0.00    -0.354 N 
ATOM     46  C   UNL A   1      40.165  28.776  29.272  1.00  0.00     0.074 A 
ATOM     47  C   UNL A   1      39.104  29.183  28.378  1.00  0.00     0.031 C 
ATOM     48  C   UNL A   1      42.359  32.319  32.393  1.00  0.00     0.029 A 
ATOM     49  C   UNL A   1      41.376  32.937  33.267  1.00  0.00     0.049 A 
ATOM     50  H   UNL A   1      39.691  34.032  32.540  1.00  0.00     0.167 HD
ATOM     51  C   UNL A   1      41.162  27.853  29.196  1.00  0.00     0.031 A 
ATOM     52  C   UNL A   1      41.144  32.572  34.560  1.00  0.00     0.031 A 
ATOM     53  C   UNL A   1      42.113  27.965  30.295  1.00  0.00     0.049 A 
ATOM     54  C   UNL A   1      41.606  31.172  34.896  1.00  0.00     0.074 A 
ATOM     55  C   UNL A   1      43.357  28.567  30.400  1.00  0.00     0.029 A 
ATOM     56  N   UNL A   1      41.701  27.680  31.590  1.00  0.00    -0.354 N 
ATOM     57  N   UNL A   1      41.867  30.255  34.007  1.00  0.00    -0.248 NA
ATOM     58  C   UNL A   1      41.751  30.678  36.263  1.00  0.00     0.031 C 
ATOM     59  C   UNL A   1      43.676  28.678  31.777  1.00  0.00     0.029 A 
ATOM     60  C   UNL A   1      42.637  28.126  32.504  1.00  0.00     0.049 A 
ATOM     61  H   UNL A   1      40.862  27.224  31.825  1.00  0.00     0.167 HD
ATOM     62  C   UNL A   1      42.172  29.076  34.637  1.00  0.00     0.074 A 
ATOM     63  C   UNL A   1      42.110  29.399  36.051  1.00  0.00     0.031 C 
ATOM     64  C   UNL A   1      42.424  27.934  33.932  1.00  0.00     0.031 A 
BRANCH  51  65
ATOM     65  C   UNL A   1      41.424  27.079  27.931  1.00  0.00    -0.014 A 
ATOM     66  C   UNL A   1      42.151  27.675  26.887  1.00  0.00     0.009 A 
ATOM     67  C   UNL A   1      40.925  25.788  27.691  1.00  0.00     0.009 A 
ATOM     68  C   UNL A   1      42.278  27.065  25.634  1.00  0.00     0.001 A 
ATOM     69  C   UNL A   1      41.011  25.190  26.427  1.00  0.00     0.001 A 
ATOM     70  C   UNL A   1      41.676  25.836  25.393  1.00  0.00     0.000 A 
ENDBRANCH  51  65
BRANCH  52  71
ATOM     71  C   UNL A   1      39.943  33.213  35.165  1.00  0.00    -0.014 A 
ATOM     72  C   UNL A   1      38.694  32.574  35.033  1.00  0.00     0.009 A 
ATOM     73  C   UNL A   1      40.080  34.227  36.124  1.00  0.00     0.009 A 
ATOM     74  C   UNL A   1      37.646  32.865  35.910  1.00  0.00     0.001 A 
ATOM     75  C   UNL A   1      39.023  34.522  36.993  1.00  0.00     0.001 A 
ATOM     76  C   UNL A   1      37.822  33.821  36.908  1.00  0.00     0.000 A 
ENDBRANCH  52  71
BRANCH  64  77
ATOM     77  C   UNL A   1      42.554  26.534  34.488  1.00  0.00    -0.014 A 
ATOM     78  C   UNL A   1      41.593  25.895  35.280  1.00  0.00     0.009 A 
ATOM     79  C   UNL A   1      43.663  25.748  34.094  1.00  0.00     0.009 A 
ATOM     80  C   UNL A   1      41.748  24.560  35.686  1.00  0.00     0.001 A 
ATOM     81  C   UNL A   1      43.799  24.405  34.455  1.00  0.00     0.001 A 
ATOM     82  C   UNL A   1      42.843  23.812  35.264  1.00  0.00     0.000 A 
ENDBRANCH  64  77
ENDBRANCH  38  39
ENDBRANCH  30  33
ENDBRANCH  28  29
ENDBRANCH  27  28
ENDBRANCH   1  27
TORSDOF 14
ENDMDL
MODEL 3
REMARK VINA RESULT:     -12.2      3.038      8.494
REMARK SMILES COC(=O)c1ccc(NC(=O)[C@@H]2CC=CC[C@@H]2C(=O)NCCCNC(=O)c2ccc(-c3c4nc(c(-c5ccccc5)c5ccc([nH]5)c(-c5ccccc5)c5nc(c(-c6ccccc6)c6ccc3[nH]6)C=C5)C=C4)cc2)c(C)c1
REMARK SMILES IDX 21 1 20 2 18 3 19 4 17 6 12 7 13 8 14 9 16 10 15 11 10 12
REMARK SMILES IDX 9 13 11 15 8 16 5 17 6 18 77 19 7 20 75 21 76 22 3 23 4 24
REMARK SMILES IDX 2 25 1 26 22 27 23 28 24 29 25 30 26 32 27 33 28 34 74 35
REMARK SMILES IDX 29 36 73 37 30 38 31 39 32 40 67 41 33 42 72 43 66 44 68 45
REMARK SMILES IDX 34 46 71 47 65 48 64 49 35 51 57 52 42 53 56 54 43 55 46 56
REMARK SMILES IDX 55 57 69 58 44 59 45 60 54 62 70 63 47 64 36 65 37 66 41 67
REMARK SMILES IDX 38 68 40 69 39 70 58 71 59 72 63 73 60 74 62 75 61 76 48 77
REMARK SMILES IDX 49 78 53 79 50 80 52 81 51 82
REMARK H PARENT 20 5 9 14 24 31 68 50 46 61
REMARK Flexibility Score: inf
ROOT
ATOM      1  C   UNL A   1      32.621  30.424  26.425  1.00  0.00     0.117 C 
ENDROOT
BRANCH   1   2
ATOM      2  N   UNL A   1      33.220  29.956  25.189  1.00  0.00    -0.356 N 
ATOM      3  C   UNL A   1      32.812  29.020  24.283  1.00  0.00     0.224 C 
ATOM      4  O   UNL A   1      33.419  28.986  23.211  1.00  0.00    -0.275 OA
ATOM      5  H   UNL A   1      34.072  30.393  24.963  1.00  0.00     0.163 HD
BRANCH   3   6
ATOM      6  C   UNL A   1      31.667  28.052  24.599  1.00  0.00     0.095 C 
ATOM      7  C   UNL A   1      32.114  26.578  24.553  1.00  0.00     0.095 C 
ATOM      8  C   UNL A   1      32.539  26.138  23.144  1.00  0.00     0.041 C 
ATOM      9  C   UNL A   1      31.501  26.504  22.125  1.00  0.00    -0.030 C 
ATOM     10  C   UNL A   1      30.498  28.266  23.606  1.00  0.00     0.041 C 
ATOM     11  C   UNL A   1      30.572  27.446  22.344  1.00  0.00    -0.030 C 
BRANCH   7  12
ATOM     12  C   UNL A   1      33.215  26.296  25.544  1.00  0.00     0.228 C 
ATOM     13  N   UNL A   1      33.485  25.078  26.075  1.00  0.00    -0.326 N 
ATOM     14  H   UNL A   1      33.997  25.165  26.911  1.00  0.00     0.169 HD
ATOM     15  O   UNL A   1      33.908  27.225  25.982  1.00  0.00    -0.274 OA
BRANCH  13  16
ATOM     16  C   UNL A   1      33.243  23.724  25.773  1.00  0.00     0.044 A 
ATOM     17  C   UNL A   1      32.702  21.220  24.582  1.00  0.00     0.060 A 
ATOM     18  C   UNL A   1      31.798  21.781  25.477  1.00  0.00     0.018 A 
ATOM     19  C   UNL A   1      33.931  21.849  24.376  1.00  0.00     0.021 A 
ATOM     20  C   UNL A   1      32.069  23.024  26.065  1.00  0.00     0.027 A 
ATOM     21  C   UNL A   1      34.229  23.074  24.991  1.00  0.00    -0.027 A 
ATOM     22  C   UNL A   1      35.605  23.648  24.753  1.00  0.00     0.046 C 
BRANCH  17  23
ATOM     23  C   UNL A   1      32.368  19.926  23.929  1.00  0.00     0.337 C 
ATOM     24  O   UNL A   1      32.204  19.770  22.739  1.00  0.00    -0.246 OA
BRANCH  23  25
ATOM     25  O   UNL A   1      32.193  18.985  24.889  1.00  0.00    -0.465 OA
ATOM     26  C   UNL A   1      33.136  17.922  24.806  1.00  0.00     0.282 C 
ENDBRANCH  23  25
ENDBRANCH  17  23
ENDBRANCH  13  16
ENDBRANCH   7  12
ENDBRANCH   3   6
ENDBRANCH   1   2
BRANCH   1  27
ATOM     27  C   UNL A   1      33.556  30.424  27.631  1.00  0.00     0.042 C 
BRANCH  27  28
ATOM     28  C   UNL A   1      34.547  31.585  27.672  1.00  0.00     0.118 C 
BRANCH  28  29
ATOM     29  N   UNL A   1      34.917  31.908  29.057  1.00  0.00    -0.352 N 
ATOM     30  C   UNL A   1      35.898  31.382  29.871  1.00  0.00     0.251 C 
ATOM     31  H   UNL A   1      34.375  32.617  29.472  1.00  0.00     0.163 HD
ATOM     32  O   UNL A   1      36.154  31.903  30.951  1.00  0.00    -0.269 OA
BRANCH  30  33
ATOM     33  C   UNL A   1      36.730  30.281  29.359  1.00  0.00     0.039 A 
ATOM     34  C   UNL A   1      36.955  29.198  30.213  1.00  0.00     0.014 A 
ATOM     35  C   UNL A   1      37.478  30.457  28.199  1.00  0.00     0.014 A 
ATOM     36  C   UNL A   1      38.113  28.450  30.051  1.00  0.00     0.010 A 
ATOM     37  C   UNL A   1      38.666  29.762  28.079  1.00  0.00     0.010 A 
ATOM     38  C   UNL A   1      39.018  28.824  29.057  1.00  0.00    -0.014 A 
BRANCH  38  39
ATOM     39  C   UNL A   1      40.410  28.400  29.090  1.00  0.00     0.031 A 
ATOM     40  C   UNL A   1      40.814  27.109  28.515  1.00  0.00     0.074 A 
ATOM     41  C   UNL A   1      41.336  29.179  29.693  1.00  0.00     0.049 A 
ATOM     42  N   UNL A   1      41.790  26.395  28.968  1.00  0.00    -0.248 NA
ATOM     43  C   UNL A   1      40.097  26.488  27.409  1.00  0.00     0.031 C 
ATOM     44  C   UNL A   1      42.787  29.029  29.655  1.00  0.00     0.029 A 
ATOM     45  N   UNL A   1      41.112  30.151  30.665  1.00  0.00    -0.354 N 
ATOM     46  C   UNL A   1      42.010  25.393  28.058  1.00  0.00     0.074 A 
ATOM     47  C   UNL A   1      40.881  25.436  27.155  1.00  0.00     0.031 C 
ATOM     48  C   UNL A   1      43.317  29.684  30.701  1.00  0.00     0.029 A 
ATOM     49  C   UNL A   1      42.219  30.152  31.529  1.00  0.00     0.049 A 
ATOM     50  H   UNL A   1      40.321  30.732  30.735  1.00  0.00     0.167 HD
ATOM     51  C   UNL A   1      43.197  24.725  28.055  1.00  0.00     0.031 A 
ATOM     52  C   UNL A   1      42.081  29.894  32.861  1.00  0.00     0.031 A 
ATOM     53  C   UNL A   1      44.097  25.182  29.107  1.00  0.00     0.049 A 
ATOM     54  C   UNL A   1      42.862  28.688  33.336  1.00  0.00     0.074 A 
ATOM     55  C   UNL A   1      45.165  26.066  29.108  1.00  0.00     0.029 A 
ATOM     56  N   UNL A   1      43.768  24.960  30.437  1.00  0.00    -0.354 N 
ATOM     57  N   UNL A   1      43.328  27.762  32.547  1.00  0.00    -0.248 NA
ATOM     58  C   UNL A   1      43.122  28.402  34.745  1.00  0.00     0.031 C 
ATOM     59  C   UNL A   1      45.452  26.406  30.454  1.00  0.00     0.029 A 
ATOM     60  C   UNL A   1      44.575  25.714  31.268  1.00  0.00     0.049 A 
ATOM     61  H   UNL A   1      43.060  24.350  30.745  1.00  0.00     0.167 HD
ATOM     62  C   UNL A   1      43.905  26.767  33.295  1.00  0.00     0.074 A 
ATOM     63  C   UNL A   1      43.771  27.227  34.665  1.00  0.00     0.031 C 
ATOM     64  C   UNL A   1      44.416  25.643  32.714  1.00  0.00     0.031 A 
BRANCH  51  65
ATOM     65  C   UNL A   1      43.630  23.895  26.877  1.00  0.00    -0.014 A 
ATOM     66  C   UNL A   1      44.251  24.513  25.778  1.00  0.00     0.009 A 
ATOM     67  C   UNL A   1      43.396  22.514  26.770  1.00  0.00     0.009 A 
ATOM     68  C   UNL A   1      44.520  23.816  24.594  1.00  0.00     0.001 A 
ATOM     69  C   UNL A   1      43.623  21.820  25.574  1.00  0.00     0.001 A 
ATOM     70  C   UNL A   1      44.172  22.476  24.480  1.00  0.00     0.000 A 
ENDBRANCH  51  65
BRANCH  52  71
ATOM     71  C   UNL A   1      40.765  30.302  33.426  1.00  0.00    -0.014 A 
ATOM     72  C   UNL A   1      40.549  31.661  33.727  1.00  0.00     0.009 A 
ATOM     73  C   UNL A   1      39.657  29.448  33.346  1.00  0.00     0.009 A 
ATOM     74  C   UNL A   1      39.253  32.172  33.834  1.00  0.00     0.001 A 
ATOM     75  C   UNL A   1      38.361  29.962  33.467  1.00  0.00     0.001 A 
ATOM     76  C   UNL A   1      38.158  31.325  33.677  1.00  0.00     0.000 A 
ENDBRANCH  52  71
BRANCH  64  77
ATOM     77  C   UNL A   1      44.874  24.385  33.418  1.00  0.00    -0.014 A 
ATOM     78  C   UNL A   1      46.157  24.181  33.940  1.00  0.00     0.009 A 
ATOM     79  C   UNL A   1      43.921  23.374  33.687  1.00  0.00     0.009 A 
ATOM     80  C   UNL A   1      46.479  23.019  34.658  1.00  0.00     0.001 A 
ATOM     81  C   UNL A   1      44.224  22.237  34.442  1.00  0.00     0.001 A 
ATOM     82  C   UNL A   1      45.511  22.055  34.919  1.00  0.00     0.000 A 
ENDBRANCH  64  77
ENDBRANCH  38  39
ENDBRANCH  30  33
ENDBRANCH  28  29
ENDBRANCH  27  28
ENDBRANCH   1  27
TORSDOF 14
ENDMDL
