MODEL 1
REMARK VINA RESULT:     -11.6      0.000      0.000
REMARK SMILES O=C(/C=C/c1ccc(O)cc1)NC[C@@H]1CC[C@H](C(=O)NCCCNC(=O)c2ccc(-c3c4nc(c(-c5ccccc5)c5ccc([nH]5)c(-c5ccccc5)c5nc(c(-c6ccccc6)c6ccc3[nH]6)C=C5)C=C4)cc2)O1
REMARK SMILES IDX 18 1 19 2 20 3 17 5 14 6 15 7 75 8 16 9 13 10 12 11 1 12
REMARK SMILES IDX 2 13 3 15 4 16 5 17 6 18 11 19 7 20 10 21 8 22 9 23 21 25
REMARK SMILES IDX 22 26 23 27 24 28 25 29 26 31 27 32 28 33 74 34 29 35 73 36
REMARK SMILES IDX 30 37 31 38 32 39 67 40 33 41 72 42 66 43 68 44 34 45 71 46
REMARK SMILES IDX 65 47 64 48 35 50 57 51 42 52 56 53 43 54 46 55 55 56 69 57
REMARK SMILES IDX 44 58 45 59 54 61 70 62 47 63 36 64 37 65 41 66 38 67 40 68
REMARK SMILES IDX 39 69 58 70 59 71 63 72 60 73 62 74 61 75 48 76 49 77 53 78
REMARK SMILES IDX 50 79 52 80 51 81
REMARK H PARENT 20 4 12 14 9 24 24 30 68 49 46 60
REMARK Flexibility Score: inf
ROOT
ATOM      1  C   UNL A   1      30.848  28.843  23.948  1.00  0.00     0.249 C 
ATOM      2  O   UNL A   1      30.656  28.914  22.729  1.00  0.00    -0.272 OA
ATOM      3  N   UNL A   1      31.143  30.004  24.599  1.00  0.00    -0.354 N 
ATOM      4  H   UNL A   1      31.178  30.805  24.028  1.00  0.00     0.163 HD
ENDROOT
BRANCH   1   5
ATOM      5  C   UNL A   1      30.825  27.474  24.667  1.00  0.00     0.207 C 
ATOM      6  C   UNL A   1      31.780  25.359  24.391  1.00  0.00     0.138 C 
ATOM      7  C   UNL A   1      30.502  25.366  23.571  1.00  0.00     0.037 C 
ATOM      8  O   UNL A   1      32.051  26.740  24.701  1.00  0.00    -0.363 OA
ATOM      9  C   UNL A   1      29.743  26.548  24.126  1.00  0.00     0.045 C 
BRANCH   6  10
ATOM     10  C   UNL A   1      33.013  24.738  23.714  1.00  0.00     0.148 C 
BRANCH  10  11
ATOM     11  N   UNL A   1      33.304  23.376  24.122  1.00  0.00    -0.350 N 
ATOM     12  O   UNL A   1      32.375  22.402  22.264  1.00  0.00    -0.270 OA
ATOM     13  C   UNL A   1      32.940  22.306  23.344  1.00  0.00     0.244 C 
ATOM     14  H   UNL A   1      33.772  23.217  24.974  1.00  0.00     0.163 HD
BRANCH  13  15
ATOM     15  C   UNL A   1      33.299  20.961  23.861  1.00  0.00     0.072 C 
ATOM     16  C   UNL A   1      32.468  19.910  23.889  1.00  0.00     0.014 C 
BRANCH  16  17
ATOM     17  C   UNL A   1      32.872  18.564  24.317  1.00  0.00    -0.025 A 
ATOM     18  C   UNL A   1      32.498  18.016  25.553  1.00  0.00     0.012 A 
ATOM     19  C   UNL A   1      33.620  17.781  23.426  1.00  0.00     0.012 A 
ATOM     20  C   UNL A   1      32.884  16.717  25.900  1.00  0.00     0.047 A 
ATOM     21  C   UNL A   1      34.007  16.486  23.772  1.00  0.00     0.047 A 
ATOM     22  C   UNL A   1      33.639  15.964  25.005  1.00  0.00     0.115 A 
BRANCH  22  23
ATOM     23  O   UNL A   1      34.037  14.695  25.300  1.00  0.00    -0.508 OA
ATOM     24  H   UNL A   1      34.926  14.436  25.154  1.00  0.00     0.293 HD
ENDBRANCH  22  23
ENDBRANCH  16  17
ENDBRANCH  13  15
ENDBRANCH  10  11
ENDBRANCH   6  10
ENDBRANCH   1   5
BRANCH   3  25
ATOM     25  C   UNL A   1      31.412  30.236  26.003  1.00  0.00     0.117 C 
BRANCH  25  26
ATOM     26  C   UNL A   1      31.334  31.714  26.363  1.00  0.00     0.042 C 
BRANCH  26  27
ATOM     27  C   UNL A   1      32.601  32.244  27.015  1.00  0.00     0.118 C 
BRANCH  27  28
ATOM     28  N   UNL A   1      32.440  33.602  27.520  1.00  0.00    -0.352 N 
ATOM     29  C   UNL A   1      33.179  34.303  28.436  1.00  0.00     0.251 C 
ATOM     30  H   UNL A   1      31.677  34.095  27.142  1.00  0.00     0.163 HD
ATOM     31  O   UNL A   1      32.766  35.383  28.854  1.00  0.00    -0.269 OA
BRANCH  29  32
ATOM     32  C   UNL A   1      34.466  33.775  28.936  1.00  0.00     0.039 A 
ATOM     33  C   UNL A   1      34.452  32.872  30.003  1.00  0.00     0.014 A 
ATOM     34  C   UNL A   1      35.684  34.194  28.394  1.00  0.00     0.014 A 
ATOM     35  C   UNL A   1      35.653  32.357  30.494  1.00  0.00     0.010 A 
ATOM     36  C   UNL A   1      36.874  33.615  28.825  1.00  0.00     0.010 A 
ATOM     37  C   UNL A   1      36.872  32.706  29.892  1.00  0.00    -0.014 A 
BRANCH  37  38
ATOM     38  C   UNL A   1      38.157  32.151  30.382  1.00  0.00     0.031 A 
ATOM     39  C   UNL A   1      38.686  30.862  29.816  1.00  0.00     0.074 A 
ATOM     40  C   UNL A   1      38.821  32.780  31.371  1.00  0.00     0.049 A 
ATOM     41  N   UNL A   1      39.767  30.199  30.143  1.00  0.00    -0.248 NA
ATOM     42  C   UNL A   1      37.883  30.218  28.764  1.00  0.00     0.031 C 
ATOM     43  C   UNL A   1      38.388  34.013  32.034  1.00  0.00     0.029 A 
ATOM     44  N   UNL A   1      40.001  32.465  31.993  1.00  0.00    -0.354 N 
ATOM     45  C   UNL A   1      39.760  29.055  29.355  1.00  0.00     0.074 A 
ATOM     46  C   UNL A   1      38.544  29.086  28.572  1.00  0.00     0.031 C 
ATOM     47  C   UNL A   1      39.309  34.367  32.945  1.00  0.00     0.029 A 
ATOM     48  C   UNL A   1      40.375  33.370  32.956  1.00  0.00     0.049 A 
ATOM     49  H   UNL A   1      40.531  31.665  31.771  1.00  0.00     0.167 HD
ATOM     50  C   UNL A   1      40.691  28.074  29.272  1.00  0.00     0.031 A 
ATOM     51  C   UNL A   1      41.456  33.395  33.757  1.00  0.00     0.031 A 
ATOM     52  C   UNL A   1      41.908  28.052  30.036  1.00  0.00     0.049 A 
ATOM     53  C   UNL A   1      42.482  32.303  33.636  1.00  0.00     0.074 A 
ATOM     54  C   UNL A   1      42.941  27.133  29.988  1.00  0.00     0.029 A 
ATOM     55  N   UNL A   1      42.258  28.999  30.986  1.00  0.00    -0.354 N 
ATOM     56  N   UNL A   1      42.490  31.260  32.842  1.00  0.00    -0.248 NA
ATOM     57  C   UNL A   1      43.657  32.403  34.513  1.00  0.00     0.031 C 
ATOM     58  C   UNL A   1      43.899  27.502  30.939  1.00  0.00     0.029 A 
ATOM     59  C   UNL A   1      43.485  28.680  31.541  1.00  0.00     0.049 A 
ATOM     60  H   UNL A   1      41.715  29.783  31.230  1.00  0.00     0.167 HD
ATOM     61  C   UNL A   1      43.682  30.597  33.100  1.00  0.00     0.074 A 
ATOM     62  C   UNL A   1      44.376  31.365  34.115  1.00  0.00     0.031 C 
ATOM     63  C   UNL A   1      44.161  29.456  32.547  1.00  0.00     0.031 A 
BRANCH  50  64
ATOM     64  C   UNL A   1      40.420  26.944  28.318  1.00  0.00    -0.014 A 
ATOM     65  C   UNL A   1      39.688  25.813  28.719  1.00  0.00     0.009 A 
ATOM     66  C   UNL A   1      40.881  27.019  26.995  1.00  0.00     0.009 A 
ATOM     67  C   UNL A   1      39.459  24.765  27.825  1.00  0.00     0.001 A 
ATOM     68  C   UNL A   1      40.625  25.983  26.095  1.00  0.00     0.001 A 
ATOM     69  C   UNL A   1      39.924  24.852  26.514  1.00  0.00     0.000 A 
ENDBRANCH  50  64
BRANCH  51  70
ATOM     70  C   UNL A   1      41.644  34.511  34.719  1.00  0.00    -0.014 A 
ATOM     71  C   UNL A   1      41.191  34.391  36.042  1.00  0.00     0.009 A 
ATOM     72  C   UNL A   1      42.272  35.701  34.322  1.00  0.00     0.009 A 
ATOM     73  C   UNL A   1      41.338  35.450  36.940  1.00  0.00     0.001 A 
ATOM     74  C   UNL A   1      42.443  36.748  35.230  1.00  0.00     0.001 A 
ATOM     75  C   UNL A   1      41.968  36.625  36.535  1.00  0.00     0.000 A 
ENDBRANCH  51  70
BRANCH  63  76
ATOM     76  C   UNL A   1      45.517  28.996  32.998  1.00  0.00    -0.014 A 
ATOM     77  C   UNL A   1      46.690  29.460  32.381  1.00  0.00     0.009 A 
ATOM     78  C   UNL A   1      45.622  28.103  34.077  1.00  0.00     0.009 A 
ATOM     79  C   UNL A   1      47.938  29.008  32.812  1.00  0.00     0.001 A 
ATOM     80  C   UNL A   1      46.873  27.676  34.523  1.00  0.00     0.001 A 
ATOM     81  C   UNL A   1      48.029  28.120  33.883  1.00  0.00     0.000 A 
ENDBRANCH  63  76
ENDBRANCH  37  38
ENDBRANCH  29  32
ENDBRANCH  27  28
ENDBRANCH  26  27
ENDBRANCH  25  26
ENDBRANCH   3  25
TORSDOF 15
ENDMDL
MODEL 2
REMARK VINA RESULT:     -11.5      3.469      9.809
REMARK SMILES O=C(/C=C/c1ccc(O)cc1)NC[C@@H]1CC[C@H](C(=O)NCCCNC(=O)c2ccc(-c3c4nc(c(-c5ccccc5)c5ccc([nH]5)c(-c5ccccc5)c5nc(c(-c6ccccc6)c6ccc3[nH]6)C=C5)C=C4)cc2)O1
REMARK SMILES IDX 18 1 19 2 20 3 17 5 14 6 15 7 75 8 16 9 13 10 12 11 1 12
REMARK SMILES IDX 2 13 3 15 4 16 5 17 6 18 11 19 7 20 10 21 8 22 9 23 21 25
REMARK SMILES IDX 22 26 23 27 24 28 25 29 26 31 27 32 28 33 74 34 29 35 73 36
REMARK SMILES IDX 30 37 31 38 32 39 67 40 33 41 72 42 66 43 68 44 34 45 71 46
REMARK SMILES IDX 65 47 64 48 35 50 57 51 42 52 56 53 43 54 46 55 55 56 69 57
REMARK SMILES IDX 44 58 45 59 54 61 70 62 47 63 36 64 37 65 41 66 38 67 40 68
REMARK SMILES IDX 39 69 58 70 59 71 63 72 60 73 62 74 61 75 48 76 49 77 53 78
REMARK SMILES IDX 50 79 52 80 51 81
REMARK H PARENT 20 4 12 14 9 24 24 30 68 49 46 60
REMARK Flexibility Score: inf
ROOT
ATOM      1  C   UNL A   1      34.236  20.732  25.095  1.00  0.00     0.249 C 
ATOM      2  O   UNL A   1      33.335  20.233  25.778  1.00  0.00    -0.272 OA
ATOM      3  N   UNL A   1      35.504  20.280  25.312  1.00  0.00    -0.354 N 
ATOM      4  H   UNL A   1      35.586  19.586  26.005  1.00  0.00     0.163 HD
ENDROOT
BRANCH   1   5
ATOM      5  C   UNL A   1      33.925  21.875  24.099  1.00  0.00     0.207 C 
ATOM      6  C   UNL A   1      32.965  24.005  24.157  1.00  0.00     0.138 C 
ATOM      7  C   UNL A   1      31.824  23.022  23.960  1.00  0.00     0.037 C 
ATOM      8  O   UNL A   1      34.093  23.212  24.576  1.00  0.00    -0.363 OA
ATOM      9  C   UNL A   1      32.527  21.765  23.504  1.00  0.00     0.045 C 
BRANCH   6  10
ATOM     10  C   UNL A   1      32.722  25.125  25.182  1.00  0.00     0.148 C 
BRANCH  10  11
ATOM     11  N   UNL A   1      32.252  26.373  24.612  1.00  0.00    -0.350 N 
ATOM     12  O   UNL A   1      30.024  25.913  24.918  1.00  0.00    -0.270 OA
ATOM     13  C   UNL A   1      30.911  26.656  24.521  1.00  0.00     0.244 C 
ATOM     14  H   UNL A   1      32.907  27.031  24.284  1.00  0.00     0.163 HD
BRANCH  13  15
ATOM     15  C   UNL A   1      30.551  27.968  23.927  1.00  0.00     0.072 C 
ATOM     16  C   UNL A   1      29.365  28.252  23.371  1.00  0.00     0.014 C 
BRANCH  16  17
ATOM     17  C   UNL A   1      28.997  29.584  22.875  1.00  0.00    -0.025 A 
ATOM     18  C   UNL A   1      28.465  29.797  21.595  1.00  0.00     0.012 A 
ATOM     19  C   UNL A   1      29.139  30.678  23.741  1.00  0.00     0.012 A 
ATOM     20  C   UNL A   1      28.103  31.084  21.181  1.00  0.00     0.047 A 
ATOM     21  C   UNL A   1      28.779  31.961  23.329  1.00  0.00     0.047 A 
ATOM     22  C   UNL A   1      28.266  32.156  22.053  1.00  0.00     0.115 A 
BRANCH  22  23
ATOM     23  O   UNL A   1      27.926  33.425  21.694  1.00  0.00    -0.508 OA
ATOM     24  H   UNL A   1      27.957  34.116  22.326  1.00  0.00     0.293 HD
ENDBRANCH  22  23
ENDBRANCH  16  17
ENDBRANCH  13  15
ENDBRANCH  10  11
ENDBRANCH   6  10
ENDBRANCH   1   5
BRANCH   3  25
ATOM     25  C   UNL A   1      36.747  20.665  24.676  1.00  0.00     0.117 C 
BRANCH  25  26
ATOM     26  C   UNL A   1      37.840  19.625  24.881  1.00  0.00     0.042 C 
BRANCH  26  27
ATOM     27  C   UNL A   1      38.870  20.029  25.923  1.00  0.00     0.118 C 
BRANCH  27  28
ATOM     28  N   UNL A   1      40.099  19.250  25.822  1.00  0.00    -0.352 N 
ATOM     29  C   UNL A   1      41.405  19.623  25.998  1.00  0.00     0.251 C 
ATOM     30  H   UNL A   1      39.968  18.302  25.589  1.00  0.00     0.163 HD
ATOM     31  O   UNL A   1      42.307  18.846  25.691  1.00  0.00    -0.269 OA
BRANCH  29  32
ATOM     32  C   UNL A   1      41.746  20.953  26.546  1.00  0.00     0.039 A 
ATOM     33  C   UNL A   1      42.176  21.951  25.667  1.00  0.00     0.014 A 
ATOM     34  C   UNL A   1      41.690  21.210  27.919  1.00  0.00     0.014 A 
ATOM     35  C   UNL A   1      42.504  23.216  26.158  1.00  0.00     0.010 A 
ATOM     36  C   UNL A   1      41.933  22.494  28.396  1.00  0.00     0.010 A 
ATOM     37  C   UNL A   1      42.361  23.504  27.524  1.00  0.00    -0.014 A 
BRANCH  37  38
ATOM     38  C   UNL A   1      42.680  24.849  28.062  1.00  0.00     0.031 A 
ATOM     39  C   UNL A   1      44.096  25.196  28.432  1.00  0.00     0.074 A 
ATOM     40  C   UNL A   1      41.690  25.738  28.265  1.00  0.00     0.049 A 
ATOM     41  N   UNL A   1      44.566  26.302  28.953  1.00  0.00    -0.248 NA
ATOM     42  C   UNL A   1      45.115  24.156  28.213  1.00  0.00     0.031 C 
ATOM     43  C   UNL A   1      40.269  25.505  27.990  1.00  0.00     0.029 A 
ATOM     44  N   UNL A   1      41.728  27.018  28.755  1.00  0.00    -0.354 N 
ATOM     45  C   UNL A   1      45.924  26.080  29.143  1.00  0.00     0.074 A 
ATOM     46  C   UNL A   1      46.195  24.720  28.732  1.00  0.00     0.031 C 
ATOM     47  C   UNL A   1      39.578  26.619  28.281  1.00  0.00     0.029 A 
ATOM     48  C   UNL A   1      40.498  27.628  28.798  1.00  0.00     0.049 A 
ATOM     49  H   UNL A   1      42.558  27.459  29.049  1.00  0.00     0.167 HD
ATOM     50  C   UNL A   1      46.869  26.937  29.600  1.00  0.00     0.031 A 
ATOM     51  C   UNL A   1      40.150  28.863  29.205  1.00  0.00     0.031 A 
ATOM     52  C   UNL A   1      46.604  28.295  29.992  1.00  0.00     0.049 A 
ATOM     53  C   UNL A   1      41.218  29.800  29.695  1.00  0.00     0.074 A 
ATOM     54  C   UNL A   1      47.498  29.260  30.418  1.00  0.00     0.029 A 
ATOM     55  N   UNL A   1      45.347  28.880  30.001  1.00  0.00    -0.354 N 
ATOM     56  N   UNL A   1      42.508  29.595  29.811  1.00  0.00    -0.248 NA
ATOM     57  C   UNL A   1      40.781  31.145  30.094  1.00  0.00     0.031 C 
ATOM     58  C   UNL A   1      46.776  30.419  30.723  1.00  0.00     0.029 A 
ATOM     59  C   UNL A   1      45.439  30.189  30.438  1.00  0.00     0.049 A 
ATOM     60  H   UNL A   1      44.512  28.430  29.736  1.00  0.00     0.167 HD
ATOM     61  C   UNL A   1      43.041  30.794  30.265  1.00  0.00     0.074 A 
ATOM     62  C   UNL A   1      41.936  31.723  30.390  1.00  0.00     0.031 C 
ATOM     63  C   UNL A   1      44.330  31.099  30.553  1.00  0.00     0.031 A 
BRANCH  50  64
ATOM     64  C   UNL A   1      48.279  26.422  29.700  1.00  0.00    -0.014 A 
ATOM     65  C   UNL A   1      49.184  26.571  28.636  1.00  0.00     0.009 A 
ATOM     66  C   UNL A   1      48.715  25.801  30.879  1.00  0.00     0.009 A 
ATOM     67  C   UNL A   1      50.485  26.074  28.738  1.00  0.00     0.001 A 
ATOM     68  C   UNL A   1      50.025  25.330  30.990  1.00  0.00     0.001 A 
ATOM     69  C   UNL A   1      50.905  25.457  29.915  1.00  0.00     0.000 A 
ENDBRANCH  50  64
BRANCH  51  70
ATOM     70  C   UNL A   1      38.731  29.298  29.134  1.00  0.00    -0.014 A 
ATOM     71  C   UNL A   1      37.887  29.147  30.245  1.00  0.00     0.009 A 
ATOM     72  C   UNL A   1      38.213  29.862  27.959  1.00  0.00     0.009 A 
ATOM     73  C   UNL A   1      36.545  29.525  30.171  1.00  0.00     0.001 A 
ATOM     74  C   UNL A   1      36.878  30.267  27.897  1.00  0.00     0.001 A 
ATOM     75  C   UNL A   1      36.043  30.090  28.999  1.00  0.00     0.000 A 
ENDBRANCH  51  70
BRANCH  63  76
ATOM     76  C   UNL A   1      44.617  32.508  30.989  1.00  0.00    -0.014 A 
ATOM     77  C   UNL A   1      44.608  32.870  32.345  1.00  0.00     0.009 A 
ATOM     78  C   UNL A   1      44.927  33.480  30.025  1.00  0.00     0.009 A 
ATOM     79  C   UNL A   1      44.866  34.188  32.723  1.00  0.00     0.001 A 
ATOM     80  C   UNL A   1      45.213  34.791  30.409  1.00  0.00     0.001 A 
ATOM     81  C   UNL A   1      45.172  35.146  31.756  1.00  0.00     0.000 A 
ENDBRANCH  63  76
ENDBRANCH  37  38
ENDBRANCH  29  32
ENDBRANCH  27  28
ENDBRANCH  26  27
ENDBRANCH  25  26
ENDBRANCH   3  25
TORSDOF 15
ENDMDL
MODEL 3
REMARK VINA RESULT:     -11.5      3.610      9.945
REMARK SMILES O=C(/C=C/c1ccc(O)cc1)NC[C@@H]1CC[C@H](C(=O)NCCCNC(=O)c2ccc(-c3c4nc(c(-c5ccccc5)c5ccc([nH]5)c(-c5ccccc5)c5nc(c(-c6ccccc6)c6ccc3[nH]6)C=C5)C=C4)cc2)O1
REMARK SMILES IDX 18 1 19 2 20 3 17 5 14 6 15 7 75 8 16 9 13 10 12 11 1 12
REMARK SMILES IDX 2 13 3 15 4 16 5 17 6 18 11 19 7 20 10 21 8 22 9 23 21 25
REMARK SMILES IDX 22 26 23 27 24 28 25 29 26 31 27 32 28 33 74 34 29 35 73 36
REMARK SMILES IDX 30 37 31 38 32 39 67 40 33 41 72 42 66 43 68 44 34 45 71 46
REMARK SMILES IDX 65 47 64 48 35 50 57 51 42 52 56 53 43 54 46 55 55 56 69 57
REMARK SMILES IDX 44 58 45 59 54 61 70 62 47 63 36 64 37 65 41 66 38 67 40 68
REMARK SMILES IDX 39 69 58 70 59 71 63 72 60 73 62 74 61 75 48 76 49 77 53 78
REMARK SMILES IDX 50 79 52 80 51 81
REMARK H PARENT 20 4 12 14 9 24 24 30 68 49 46 60
REMARK Flexibility Score: inf
ROOT
ATOM      1  C   UNL A   1      34.030  20.581  24.738  1.00  0.00     0.249 C 
ATOM      2  O   UNL A   1      33.068  19.970  25.217  1.00  0.00    -0.272 OA
ATOM      3  N   UNL A   1      35.275  20.131  25.061  1.00  0.00    -0.354 N 
ATOM      4  H   UNL A   1      35.294  19.347  25.657  1.00  0.00     0.163 HD
ENDROOT
BRANCH   1   5
ATOM      5  C   UNL A   1      33.805  21.846  23.876  1.00  0.00     0.207 C 
ATOM      6  C   UNL A   1      32.813  23.948  24.115  1.00  0.00     0.138 C 
ATOM      7  C   UNL A   1      31.713  22.999  23.672  1.00  0.00     0.037 C 
ATOM      8  O   UNL A   1      33.904  23.108  24.541  1.00  0.00    -0.363 OA
ATOM      9  C   UNL A   1      32.479  21.815  23.129  1.00  0.00     0.045 C 
BRANCH   6  10
ATOM     10  C   UNL A   1      32.448  24.921  25.249  1.00  0.00     0.148 C 
BRANCH  10  11
ATOM     11  N   UNL A   1      31.999  26.226  24.802  1.00  0.00    -0.350 N 
ATOM     12  O   UNL A   1      29.767  25.793  25.109  1.00  0.00    -0.270 OA
ATOM     13  C   UNL A   1      30.665  26.547  24.764  1.00  0.00     0.244 C 
ATOM     14  H   UNL A   1      32.665  26.895  24.522  1.00  0.00     0.163 HD
BRANCH  13  15
ATOM     15  C   UNL A   1      30.327  27.915  24.298  1.00  0.00     0.072 C 
ATOM     16  C   UNL A   1      29.567  28.190  23.229  1.00  0.00     0.014 C 
BRANCH  16  17
ATOM     17  C   UNL A   1      29.167  29.549  22.841  1.00  0.00    -0.025 A 
ATOM     18  C   UNL A   1      28.524  29.833  21.628  1.00  0.00     0.012 A 
ATOM     19  C   UNL A   1      29.397  30.592  23.749  1.00  0.00     0.012 A 
ATOM     20  C   UNL A   1      28.137  31.142  21.319  1.00  0.00     0.047 A 
ATOM     21  C   UNL A   1      29.012  31.898  23.441  1.00  0.00     0.047 A 
ATOM     22  C   UNL A   1      28.388  32.164  22.229  1.00  0.00     0.115 A 
BRANCH  22  23
ATOM     23  O   UNL A   1      28.028  33.453  21.972  1.00  0.00    -0.508 OA
ATOM     24  H   UNL A   1      27.286  33.828  22.404  1.00  0.00     0.293 HD
ENDBRANCH  22  23
ENDBRANCH  16  17
ENDBRANCH  13  15
ENDBRANCH  10  11
ENDBRANCH   6  10
ENDBRANCH   1   5
BRANCH   3  25
ATOM     25  C   UNL A   1      36.574  20.629  24.660  1.00  0.00     0.117 C 
BRANCH  25  26
ATOM     26  C   UNL A   1      37.681  19.616  24.919  1.00  0.00     0.042 C 
BRANCH  26  27
ATOM     27  C   UNL A   1      38.765  20.129  25.853  1.00  0.00     0.118 C 
BRANCH  27  28
ATOM     28  N   UNL A   1      39.944  19.273  25.860  1.00  0.00    -0.352 N 
ATOM     29  C   UNL A   1      41.264  19.579  26.066  1.00  0.00     0.251 C 
ATOM     30  H   UNL A   1      39.764  18.320  25.690  1.00  0.00     0.163 HD
ATOM     31  O   UNL A   1      42.126  18.729  25.854  1.00  0.00    -0.269 OA
BRANCH  29  32
ATOM     32  C   UNL A   1      41.667  20.922  26.533  1.00  0.00     0.039 A 
ATOM     33  C   UNL A   1      41.680  21.178  27.908  1.00  0.00     0.014 A 
ATOM     34  C   UNL A   1      41.986  21.940  25.631  1.00  0.00     0.014 A 
ATOM     35  C   UNL A   1      42.056  22.439  28.376  1.00  0.00     0.010 A 
ATOM     36  C   UNL A   1      42.445  23.167  26.101  1.00  0.00     0.010 A 
ATOM     37  C   UNL A   1      42.466  23.435  27.477  1.00  0.00    -0.014 A 
BRANCH  37  38
ATOM     38  C   UNL A   1      42.893  24.772  27.955  1.00  0.00     0.031 A 
ATOM     39  C   UNL A   1      41.866  25.829  28.256  1.00  0.00     0.074 A 
ATOM     40  C   UNL A   1      44.206  25.050  28.071  1.00  0.00     0.049 A 
ATOM     41  N   UNL A   1      42.045  27.067  28.645  1.00  0.00    -0.248 NA
ATOM     42  C   UNL A   1      40.454  25.457  28.070  1.00  0.00     0.031 C 
ATOM     43  C   UNL A   1      45.301  24.125  27.767  1.00  0.00     0.029 A 
ATOM     44  N   UNL A   1      44.842  26.197  28.474  1.00  0.00    -0.354 N 
ATOM     45  C   UNL A   1      40.774  27.622  28.727  1.00  0.00     0.074 A 
ATOM     46  C   UNL A   1      39.838  26.606  28.299  1.00  0.00     0.031 C 
ATOM     47  C   UNL A   1      46.471  24.730  28.028  1.00  0.00     0.029 A 
ATOM     48  C   UNL A   1      46.211  26.092  28.481  1.00  0.00     0.049 A 
ATOM     49  H   UNL A   1      44.362  27.017  28.734  1.00  0.00     0.167 HD
ATOM     50  C   UNL A   1      40.413  28.860  29.141  1.00  0.00     0.031 A 
ATOM     51  C   UNL A   1      47.153  26.994  28.818  1.00  0.00     0.031 A 
ATOM     52  C   UNL A   1      41.341  29.864  29.585  1.00  0.00     0.049 A 
ATOM     53  C   UNL A   1      46.727  28.357  29.287  1.00  0.00     0.074 A 
ATOM     54  C   UNL A   1      41.076  31.131  30.074  1.00  0.00     0.029 A 
ATOM     55  N   UNL A   1      42.719  29.712  29.596  1.00  0.00    -0.354 N 
ATOM     56  N   UNL A   1      45.518  28.845  29.418  1.00  0.00    -0.248 NA
ATOM     57  C   UNL A   1      47.799  29.285  29.673  1.00  0.00     0.031 C 
ATOM     58  C   UNL A   1      42.296  31.760  30.344  1.00  0.00     0.029 A 
ATOM     59  C   UNL A   1      43.319  30.865  30.070  1.00  0.00     0.049 A 
ATOM     60  H   UNL A   1      43.201  28.902  29.308  1.00  0.00     0.167 HD
ATOM     61  C   UNL A   1      45.681  30.126  29.929  1.00  0.00     0.074 A 
ATOM     62  C   UNL A   1      47.106  30.330  30.098  1.00  0.00     0.031 C 
ATOM     63  C   UNL A   1      44.737  31.049  30.233  1.00  0.00     0.031 A 
BRANCH  50  64
ATOM     64  C   UNL A   1      38.946  29.192  29.130  1.00  0.00    -0.014 A 
ATOM     65  C   UNL A   1      38.155  29.029  30.280  1.00  0.00     0.009 A 
ATOM     66  C   UNL A   1      38.352  29.696  27.964  1.00  0.00     0.009 A 
ATOM     67  C   UNL A   1      36.791  29.327  30.249  1.00  0.00     0.001 A 
ATOM     68  C   UNL A   1      36.994  30.020  27.944  1.00  0.00     0.001 A 
ATOM     69  C   UNL A   1      36.213  29.825  29.083  1.00  0.00     0.000 A 
ENDBRANCH  50  64
BRANCH  51  70
ATOM     70  C   UNL A   1      48.591  26.625  28.757  1.00  0.00    -0.014 A 
ATOM     71  C   UNL A   1      49.213  26.012  29.855  1.00  0.00     0.009 A 
ATOM     72  C   UNL A   1      49.349  26.887  27.606  1.00  0.00     0.009 A 
ATOM     73  C   UNL A   1      50.571  25.693  29.813  1.00  0.00     0.001 A 
ATOM     74  C   UNL A   1      50.701  26.540  27.555  1.00  0.00     0.001 A 
ATOM     75  C   UNL A   1      51.312  25.953  28.661  1.00  0.00     0.000 A 
ENDBRANCH  51  70
BRANCH  63  76
ATOM     76  C   UNL A   1      45.215  32.347  30.819  1.00  0.00    -0.014 A 
ATOM     77  C   UNL A   1      45.520  33.449  30.005  1.00  0.00     0.009 A 
ATOM     78  C   UNL A   1      45.337  32.474  32.213  1.00  0.00     0.009 A 
ATOM     79  C   UNL A   1      45.974  34.640  30.574  1.00  0.00     0.001 A 
ATOM     80  C   UNL A   1      45.763  33.675  32.779  1.00  0.00     0.001 A 
ATOM     81  C   UNL A   1      46.092  34.753  31.959  1.00  0.00     0.000 A 
ENDBRANCH  63  76
ENDBRANCH  37  38
ENDBRANCH  29  32
ENDBRANCH  27  28
ENDBRANCH  26  27
ENDBRANCH  25  26
ENDBRANCH   3  25
TORSDOF 15
ENDMDL
