MODEL 1
REMARK VINA RESULT:      -9.9      0.000      0.000
REMARK SMILES CC[C@H](C(=O)NCc1ccc(C(=O)NCCCNC(=O)c2ccc(-c3c4nc(c(-c5ccccc5)c5ccc([nH]5)c(-c5ccccc5)c5nc(c(-c6ccccc6)c6ccc3[nH]6)C=C5)C=C4)cc2)o1)c1ccccc1
REMARK SMILES IDX 15 1 14 2 12 3 13 4 11 6 8 7 9 8 69 9 10 10 7 11 6 12 4 13
REMARK SMILES IDX 5 14 3 16 2 17 1 18 70 19 71 20 75 21 72 22 74 23 73 24
REMARK SMILES IDX 16 25 17 26 18 27 19 28 20 30 21 31 22 32 68 33 23 34 67 35
REMARK SMILES IDX 24 36 25 37 26 38 61 39 27 40 66 41 60 42 62 43 28 44 65 45
REMARK SMILES IDX 59 46 58 47 29 49 51 50 36 51 50 52 37 53 40 54 49 55 63 56
REMARK SMILES IDX 38 57 39 58 48 60 64 61 41 62 30 63 31 64 35 65 32 66 34 67
REMARK SMILES IDX 33 68 52 69 53 70 57 71 54 72 56 73 55 74 42 75 43 76 47 77
REMARK SMILES IDX 44 78 46 79 45 80
REMARK H PARENT 14 5 6 15 18 29 62 48 40 59
REMARK Flexibility Score: inf
ROOT
ATOM      1  C   UNL A   1      42.428  20.259  27.799  1.00  0.00     0.118 C 
ENDROOT
BRANCH   1   2
ATOM      2  N   UNL A   1      42.236  19.020  27.077  1.00  0.00    -0.349 N 
ATOM      3  C   UNL A   1      42.941  18.453  26.040  1.00  0.00     0.286 C 
ATOM      4  O   UNL A   1      42.557  17.334  25.693  1.00  0.00    -0.266 OA
ATOM      5  H   UNL A   1      41.465  18.489  27.380  1.00  0.00     0.163 HD
BRANCH   3   6
ATOM      6  C   UNL A   1      44.062  19.130  25.413  1.00  0.00     0.191 A 
ATOM      7  C   UNL A   1      44.918  20.813  24.248  1.00  0.00     0.124 A 
ATOM      8  C   UNL A   1      45.968  19.972  24.531  1.00  0.00     0.048 A 
ATOM      9  O   UNL A   1      43.770  20.313  24.778  1.00  0.00    -0.454 OA
ATOM     10  C   UNL A   1      45.424  18.909  25.298  1.00  0.00     0.056 A 
BRANCH   7  11
ATOM     11  C   UNL A   1      44.798  22.106  23.538  1.00  0.00     0.191 C 
BRANCH  11  12
ATOM     12  N   UNL A   1      45.955  22.920  23.837  1.00  0.00    -0.348 N 
ATOM     13  C   UNL A   1      46.142  23.817  24.849  1.00  0.00     0.227 C 
ATOM     14  O   UNL A   1      47.263  24.317  24.955  1.00  0.00    -0.274 OA
ATOM     15  H   UNL A   1      46.717  22.811  23.223  1.00  0.00     0.163 HD
BRANCH  13  16
ATOM     16  C   UNL A   1      44.984  24.136  25.813  1.00  0.00     0.108 C 
BRANCH  16  17
ATOM     17  C   UNL A   1      45.079  23.254  27.079  1.00  0.00     0.015 C 
ATOM     18  C   UNL A   1      44.093  23.605  28.189  1.00  0.00     0.005 C 
ENDBRANCH  16  17
BRANCH  16  19
ATOM     19  C   UNL A   1      44.805  25.641  26.037  1.00  0.00    -0.036 A 
ATOM     20  C   UNL A   1      45.778  26.327  26.788  1.00  0.00     0.004 A 
ATOM     21  C   UNL A   1      43.744  26.388  25.505  1.00  0.00     0.004 A 
ATOM     22  C   UNL A   1      45.681  27.702  27.018  1.00  0.00     0.000 A 
ATOM     23  C   UNL A   1      43.646  27.765  25.735  1.00  0.00     0.000 A 
ATOM     24  C   UNL A   1      44.611  28.420  26.492  1.00  0.00     0.000 A 
ENDBRANCH  16  19
ENDBRANCH  13  16
ENDBRANCH  11  12
ENDBRANCH   7  11
ENDBRANCH   3   6
ENDBRANCH   1   2
BRANCH   1  25
ATOM     25  C   UNL A   1      41.233  21.197  27.640  1.00  0.00     0.042 C 
BRANCH  25  26
ATOM     26  C   UNL A   1      41.178  21.881  26.274  1.00  0.00     0.118 C 
BRANCH  26  27
ATOM     27  N   UNL A   1      39.810  22.054  25.806  1.00  0.00    -0.352 N 
ATOM     28  C   UNL A   1      38.889  23.032  26.080  1.00  0.00     0.251 C 
ATOM     29  H   UNL A   1      39.495  21.353  25.191  1.00  0.00     0.163 HD
ATOM     30  O   UNL A   1      37.716  22.856  25.761  1.00  0.00    -0.269 OA
BRANCH  28  31
ATOM     31  C   UNL A   1      39.282  24.290  26.751  1.00  0.00     0.039 A 
ATOM     32  C   UNL A   1      38.921  24.474  28.091  1.00  0.00     0.014 A 
ATOM     33  C   UNL A   1      39.930  25.317  26.060  1.00  0.00     0.014 A 
ATOM     34  C   UNL A   1      39.248  25.662  28.747  1.00  0.00     0.010 A 
ATOM     35  C   UNL A   1      40.313  26.477  26.731  1.00  0.00     0.010 A 
ATOM     36  C   UNL A   1      39.969  26.664  28.078  1.00  0.00    -0.014 A 
BRANCH  36  37
ATOM     37  C   UNL A   1      40.366  27.914  28.774  1.00  0.00     0.031 A 
ATOM     38  C   UNL A   1      41.734  28.048  29.381  1.00  0.00     0.074 A 
ATOM     39  C   UNL A   1      39.469  28.911  28.906  1.00  0.00     0.049 A 
ATOM     40  N   UNL A   1      42.239  29.043  30.066  1.00  0.00    -0.248 NA
ATOM     41  C   UNL A   1      42.647  26.906  29.216  1.00  0.00     0.031 C 
ATOM     42  C   UNL A   1      38.099  28.893  28.392  1.00  0.00     0.029 A 
ATOM     43  N   UNL A   1      39.580  30.134  29.518  1.00  0.00    -0.354 N 
ATOM     44  C   UNL A   1      43.519  28.640  30.429  1.00  0.00     0.074 A 
ATOM     45  C   UNL A   1      43.696  27.295  29.926  1.00  0.00     0.031 C 
ATOM     46  C   UNL A   1      37.505  30.061  28.687  1.00  0.00     0.029 A 
ATOM     47  C   UNL A   1      38.438  30.893  29.439  1.00  0.00     0.049 A 
ATOM     48  H   UNL A   1      40.399  30.438  29.972  1.00  0.00     0.167 HD
ATOM     49  C   UNL A   1      44.467  29.331  31.108  1.00  0.00     0.031 A 
ATOM     50  C   UNL A   1      38.170  32.121  29.920  1.00  0.00     0.031 A 
ATOM     51  C   UNL A   1      44.296  30.673  31.599  1.00  0.00     0.049 A 
ATOM     52  C   UNL A   1      39.236  32.865  30.671  1.00  0.00     0.074 A 
ATOM     53  C   UNL A   1      45.216  31.477  32.250  1.00  0.00     0.029 A 
ATOM     54  N   UNL A   1      43.125  31.408  31.494  1.00  0.00    -0.354 N 
ATOM     55  N   UNL A   1      40.459  32.492  30.957  1.00  0.00    -0.248 NA
ATOM     56  C   UNL A   1      38.885  34.208  31.156  1.00  0.00     0.031 C 
ATOM     57  C   UNL A   1      44.587  32.685  32.577  1.00  0.00     0.029 A 
ATOM     58  C   UNL A   1      43.292  32.649  32.086  1.00  0.00     0.049 A 
ATOM     59  H   UNL A   1      42.298  31.093  31.063  1.00  0.00     0.167 HD
ATOM     60  C   UNL A   1      41.032  33.561  31.634  1.00  0.00     0.074 A 
ATOM     61  C   UNL A   1      40.026  34.602  31.702  1.00  0.00     0.031 C 
ATOM     62  C   UNL A   1      42.279  33.671  32.151  1.00  0.00     0.031 A 
BRANCH  49  63
ATOM     63  C   UNL A   1      45.775  28.636  31.363  1.00  0.00    -0.014 A 
ATOM     64  C   UNL A   1      46.840  28.731  30.454  1.00  0.00     0.009 A 
ATOM     65  C   UNL A   1      45.951  27.890  32.540  1.00  0.00     0.009 A 
ATOM     66  C   UNL A   1      48.041  28.062  30.698  1.00  0.00     0.001 A 
ATOM     67  C   UNL A   1      47.163  27.245  32.794  1.00  0.00     0.001 A 
ATOM     68  C   UNL A   1      48.202  27.321  31.868  1.00  0.00     0.000 A 
ENDBRANCH  49  63
BRANCH  50  69
ATOM     69  C   UNL A   1      36.840  32.734  29.679  1.00  0.00    -0.014 A 
ATOM     70  C   UNL A   1      35.854  32.698  30.677  1.00  0.00     0.009 A 
ATOM     71  C   UNL A   1      36.551  33.365  28.460  1.00  0.00     0.009 A 
ATOM     72  C   UNL A   1      34.597  33.263  30.450  1.00  0.00     0.001 A 
ATOM     73  C   UNL A   1      35.302  33.952  28.245  1.00  0.00     0.001 A 
ATOM     74  C   UNL A   1      34.324  33.892  29.237  1.00  0.00     0.000 A 
ENDBRANCH  50  69
BRANCH  62  75
ATOM     75  C   UNL A   1      42.632  34.973  32.810  1.00  0.00    -0.014 A 
ATOM     76  C   UNL A   1      42.248  35.246  34.133  1.00  0.00     0.009 A 
ATOM     77  C   UNL A   1      43.383  35.927  32.107  1.00  0.00     0.009 A 
ATOM     78  C   UNL A   1      42.580  36.467  34.725  1.00  0.00     0.001 A 
ATOM     79  C   UNL A   1      43.736  37.135  32.710  1.00  0.00     0.001 A 
ATOM     80  C   UNL A   1      43.327  37.407  34.015  1.00  0.00     0.000 A 
ENDBRANCH  62  75
ENDBRANCH  36  37
ENDBRANCH  28  31
ENDBRANCH  26  27
ENDBRANCH  25  26
ENDBRANCH   1  25
TORSDOF 15
ENDMDL
MODEL 2
REMARK VINA RESULT:      -9.8      4.035      9.660
REMARK SMILES CC[C@H](C(=O)NCc1ccc(C(=O)NCCCNC(=O)c2ccc(-c3c4nc(c(-c5ccccc5)c5ccc([nH]5)c(-c5ccccc5)c5nc(c(-c6ccccc6)c6ccc3[nH]6)C=C5)C=C4)cc2)o1)c1ccccc1
REMARK SMILES IDX 15 1 14 2 12 3 13 4 11 6 8 7 9 8 69 9 10 10 7 11 6 12 4 13
REMARK SMILES IDX 5 14 3 16 2 17 1 18 70 19 71 20 75 21 72 22 74 23 73 24
REMARK SMILES IDX 16 25 17 26 18 27 19 28 20 30 21 31 22 32 68 33 23 34 67 35
REMARK SMILES IDX 24 36 25 37 26 38 61 39 27 40 66 41 60 42 62 43 28 44 65 45
REMARK SMILES IDX 59 46 58 47 29 49 51 50 36 51 50 52 37 53 40 54 49 55 63 56
REMARK SMILES IDX 38 57 39 58 48 60 64 61 41 62 30 63 31 64 35 65 32 66 34 67
REMARK SMILES IDX 33 68 52 69 53 70 57 71 54 72 56 73 55 74 42 75 43 76 47 77
REMARK SMILES IDX 44 78 46 79 45 80
REMARK H PARENT 14 5 6 15 18 29 62 48 40 59
REMARK Flexibility Score: inf
ROOT
ATOM      1  C   UNL A   1      36.247  20.394  24.987  1.00  0.00     0.118 C 
ENDROOT
BRANCH   1   2
ATOM      2  N   UNL A   1      36.571  21.805  24.988  1.00  0.00    -0.349 N 
ATOM      3  C   UNL A   1      35.947  22.881  25.576  1.00  0.00     0.286 C 
ATOM      4  O   UNL A   1      36.528  23.961  25.446  1.00  0.00    -0.266 OA
ATOM      5  H   UNL A   1      37.379  22.035  24.476  1.00  0.00     0.163 HD
BRANCH   3   6
ATOM      6  C   UNL A   1      34.699  22.741  26.305  1.00  0.00     0.191 A 
ATOM      7  C   UNL A   1      32.490  22.552  26.367  1.00  0.00     0.124 A 
ATOM      8  C   UNL A   1      32.912  22.524  27.675  1.00  0.00     0.048 A 
ATOM      9  O   UNL A   1      33.560  22.680  25.539  1.00  0.00    -0.454 OA
ATOM     10  C   UNL A   1      34.327  22.619  27.634  1.00  0.00     0.056 A 
BRANCH   7  11
ATOM     11  C   UNL A   1      31.167  22.448  25.711  1.00  0.00     0.191 C 
BRANCH  11  12
ATOM     12  N   UNL A   1      30.222  23.287  26.413  1.00  0.00    -0.348 N 
ATOM     13  C   UNL A   1      29.954  24.614  26.245  1.00  0.00     0.227 C 
ATOM     14  O   UNL A   1      29.024  25.087  26.901  1.00  0.00    -0.274 OA
ATOM     15  H   UNL A   1      29.697  22.835  27.112  1.00  0.00     0.163 HD
BRANCH  13  16
ATOM     16  C   UNL A   1      30.782  25.442  25.244  1.00  0.00     0.108 C 
BRANCH  16  17
ATOM     17  C   UNL A   1      29.877  25.977  24.110  1.00  0.00     0.015 C 
ATOM     18  C   UNL A   1      30.157  27.414  23.682  1.00  0.00     0.005 C 
ENDBRANCH  16  17
BRANCH  16  19
ATOM     19  C   UNL A   1      31.691  26.463  25.937  1.00  0.00    -0.036 A 
ATOM     20  C   UNL A   1      33.049  26.511  25.566  1.00  0.00     0.004 A 
ATOM     21  C   UNL A   1      31.242  27.382  26.896  1.00  0.00     0.004 A 
ATOM     22  C   UNL A   1      33.927  27.427  26.150  1.00  0.00     0.000 A 
ATOM     23  C   UNL A   1      32.123  28.299  27.481  1.00  0.00     0.000 A 
ATOM     24  C   UNL A   1      33.463  28.320  27.110  1.00  0.00     0.000 A 
ENDBRANCH  16  19
ENDBRANCH  13  16
ENDBRANCH  11  12
ENDBRANCH   7  11
ENDBRANCH   3   6
ENDBRANCH   1   2
BRANCH   1  25
ATOM     25  C   UNL A   1      37.503  19.525  24.987  1.00  0.00     0.042 C 
BRANCH  25  26
ATOM     26  C   UNL A   1      38.741  20.251  25.516  1.00  0.00     0.118 C 
BRANCH  26  27
ATOM     27  N   UNL A   1      39.849  19.336  25.752  1.00  0.00    -0.352 N 
ATOM     28  C   UNL A   1      41.144  19.579  26.130  1.00  0.00     0.251 C 
ATOM     29  H   UNL A   1      39.631  18.385  25.619  1.00  0.00     0.163 HD
ATOM     30  O   UNL A   1      41.972  18.676  26.044  1.00  0.00    -0.269 OA
BRANCH  28  31
ATOM     31  C   UNL A   1      41.559  20.905  26.637  1.00  0.00     0.039 A 
ATOM     32  C   UNL A   1      42.027  21.854  25.721  1.00  0.00     0.014 A 
ATOM     33  C   UNL A   1      41.566  21.197  28.004  1.00  0.00     0.014 A 
ATOM     34  C   UNL A   1      42.457  23.105  26.168  1.00  0.00     0.010 A 
ATOM     35  C   UNL A   1      41.934  22.468  28.444  1.00  0.00     0.010 A 
ATOM     36  C   UNL A   1      42.391  23.430  27.532  1.00  0.00    -0.014 A 
BRANCH  36  37
ATOM     37  C   UNL A   1      42.800  24.772  28.018  1.00  0.00     0.031 A 
ATOM     38  C   UNL A   1      41.771  25.837  28.274  1.00  0.00     0.074 A 
ATOM     39  C   UNL A   1      44.109  25.047  28.179  1.00  0.00     0.049 A 
ATOM     40  N   UNL A   1      41.944  27.078  28.654  1.00  0.00    -0.248 NA
ATOM     41  C   UNL A   1      40.365  25.467  28.052  1.00  0.00     0.031 C 
ATOM     42  C   UNL A   1      45.208  24.113  27.932  1.00  0.00     0.029 A 
ATOM     43  N   UNL A   1      44.735  26.199  28.583  1.00  0.00    -0.354 N 
ATOM     44  C   UNL A   1      40.675  27.640  28.699  1.00  0.00     0.074 A 
ATOM     45  C   UNL A   1      39.745  26.618  28.265  1.00  0.00     0.031 C 
ATOM     46  C   UNL A   1      46.372  24.720  28.218  1.00  0.00     0.029 A 
ATOM     47  C   UNL A   1      46.103  26.092  28.631  1.00  0.00     0.049 A 
ATOM     48  H   UNL A   1      44.249  27.023  28.817  1.00  0.00     0.167 HD
ATOM     49  C   UNL A   1      40.311  28.889  29.079  1.00  0.00     0.031 A 
ATOM     50  C   UNL A   1      47.038  27.000  28.969  1.00  0.00     0.031 A 
ATOM     51  C   UNL A   1      41.232  29.903  29.521  1.00  0.00     0.049 A 
ATOM     52  C   UNL A   1      46.611  28.378  29.383  1.00  0.00     0.074 A 
ATOM     53  C   UNL A   1      40.956  31.180  29.978  1.00  0.00     0.029 A 
ATOM     54  N   UNL A   1      42.610  29.753  29.558  1.00  0.00    -0.354 N 
ATOM     55  N   UNL A   1      45.402  28.876  29.474  1.00  0.00    -0.248 NA
ATOM     56  C   UNL A   1      47.681  29.316  29.754  1.00  0.00     0.031 C 
ATOM     57  C   UNL A   1      42.172  31.818  30.252  1.00  0.00     0.029 A 
ATOM     58  C   UNL A   1      43.200  30.921  30.012  1.00  0.00     0.049 A 
ATOM     59  H   UNL A   1      43.097  28.937  29.301  1.00  0.00     0.167 HD
ATOM     60  C   UNL A   1      45.563  30.176  29.934  1.00  0.00     0.074 A 
ATOM     61  C   UNL A   1      46.985  30.384  30.117  1.00  0.00     0.031 C 
ATOM     62  C   UNL A   1      44.617  31.113  30.183  1.00  0.00     0.031 A 
BRANCH  49  63
ATOM     63  C   UNL A   1      38.847  29.227  29.023  1.00  0.00    -0.014 A 
ATOM     64  C   UNL A   1      38.255  29.704  27.844  1.00  0.00     0.009 A 
ATOM     65  C   UNL A   1      38.045  29.048  30.161  1.00  0.00     0.009 A 
ATOM     66  C   UNL A   1      36.898  30.032  27.815  1.00  0.00     0.001 A 
ATOM     67  C   UNL A   1      36.683  29.350  30.122  1.00  0.00     0.001 A 
ATOM     68  C   UNL A   1      36.112  29.853  28.953  1.00  0.00     0.000 A 
ENDBRANCH  49  63
BRANCH  50  69
ATOM     69  C   UNL A   1      48.473  26.621  28.953  1.00  0.00    -0.014 A 
ATOM     70  C   UNL A   1      49.065  26.042  30.087  1.00  0.00     0.009 A 
ATOM     71  C   UNL A   1      49.258  26.828  27.808  1.00  0.00     0.009 A 
ATOM     72  C   UNL A   1      50.417  25.695  30.081  1.00  0.00     0.001 A 
ATOM     73  C   UNL A   1      50.604  26.457  27.796  1.00  0.00     0.001 A 
ATOM     74  C   UNL A   1      51.184  25.899  28.935  1.00  0.00     0.000 A 
ENDBRANCH  50  69
BRANCH  62  75
ATOM     75  C   UNL A   1      45.091  32.439  30.708  1.00  0.00    -0.014 A 
ATOM     76  C   UNL A   1      45.238  32.664  32.086  1.00  0.00     0.009 A 
ATOM     77  C   UNL A   1      45.420  33.464  29.809  1.00  0.00     0.009 A 
ATOM     78  C   UNL A   1      45.673  33.906  32.553  1.00  0.00     0.001 A 
ATOM     79  C   UNL A   1      45.879  34.696  30.279  1.00  0.00     0.001 A 
ATOM     80  C   UNL A   1      45.997  34.918  31.650  1.00  0.00     0.000 A 
ENDBRANCH  62  75
ENDBRANCH  36  37
ENDBRANCH  28  31
ENDBRANCH  26  27
ENDBRANCH  25  26
ENDBRANCH   1  25
TORSDOF 15
ENDMDL
MODEL 3
REMARK VINA RESULT:      -9.8      3.912      7.364
REMARK SMILES CC[C@H](C(=O)NCc1ccc(C(=O)NCCCNC(=O)c2ccc(-c3c4nc(c(-c5ccccc5)c5ccc([nH]5)c(-c5ccccc5)c5nc(c(-c6ccccc6)c6ccc3[nH]6)C=C5)C=C4)cc2)o1)c1ccccc1
REMARK SMILES IDX 15 1 14 2 12 3 13 4 11 6 8 7 9 8 69 9 10 10 7 11 6 12 4 13
REMARK SMILES IDX 5 14 3 16 2 17 1 18 70 19 71 20 75 21 72 22 74 23 73 24
REMARK SMILES IDX 16 25 17 26 18 27 19 28 20 30 21 31 22 32 68 33 23 34 67 35
REMARK SMILES IDX 24 36 25 37 26 38 61 39 27 40 66 41 60 42 62 43 28 44 65 45
REMARK SMILES IDX 59 46 58 47 29 49 51 50 36 51 50 52 37 53 40 54 49 55 63 56
REMARK SMILES IDX 38 57 39 58 48 60 64 61 41 62 30 63 31 64 35 65 32 66 34 67
REMARK SMILES IDX 33 68 52 69 53 70 57 71 54 72 56 73 55 74 42 75 43 76 47 77
REMARK SMILES IDX 44 78 46 79 45 80
REMARK H PARENT 14 5 6 15 18 29 62 48 40 59
REMARK Flexibility Score: inf
ROOT
ATOM      1  C   UNL A   1      36.142  20.223  24.897  1.00  0.00     0.118 C 
ENDROOT
BRANCH   1   2
ATOM      2  N   UNL A   1      35.210  19.124  25.028  1.00  0.00    -0.349 N 
ATOM      3  C   UNL A   1      33.860  19.042  24.777  1.00  0.00     0.286 C 
ATOM      4  O   UNL A   1      33.365  17.922  24.922  1.00  0.00    -0.266 OA
ATOM      5  H   UNL A   1      35.612  18.288  25.357  1.00  0.00     0.163 HD
BRANCH   3   6
ATOM      6  C   UNL A   1      33.084  20.197  24.360  1.00  0.00     0.191 A 
ATOM      7  C   UNL A   1      31.814  21.958  24.814  1.00  0.00     0.124 A 
ATOM      8  C   UNL A   1      31.948  21.927  23.446  1.00  0.00     0.048 A 
ATOM      9  O   UNL A   1      32.497  20.921  25.369  1.00  0.00    -0.454 OA
ATOM     10  C   UNL A   1      32.782  20.815  23.158  1.00  0.00     0.056 A 
BRANCH   7  11
ATOM     11  C   UNL A   1      31.129  22.867  25.760  1.00  0.00     0.191 C 
BRANCH  11  12
ATOM     12  N   UNL A   1      30.632  24.016  25.038  1.00  0.00    -0.348 N 
ATOM     13  C   UNL A   1      31.226  25.226  24.825  1.00  0.00     0.227 C 
ATOM     14  O   UNL A   1      30.640  26.017  24.085  1.00  0.00    -0.274 OA
ATOM     15  H   UNL A   1      29.736  23.910  24.643  1.00  0.00     0.163 HD
BRANCH  13  16
ATOM     16  C   UNL A   1      32.588  25.535  25.476  1.00  0.00     0.108 C 
BRANCH  16  17
ATOM     17  C   UNL A   1      33.739  25.205  24.498  1.00  0.00     0.015 C 
ATOM     18  C   UNL A   1      34.756  24.191  25.013  1.00  0.00     0.005 C 
ENDBRANCH  16  17
BRANCH  16  19
ATOM     19  C   UNL A   1      32.623  26.917  26.136  1.00  0.00    -0.036 A 
ATOM     20  C   UNL A   1      33.729  27.752  25.884  1.00  0.00     0.004 A 
ATOM     21  C   UNL A   1      31.598  27.418  26.952  1.00  0.00     0.004 A 
ATOM     22  C   UNL A   1      33.815  29.029  26.444  1.00  0.00     0.000 A 
ATOM     23  C   UNL A   1      31.685  28.697  27.513  1.00  0.00     0.000 A 
ATOM     24  C   UNL A   1      32.793  29.500  27.262  1.00  0.00     0.000 A 
ENDBRANCH  16  19
ENDBRANCH  13  16
ENDBRANCH  11  12
ENDBRANCH   7  11
ENDBRANCH   3   6
ENDBRANCH   1   2
BRANCH   1  25
ATOM     25  C   UNL A   1      37.570  19.730  24.672  1.00  0.00     0.042 C 
BRANCH  25  26
ATOM     26  C   UNL A   1      38.549  20.202  25.747  1.00  0.00     0.118 C 
BRANCH  26  27
ATOM     27  N   UNL A   1      39.745  19.373  25.796  1.00  0.00    -0.352 N 
ATOM     28  C   UNL A   1      41.051  19.701  26.056  1.00  0.00     0.251 C 
ATOM     29  H   UNL A   1      39.590  18.418  25.613  1.00  0.00     0.163 HD
ATOM     30  O   UNL A   1      41.934  18.882  25.815  1.00  0.00    -0.269 OA
BRANCH  28  31
ATOM     31  C   UNL A   1      41.413  21.020  26.618  1.00  0.00     0.039 A 
ATOM     32  C   UNL A   1      41.897  22.006  25.751  1.00  0.00     0.014 A 
ATOM     33  C   UNL A   1      41.355  21.272  27.992  1.00  0.00     0.014 A 
ATOM     34  C   UNL A   1      42.278  23.253  26.252  1.00  0.00     0.010 A 
ATOM     35  C   UNL A   1      41.674  22.536  28.484  1.00  0.00     0.010 A 
ATOM     36  C   UNL A   1      42.146  23.535  27.621  1.00  0.00    -0.014 A 
BRANCH  36  37
ATOM     37  C   UNL A   1      42.502  24.871  28.163  1.00  0.00     0.031 A 
ATOM     38  C   UNL A   1      43.920  25.183  28.551  1.00  0.00     0.074 A 
ATOM     39  C   UNL A   1      41.534  25.787  28.356  1.00  0.00     0.049 A 
ATOM     40  N   UNL A   1      44.409  26.275  29.085  1.00  0.00    -0.248 NA
ATOM     41  C   UNL A   1      44.916  24.122  28.334  1.00  0.00     0.031 C 
ATOM     42  C   UNL A   1      40.115  25.597  28.051  1.00  0.00     0.029 A 
ATOM     43  N   UNL A   1      41.599  27.062  28.859  1.00  0.00    -0.354 N 
ATOM     44  C   UNL A   1      45.762  26.026  29.283  1.00  0.00     0.074 A 
ATOM     45  C   UNL A   1      46.007  24.665  28.853  1.00  0.00     0.031 C 
ATOM     46  C   UNL A   1      39.448  26.725  28.349  1.00  0.00     0.029 A 
ATOM     47  C   UNL A   1      40.384  27.700  28.896  1.00  0.00     0.049 A 
ATOM     48  H   UNL A   1      42.438  27.478  29.165  1.00  0.00     0.167 HD
ATOM     49  C   UNL A   1      46.717  26.857  29.765  1.00  0.00     0.031 A 
ATOM     50  C   UNL A   1      40.059  28.934  29.325  1.00  0.00     0.031 A 
ATOM     51  C   UNL A   1      46.477  28.213  30.182  1.00  0.00     0.049 A 
ATOM     52  C   UNL A   1      41.134  29.835  29.858  1.00  0.00     0.074 A 
ATOM     53  C   UNL A   1      47.389  29.152  30.634  1.00  0.00     0.029 A 
ATOM     54  N   UNL A   1      45.232  28.823  30.199  1.00  0.00    -0.354 N 
ATOM     55  N   UNL A   1      42.418  29.604  29.986  1.00  0.00    -0.248 NA
ATOM     56  C   UNL A   1      40.715  31.175  30.295  1.00  0.00     0.031 C 
ATOM     57  C   UNL A   1      46.688  30.318  30.964  1.00  0.00     0.029 A 
ATOM     58  C   UNL A   1      45.348  30.120  30.673  1.00  0.00     0.049 A 
ATOM     59  H   UNL A   1      44.390  28.398  29.917  1.00  0.00     0.167 HD
ATOM     60  C   UNL A   1      42.964  30.775  30.496  1.00  0.00     0.074 A 
ATOM     61  C   UNL A   1      41.875  31.719  30.639  1.00  0.00     0.031 C 
ATOM     62  C   UNL A   1      44.253  31.044  30.815  1.00  0.00     0.031 A 
BRANCH  49  63
ATOM     63  C   UNL A   1      48.113  26.311  29.873  1.00  0.00    -0.014 A 
ATOM     64  C   UNL A   1      49.001  26.360  28.786  1.00  0.00     0.009 A 
ATOM     65  C   UNL A   1      48.555  25.757  31.085  1.00  0.00     0.009 A 
ATOM     66  C   UNL A   1      50.288  25.830  28.898  1.00  0.00     0.001 A 
ATOM     67  C   UNL A   1      49.851  25.253  31.203  1.00  0.00     0.001 A 
ATOM     68  C   UNL A   1      50.713  25.279  30.107  1.00  0.00     0.000 A 
ENDBRANCH  49  63
BRANCH  50  69
ATOM     69  C   UNL A   1      38.651  29.398  29.240  1.00  0.00    -0.014 A 
ATOM     70  C   UNL A   1      37.791  29.249  30.339  1.00  0.00     0.009 A 
ATOM     71  C   UNL A   1      38.162  29.996  28.069  1.00  0.00     0.009 A 
ATOM     72  C   UNL A   1      36.463  29.673  30.260  1.00  0.00     0.001 A 
ATOM     73  C   UNL A   1      36.840  30.442  28.001  1.00  0.00     0.001 A 
ATOM     74  C   UNL A   1      35.990  30.272  29.094  1.00  0.00     0.000 A 
ENDBRANCH  50  69
BRANCH  62  75
ATOM     75  C   UNL A   1      44.556  32.424  31.324  1.00  0.00    -0.014 A 
ATOM     76  C   UNL A   1      44.882  33.469  30.444  1.00  0.00     0.009 A 
ATOM     77  C   UNL A   1      44.487  32.688  32.700  1.00  0.00     0.009 A 
ATOM     78  C   UNL A   1      45.168  34.742  30.938  1.00  0.00     0.001 A 
ATOM     79  C   UNL A   1      44.747  33.969  33.189  1.00  0.00     0.001 A 
ATOM     80  C   UNL A   1      45.096  34.992  32.309  1.00  0.00     0.000 A 
ENDBRANCH  62  75
ENDBRANCH  36  37
ENDBRANCH  28  31
ENDBRANCH  26  27
ENDBRANCH  25  26
ENDBRANCH   1  25
TORSDOF 15
ENDMDL
