MODEL 1
REMARK VINA RESULT:     -11.0      0.000      0.000
REMARK SMILES O=C(CCn1cc(/C=C2/[NH+]=C(S)N(c3ccccc3)C2=O)c(-c2ccc(Br)cc2)n1)NCCCNC(=O)c1ccc(-c2c3nc(c(-c4ccccc4)c4ccc([nH]4)c(-c4ccccc4)c4nc(c(-c5ccccc5)c5ccc2[nH]5)C=C4)C=C3)cc1
REMARK SMILES IDX 32 1 31 2 1 3 2 4 3 6 4 7 5 8 6 9 30 10 7 11 22 12 8 13 9 14
REMARK SMILES IDX 10 15 20 16 11 17 13 19 21 20 12 21 14 23 15 24 19 25 16 26
REMARK SMILES IDX 18 27 17 28 23 29 24 30 29 31 25 32 28 33 26 34 27 35 33 36
REMARK SMILES IDX 34 37 35 38 36 39 37 41 38 42 39 43 85 44 40 45 84 46 41 47
REMARK SMILES IDX 42 48 43 49 78 50 44 51 83 52 77 53 79 54 45 55 82 56 76 57
REMARK SMILES IDX 75 58 46 60 68 61 53 62 67 63 54 64 57 65 66 66 80 67 55 68
REMARK SMILES IDX 56 69 65 71 81 72 58 73 47 74 48 75 52 76 49 77 51 78 50 79
REMARK SMILES IDX 69 80 70 81 74 82 71 83 73 84 72 85 59 86 60 87 64 88 61 89
REMARK SMILES IDX 63 90 62 91
REMARK H PARENT 31 5 10 18 12 22 35 40 79 59 57 70
REMARK Flexibility Score: inf
ROOT
ATOM      1  C   UNL A   1      33.658  35.673  28.698  1.00  0.00     0.117 C 
ENDROOT
BRANCH   1   2
ATOM      2  N   UNL A   1      33.803  35.234  30.086  1.00  0.00    -0.356 N 
ATOM      3  O   UNL A   1      32.429  36.806  30.997  1.00  0.00    -0.275 OA
ATOM      4  C   UNL A   1      33.161  35.829  31.143  1.00  0.00     0.221 C 
ATOM      5  H   UNL A   1      34.394  34.468  30.272  1.00  0.00     0.163 HD
BRANCH   4   6
ATOM      6  C   UNL A   1      33.480  35.318  32.545  1.00  0.00     0.123 C 
BRANCH   6   7
ATOM      7  C   UNL A   1      33.934  33.866  32.671  1.00  0.00     0.154 C 
BRANCH   7   8
ATOM      8  N   UNL A   1      35.366  33.624  32.714  1.00  0.00    -0.271 N 
ATOM      9  C   UNL A   1      36.049  32.774  33.532  1.00  0.00     0.117 A 
ATOM     10  N   UNL A   1      36.169  34.303  31.861  1.00  0.00    -0.172 NA
ATOM     11  C   UNL A   1      37.372  33.070  33.331  1.00  0.00     0.025 A 
ATOM     12  C   UNL A   1      37.413  33.925  32.198  1.00  0.00     0.100 A 
BRANCH  11  13
ATOM     13  C   UNL A   1      38.451  32.458  34.006  1.00  0.00     0.072 C 
ATOM     14  C   UNL A   1      38.942  32.699  35.230  1.00  0.00     0.217 C 
ATOM     15  N   UNL A   1      40.172  32.252  35.633  1.00  0.00    -0.228 N 
ATOM     16  C   UNL A   1      38.332  33.498  36.332  1.00  0.00     0.386 C 
ATOM     17  C   UNL A   1      40.352  32.803  36.790  1.00  0.00     0.321 C 
ATOM     18  H   UNL A   1      40.783  31.649  35.150  1.00  0.00     0.313 HD
ATOM     19  N   UNL A   1      39.378  33.663  37.211  1.00  0.00    -0.149 N 
ATOM     20  O   UNL A   1      37.157  33.825  36.390  1.00  0.00    -0.236 OA
BRANCH  17  21
ATOM     21  S   UNL A   1      41.715  32.320  37.750  1.00  0.00    -0.055 SA
ATOM     22  H   UNL A   1      42.518  33.395  37.969  1.00  0.00     0.116 HD
ENDBRANCH  17  21
BRANCH  19  23
ATOM     23  C   UNL A   1      39.409  34.639  38.242  1.00  0.00     0.137 A 
ATOM     24  C   UNL A   1      39.738  35.978  37.970  1.00  0.00     0.052 A 
ATOM     25  C   UNL A   1      38.985  34.337  39.544  1.00  0.00     0.052 A 
ATOM     26  C   UNL A   1      39.681  36.964  38.958  1.00  0.00     0.004 A 
ATOM     27  C   UNL A   1      38.902  35.326  40.529  1.00  0.00     0.004 A 
ATOM     28  C   UNL A   1      39.255  36.639  40.237  1.00  0.00     0.000 A 
ENDBRANCH  19  23
ENDBRANCH  11  13
BRANCH  12  29
ATOM     29  C   UNL A   1      38.625  34.330  31.483  1.00  0.00     0.003 A 
ATOM     30  C   UNL A   1      38.585  34.495  30.085  1.00  0.00     0.011 A 
ATOM     31  C   UNL A   1      39.859  34.339  32.137  1.00  0.00     0.011 A 
ATOM     32  C   UNL A   1      39.765  34.588  29.344  1.00  0.00     0.016 A 
ATOM     33  C   UNL A   1      41.042  34.446  31.395  1.00  0.00     0.016 A 
ATOM     34  C   UNL A   1      40.989  34.556  30.005  1.00  0.00     0.018 A 
ATOM     35  Br  UNL A   1      42.589  34.641  29.004  1.00  0.00    -0.051 Br
ENDBRANCH  12  29
ENDBRANCH   7   8
ENDBRANCH   6   7
ENDBRANCH   4   6
ENDBRANCH   1   2
BRANCH   1  36
ATOM     36  C   UNL A   1      34.636  35.004  27.724  1.00  0.00     0.042 C 
BRANCH  36  37
ATOM     37  C   UNL A   1      35.068  33.621  28.169  1.00  0.00     0.118 C 
BRANCH  37  38
ATOM     38  N   UNL A   1      34.212  32.489  27.863  1.00  0.00    -0.352 N 
ATOM     39  C   UNL A   1      34.505  31.132  27.923  1.00  0.00     0.251 C 
ATOM     40  H   UNL A   1      33.299  32.713  27.572  1.00  0.00     0.163 HD
ATOM     41  O   UNL A   1      33.651  30.324  27.561  1.00  0.00    -0.269 OA
BRANCH  39  42
ATOM     42  C   UNL A   1      35.787  30.609  28.498  1.00  0.00     0.039 A 
ATOM     43  C   UNL A   1      36.454  31.295  29.528  1.00  0.00     0.014 A 
ATOM     44  C   UNL A   1      36.456  29.542  27.910  1.00  0.00     0.014 A 
ATOM     45  C   UNL A   1      37.803  31.001  29.816  1.00  0.00     0.010 A 
ATOM     46  C   UNL A   1      37.747  29.216  28.220  1.00  0.00     0.010 A 
ATOM     47  C   UNL A   1      38.471  30.025  29.071  1.00  0.00    -0.014 A 
BRANCH  47  48
ATOM     48  C   UNL A   1      39.844  29.573  29.273  1.00  0.00     0.031 A 
ATOM     49  C   UNL A   1      40.115  29.477  30.721  1.00  0.00     0.074 A 
ATOM     50  C   UNL A   1      40.602  28.920  28.358  1.00  0.00     0.049 A 
ATOM     51  N   UNL A   1      40.721  30.362  31.442  1.00  0.00    -0.248 NA
ATOM     52  C   UNL A   1      39.385  28.456  31.504  1.00  0.00     0.031 C 
ATOM     53  C   UNL A   1      40.318  28.655  26.947  1.00  0.00     0.029 A 
ATOM     54  N   UNL A   1      41.767  28.228  28.537  1.00  0.00    -0.354 N 
ATOM     55  C   UNL A   1      40.669  29.836  32.722  1.00  0.00     0.074 A 
ATOM     56  C   UNL A   1      39.547  28.939  32.736  1.00  0.00     0.031 C 
ATOM     57  C   UNL A   1      41.113  27.665  26.476  1.00  0.00     0.029 A 
ATOM     58  C   UNL A   1      42.106  27.368  27.491  1.00  0.00     0.049 A 
ATOM     59  H   UNL A   1      42.324  28.329  29.342  1.00  0.00     0.167 HD
ATOM     60  C   UNL A   1      41.797  29.759  33.479  1.00  0.00     0.031 A 
ATOM     61  C   UNL A   1      43.154  26.506  27.444  1.00  0.00     0.031 A 
ATOM     62  C   UNL A   1      42.878  30.492  32.862  1.00  0.00     0.049 A 
ATOM     63  C   UNL A   1      44.135  26.978  28.442  1.00  0.00     0.074 A 
ATOM     64  C   UNL A   1      43.175  31.811  32.602  1.00  0.00     0.029 A 
ATOM     65  N   UNL A   1      43.645  29.727  32.017  1.00  0.00    -0.354 N 
ATOM     66  N   UNL A   1      44.793  28.093  28.313  1.00  0.00    -0.248 NA
ATOM     67  C   UNL A   1      44.139  26.396  29.778  1.00  0.00     0.031 C 
ATOM     68  C   UNL A   1      44.020  31.811  31.452  1.00  0.00     0.029 A 
ATOM     69  C   UNL A   1      44.259  30.494  31.065  1.00  0.00     0.049 A 
ATOM     70  H   UNL A   1      43.740  28.750  32.088  1.00  0.00     0.167 HD
ATOM     71  C   UNL A   1      44.876  28.580  29.602  1.00  0.00     0.074 A 
ATOM     72  C   UNL A   1      44.647  27.425  30.463  1.00  0.00     0.031 C 
ATOM     73  C   UNL A   1      44.779  29.918  29.843  1.00  0.00     0.031 A 
BRANCH  60  74
ATOM     74  C   UNL A   1      42.094  28.616  34.429  1.00  0.00    -0.014 A 
ATOM     75  C   UNL A   1      42.539  27.405  33.875  1.00  0.00     0.009 A 
ATOM     76  C   UNL A   1      41.720  28.580  35.788  1.00  0.00     0.009 A 
ATOM     77  C   UNL A   1      42.560  26.223  34.625  1.00  0.00     0.001 A 
ATOM     78  C   UNL A   1      41.774  27.413  36.552  1.00  0.00     0.001 A 
ATOM     79  C   UNL A   1      42.172  26.226  35.962  1.00  0.00     0.000 A 
ENDBRANCH  60  74
BRANCH  61  80
ATOM     80  C   UNL A   1      43.388  25.244  26.708  1.00  0.00    -0.014 A 
ATOM     81  C   UNL A   1      42.474  24.177  26.808  1.00  0.00     0.009 A 
ATOM     82  C   UNL A   1      44.322  25.206  25.660  1.00  0.00     0.009 A 
ATOM     83  C   UNL A   1      42.448  23.150  25.854  1.00  0.00     0.001 A 
ATOM     84  C   UNL A   1      44.294  24.180  24.705  1.00  0.00     0.001 A 
ATOM     85  C   UNL A   1      43.344  23.165  24.789  1.00  0.00     0.000 A 
ENDBRANCH  61  80
BRANCH  73  86
ATOM     86  C   UNL A   1      45.069  30.844  28.694  1.00  0.00    -0.014 A 
ATOM     87  C   UNL A   1      46.342  31.369  28.412  1.00  0.00     0.009 A 
ATOM     88  C   UNL A   1      44.013  31.143  27.821  1.00  0.00     0.009 A 
ATOM     89  C   UNL A   1      46.540  32.193  27.297  1.00  0.00     0.001 A 
ATOM     90  C   UNL A   1      44.217  31.948  26.700  1.00  0.00     0.001 A 
ATOM     91  C   UNL A   1      45.478  32.477  26.441  1.00  0.00     0.000 A 
ENDBRANCH  73  86
ENDBRANCH  47  48
ENDBRANCH  39  42
ENDBRANCH  37  38
ENDBRANCH  36  37
ENDBRANCH   1  36
TORSDOF 16
ENDMDL
MODEL 2
REMARK VINA RESULT:     -10.3      5.093     11.552
REMARK SMILES O=C(CCn1cc(/C=C2/[NH+]=C(S)N(c3ccccc3)C2=O)c(-c2ccc(Br)cc2)n1)NCCCNC(=O)c1ccc(-c2c3nc(c(-c4ccccc4)c4ccc([nH]4)c(-c4ccccc4)c4nc(c(-c5ccccc5)c5ccc2[nH]5)C=C4)C=C3)cc1
REMARK SMILES IDX 32 1 31 2 1 3 2 4 3 6 4 7 5 8 6 9 30 10 7 11 22 12 8 13 9 14
REMARK SMILES IDX 10 15 20 16 11 17 13 19 21 20 12 21 14 23 15 24 19 25 16 26
REMARK SMILES IDX 18 27 17 28 23 29 24 30 29 31 25 32 28 33 26 34 27 35 33 36
REMARK SMILES IDX 34 37 35 38 36 39 37 41 38 42 39 43 85 44 40 45 84 46 41 47
REMARK SMILES IDX 42 48 43 49 78 50 44 51 83 52 77 53 79 54 45 55 82 56 76 57
REMARK SMILES IDX 75 58 46 60 68 61 53 62 67 63 54 64 57 65 66 66 80 67 55 68
REMARK SMILES IDX 56 69 65 71 81 72 58 73 47 74 48 75 52 76 49 77 51 78 50 79
REMARK SMILES IDX 69 80 70 81 74 82 71 83 73 84 72 85 59 86 60 87 64 88 61 89
REMARK SMILES IDX 63 90 62 91
REMARK H PARENT 31 5 10 18 12 22 35 40 79 59 57 70
REMARK Flexibility Score: inf
ROOT
ATOM      1  C   UNL A   1      43.699  25.203  25.433  1.00  0.00     0.117 C 
ENDROOT
BRANCH   1   2
ATOM      2  N   UNL A   1      44.879  25.022  26.280  1.00  0.00    -0.356 N 
ATOM      3  O   UNL A   1      46.400  25.785  24.766  1.00  0.00    -0.275 OA
ATOM      4  C   UNL A   1      46.154  25.341  25.886  1.00  0.00     0.221 C 
ATOM      5  H   UNL A   1      44.750  24.648  27.182  1.00  0.00     0.163 HD
BRANCH   4   6
ATOM      6  C   UNL A   1      47.295  25.012  26.844  1.00  0.00     0.123 C 
BRANCH   6   7
ATOM      7  C   UNL A   1      47.842  26.154  27.696  1.00  0.00     0.154 C 
BRANCH   7   8
ATOM      8  N   UNL A   1      47.618  26.075  29.128  1.00  0.00    -0.271 N 
ATOM      9  C   UNL A   1      48.495  26.365  30.132  1.00  0.00     0.117 A 
ATOM     10  N   UNL A   1      46.411  25.661  29.579  1.00  0.00    -0.172 NA
ATOM     11  C   UNL A   1      47.884  25.925  31.278  1.00  0.00     0.025 A 
ATOM     12  C   UNL A   1      46.547  25.618  30.914  1.00  0.00     0.100 A 
BRANCH  11  13
ATOM     13  C   UNL A   1      48.449  25.986  32.571  1.00  0.00     0.072 C 
ATOM     14  C   UNL A   1      49.399  25.220  33.126  1.00  0.00     0.217 C 
ATOM     15  N   UNL A   1      49.628  25.190  34.475  1.00  0.00    -0.228 N 
ATOM     16  C   UNL A   1      50.317  24.253  32.458  1.00  0.00     0.386 C 
ATOM     17  C   UNL A   1      50.493  24.242  34.635  1.00  0.00     0.321 C 
ATOM     18  H   UNL A   1      49.224  25.762  35.169  1.00  0.00     0.313 HD
ATOM     19  N   UNL A   1      50.845  23.545  33.514  1.00  0.00    -0.149 N 
ATOM     20  O   UNL A   1      50.539  24.215  31.257  1.00  0.00    -0.236 OA
BRANCH  17  21
ATOM     21  S   UNL A   1      51.218  24.017  36.196  1.00  0.00    -0.055 SA
ATOM     22  H   UNL A   1      50.252  24.036  37.152  1.00  0.00     0.116 HD
ENDBRANCH  17  21
BRANCH  19  23
ATOM     23  C   UNL A   1      51.498  22.291  33.389  1.00  0.00     0.137 A 
ATOM     24  C   UNL A   1      52.766  22.185  32.792  1.00  0.00     0.052 A 
ATOM     25  C   UNL A   1      50.967  21.132  33.972  1.00  0.00     0.052 A 
ATOM     26  C   UNL A   1      53.458  20.972  32.747  1.00  0.00     0.004 A 
ATOM     27  C   UNL A   1      51.668  19.921  33.951  1.00  0.00     0.004 A 
ATOM     28  C   UNL A   1      52.912  19.840  33.334  1.00  0.00     0.000 A 
ENDBRANCH  19  23
ENDBRANCH  11  13
BRANCH  12  29
ATOM     29  C   UNL A   1      45.462  25.313  31.849  1.00  0.00     0.003 A 
ATOM     30  C   UNL A   1      45.211  26.179  32.930  1.00  0.00     0.011 A 
ATOM     31  C   UNL A   1      44.824  24.071  31.808  1.00  0.00     0.011 A 
ATOM     32  C   UNL A   1      44.398  25.778  33.992  1.00  0.00     0.016 A 
ATOM     33  C   UNL A   1      43.998  23.674  32.866  1.00  0.00     0.016 A 
ATOM     34  C   UNL A   1      43.800  24.523  33.956  1.00  0.00     0.018 A 
ATOM     35  Br  UNL A   1      42.732  23.959  35.409  1.00  0.00    -0.051 Br
ENDBRANCH  12  29
ENDBRANCH   7   8
ENDBRANCH   6   7
ENDBRANCH   4   6
ENDBRANCH   1   2
BRANCH   1  36
ATOM     36  C   UNL A   1      43.309  23.959  24.627  1.00  0.00     0.042 C 
BRANCH  36  37
ATOM     37  C   UNL A   1      43.295  22.691  25.457  1.00  0.00     0.118 C 
BRANCH  37  38
ATOM     38  N   UNL A   1      42.062  21.931  25.551  1.00  0.00    -0.352 N 
ATOM     39  C   UNL A   1      40.933  22.191  26.319  1.00  0.00     0.251 C 
ATOM     40  H   UNL A   1      42.018  21.121  24.994  1.00  0.00     0.163 HD
ATOM     41  O   UNL A   1      40.005  21.383  26.303  1.00  0.00    -0.269 OA
BRANCH  39  42
ATOM     42  C   UNL A   1      40.762  23.461  27.097  1.00  0.00     0.039 A 
ATOM     43  C   UNL A   1      39.910  24.482  26.641  1.00  0.00     0.014 A 
ATOM     44  C   UNL A   1      41.576  23.753  28.185  1.00  0.00     0.014 A 
ATOM     45  C   UNL A   1      40.018  25.784  27.172  1.00  0.00     0.010 A 
ATOM     46  C   UNL A   1      41.649  24.999  28.742  1.00  0.00     0.010 A 
ATOM     47  C   UNL A   1      40.977  26.051  28.154  1.00  0.00    -0.014 A 
BRANCH  47  48
ATOM     48  C   UNL A   1      41.185  27.325  28.835  1.00  0.00     0.031 A 
ATOM     49  C   UNL A   1      42.317  28.033  28.205  1.00  0.00     0.074 A 
ATOM     50  C   UNL A   1      40.265  27.976  29.589  1.00  0.00     0.049 A 
ATOM     51  N   UNL A   1      43.535  28.058  28.638  1.00  0.00    -0.248 NA
ATOM     52  C   UNL A   1      42.162  28.503  26.811  1.00  0.00     0.031 C 
ATOM     53  C   UNL A   1      38.947  27.518  30.032  1.00  0.00     0.029 A 
ATOM     54  N   UNL A   1      40.266  29.270  30.027  1.00  0.00    -0.354 N 
ATOM     55  C   UNL A   1      44.211  28.793  27.679  1.00  0.00     0.074 A 
ATOM     56  C   UNL A   1      43.440  28.674  26.473  1.00  0.00     0.031 C 
ATOM     57  C   UNL A   1      38.183  28.565  30.425  1.00  0.00     0.029 A 
ATOM     58  C   UNL A   1      39.026  29.745  30.461  1.00  0.00     0.049 A 
ATOM     59  H   UNL A   1      41.079  29.825  30.037  1.00  0.00     0.167 HD
ATOM     60  C   UNL A   1      45.013  29.829  28.048  1.00  0.00     0.031 A 
ATOM     61  C   UNL A   1      38.726  31.007  30.863  1.00  0.00     0.031 A 
ATOM     62  C   UNL A   1      45.209  29.839  29.479  1.00  0.00     0.049 A 
ATOM     63  C   UNL A   1      40.003  31.647  31.235  1.00  0.00     0.074 A 
ATOM     64  C   UNL A   1      45.847  29.050  30.409  1.00  0.00     0.029 A 
ATOM     65  N   UNL A   1      44.280  30.594  30.153  1.00  0.00    -0.354 N 
ATOM     66  N   UNL A   1      40.706  31.276  32.265  1.00  0.00    -0.248 NA
ATOM     67  C   UNL A   1      40.702  32.476  30.262  1.00  0.00     0.031 C 
ATOM     68  C   UNL A   1      45.146  29.236  31.638  1.00  0.00     0.029 A 
ATOM     69  C   UNL A   1      44.129  30.168  31.444  1.00  0.00     0.049 A 
ATOM     70  H   UNL A   1      43.785  31.347  29.755  1.00  0.00     0.167 HD
ATOM     71  C   UNL A   1      42.013  31.412  31.841  1.00  0.00     0.074 A 
ATOM     72  C   UNL A   1      41.954  32.326  30.706  1.00  0.00     0.031 C 
ATOM     73  C   UNL A   1      42.960  30.511  32.226  1.00  0.00     0.031 A 
BRANCH  60  74
ATOM     74  C   UNL A   1      45.151  31.109  27.248  1.00  0.00    -0.014 A 
ATOM     75  C   UNL A   1      46.447  31.597  27.014  1.00  0.00     0.009 A 
ATOM     76  C   UNL A   1      44.089  31.985  26.941  1.00  0.00     0.009 A 
ATOM     77  C   UNL A   1      46.663  32.899  26.548  1.00  0.00     0.001 A 
ATOM     78  C   UNL A   1      44.297  33.272  26.442  1.00  0.00     0.001 A 
ATOM     79  C   UNL A   1      45.589  33.738  26.267  1.00  0.00     0.000 A 
ENDBRANCH  60  74
BRANCH  61  80
ATOM     80  C   UNL A   1      37.468  31.786  30.877  1.00  0.00    -0.014 A 
ATOM     81  C   UNL A   1      36.920  32.284  29.679  1.00  0.00     0.009 A 
ATOM     82  C   UNL A   1      36.640  31.760  32.011  1.00  0.00     0.009 A 
ATOM     83  C   UNL A   1      35.575  32.670  29.601  1.00  0.00     0.001 A 
ATOM     84  C   UNL A   1      35.294  32.145  31.932  1.00  0.00     0.001 A 
ATOM     85  C   UNL A   1      34.756  32.579  30.722  1.00  0.00     0.000 A 
ENDBRANCH  61  80
BRANCH  73  86
ATOM     86  C   UNL A   1      42.675  29.700  33.461  1.00  0.00    -0.014 A 
ATOM     87  C   UNL A   1      43.072  30.076  34.755  1.00  0.00     0.009 A 
ATOM     88  C   UNL A   1      41.911  28.534  33.307  1.00  0.00     0.009 A 
ATOM     89  C   UNL A   1      42.731  29.288  35.861  1.00  0.00     0.001 A 
ATOM     90  C   UNL A   1      41.556  27.760  34.411  1.00  0.00     0.001 A 
ATOM     91  C   UNL A   1      41.970  28.133  35.687  1.00  0.00     0.000 A 
ENDBRANCH  73  86
ENDBRANCH  47  48
ENDBRANCH  39  42
ENDBRANCH  37  38
ENDBRANCH  36  37
ENDBRANCH   1  36
TORSDOF 16
ENDMDL
MODEL 3
REMARK VINA RESULT:     -10.3      6.029     12.431
REMARK SMILES O=C(CCn1cc(/C=C2/[NH+]=C(S)N(c3ccccc3)C2=O)c(-c2ccc(Br)cc2)n1)NCCCNC(=O)c1ccc(-c2c3nc(c(-c4ccccc4)c4ccc([nH]4)c(-c4ccccc4)c4nc(c(-c5ccccc5)c5ccc2[nH]5)C=C4)C=C3)cc1
REMARK SMILES IDX 32 1 31 2 1 3 2 4 3 6 4 7 5 8 6 9 30 10 7 11 22 12 8 13 9 14
REMARK SMILES IDX 10 15 20 16 11 17 13 19 21 20 12 21 14 23 15 24 19 25 16 26
REMARK SMILES IDX 18 27 17 28 23 29 24 30 29 31 25 32 28 33 26 34 27 35 33 36
REMARK SMILES IDX 34 37 35 38 36 39 37 41 38 42 39 43 85 44 40 45 84 46 41 47
REMARK SMILES IDX 42 48 43 49 78 50 44 51 83 52 77 53 79 54 45 55 82 56 76 57
REMARK SMILES IDX 75 58 46 60 68 61 53 62 67 63 54 64 57 65 66 66 80 67 55 68
REMARK SMILES IDX 56 69 65 71 81 72 58 73 47 74 48 75 52 76 49 77 51 78 50 79
REMARK SMILES IDX 69 80 70 81 74 82 71 83 73 84 72 85 59 86 60 87 64 88 61 89
REMARK SMILES IDX 63 90 62 91
REMARK H PARENT 31 5 10 18 12 22 35 40 79 59 57 70
REMARK Flexibility Score: inf
ROOT
ATOM      1  C   UNL A   1      42.595  22.783  26.224  1.00  0.00     0.117 C 
ENDROOT
BRANCH   1   2
ATOM      2  N   UNL A   1      41.246  22.358  25.847  1.00  0.00    -0.356 N 
ATOM      3  O   UNL A   1      40.739  21.335  27.818  1.00  0.00    -0.275 OA
ATOM      4  C   UNL A   1      40.403  21.670  26.683  1.00  0.00     0.221 C 
ATOM      5  H   UNL A   1      40.927  22.577  24.941  1.00  0.00     0.163 HD
BRANCH   4   6
ATOM      6  C   UNL A   1      39.061  21.215  26.119  1.00  0.00     0.123 C 
BRANCH   6   7
ATOM      7  C   UNL A   1      38.107  22.301  25.628  1.00  0.00     0.154 C 
BRANCH   7   8
ATOM      8  N   UNL A   1      36.809  21.868  25.140  1.00  0.00    -0.271 N 
ATOM      9  C   UNL A   1      35.886  22.597  24.450  1.00  0.00     0.117 A 
ATOM     10  N   UNL A   1      36.414  20.595  25.375  1.00  0.00    -0.172 NA
ATOM     11  C   UNL A   1      34.763  21.813  24.417  1.00  0.00     0.025 A 
ATOM     12  C   UNL A   1      35.167  20.533  24.881  1.00  0.00     0.100 A 
BRANCH  11  13
ATOM     13  C   UNL A   1      33.533  22.184  23.832  1.00  0.00     0.072 C 
ATOM     14  C   UNL A   1      32.881  23.355  23.883  1.00  0.00     0.217 C 
ATOM     15  N   UNL A   1      31.563  23.481  23.535  1.00  0.00    -0.228 N 
ATOM     16  C   UNL A   1      33.387  24.678  24.349  1.00  0.00     0.386 C 
ATOM     17  C   UNL A   1      31.259  24.697  23.857  1.00  0.00     0.321 C 
ATOM     18  H   UNL A   1      30.977  22.800  23.132  1.00  0.00     0.313 HD
ATOM     19  N   UNL A   1      32.237  25.425  24.473  1.00  0.00    -0.149 N 
ATOM     20  O   UNL A   1      34.566  24.963  24.495  1.00  0.00    -0.236 OA
BRANCH  17  21
ATOM     21  S   UNL A   1      29.717  25.336  23.379  1.00  0.00    -0.055 SA
ATOM     22  H   UNL A   1      29.466  26.479  24.070  1.00  0.00     0.116 HD
ENDBRANCH  17  21
BRANCH  19  23
ATOM     23  C   UNL A   1      32.145  26.633  25.213  1.00  0.00     0.137 A 
ATOM     24  C   UNL A   1      31.573  26.661  26.496  1.00  0.00     0.052 A 
ATOM     25  C   UNL A   1      32.738  27.817  24.752  1.00  0.00     0.052 A 
ATOM     26  C   UNL A   1      31.560  27.824  27.270  1.00  0.00     0.004 A 
ATOM     27  C   UNL A   1      32.750  28.976  25.534  1.00  0.00     0.004 A 
ATOM     28  C   UNL A   1      32.157  28.981  26.791  1.00  0.00     0.000 A 
ENDBRANCH  19  23
ENDBRANCH  11  13
BRANCH  12  29
ATOM     29  C   UNL A   1      34.358  19.314  24.822  1.00  0.00     0.003 A 
ATOM     30  C   UNL A   1      33.162  19.237  25.562  1.00  0.00     0.011 A 
ATOM     31  C   UNL A   1      34.865  18.159  24.223  1.00  0.00     0.011 A 
ATOM     32  C   UNL A   1      32.527  18.010  25.766  1.00  0.00     0.016 A 
ATOM     33  C   UNL A   1      34.220  16.931  24.415  1.00  0.00     0.016 A 
ATOM     34  C   UNL A   1      33.065  16.861  25.194  1.00  0.00     0.018 A 
ATOM     35  Br  UNL A   1      32.232  15.193  25.499  1.00  0.00    -0.051 Br
ENDBRANCH  12  29
ENDBRANCH   7   8
ENDBRANCH   6   7
ENDBRANCH   4   6
ENDBRANCH   1   2
BRANCH   1  36
ATOM     36  C   UNL A   1      43.712  22.122  25.408  1.00  0.00     0.042 C 
BRANCH  36  37
ATOM     37  C   UNL A   1      44.305  23.039  24.358  1.00  0.00     0.118 C 
BRANCH  37  38
ATOM     38  N   UNL A   1      45.632  23.589  24.579  1.00  0.00    -0.352 N 
ATOM     39  C   UNL A   1      45.994  24.752  25.247  1.00  0.00     0.251 C 
ATOM     40  H   UNL A   1      46.376  23.065  24.206  1.00  0.00     0.163 HD
ATOM     41  O   UNL A   1      47.180  25.077  25.274  1.00  0.00    -0.269 OA
BRANCH  39  42
ATOM     42  C   UNL A   1      45.008  25.582  26.014  1.00  0.00     0.039 A 
ATOM     43  C   UNL A   1      44.024  26.336  25.352  1.00  0.00     0.014 A 
ATOM     44  C   UNL A   1      45.149  25.784  27.382  1.00  0.00     0.014 A 
ATOM     45  C   UNL A   1      43.342  27.365  26.035  1.00  0.00     0.010 A 
ATOM     46  C   UNL A   1      44.454  26.744  28.064  1.00  0.00     0.010 A 
ATOM     47  C   UNL A   1      43.652  27.628  27.373  1.00  0.00    -0.014 A 
BRANCH  47  48
ATOM     48  C   UNL A   1      43.009  28.620  28.230  1.00  0.00     0.031 A 
ATOM     49  C   UNL A   1      43.764  29.887  28.154  1.00  0.00     0.074 A 
ATOM     50  C   UNL A   1      41.724  28.577  28.660  1.00  0.00     0.049 A 
ATOM     51  N   UNL A   1      44.641  30.302  29.007  1.00  0.00    -0.248 NA
ATOM     52  C   UNL A   1      43.777  30.619  26.869  1.00  0.00     0.031 C 
ATOM     53  C   UNL A   1      40.744  27.499  28.524  1.00  0.00     0.029 A 
ATOM     54  N   UNL A   1      40.967  29.567  29.219  1.00  0.00    -0.354 N 
ATOM     55  C   UNL A   1      45.093  31.492  28.464  1.00  0.00     0.074 A 
ATOM     56  C   UNL A   1      44.839  31.403  27.052  1.00  0.00     0.031 C 
ATOM     57  C   UNL A   1      39.489  27.965  28.728  1.00  0.00     0.029 A 
ATOM     58  C   UNL A   1      39.591  29.328  29.215  1.00  0.00     0.049 A 
ATOM     59  H   UNL A   1      41.361  30.386  29.596  1.00  0.00     0.167 HD
ATOM     60  C   UNL A   1      45.144  32.619  29.225  1.00  0.00     0.031 A 
ATOM     61  C   UNL A   1      38.610  30.173  29.624  1.00  0.00     0.031 A 
ATOM     62  C   UNL A   1      44.917  32.307  30.617  1.00  0.00     0.049 A 
ATOM     63  C   UNL A   1      39.248  31.160  30.518  1.00  0.00     0.074 A 
ATOM     64  C   UNL A   1      45.585  31.635  31.616  1.00  0.00     0.029 A 
ATOM     65  N   UNL A   1      43.594  32.372  30.982  1.00  0.00    -0.354 N 
ATOM     66  N   UNL A   1      39.735  30.847  31.683  1.00  0.00    -0.248 NA
ATOM     67  C   UNL A   1      39.677  32.444  29.981  1.00  0.00     0.031 C 
ATOM     68  C   UNL A   1      44.583  31.151  32.509  1.00  0.00     0.029 A 
ATOM     69  C   UNL A   1      43.334  31.576  32.065  1.00  0.00     0.049 A 
ATOM     70  H   UNL A   1      42.919  32.923  30.523  1.00  0.00     0.167 HD
ATOM     71  C   UNL A   1      40.862  31.637  31.794  1.00  0.00     0.074 A 
ATOM     72  C   UNL A   1      40.666  32.720  30.836  1.00  0.00     0.031 C 
ATOM     73  C   UNL A   1      41.988  31.155  32.392  1.00  0.00     0.031 A 
BRANCH  60  74
ATOM     74  C   UNL A   1      44.839  34.005  28.693  1.00  0.00    -0.014 A 
ATOM     75  C   UNL A   1      43.498  34.320  28.421  1.00  0.00     0.009 A 
ATOM     76  C   UNL A   1      45.804  34.912  28.208  1.00  0.00     0.009 A 
ATOM     77  C   UNL A   1      43.152  35.448  27.667  1.00  0.00     0.001 A 
ATOM     78  C   UNL A   1      45.463  36.058  27.488  1.00  0.00     0.001 A 
ATOM     79  C   UNL A   1      44.134  36.314  27.197  1.00  0.00     0.000 A 
ENDBRANCH  60  74
BRANCH  61  80
ATOM     80  C   UNL A   1      37.181  30.306  29.264  1.00  0.00    -0.014 A 
ATOM     81  C   UNL A   1      36.327  31.135  30.017  1.00  0.00     0.009 A 
ATOM     82  C   UNL A   1      36.734  29.885  28.001  1.00  0.00     0.009 A 
ATOM     83  C   UNL A   1      35.107  31.586  29.495  1.00  0.00     0.001 A 
ATOM     84  C   UNL A   1      35.514  30.337  27.479  1.00  0.00     0.001 A 
ATOM     85  C   UNL A   1      34.711  31.205  28.216  1.00  0.00     0.000 A 
ENDBRANCH  61  80
BRANCH  73  86
ATOM     86  C   UNL A   1      41.822  29.988  33.326  1.00  0.00    -0.014 A 
ATOM     87  C   UNL A   1      41.956  28.645  32.934  1.00  0.00     0.009 A 
ATOM     88  C   UNL A   1      41.583  30.270  34.679  1.00  0.00     0.009 A 
ATOM     89  C   UNL A   1      41.828  27.614  33.873  1.00  0.00     0.001 A 
ATOM     90  C   UNL A   1      41.476  29.243  35.616  1.00  0.00     0.001 A 
ATOM     91  C   UNL A   1      41.592  27.916  35.214  1.00  0.00     0.000 A 
ENDBRANCH  73  86
ENDBRANCH  47  48
ENDBRANCH  39  42
ENDBRANCH  37  38
ENDBRANCH  36  37
ENDBRANCH   1  36
TORSDOF 16
ENDMDL
