MODEL 1
REMARK VINA RESULT:     -12.5      0.000      0.000
REMARK SMILES C[N@@H+]1CCN(C(=O)c2cnn3c2CCCC3)C[C@H]1C(=O)NCCCNC(=O)c1ccc(-c2c3nc(c(-c4ccccc4)c4ccc([nH]4)c(-c4ccccc4)c4nc(c(-c5ccccc5)c5ccc2[nH]5)C=C4)C=C3)cc1
REMARK SMILES IDX 23 1 22 2 21 3 19 4 20 5 18 7 1 8 2 9 3 10 4 12 17 13 5 14
REMARK SMILES IDX 6 15 7 16 8 17 9 18 12 19 10 20 11 21 13 22 16 23 14 24
REMARK SMILES IDX 15 25 24 26 25 27 26 28 27 30 28 31 29 32 75 33 30 34 74 35
REMARK SMILES IDX 31 36 32 37 33 38 68 39 34 40 73 41 67 42 69 43 35 44 72 45
REMARK SMILES IDX 66 46 65 47 36 49 58 50 43 51 57 52 44 53 47 54 56 55 70 56
REMARK SMILES IDX 45 57 46 58 55 60 71 61 48 62 37 63 38 64 42 65 39 66 41 67
REMARK SMILES IDX 40 68 59 69 60 70 64 71 61 72 63 73 62 74 49 75 50 76 54 77
REMARK SMILES IDX 51 78 53 79 52 80
REMARK H PARENT 21 6 2 11 25 29 69 48 47 59
REMARK Flexibility Score: inf
ROOT
ATOM      1  C   UNL A   1      37.849  19.835  24.994  1.00  0.00     0.042 C 
ENDROOT
BRANCH   1   2
ATOM      2  C   UNL A   1      36.880  21.001  24.824  1.00  0.00     0.118 C 
BRANCH   2   3
ATOM      3  N   UNL A   1      35.858  21.071  25.860  1.00  0.00    -0.351 N 
ATOM      4  C   UNL A   1      34.551  21.467  25.766  1.00  0.00     0.280 C 
ATOM      5  O   UNL A   1      33.862  21.446  26.790  1.00  0.00    -0.268 OA
ATOM      6  H   UNL A   1      36.149  20.794  26.759  1.00  0.00     0.163 HD
BRANCH   4   7
ATOM      7  C   UNL A   1      33.952  21.898  24.418  1.00  0.00     0.293 C 
ATOM      8  C   UNL A   1      32.812  19.785  24.011  1.00  0.00     0.333 C 
ATOM      9  N   UNL A   1      32.637  21.233  24.186  1.00  0.00    -0.324 N 
ATOM     10  C   UNL A   1      32.000  21.806  22.983  1.00  0.00     0.284 C 
ATOM     11  H   UNL A   1      32.040  21.391  24.998  1.00  0.00     0.348 HD
ATOM     12  C   UNL A   1      31.841  23.329  23.079  1.00  0.00     0.181 C 
ATOM     13  C   UNL A   1      33.940  23.443  24.383  1.00  0.00     0.195 C 
ATOM     14  N   UNL A   1      33.111  24.015  23.320  1.00  0.00    -0.326 N 
BRANCH  14  15
ATOM     15  C   UNL A   1      33.225  25.334  22.870  1.00  0.00     0.257 C 
ATOM     16  O   UNL A   1      33.938  25.634  21.914  1.00  0.00    -0.269 OA
BRANCH  15  17
ATOM     17  C   UNL A   1      32.406  26.344  23.518  1.00  0.00     0.081 A 
ATOM     18  C   UNL A   1      31.120  26.832  23.186  1.00  0.00     0.149 A 
ATOM     19  C   UNL A   1      32.724  27.018  24.684  1.00  0.00     0.051 A 
ATOM     20  N   UNL A   1      30.695  27.787  24.017  1.00  0.00    -0.180 NA
ATOM     21  N   UNL A   1      31.673  27.857  24.933  1.00  0.00    -0.269 N 
ATOM     22  C   UNL A   1      33.894  26.930  25.603  1.00  0.00     0.057 C 
ATOM     23  C   UNL A   1      31.595  28.798  26.034  1.00  0.00     0.144 C 
ATOM     24  C   UNL A   1      33.960  28.121  26.564  1.00  0.00     0.008 C 
ATOM     25  C   UNL A   1      32.580  28.440  27.146  1.00  0.00     0.024 C 
ENDBRANCH  15  17
ENDBRANCH  14  15
ENDBRANCH   4   7
ENDBRANCH   2   3
ENDBRANCH   1   2
BRANCH   1  26
ATOM     26  C   UNL A   1      39.106  20.231  25.742  1.00  0.00     0.118 C 
BRANCH  26  27
ATOM     27  N   UNL A   1      40.138  19.191  25.743  1.00  0.00    -0.352 N 
ATOM     28  C   UNL A   1      41.505  19.350  25.921  1.00  0.00     0.251 C 
ATOM     29  H   UNL A   1      39.824  18.270  25.600  1.00  0.00     0.163 HD
ATOM     30  O   UNL A   1      42.297  18.482  25.609  1.00  0.00    -0.269 OA
BRANCH  28  31
ATOM     31  C   UNL A   1      41.967  20.619  26.510  1.00  0.00     0.039 A 
ATOM     32  C   UNL A   1      42.442  21.672  25.724  1.00  0.00     0.014 A 
ATOM     33  C   UNL A   1      41.817  20.756  27.884  1.00  0.00     0.014 A 
ATOM     34  C   UNL A   1      42.678  22.902  26.336  1.00  0.00     0.010 A 
ATOM     35  C   UNL A   1      41.840  22.005  28.433  1.00  0.00     0.010 A 
ATOM     36  C   UNL A   1      42.350  23.063  27.690  1.00  0.00    -0.014 A 
BRANCH  36  37
ATOM     37  C   UNL A   1      42.447  24.351  28.361  1.00  0.00     0.031 A 
ATOM     38  C   UNL A   1      41.328  25.290  28.079  1.00  0.00     0.074 A 
ATOM     39  C   UNL A   1      43.334  24.565  29.358  1.00  0.00     0.049 A 
ATOM     40  N   UNL A   1      41.383  26.421  27.461  1.00  0.00    -0.248 NA
ATOM     41  C   UNL A   1      39.958  24.863  28.417  1.00  0.00     0.031 C 
ATOM     42  C   UNL A   1      44.261  23.604  29.978  1.00  0.00     0.029 A 
ATOM     43  N   UNL A   1      43.495  25.666  30.137  1.00  0.00    -0.354 N 
ATOM     44  C   UNL A   1      40.094  26.948  27.502  1.00  0.00     0.074 A 
ATOM     45  C   UNL A   1      39.235  25.875  27.934  1.00  0.00     0.031 C 
ATOM     46  C   UNL A   1      44.679  24.079  31.171  1.00  0.00     0.029 A 
ATOM     47  C   UNL A   1      44.211  25.444  31.308  1.00  0.00     0.049 A 
ATOM     48  H   UNL A   1      43.134  26.548  29.892  1.00  0.00     0.167 HD
ATOM     49  C   UNL A   1      39.875  28.291  27.421  1.00  0.00     0.031 A 
ATOM     50  C   UNL A   1      44.384  26.315  32.332  1.00  0.00     0.031 A 
ATOM     51  C   UNL A   1      41.058  28.989  26.984  1.00  0.00     0.049 A 
ATOM     52  C   UNL A   1      44.069  27.665  31.812  1.00  0.00     0.074 A 
ATOM     53  C   UNL A   1      41.843  28.962  25.850  1.00  0.00     0.029 A 
ATOM     54  N   UNL A   1      41.822  29.579  27.964  1.00  0.00    -0.354 N 
ATOM     55  N   UNL A   1      44.786  28.268  30.907  1.00  0.00    -0.248 NA
ATOM     56  C   UNL A   1      42.705  28.144  31.950  1.00  0.00     0.031 C 
ATOM     57  C   UNL A   1      43.180  29.086  26.331  1.00  0.00     0.029 A 
ATOM     58  C   UNL A   1      43.132  29.265  27.715  1.00  0.00     0.049 A 
ATOM     59  H   UNL A   1      41.487  30.128  28.709  1.00  0.00     0.167 HD
ATOM     60  C   UNL A   1      43.860  28.875  30.072  1.00  0.00     0.074 A 
ATOM     61  C   UNL A   1      42.603  28.851  30.821  1.00  0.00     0.031 C 
ATOM     62  C   UNL A   1      44.128  29.072  28.746  1.00  0.00     0.031 A 
BRANCH  49  63
ATOM     63  C   UNL A   1      38.760  29.017  28.137  1.00  0.00    -0.014 A 
ATOM     64  C   UNL A   1      38.597  28.799  29.518  1.00  0.00     0.009 A 
ATOM     65  C   UNL A   1      37.702  29.665  27.474  1.00  0.00     0.009 A 
ATOM     66  C   UNL A   1      37.403  29.123  30.175  1.00  0.00     0.001 A 
ATOM     67  C   UNL A   1      36.525  30.030  28.135  1.00  0.00     0.001 A 
ATOM     68  C   UNL A   1      36.364  29.729  29.479  1.00  0.00     0.000 A 
ENDBRANCH  49  63
BRANCH  50  69
ATOM     69  C   UNL A   1      44.545  26.037  33.774  1.00  0.00    -0.014 A 
ATOM     70  C   UNL A   1      43.440  25.706  34.574  1.00  0.00     0.009 A 
ATOM     71  C   UNL A   1      45.829  25.835  34.314  1.00  0.00     0.009 A 
ATOM     72  C   UNL A   1      43.616  25.156  35.852  1.00  0.00     0.001 A 
ATOM     73  C   UNL A   1      46.003  25.285  35.590  1.00  0.00     0.001 A 
ATOM     74  C   UNL A   1      44.896  24.933  36.353  1.00  0.00     0.000 A 
ENDBRANCH  50  69
BRANCH  62  75
ATOM     75  C   UNL A   1      45.537  28.827  28.260  1.00  0.00    -0.014 A 
ATOM     76  C   UNL A   1      46.023  27.556  27.908  1.00  0.00     0.009 A 
ATOM     77  C   UNL A   1      46.331  29.946  27.970  1.00  0.00     0.009 A 
ATOM     78  C   UNL A   1      47.272  27.412  27.294  1.00  0.00     0.001 A 
ATOM     79  C   UNL A   1      47.568  29.805  27.340  1.00  0.00     0.001 A 
ATOM     80  C   UNL A   1      48.040  28.539  27.003  1.00  0.00     0.000 A 
ENDBRANCH  62  75
ENDBRANCH  36  37
ENDBRANCH  28  31
ENDBRANCH  26  27
ENDBRANCH   1  26
TORSDOF 12
ENDMDL
MODEL 2
REMARK VINA RESULT:     -12.4      3.808      9.005
REMARK SMILES C[N@@H+]1CCN(C(=O)c2cnn3c2CCCC3)C[C@H]1C(=O)NCCCNC(=O)c1ccc(-c2c3nc(c(-c4ccccc4)c4ccc([nH]4)c(-c4ccccc4)c4nc(c(-c5ccccc5)c5ccc2[nH]5)C=C4)C=C3)cc1
REMARK SMILES IDX 23 1 22 2 21 3 19 4 20 5 18 7 1 8 2 9 3 10 4 12 17 13 5 14
REMARK SMILES IDX 6 15 7 16 8 17 9 18 12 19 10 20 11 21 13 22 16 23 14 24
REMARK SMILES IDX 15 25 24 26 25 27 26 28 27 30 28 31 29 32 75 33 30 34 74 35
REMARK SMILES IDX 31 36 32 37 33 38 68 39 34 40 73 41 67 42 69 43 35 44 72 45
REMARK SMILES IDX 66 46 65 47 36 49 58 50 43 51 57 52 44 53 47 54 56 55 70 56
REMARK SMILES IDX 45 57 46 58 55 60 71 61 48 62 37 63 38 64 42 65 39 66 41 67
REMARK SMILES IDX 40 68 59 69 60 70 64 71 61 72 63 73 62 74 49 75 50 76 54 77
REMARK SMILES IDX 51 78 53 79 52 80
REMARK H PARENT 21 6 2 11 25 29 69 48 47 59
REMARK Flexibility Score: inf
ROOT
ATOM      1  C   UNL A   1      31.526  31.769  26.559  1.00  0.00     0.042 C 
ENDROOT
BRANCH   1   2
ATOM      2  C   UNL A   1      31.804  30.289  26.315  1.00  0.00     0.118 C 
BRANCH   2   3
ATOM      3  N   UNL A   1      32.371  30.006  25.002  1.00  0.00    -0.351 N 
ATOM      4  C   UNL A   1      32.170  28.929  24.182  1.00  0.00     0.280 C 
ATOM      5  O   UNL A   1      32.766  28.901  23.102  1.00  0.00    -0.268 OA
ATOM      6  H   UNL A   1      32.989  30.689  24.655  1.00  0.00     0.163 HD
BRANCH   4   7
ATOM      7  C   UNL A   1      31.208  27.800  24.584  1.00  0.00     0.293 C 
ATOM      8  C   UNL A   1      29.393  28.549  23.144  1.00  0.00     0.333 C 
ATOM      9  N   UNL A   1      30.308  27.441  23.449  1.00  0.00    -0.324 N 
ATOM     10  C   UNL A   1      29.530  26.236  23.799  1.00  0.00     0.284 C 
ATOM     11  H   UNL A   1      30.878  27.255  22.624  1.00  0.00     0.348 HD
ATOM     12  C   UNL A   1      30.430  25.055  24.186  1.00  0.00     0.181 C 
ATOM     13  C   UNL A   1      32.057  26.645  25.161  1.00  0.00     0.195 C 
ATOM     14  N   UNL A   1      31.337  25.375  25.289  1.00  0.00    -0.326 N 
BRANCH  14  15
ATOM     15  C   UNL A   1      31.765  24.317  26.096  1.00  0.00     0.257 C 
ATOM     16  O   UNL A   1      31.397  24.202  27.264  1.00  0.00    -0.269 OA
BRANCH  15  17
ATOM     17  C   UNL A   1      32.604  23.298  25.490  1.00  0.00     0.081 A 
ATOM     18  C   UNL A   1      32.260  22.056  24.905  1.00  0.00     0.149 A 
ATOM     19  C   UNL A   1      33.973  23.381  25.306  1.00  0.00     0.051 A 
ATOM     20  N   UNL A   1      33.321  21.375  24.465  1.00  0.00    -0.180 NA
ATOM     21  N   UNL A   1      34.343  22.215  24.693  1.00  0.00    -0.269 N 
ATOM     22  C   UNL A   1      34.961  24.453  25.615  1.00  0.00     0.057 C 
ATOM     23  C   UNL A   1      35.702  21.843  24.350  1.00  0.00     0.144 C 
ATOM     24  C   UNL A   1      36.403  23.941  25.550  1.00  0.00     0.008 C 
ATOM     25  C   UNL A   1      36.623  23.061  24.315  1.00  0.00     0.024 C 
ENDBRANCH  15  17
ENDBRANCH  14  15
ENDBRANCH   4   7
ENDBRANCH   2   3
ENDBRANCH   1   2
BRANCH   1  26
ATOM     26  C   UNL A   1      32.673  32.464  27.263  1.00  0.00     0.118 C 
BRANCH  26  27
ATOM     27  N   UNL A   1      32.377  33.851  27.634  1.00  0.00    -0.352 N 
ATOM     28  C   UNL A   1      33.002  34.625  28.601  1.00  0.00     0.251 C 
ATOM     29  H   UNL A   1      31.648  34.285  27.137  1.00  0.00     0.163 HD
ATOM     30  O   UNL A   1      32.495  35.641  29.034  1.00  0.00    -0.269 OA
BRANCH  28  31
ATOM     31  C   UNL A   1      34.316  34.169  29.087  1.00  0.00     0.039 A 
ATOM     32  C   UNL A   1      34.453  33.410  30.253  1.00  0.00     0.014 A 
ATOM     33  C   UNL A   1      35.408  34.445  28.276  1.00  0.00     0.014 A 
ATOM     34  C   UNL A   1      35.699  32.856  30.541  1.00  0.00     0.010 A 
ATOM     35  C   UNL A   1      36.558  33.731  28.443  1.00  0.00     0.010 A 
ATOM     36  C   UNL A   1      36.741  33.005  29.614  1.00  0.00    -0.014 A 
BRANCH  36  37
ATOM     37  C   UNL A   1      38.028  32.346  29.785  1.00  0.00     0.031 A 
ATOM     38  C   UNL A   1      38.056  30.914  29.386  1.00  0.00     0.074 A 
ATOM     39  C   UNL A   1      39.156  33.049  30.030  1.00  0.00     0.049 A 
ATOM     40  N   UNL A   1      38.245  29.886  30.143  1.00  0.00    -0.248 NA
ATOM     41  C   UNL A   1      37.712  30.571  27.994  1.00  0.00     0.031 C 
ATOM     42  C   UNL A   1      39.326  34.510  30.097  1.00  0.00     0.029 A 
ATOM     43  N   UNL A   1      40.435  32.605  30.130  1.00  0.00    -0.354 N 
ATOM     44  C   UNL A   1      38.241  28.777  29.300  1.00  0.00     0.074 A 
ATOM     45  C   UNL A   1      37.732  29.238  28.033  1.00  0.00     0.031 C 
ATOM     46  C   UNL A   1      40.632  34.823  29.963  1.00  0.00     0.029 A 
ATOM     47  C   UNL A   1      41.402  33.596  30.000  1.00  0.00     0.049 A 
ATOM     48  H   UNL A   1      40.659  31.659  30.283  1.00  0.00     0.167 HD
ATOM     49  C   UNL A   1      38.895  27.630  29.637  1.00  0.00     0.031 A 
ATOM     50  C   UNL A   1      42.742  33.416  29.902  1.00  0.00     0.031 A 
ATOM     51  C   UNL A   1      39.269  27.630  31.029  1.00  0.00     0.049 A 
ATOM     52  C   UNL A   1      43.034  32.051  30.396  1.00  0.00     0.074 A 
ATOM     53  C   UNL A   1      38.581  27.690  32.224  1.00  0.00     0.029 A 
ATOM     54  N   UNL A   1      40.567  27.978  31.317  1.00  0.00    -0.354 N 
ATOM     55  N   UNL A   1      42.869  31.689  31.636  1.00  0.00    -0.248 NA
ATOM     56  C   UNL A   1      43.059  30.969  29.427  1.00  0.00     0.031 C 
ATOM     57  C   UNL A   1      39.376  28.532  33.057  1.00  0.00     0.029 A 
ATOM     58  C   UNL A   1      40.538  28.867  32.359  1.00  0.00     0.049 A 
ATOM     59  H   UNL A   1      41.373  27.648  30.858  1.00  0.00     0.167 HD
ATOM     60  C   UNL A   1      42.329  30.413  31.561  1.00  0.00     0.074 A 
ATOM     61  C   UNL A   1      42.565  29.984  30.182  1.00  0.00     0.031 C 
ATOM     62  C   UNL A   1      41.487  29.946  32.530  1.00  0.00     0.031 A 
BRANCH  49  63
ATOM     63  C   UNL A   1      39.574  26.714  28.646  1.00  0.00    -0.014 A 
ATOM     64  C   UNL A   1      40.516  27.268  27.759  1.00  0.00     0.009 A 
ATOM     65  C   UNL A   1      39.125  25.413  28.354  1.00  0.00     0.009 A 
ATOM     66  C   UNL A   1      40.909  26.596  26.595  1.00  0.00     0.001 A 
ATOM     67  C   UNL A   1      39.548  24.721  27.215  1.00  0.00     0.001 A 
ATOM     68  C   UNL A   1      40.416  25.326  26.319  1.00  0.00     0.000 A 
ENDBRANCH  49  63
BRANCH  50  69
ATOM     69  C   UNL A   1      43.740  34.229  29.178  1.00  0.00    -0.014 A 
ATOM     70  C   UNL A   1      43.609  34.479  27.804  1.00  0.00     0.009 A 
ATOM     71  C   UNL A   1      44.686  34.987  29.895  1.00  0.00     0.009 A 
ATOM     72  C   UNL A   1      44.369  35.478  27.178  1.00  0.00     0.001 A 
ATOM     73  C   UNL A   1      45.443  35.984  29.270  1.00  0.00     0.001 A 
ATOM     74  C   UNL A   1      45.275  36.239  27.913  1.00  0.00     0.000 A 
ENDBRANCH  50  69
BRANCH  62  75
ATOM     75  C   UNL A   1      41.340  30.755  33.797  1.00  0.00    -0.014 A 
ATOM     76  C   UNL A   1      42.138  30.556  34.937  1.00  0.00     0.009 A 
ATOM     77  C   UNL A   1      40.497  31.875  33.762  1.00  0.00     0.009 A 
ATOM     78  C   UNL A   1      42.082  31.448  36.014  1.00  0.00     0.001 A 
ATOM     79  C   UNL A   1      40.456  32.776  34.827  1.00  0.00     0.001 A 
ATOM     80  C   UNL A   1      41.246  32.563  35.953  1.00  0.00     0.000 A 
ENDBRANCH  62  75
ENDBRANCH  36  37
ENDBRANCH  28  31
ENDBRANCH  26  27
ENDBRANCH   1  26
TORSDOF 12
ENDMDL
MODEL 3
REMARK VINA RESULT:     -12.0      2.356      7.578
REMARK SMILES C[N@@H+]1CCN(C(=O)c2cnn3c2CCCC3)C[C@H]1C(=O)NCCCNC(=O)c1ccc(-c2c3nc(c(-c4ccccc4)c4ccc([nH]4)c(-c4ccccc4)c4nc(c(-c5ccccc5)c5ccc2[nH]5)C=C4)C=C3)cc1
REMARK SMILES IDX 23 1 22 2 21 3 19 4 20 5 18 7 1 8 2 9 3 10 4 12 17 13 5 14
REMARK SMILES IDX 6 15 7 16 8 17 9 18 12 19 10 20 11 21 13 22 16 23 14 24
REMARK SMILES IDX 15 25 24 26 25 27 26 28 27 30 28 31 29 32 75 33 30 34 74 35
REMARK SMILES IDX 31 36 32 37 33 38 68 39 34 40 73 41 67 42 69 43 35 44 72 45
REMARK SMILES IDX 66 46 65 47 36 49 58 50 43 51 57 52 44 53 47 54 56 55 70 56
REMARK SMILES IDX 45 57 46 58 55 60 71 61 48 62 37 63 38 64 42 65 39 66 41 67
REMARK SMILES IDX 40 68 59 69 60 70 64 71 61 72 63 73 62 74 49 75 50 76 54 77
REMARK SMILES IDX 51 78 53 79 52 80
REMARK H PARENT 21 6 2 11 25 29 69 48 47 59
REMARK Flexibility Score: inf
ROOT
ATOM      1  C   UNL A   1      32.897  30.096  27.209  1.00  0.00     0.042 C 
ENDROOT
BRANCH   1   2
ATOM      2  C   UNL A   1      32.293  30.254  25.817  1.00  0.00     0.118 C 
BRANCH   2   3
ATOM      3  N   UNL A   1      33.107  29.679  24.754  1.00  0.00    -0.351 N 
ATOM      4  C   UNL A   1      33.003  28.459  24.143  1.00  0.00     0.280 C 
ATOM      5  O   UNL A   1      33.815  28.180  23.257  1.00  0.00    -0.268 OA
ATOM      6  H   UNL A   1      33.839  30.250  24.428  1.00  0.00     0.163 HD
BRANCH   4   7
ATOM      7  C   UNL A   1      31.888  27.474  24.532  1.00  0.00     0.293 C 
ATOM      8  C   UNL A   1      30.301  28.292  22.876  1.00  0.00     0.333 C 
ATOM      9  N   UNL A   1      31.055  27.122  23.345  1.00  0.00    -0.324 N 
ATOM     10  C   UNL A   1      30.119  26.038  23.704  1.00  0.00     0.284 C 
ATOM     11  H   UNL A   1      31.669  26.809  22.592  1.00  0.00     0.348 HD
ATOM     12  C   UNL A   1      30.843  24.804  24.258  1.00  0.00     0.181 C 
ATOM     13  C   UNL A   1      32.548  26.286  25.267  1.00  0.00     0.195 C 
ATOM     14  N   UNL A   1      31.681  25.115  25.417  1.00  0.00    -0.326 N 
BRANCH  14  15
ATOM     15  C   UNL A   1      31.916  24.086  26.334  1.00  0.00     0.257 C 
ATOM     16  O   UNL A   1      31.133  23.844  27.251  1.00  0.00    -0.269 OA
BRANCH  15  17
ATOM     17  C   UNL A   1      33.083  23.246  26.127  1.00  0.00     0.081 A 
ATOM     18  C   UNL A   1      34.431  23.441  26.512  1.00  0.00     0.149 A 
ATOM     19  C   UNL A   1      33.086  21.997  25.531  1.00  0.00     0.051 A 
ATOM     20  N   UNL A   1      35.232  22.445  26.124  1.00  0.00    -0.180 NA
ATOM     21  N   UNL A   1      34.386  21.570  25.559  1.00  0.00    -0.269 N 
ATOM     22  C   UNL A   1      31.993  21.152  24.973  1.00  0.00     0.057 C 
ATOM     23  C   UNL A   1      34.870  20.325  24.996  1.00  0.00     0.144 C 
ATOM     24  C   UNL A   1      32.536  20.009  24.110  1.00  0.00     0.008 C 
ATOM     25  C   UNL A   1      33.733  19.328  24.782  1.00  0.00     0.024 C 
ENDBRANCH  15  17
ENDBRANCH  14  15
ENDBRANCH   4   7
ENDBRANCH   2   3
ENDBRANCH   1   2
BRANCH   1  26
ATOM     26  C   UNL A   1      34.218  30.823  27.352  1.00  0.00     0.118 C 
BRANCH  26  27
ATOM     27  N   UNL A   1      34.255  31.751  28.486  1.00  0.00    -0.352 N 
ATOM     28  C   UNL A   1      35.151  31.764  29.545  1.00  0.00     0.251 C 
ATOM     29  H   UNL A   1      33.561  32.448  28.497  1.00  0.00     0.163 HD
ATOM     30  O   UNL A   1      34.920  32.372  30.572  1.00  0.00    -0.269 OA
BRANCH  28  31
ATOM     31  C   UNL A   1      36.406  31.011  29.378  1.00  0.00     0.039 A 
ATOM     32  C   UNL A   1      37.626  31.647  29.132  1.00  0.00     0.014 A 
ATOM     33  C   UNL A   1      36.337  29.638  29.576  1.00  0.00     0.014 A 
ATOM     34  C   UNL A   1      38.792  30.885  29.177  1.00  0.00     0.010 A 
ATOM     35  C   UNL A   1      37.484  28.945  29.832  1.00  0.00     0.010 A 
ATOM     36  C   UNL A   1      38.710  29.536  29.552  1.00  0.00    -0.014 A 
BRANCH  36  37
ATOM     37  C   UNL A   1      39.896  28.715  29.748  1.00  0.00     0.031 A 
ATOM     38  C   UNL A   1      40.348  28.592  31.160  1.00  0.00     0.074 A 
ATOM     39  C   UNL A   1      40.378  27.922  28.765  1.00  0.00     0.049 A 
ATOM     40  N   UNL A   1      41.447  29.026  31.678  1.00  0.00    -0.248 NA
ATOM     41  C   UNL A   1      39.409  28.025  32.145  1.00  0.00     0.031 C 
ATOM     42  C   UNL A   1      39.813  27.681  27.427  1.00  0.00     0.029 A 
ATOM     43  N   UNL A   1      41.409  27.040  28.807  1.00  0.00    -0.354 N 
ATOM     44  C   UNL A   1      41.435  28.617  33.010  1.00  0.00     0.074 A 
ATOM     45  C   UNL A   1      40.091  28.172  33.281  1.00  0.00     0.031 C 
ATOM     46  C   UNL A   1      40.343  26.554  26.906  1.00  0.00     0.029 A 
ATOM     47  C   UNL A   1      41.413  26.108  27.775  1.00  0.00     0.049 A 
ATOM     48  H   UNL A   1      42.098  27.060  29.510  1.00  0.00     0.167 HD
ATOM     49  C   UNL A   1      42.593  28.440  33.707  1.00  0.00     0.031 A 
ATOM     50  C   UNL A   1      42.224  25.028  27.659  1.00  0.00     0.031 A 
ATOM     51  C   UNL A   1      43.715  29.019  33.012  1.00  0.00     0.049 A 
ATOM     52  C   UNL A   1      43.376  25.251  28.561  1.00  0.00     0.074 A 
ATOM     53  C   UNL A   1      44.057  30.291  32.601  1.00  0.00     0.029 A 
ATOM     54  N   UNL A   1      44.496  28.157  32.279  1.00  0.00    -0.354 N 
ATOM     55  N   UNL A   1      44.259  26.191  28.374  1.00  0.00    -0.248 NA
ATOM     56  C   UNL A   1      43.286  24.739  29.918  1.00  0.00     0.031 C 
ATOM     57  C   UNL A   1      44.656  30.109  31.320  1.00  0.00     0.029 A 
ATOM     58  C   UNL A   1      44.725  28.739  31.060  1.00  0.00     0.049 A 
ATOM     59  H   UNL A   1      44.831  27.281  32.577  1.00  0.00     0.167 HD
ATOM     60  C   UNL A   1      44.510  26.694  29.643  1.00  0.00     0.074 A 
ATOM     61  C   UNL A   1      43.963  25.694  30.561  1.00  0.00     0.031 C 
ATOM     62  C   UNL A   1      44.870  27.999  29.824  1.00  0.00     0.031 A 
BRANCH  49  63
ATOM     63  C   UNL A   1      42.793  27.390  34.774  1.00  0.00    -0.014 A 
ATOM     64  C   UNL A   1      43.109  26.078  34.373  1.00  0.00     0.009 A 
ATOM     65  C   UNL A   1      42.404  27.560  36.116  1.00  0.00     0.009 A 
ATOM     66  C   UNL A   1      42.950  24.989  35.239  1.00  0.00     0.001 A 
ATOM     67  C   UNL A   1      42.286  26.480  36.996  1.00  0.00     0.001 A 
ATOM     68  C   UNL A   1      42.527  25.191  36.548  1.00  0.00     0.000 A 
ENDBRANCH  49  63
BRANCH  50  69
ATOM     69  C   UNL A   1      41.948  23.718  27.033  1.00  0.00    -0.014 A 
ATOM     70  C   UNL A   1      42.846  23.152  26.116  1.00  0.00     0.009 A 
ATOM     71  C   UNL A   1      40.925  22.896  27.542  1.00  0.00     0.009 A 
ATOM     72  C   UNL A   1      42.746  21.801  25.751  1.00  0.00     0.001 A 
ATOM     73  C   UNL A   1      40.827  21.548  27.178  1.00  0.00     0.001 A 
ATOM     74  C   UNL A   1      41.746  20.997  26.293  1.00  0.00     0.000 A 
ENDBRANCH  50  69
BRANCH  62  75
ATOM     75  C   UNL A   1      45.214  28.820  28.605  1.00  0.00    -0.014 A 
ATOM     76  C   UNL A   1      44.264  29.561  27.879  1.00  0.00     0.009 A 
ATOM     77  C   UNL A   1      46.571  29.000  28.299  1.00  0.00     0.009 A 
ATOM     78  C   UNL A   1      44.663  30.445  26.870  1.00  0.00     0.001 A 
ATOM     79  C   UNL A   1      46.971  29.896  27.307  1.00  0.00     0.001 A 
ATOM     80  C   UNL A   1      46.019  30.617  26.592  1.00  0.00     0.000 A 
ENDBRANCH  62  75
ENDBRANCH  36  37
ENDBRANCH  28  31
ENDBRANCH  26  27
ENDBRANCH   1  26
TORSDOF 12
ENDMDL
