MODEL 1
REMARK VINA RESULT:     -11.0      0.000      0.000
REMARK SMILES O=C(NCCCNC(=O)[C@H]1CC(=O)N(CCC2=c3ccccc3=NC2)C1)c1ccc(-c2c3nc(c(-c4ccccc4)c4ccc([nH]4)c(-c4ccccc4)c4nc(c(-c5ccccc5)c5ccc2[nH]5)C=C4)C=C3)cc1
REMARK SMILES IDX 5 1 4 2 3 3 1 4 2 5 27 7 28 8 74 9 29 10 73 11 30 12 31 13
REMARK SMILES IDX 32 14 67 15 33 16 72 17 66 18 68 19 34 20 71 21 65 22 64 23
REMARK SMILES IDX 35 25 57 26 42 27 56 28 43 29 46 30 55 31 69 32 44 33 45 34
REMARK SMILES IDX 54 36 70 37 47 38 36 39 37 40 41 41 38 42 40 43 39 44 58 45
REMARK SMILES IDX 59 46 63 47 60 48 62 49 61 50 48 51 49 52 53 53 50 54 52 55
REMARK SMILES IDX 51 56 6 57 7 58 8 59 9 61 10 62 11 63 26 64 12 65 14 66
REMARK SMILES IDX 13 67 15 68 16 69 17 70 18 71 25 72 19 73 23 74 24 75 20 76
REMARK SMILES IDX 22 77 21 78
REMARK H PARENT 3 6 68 24 46 35 7 60
REMARK Flexibility Score: inf
ROOT
ATOM      1  C   UNL A   1      37.445  19.338  24.950  1.00  0.00     0.042 C 
ENDROOT
BRANCH   1   2
ATOM      2  C   UNL A   1      38.650  20.125  25.458  1.00  0.00     0.118 C 
BRANCH   2   3
ATOM      3  N   UNL A   1      39.830  19.296  25.664  1.00  0.00    -0.352 N 
ATOM      4  O   UNL A   1      41.968  18.727  25.996  1.00  0.00    -0.269 OA
ATOM      5  C   UNL A   1      41.103  19.597  26.078  1.00  0.00     0.251 C 
ATOM      6  H   UNL A   1      39.687  18.341  25.471  1.00  0.00     0.163 HD
BRANCH   5   7
ATOM      7  C   UNL A   1      41.467  20.933  26.606  1.00  0.00     0.039 A 
ATOM      8  C   UNL A   1      41.913  21.906  25.705  1.00  0.00     0.014 A 
ATOM      9  C   UNL A   1      41.459  21.223  27.972  1.00  0.00     0.014 A 
ATOM     10  C   UNL A   1      42.309  23.164  26.167  1.00  0.00     0.010 A 
ATOM     11  C   UNL A   1      41.753  22.510  28.422  1.00  0.00     0.010 A 
ATOM     12  C   UNL A   1      42.209  23.489  27.529  1.00  0.00    -0.014 A 
BRANCH  12  13
ATOM     13  C   UNL A   1      42.619  24.830  28.028  1.00  0.00     0.031 A 
ATOM     14  C   UNL A   1      41.599  25.921  28.221  1.00  0.00     0.074 A 
ATOM     15  C   UNL A   1      43.916  25.077  28.297  1.00  0.00     0.049 A 
ATOM     16  N   UNL A   1      41.772  27.143  28.662  1.00  0.00    -0.248 NA
ATOM     17  C   UNL A   1      40.208  25.613  27.851  1.00  0.00     0.031 C 
ATOM     18  C   UNL A   1      45.011  24.122  28.114  1.00  0.00     0.029 A 
ATOM     19  N   UNL A   1      44.532  26.199  28.794  1.00  0.00    -0.354 N 
ATOM     20  C   UNL A   1      40.518  27.741  28.622  1.00  0.00     0.074 A 
ATOM     21  C   UNL A   1      39.611  26.781  28.037  1.00  0.00     0.031 C 
ATOM     22  C   UNL A   1      46.153  24.680  28.542  1.00  0.00     0.029 A 
ATOM     23  C   UNL A   1      45.884  26.044  28.987  1.00  0.00     0.049 A 
ATOM     24  H   UNL A   1      44.051  27.034  28.993  1.00  0.00     0.167 HD
ATOM     25  C   UNL A   1      40.144  28.966  29.065  1.00  0.00     0.031 A 
ATOM     26  C   UNL A   1      46.808  26.897  29.473  1.00  0.00     0.031 A 
ATOM     27  C   UNL A   1      41.045  29.921  29.652  1.00  0.00     0.049 A 
ATOM     28  C   UNL A   1      46.377  28.259  29.943  1.00  0.00     0.074 A 
ATOM     29  C   UNL A   1      40.755  31.173  30.163  1.00  0.00     0.029 A 
ATOM     30  N   UNL A   1      42.412  29.733  29.808  1.00  0.00    -0.354 N 
ATOM     31  N   UNL A   1      45.178  28.786  29.951  1.00  0.00    -0.248 NA
ATOM     32  C   UNL A   1      47.424  29.135  30.487  1.00  0.00     0.031 C 
ATOM     33  C   UNL A   1      41.952  31.770  30.565  1.00  0.00     0.029 A 
ATOM     34  C   UNL A   1      42.980  30.859  30.381  1.00  0.00     0.049 A 
ATOM     35  H   UNL A   1      42.903  28.920  29.549  1.00  0.00     0.167 HD
ATOM     36  C   UNL A   1      45.321  30.052  30.508  1.00  0.00     0.074 A 
ATOM     37  C   UNL A   1      46.719  30.196  30.858  1.00  0.00     0.031 C 
ATOM     38  C   UNL A   1      44.378  31.007  30.703  1.00  0.00     0.031 A 
BRANCH  25  39
ATOM     39  C   UNL A   1      38.688  29.337  28.952  1.00  0.00    -0.014 A 
ATOM     40  C   UNL A   1      37.828  29.164  30.048  1.00  0.00     0.009 A 
ATOM     41  C   UNL A   1      38.148  29.792  27.737  1.00  0.00     0.009 A 
ATOM     42  C   UNL A   1      36.462  29.429  29.928  1.00  0.00     0.001 A 
ATOM     43  C   UNL A   1      36.788  30.091  27.630  1.00  0.00     0.001 A 
ATOM     44  C   UNL A   1      35.944  29.900  28.723  1.00  0.00     0.000 A 
ENDBRANCH  25  39
BRANCH  26  45
ATOM     45  C   UNL A   1      48.222  26.446  29.580  1.00  0.00    -0.014 A 
ATOM     46  C   UNL A   1      48.685  25.816  30.747  1.00  0.00     0.009 A 
ATOM     47  C   UNL A   1      49.136  26.717  28.551  1.00  0.00     0.009 A 
ATOM     48  C   UNL A   1      50.038  25.504  30.898  1.00  0.00     0.001 A 
ATOM     49  C   UNL A   1      50.483  26.372  28.690  1.00  0.00     0.001 A 
ATOM     50  C   UNL A   1      50.935  25.779  29.870  1.00  0.00     0.000 A 
ENDBRANCH  26  45
BRANCH  38  51
ATOM     51  C   UNL A   1      44.819  32.313  31.312  1.00  0.00    -0.014 A 
ATOM     52  C   UNL A   1      44.766  32.493  32.704  1.00  0.00     0.009 A 
ATOM     53  C   UNL A   1      45.205  33.395  30.506  1.00  0.00     0.009 A 
ATOM     54  C   UNL A   1      45.078  33.729  33.275  1.00  0.00     0.001 A 
ATOM     55  C   UNL A   1      45.555  34.618  31.082  1.00  0.00     0.001 A 
ATOM     56  C   UNL A   1      45.480  34.788  32.463  1.00  0.00     0.000 A 
ENDBRANCH  38  51
ENDBRANCH  12  13
ENDBRANCH   5   7
ENDBRANCH   2   3
ENDBRANCH   1   2
BRANCH   1  57
ATOM     57  C   UNL A   1      36.122  20.090  25.013  1.00  0.00     0.117 C 
BRANCH  57  58
ATOM     58  N   UNL A   1      36.294  21.486  25.373  1.00  0.00    -0.356 N 
ATOM     59  C   UNL A   1      35.403  22.377  25.892  1.00  0.00     0.225 C 
ATOM     60  H   UNL A   1      37.197  21.847  25.216  1.00  0.00     0.163 HD
ATOM     61  O   UNL A   1      35.822  23.501  26.166  1.00  0.00    -0.275 OA
BRANCH  59  62
ATOM     62  C   UNL A   1      33.951  21.971  26.077  1.00  0.00     0.107 C 
ATOM     63  C   UNL A   1      33.289  22.699  27.251  1.00  0.00     0.115 C 
ATOM     64  C   UNL A   1      33.135  22.344  24.844  1.00  0.00     0.133 C 
ATOM     65  C   UNL A   1      32.007  23.251  26.702  1.00  0.00     0.223 C 
ATOM     66  N   UNL A   1      32.009  23.100  25.332  1.00  0.00    -0.342 N 
ATOM     67  O   UNL A   1      31.131  23.782  27.368  1.00  0.00    -0.275 OA
BRANCH  66  68
ATOM     68  C   UNL A   1      31.005  23.714  24.466  1.00  0.00     0.124 C 
BRANCH  68  69
ATOM     69  C   UNL A   1      31.593  24.783  23.519  1.00  0.00     0.055 C 
BRANCH  69  70
ATOM     70  C   UNL A   1      31.377  26.180  24.014  1.00  0.00    -0.038 C 
ATOM     71  C   UNL A   1      32.104  26.883  24.879  1.00  0.00     0.001 A 
ATOM     72  C   UNL A   1      30.242  27.010  23.491  1.00  0.00     0.174 C 
ATOM     73  C   UNL A   1      33.251  26.625  25.686  1.00  0.00     0.010 A 
ATOM     74  C   UNL A   1      31.551  28.239  24.728  1.00  0.00     0.065 A 
ATOM     75  N   UNL A   1      30.498  28.385  23.984  1.00  0.00    -0.280 NA
ATOM     76  C   UNL A   1      33.898  27.666  26.236  1.00  0.00     0.001 A 
ATOM     77  C   UNL A   1      32.311  29.332  25.375  1.00  0.00     0.028 A 
ATOM     78  C   UNL A   1      33.434  29.031  26.050  1.00  0.00     0.002 A 
ENDBRANCH  69  70
ENDBRANCH  68  69
ENDBRANCH  66  68
ENDBRANCH  59  62
ENDBRANCH  57  58
ENDBRANCH   1  57
TORSDOF 13
ENDMDL
MODEL 2
REMARK VINA RESULT:     -10.9      3.037      8.620
REMARK SMILES O=C(NCCCNC(=O)[C@H]1CC(=O)N(CCC2=c3ccccc3=NC2)C1)c1ccc(-c2c3nc(c(-c4ccccc4)c4ccc([nH]4)c(-c4ccccc4)c4nc(c(-c5ccccc5)c5ccc2[nH]5)C=C4)C=C3)cc1
REMARK SMILES IDX 5 1 4 2 3 3 1 4 2 5 27 7 28 8 74 9 29 10 73 11 30 12 31 13
REMARK SMILES IDX 32 14 67 15 33 16 72 17 66 18 68 19 34 20 71 21 65 22 64 23
REMARK SMILES IDX 35 25 57 26 42 27 56 28 43 29 46 30 55 31 69 32 44 33 45 34
REMARK SMILES IDX 54 36 70 37 47 38 36 39 37 40 41 41 38 42 40 43 39 44 58 45
REMARK SMILES IDX 59 46 63 47 60 48 62 49 61 50 48 51 49 52 53 53 50 54 52 55
REMARK SMILES IDX 51 56 6 57 7 58 8 59 9 61 10 62 11 63 26 64 12 65 14 66
REMARK SMILES IDX 13 67 15 68 16 69 17 70 18 71 25 72 19 73 23 74 24 75 20 76
REMARK SMILES IDX 22 77 21 78
REMARK H PARENT 3 6 68 24 46 35 7 60
REMARK Flexibility Score: inf
ROOT
ATOM      1  C   UNL A   1      32.343  31.229  27.350  1.00  0.00     0.042 C 
ENDROOT
BRANCH   1   2
ATOM      2  C   UNL A   1      32.507  32.530  26.568  1.00  0.00     0.118 C 
BRANCH   2   3
ATOM      3  N   UNL A   1      32.315  33.718  27.389  1.00  0.00    -0.352 N 
ATOM      4  O   UNL A   1      32.536  35.158  29.087  1.00  0.00    -0.269 OA
ATOM      5  C   UNL A   1      33.019  34.221  28.454  1.00  0.00     0.251 C 
ATOM      6  H   UNL A   1      31.537  34.263  27.130  1.00  0.00     0.163 HD
BRANCH   5   7
ATOM      7  C   UNL A   1      34.329  33.666  28.869  1.00  0.00     0.039 A 
ATOM      8  C   UNL A   1      35.446  33.928  28.069  1.00  0.00     0.014 A 
ATOM      9  C   UNL A   1      34.467  32.828  29.977  1.00  0.00     0.014 A 
ATOM     10  C   UNL A   1      36.691  33.385  28.399  1.00  0.00     0.010 A 
ATOM     11  C   UNL A   1      35.727  32.374  30.366  1.00  0.00     0.010 A 
ATOM     12  C   UNL A   1      36.850  32.622  29.566  1.00  0.00    -0.014 A 
BRANCH  12  13
ATOM     13  C   UNL A   1      38.175  32.049  29.931  1.00  0.00     0.031 A 
ATOM     14  C   UNL A   1      39.093  32.780  30.875  1.00  0.00     0.074 A 
ATOM     15  C   UNL A   1      38.564  30.872  29.403  1.00  0.00     0.049 A 
ATOM     16  N   UNL A   1      40.275  32.424  31.318  1.00  0.00    -0.248 NA
ATOM     17  C   UNL A   1      38.642  34.091  31.371  1.00  0.00     0.031 C 
ATOM     18  C   UNL A   1      37.789  30.081  28.446  1.00  0.00     0.029 A 
ATOM     19  N   UNL A   1      39.700  30.129  29.607  1.00  0.00    -0.354 N 
ATOM     20  C   UNL A   1      40.700  33.463  32.138  1.00  0.00     0.074 A 
ATOM     21  C   UNL A   1      39.693  34.497  32.068  1.00  0.00     0.031 C 
ATOM     22  C   UNL A   1      38.447  28.942  28.186  1.00  0.00     0.029 A 
ATOM     23  C   UNL A   1      39.709  28.938  28.921  1.00  0.00     0.049 A 
ATOM     24  H   UNL A   1      40.438  30.421  30.190  1.00  0.00     0.167 HD
ATOM     25  C   UNL A   1      41.810  33.537  32.911  1.00  0.00     0.031 A 
ATOM     26  C   UNL A   1      40.622  27.948  28.887  1.00  0.00     0.031 A 
ATOM     27  C   UNL A   1      42.811  32.507  32.986  1.00  0.00     0.049 A 
ATOM     28  C   UNL A   1      41.857  28.056  29.737  1.00  0.00     0.074 A 
ATOM     29  C   UNL A   1      43.953  32.474  33.767  1.00  0.00     0.029 A 
ATOM     30  N   UNL A   1      42.793  31.327  32.256  1.00  0.00    -0.354 N 
ATOM     31  N   UNL A   1      42.216  29.018  30.551  1.00  0.00    -0.248 NA
ATOM     32  C   UNL A   1      42.804  26.934  29.678  1.00  0.00     0.031 C 
ATOM     33  C   UNL A   1      44.660  31.309  33.460  1.00  0.00     0.029 A 
ATOM     34  C   UNL A   1      43.919  30.574  32.548  1.00  0.00     0.049 A 
ATOM     35  H   UNL A   1      42.085  31.063  31.625  1.00  0.00     0.167 HD
ATOM     36  C   UNL A   1      43.424  28.617  31.109  1.00  0.00     0.074 A 
ATOM     37  C   UNL A   1      43.717  27.306  30.567  1.00  0.00     0.031 C 
ATOM     38  C   UNL A   1      44.218  29.280  31.986  1.00  0.00     0.031 A 
BRANCH  25  39
ATOM     39  C   UNL A   1      41.993  34.769  33.758  1.00  0.00    -0.014 A 
ATOM     40  C   UNL A   1      42.721  35.864  33.266  1.00  0.00     0.009 A 
ATOM     41  C   UNL A   1      41.505  34.822  35.076  1.00  0.00     0.009 A 
ATOM     42  C   UNL A   1      42.964  36.978  34.073  1.00  0.00     0.001 A 
ATOM     43  C   UNL A   1      41.718  35.952  35.868  1.00  0.00     0.001 A 
ATOM     44  C   UNL A   1      42.456  37.025  35.371  1.00  0.00     0.000 A 
ENDBRANCH  25  39
BRANCH  26  45
ATOM     45  C   UNL A   1      40.356  26.749  28.046  1.00  0.00    -0.014 A 
ATOM     46  C   UNL A   1      39.654  25.650  28.570  1.00  0.00     0.009 A 
ATOM     47  C   UNL A   1      40.874  26.660  26.746  1.00  0.00     0.009 A 
ATOM     48  C   UNL A   1      39.511  24.477  27.826  1.00  0.00     0.001 A 
ATOM     49  C   UNL A   1      40.699  25.498  25.990  1.00  0.00     0.001 A 
ATOM     50  C   UNL A   1      40.031  24.402  26.536  1.00  0.00     0.000 A 
ENDBRANCH  26  45
BRANCH  38  51
ATOM     51  C   UNL A   1      45.501  28.614  32.412  1.00  0.00    -0.014 A 
ATOM     52  C   UNL A   1      46.675  28.806  31.666  1.00  0.00     0.009 A 
ATOM     53  C   UNL A   1      45.530  27.727  33.500  1.00  0.00     0.009 A 
ATOM     54  C   UNL A   1      47.846  28.118  31.992  1.00  0.00     0.001 A 
ATOM     55  C   UNL A   1      46.713  27.070  33.848  1.00  0.00     0.001 A 
ATOM     56  C   UNL A   1      47.865  27.258  33.087  1.00  0.00     0.000 A 
ENDBRANCH  38  51
ENDBRANCH  12  13
ENDBRANCH   5   7
ENDBRANCH   2   3
ENDBRANCH   1   2
BRANCH   1  57
ATOM     57  C   UNL A   1      33.548  30.298  27.294  1.00  0.00     0.117 C 
BRANCH  57  58
ATOM     58  N   UNL A   1      33.778  29.769  25.962  1.00  0.00    -0.356 N 
ATOM     59  C   UNL A   1      33.542  28.526  25.456  1.00  0.00     0.225 C 
ATOM     60  H   UNL A   1      34.168  30.410  25.322  1.00  0.00     0.163 HD
ATOM     61  O   UNL A   1      33.775  28.348  24.261  1.00  0.00    -0.275 OA
BRANCH  59  62
ATOM     62  C   UNL A   1      33.045  27.420  26.371  1.00  0.00     0.107 C 
ATOM     63  C   UNL A   1      31.520  27.428  26.517  1.00  0.00     0.115 C 
ATOM     64  C   UNL A   1      33.400  26.055  25.795  1.00  0.00     0.133 C 
ATOM     65  C   UNL A   1      31.090  26.015  26.256  1.00  0.00     0.223 C 
ATOM     66  N   UNL A   1      32.169  25.306  25.771  1.00  0.00    -0.342 N 
ATOM     67  O   UNL A   1      29.956  25.588  26.411  1.00  0.00    -0.275 OA
BRANCH  66  68
ATOM     68  C   UNL A   1      32.047  23.957  25.222  1.00  0.00     0.124 C 
BRANCH  68  69
ATOM     69  C   UNL A   1      32.553  22.862  26.187  1.00  0.00     0.055 C 
BRANCH  69  70
ATOM     70  C   UNL A   1      33.571  21.961  25.560  1.00  0.00    -0.038 C 
ATOM     71  C   UNL A   1      34.852  22.206  25.291  1.00  0.00     0.001 A 
ATOM     72  C   UNL A   1      33.222  20.550  25.192  1.00  0.00     0.174 C 
ATOM     73  C   UNL A   1      35.715  23.335  25.403  1.00  0.00     0.010 A 
ATOM     74  C   UNL A   1      35.366  20.867  24.957  1.00  0.00     0.065 A 
ATOM     75  N   UNL A   1      34.512  19.895  24.863  1.00  0.00    -0.280 NA
ATOM     76  C   UNL A   1      37.041  23.145  25.301  1.00  0.00     0.001 A 
ATOM     77  C   UNL A   1      36.836  20.740  24.847  1.00  0.00     0.028 A 
ATOM     78  C   UNL A   1      37.600  21.827  25.051  1.00  0.00     0.002 A 
ENDBRANCH  69  70
ENDBRANCH  68  69
ENDBRANCH  66  68
ENDBRANCH  59  62
ENDBRANCH  57  58
ENDBRANCH   1  57
TORSDOF 13
ENDMDL
MODEL 3
REMARK VINA RESULT:     -10.9      4.080      9.781
REMARK SMILES O=C(NCCCNC(=O)[C@H]1CC(=O)N(CCC2=c3ccccc3=NC2)C1)c1ccc(-c2c3nc(c(-c4ccccc4)c4ccc([nH]4)c(-c4ccccc4)c4nc(c(-c5ccccc5)c5ccc2[nH]5)C=C4)C=C3)cc1
REMARK SMILES IDX 5 1 4 2 3 3 1 4 2 5 27 7 28 8 74 9 29 10 73 11 30 12 31 13
REMARK SMILES IDX 32 14 67 15 33 16 72 17 66 18 68 19 34 20 71 21 65 22 64 23
REMARK SMILES IDX 35 25 57 26 42 27 56 28 43 29 46 30 55 31 69 32 44 33 45 34
REMARK SMILES IDX 54 36 70 37 47 38 36 39 37 40 41 41 38 42 40 43 39 44 58 45
REMARK SMILES IDX 59 46 63 47 60 48 62 49 61 50 48 51 49 52 53 53 50 54 52 55
REMARK SMILES IDX 51 56 6 57 7 58 8 59 9 61 10 62 11 63 26 64 12 65 14 66
REMARK SMILES IDX 13 67 15 68 16 69 17 70 18 71 25 72 19 73 23 74 24 75 20 76
REMARK SMILES IDX 22 77 21 78
REMARK H PARENT 3 6 68 24 46 35 7 60
REMARK Flexibility Score: inf
ROOT
ATOM      1  C   UNL A   1      33.738  34.046  28.098  1.00  0.00     0.042 C 
ENDROOT
BRANCH   1   2
ATOM      2  C   UNL A   1      34.656  32.841  28.296  1.00  0.00     0.118 C 
BRANCH   2   3
ATOM      3  N   UNL A   1      33.983  31.568  28.080  1.00  0.00    -0.352 N 
ATOM      4  O   UNL A   1      33.685  29.401  27.606  1.00  0.00    -0.269 OA
ATOM      5  C   UNL A   1      34.459  30.285  27.968  1.00  0.00     0.251 C 
ATOM      6  H   UNL A   1      33.004  31.640  28.000  1.00  0.00     0.163 HD
BRANCH   5   7
ATOM      7  C   UNL A   1      35.870  29.938  28.258  1.00  0.00     0.039 A 
ATOM      8  C   UNL A   1      36.818  30.106  27.242  1.00  0.00     0.014 A 
ATOM      9  C   UNL A   1      36.266  29.375  29.472  1.00  0.00     0.014 A 
ATOM     10  C   UNL A   1      38.152  29.748  27.458  1.00  0.00     0.010 A 
ATOM     11  C   UNL A   1      37.614  29.117  29.724  1.00  0.00     0.010 A 
ATOM     12  C   UNL A   1      38.569  29.273  28.711  1.00  0.00    -0.014 A 
BRANCH  12  13
ATOM     13  C   UNL A   1      39.989  28.899  28.954  1.00  0.00     0.031 A 
ATOM     14  C   UNL A   1      40.933  29.863  29.624  1.00  0.00     0.074 A 
ATOM     15  C   UNL A   1      40.442  27.693  28.558  1.00  0.00     0.049 A 
ATOM     16  N   UNL A   1      42.197  29.702  29.931  1.00  0.00    -0.248 NA
ATOM     17  C   UNL A   1      40.400  31.189  29.977  1.00  0.00     0.031 C 
ATOM     18  C   UNL A   1      39.645  26.682  27.862  1.00  0.00     0.029 A 
ATOM     19  N   UNL A   1      41.676  27.107  28.697  1.00  0.00    -0.354 N 
ATOM     20  C   UNL A   1      42.602  30.900  30.508  1.00  0.00     0.074 A 
ATOM     21  C   UNL A   1      41.478  31.805  30.435  1.00  0.00     0.031 C 
ATOM     22  C   UNL A   1      40.393  25.583  27.682  1.00  0.00     0.029 A 
ATOM     23  C   UNL A   1      41.734  25.825  28.207  1.00  0.00     0.049 A 
ATOM     24  H   UNL A   1      42.445  27.562  29.110  1.00  0.00     0.167 HD
ATOM     25  C   UNL A   1      43.789  31.209  31.083  1.00  0.00     0.031 A 
ATOM     26  C   UNL A   1      42.746  24.934  28.186  1.00  0.00     0.031 A 
ATOM     27  C   UNL A   1      44.907  30.307  31.161  1.00  0.00     0.049 A 
ATOM     28  C   UNL A   1      44.062  25.302  28.812  1.00  0.00     0.074 A 
ATOM     29  C   UNL A   1      46.139  30.516  31.755  1.00  0.00     0.029 A 
ATOM     30  N   UNL A   1      44.931  29.025  30.631  1.00  0.00    -0.354 N 
ATOM     31  N   UNL A   1      44.410  26.418  29.406  1.00  0.00    -0.248 NA
ATOM     32  C   UNL A   1      45.120  24.282  28.782  1.00  0.00     0.031 C 
ATOM     33  C   UNL A   1      46.932  29.389  31.525  1.00  0.00     0.029 A 
ATOM     34  C   UNL A   1      46.169  28.443  30.860  1.00  0.00     0.049 A 
ATOM     35  H   UNL A   1      44.181  28.592  30.162  1.00  0.00     0.167 HD
ATOM     36  C   UNL A   1      45.721  26.234  29.828  1.00  0.00     0.074 A 
ATOM     37  C   UNL A   1      46.093  24.885  29.454  1.00  0.00     0.031 C 
ATOM     38  C   UNL A   1      46.541  27.108  30.462  1.00  0.00     0.031 A 
BRANCH  25  39
ATOM     39  C   UNL A   1      43.936  32.578  31.695  1.00  0.00    -0.014 A 
ATOM     40  C   UNL A   1      43.622  32.785  33.047  1.00  0.00     0.009 A 
ATOM     41  C   UNL A   1      44.316  33.684  30.914  1.00  0.00     0.009 A 
ATOM     42  C   UNL A   1      43.677  34.065  33.602  1.00  0.00     0.001 A 
ATOM     43  C   UNL A   1      44.407  34.957  31.481  1.00  0.00     0.001 A 
ATOM     44  C   UNL A   1      44.077  35.149  32.822  1.00  0.00     0.000 A 
ENDBRANCH  25  39
BRANCH  26  45
ATOM     45  C   UNL A   1      42.514  23.591  27.589  1.00  0.00    -0.014 A 
ATOM     46  C   UNL A   1      42.791  23.355  26.232  1.00  0.00     0.009 A 
ATOM     47  C   UNL A   1      41.936  22.563  28.348  1.00  0.00     0.009 A 
ATOM     48  C   UNL A   1      42.460  22.135  25.640  1.00  0.00     0.001 A 
ATOM     49  C   UNL A   1      41.636  21.330  27.761  1.00  0.00     0.001 A 
ATOM     50  C   UNL A   1      41.885  21.123  26.405  1.00  0.00     0.000 A 
ENDBRANCH  26  45
BRANCH  38  51
ATOM     51  C   UNL A   1      47.940  26.649  30.785  1.00  0.00    -0.014 A 
ATOM     52  C   UNL A   1      48.969  26.812  29.843  1.00  0.00     0.009 A 
ATOM     53  C   UNL A   1      48.224  25.978  31.984  1.00  0.00     0.009 A 
ATOM     54  C   UNL A   1      50.246  26.304  30.088  1.00  0.00     0.001 A 
ATOM     55  C   UNL A   1      49.512  25.505  32.245  1.00  0.00     0.001 A 
ATOM     56  C   UNL A   1      50.518  25.658  31.292  1.00  0.00     0.000 A 
ENDBRANCH  38  51
ENDBRANCH  12  13
ENDBRANCH   5   7
ENDBRANCH   2   3
ENDBRANCH   1   2
BRANCH   1  57
ATOM     57  C   UNL A   1      33.959  35.183  29.086  1.00  0.00     0.117 C 
BRANCH  57  58
ATOM     58  N   UNL A   1      32.983  35.181  30.161  1.00  0.00    -0.356 N 
ATOM     59  C   UNL A   1      33.163  35.171  31.512  1.00  0.00     0.225 C 
ATOM     60  H   UNL A   1      32.043  35.187  29.868  1.00  0.00     0.163 HD
ATOM     61  O   UNL A   1      32.156  35.232  32.217  1.00  0.00    -0.275 OA
BRANCH  59  62
ATOM     62  C   UNL A   1      34.564  35.053  32.087  1.00  0.00     0.107 C 
ATOM     63  C   UNL A   1      34.582  35.198  33.612  1.00  0.00     0.115 C 
ATOM     64  C   UNL A   1      35.142  33.673  31.793  1.00  0.00     0.133 C 
ATOM     65  C   UNL A   1      35.374  34.027  34.111  1.00  0.00     0.223 C 
ATOM     66  N   UNL A   1      35.591  33.157  33.063  1.00  0.00    -0.342 N 
ATOM     67  O   UNL A   1      35.727  33.863  35.269  1.00  0.00    -0.275 OA
BRANCH  66  68
ATOM     68  C   UNL A   1      36.151  31.821  33.246  1.00  0.00     0.124 C 
BRANCH  68  69
ATOM     69  C   UNL A   1      37.393  31.558  32.365  1.00  0.00     0.055 C 
BRANCH  69  70
ATOM     70  C   UNL A   1      38.641  31.355  33.166  1.00  0.00    -0.038 C 
ATOM     71  C   UNL A   1      39.402  30.268  33.269  1.00  0.00     0.001 A 
ATOM     72  C   UNL A   1      39.232  32.481  33.961  1.00  0.00     0.174 C 
ATOM     73  C   UNL A   1      39.338  28.933  32.771  1.00  0.00     0.010 A 
ATOM     74  C   UNL A   1      40.599  30.782  33.954  1.00  0.00     0.065 A 
ATOM     75  N   UNL A   1      40.571  32.005  34.388  1.00  0.00    -0.280 NA
ATOM     76  C   UNL A   1      40.439  28.166  32.841  1.00  0.00     0.001 A 
ATOM     77  C   UNL A   1      41.766  29.874  34.003  1.00  0.00     0.028 A 
ATOM     78  C   UNL A   1      41.669  28.659  33.437  1.00  0.00     0.002 A 
ENDBRANCH  69  70
ENDBRANCH  68  69
ENDBRANCH  66  68
ENDBRANCH  59  62
ENDBRANCH  57  58
ENDBRANCH   1  57
TORSDOF 13
ENDMDL
