MODEL 1
REMARK VINA RESULT:     -11.5      0.000      0.000
REMARK SMILES CCOC(=O)C1=NN(c2ccc(OC(F)(F)F)cc2)[C@@](C)(C(=O)NCCCNC(=O)c2ccc(-c3c4nc(c(-c5ccccc5)c5ccc([nH]5)c(-c5ccccc5)c5nc(c(-c6ccccc6)c6ccc3[nH]6)C=C5)C=C4)cc2)C1
REMARK SMILES IDX 25 1 24 2 22 3 23 4 20 6 6 7 7 8 79 9 8 10 21 11 4 12 5 13
REMARK SMILES IDX 3 14 2 15 1 16 9 17 10 18 19 19 11 20 18 21 12 22 13 23
REMARK SMILES IDX 14 24 15 25 16 26 17 27 26 28 27 29 28 30 29 31 30 33 31 34
REMARK SMILES IDX 32 35 78 36 33 37 77 38 34 39 35 40 36 41 71 42 37 43 76 44
REMARK SMILES IDX 70 45 72 46 38 47 75 48 69 49 68 50 39 52 61 53 46 54 60 55
REMARK SMILES IDX 47 56 50 57 59 58 73 59 48 60 49 61 58 63 74 64 51 65 40 66
REMARK SMILES IDX 41 67 45 68 42 69 44 70 43 71 62 72 63 73 67 74 64 75 66 76
REMARK SMILES IDX 65 77 52 78 53 79 57 80 54 81 56 82 55 83
REMARK H PARENT 24 5 28 32 72 51 50 62
REMARK Flexibility Score: inf
ROOT
ATOM      1  C   UNL A   1      31.897  26.811  26.440  1.00  0.00     0.117 C 
ENDROOT
BRANCH   1   2
ATOM      2  N   UNL A   1      33.046  25.938  26.311  1.00  0.00    -0.354 N 
ATOM      3  C   UNL A   1      33.264  24.768  25.655  1.00  0.00     0.248 C 
ATOM      4  O   UNL A   1      34.380  24.272  25.873  1.00  0.00    -0.272 OA
ATOM      5  H   UNL A   1      33.836  26.260  26.803  1.00  0.00     0.163 HD
BRANCH   3   6
ATOM      6  C   UNL A   1      32.263  24.091  24.663  1.00  0.00     0.144 C 
ATOM      7  C   UNL A   1      32.935  24.762  22.556  1.00  0.00     0.149 C 
ATOM      8  N   UNL A   1      33.467  23.589  22.687  1.00  0.00    -0.169 NA
ATOM      9  C   UNL A   1      31.911  25.136  23.564  1.00  0.00     0.106 C 
ATOM     10  N   UNL A   1      32.934  23.046  23.840  1.00  0.00    -0.249 N 
ATOM     11  C   UNL A   1      30.950  23.721  25.343  1.00  0.00     0.048 C 
BRANCH   7  12
ATOM     12  C   UNL A   1      33.228  25.691  21.414  1.00  0.00     0.354 C 
ATOM     13  O   UNL A   1      32.809  25.489  20.291  1.00  0.00    -0.245 OA
BRANCH  12  14
ATOM     14  O   UNL A   1      34.058  26.668  21.834  1.00  0.00    -0.461 OA
BRANCH  14  15
ATOM     15  C   UNL A   1      33.449  27.950  22.031  1.00  0.00     0.230 C 
ATOM     16  C   UNL A   1      34.126  28.683  23.173  1.00  0.00     0.049 C 
ENDBRANCH  14  15
ENDBRANCH  12  14
ENDBRANCH   7  12
BRANCH  10  17
ATOM     17  C   UNL A   1      33.158  21.694  24.056  1.00  0.00     0.061 A 
ATOM     18  C   UNL A   1      34.388  21.262  24.584  1.00  0.00     0.032 A 
ATOM     19  C   UNL A   1      32.244  20.683  23.744  1.00  0.00     0.032 A 
ATOM     20  C   UNL A   1      34.659  19.915  24.855  1.00  0.00     0.049 A 
ATOM     21  C   UNL A   1      32.505  19.326  24.007  1.00  0.00     0.049 A 
ATOM     22  C   UNL A   1      33.708  18.936  24.584  1.00  0.00     0.129 A 
BRANCH  22  23
ATOM     23  O   UNL A   1      34.085  17.667  24.912  1.00  0.00    -0.406 OA
BRANCH  23  24
ATOM     24  C   UNL A   1      33.992  16.673  23.906  1.00  0.00     0.573 C 
ATOM     25  F   UNL A   1      33.962  17.225  22.673  1.00  0.00    -0.132 F 
ATOM     26  F   UNL A   1      35.022  15.804  23.985  1.00  0.00    -0.132 F 
ATOM     27  F   UNL A   1      32.844  15.983  24.084  1.00  0.00    -0.132 F 
ENDBRANCH  23  24
ENDBRANCH  22  23
ENDBRANCH  10  17
ENDBRANCH   3   6
ENDBRANCH   1   2
BRANCH   1  28
ATOM     28  C   UNL A   1      32.273  28.290  26.395  1.00  0.00     0.042 C 
BRANCH  28  29
ATOM     29  C   UNL A   1      33.515  28.667  27.197  1.00  0.00     0.118 C 
BRANCH  29  30
ATOM     30  N   UNL A   1      33.522  30.061  27.612  1.00  0.00    -0.352 N 
ATOM     31  C   UNL A   1      34.482  30.792  28.268  1.00  0.00     0.251 C 
ATOM     32  H   UNL A   1      32.704  30.562  27.387  1.00  0.00     0.163 HD
ATOM     33  O   UNL A   1      34.206  31.918  28.673  1.00  0.00    -0.269 OA
BRANCH  31  34
ATOM     34  C   UNL A   1      35.835  30.244  28.514  1.00  0.00     0.039 A 
ATOM     35  C   UNL A   1      36.768  30.278  27.472  1.00  0.00     0.014 A 
ATOM     36  C   UNL A   1      36.173  29.637  29.727  1.00  0.00     0.014 A 
ATOM     37  C   UNL A   1      38.055  29.770  27.665  1.00  0.00     0.010 A 
ATOM     38  C   UNL A   1      37.472  29.167  29.934  1.00  0.00     0.010 A 
ATOM     39  C   UNL A   1      38.424  29.234  28.907  1.00  0.00    -0.014 A 
BRANCH  39  40
ATOM     40  C   UNL A   1      39.805  28.752  29.154  1.00  0.00     0.031 A 
ATOM     41  C   UNL A   1      40.833  29.659  29.763  1.00  0.00     0.074 A 
ATOM     42  C   UNL A   1      40.157  27.509  28.774  1.00  0.00     0.049 A 
ATOM     43  N   UNL A   1      42.121  29.467  29.906  1.00  0.00    -0.248 NA
ATOM     44  C   UNL A   1      40.357  30.958  30.262  1.00  0.00     0.031 C 
ATOM     45  C   UNL A   1      39.269  26.524  28.156  1.00  0.00     0.029 A 
ATOM     46  N   UNL A   1      41.369  26.869  28.846  1.00  0.00    -0.354 N 
ATOM     47  C   UNL A   1      42.617  30.637  30.462  1.00  0.00     0.074 A 
ATOM     48  C   UNL A   1      41.490  31.527  30.654  1.00  0.00     0.031 C 
ATOM     49  C   UNL A   1      39.962  25.399  27.916  1.00  0.00     0.029 A 
ATOM     50  C   UNL A   1      41.346  25.596  28.335  1.00  0.00     0.049 A 
ATOM     51  H   UNL A   1      42.176  27.283  29.226  1.00  0.00     0.167 HD
ATOM     52  C   UNL A   1      43.896  30.950  30.774  1.00  0.00     0.031 A 
ATOM     53  C   UNL A   1      42.333  24.691  28.202  1.00  0.00     0.031 A 
ATOM     54  C   UNL A   1      45.019  30.065  30.637  1.00  0.00     0.049 A 
ATOM     55  C   UNL A   1      43.730  25.037  28.622  1.00  0.00     0.074 A 
ATOM     56  C   UNL A   1      46.348  30.301  30.945  1.00  0.00     0.029 A 
ATOM     57  N   UNL A   1      44.941  28.767  30.167  1.00  0.00    -0.354 N 
ATOM     58  N   UNL A   1      44.186  26.161  29.114  1.00  0.00    -0.248 NA
ATOM     59  C   UNL A   1      44.748  23.989  28.454  1.00  0.00     0.031 C 
ATOM     60  C   UNL A   1      47.076  29.137  30.663  1.00  0.00     0.029 A 
ATOM     61  C   UNL A   1      46.195  28.182  30.182  1.00  0.00     0.049 A 
ATOM     62  H   UNL A   1      44.115  28.324  29.865  1.00  0.00     0.167 HD
ATOM     63  C   UNL A   1      45.546  25.963  29.302  1.00  0.00     0.074 A 
ATOM     64  C   UNL A   1      45.840  24.607  28.888  1.00  0.00     0.031 C 
ATOM     65  C   UNL A   1      46.471  26.834  29.769  1.00  0.00     0.031 A 
BRANCH  52  66
ATOM     66  C   UNL A   1      44.146  32.337  31.282  1.00  0.00    -0.014 A 
ATOM     67  C   UNL A   1      44.079  32.625  32.652  1.00  0.00     0.009 A 
ATOM     68  C   UNL A   1      44.471  33.359  30.376  1.00  0.00     0.009 A 
ATOM     69  C   UNL A   1      44.318  33.924  33.106  1.00  0.00     0.001 A 
ATOM     70  C   UNL A   1      44.713  34.654  30.836  1.00  0.00     0.001 A 
ATOM     71  C   UNL A   1      44.634  34.936  32.199  1.00  0.00     0.000 A 
ENDBRANCH  52  66
BRANCH  53  72
ATOM     72  C   UNL A   1      42.033  23.363  27.622  1.00  0.00    -0.014 A 
ATOM     73  C   UNL A   1      42.259  23.123  26.259  1.00  0.00     0.009 A 
ATOM     74  C   UNL A   1      41.529  22.334  28.430  1.00  0.00     0.009 A 
ATOM     75  C   UNL A   1      41.974  21.872  25.711  1.00  0.00     0.001 A 
ATOM     76  C   UNL A   1      41.251  21.082  27.879  1.00  0.00     0.001 A 
ATOM     77  C   UNL A   1      41.472  20.853  26.520  1.00  0.00     0.000 A 
ENDBRANCH  53  72
BRANCH  65  78
ATOM     78  C   UNL A   1      47.882  26.342  29.848  1.00  0.00    -0.014 A 
ATOM     79  C   UNL A   1      48.710  26.388  28.716  1.00  0.00     0.009 A 
ATOM     80  C   UNL A   1      48.391  25.847  31.057  1.00  0.00     0.009 A 
ATOM     81  C   UNL A   1      50.026  25.931  28.791  1.00  0.00     0.001 A 
ATOM     82  C   UNL A   1      49.710  25.393  31.129  1.00  0.00     0.001 A 
ATOM     83  C   UNL A   1      50.523  25.432  29.996  1.00  0.00     0.000 A 
ENDBRANCH  65  78
ENDBRANCH  39  40
ENDBRANCH  31  34
ENDBRANCH  29  30
ENDBRANCH  28  29
ENDBRANCH   1  28
TORSDOF 16
ENDMDL
MODEL 2
REMARK VINA RESULT:     -11.3      2.430      7.049
REMARK SMILES CCOC(=O)C1=NN(c2ccc(OC(F)(F)F)cc2)[C@@](C)(C(=O)NCCCNC(=O)c2ccc(-c3c4nc(c(-c5ccccc5)c5ccc([nH]5)c(-c5ccccc5)c5nc(c(-c6ccccc6)c6ccc3[nH]6)C=C5)C=C4)cc2)C1
REMARK SMILES IDX 25 1 24 2 22 3 23 4 20 6 6 7 7 8 79 9 8 10 21 11 4 12 5 13
REMARK SMILES IDX 3 14 2 15 1 16 9 17 10 18 19 19 11 20 18 21 12 22 13 23
REMARK SMILES IDX 14 24 15 25 16 26 17 27 26 28 27 29 28 30 29 31 30 33 31 34
REMARK SMILES IDX 32 35 78 36 33 37 77 38 34 39 35 40 36 41 71 42 37 43 76 44
REMARK SMILES IDX 70 45 72 46 38 47 75 48 69 49 68 50 39 52 61 53 46 54 60 55
REMARK SMILES IDX 47 56 50 57 59 58 73 59 48 60 49 61 58 63 74 64 51 65 40 66
REMARK SMILES IDX 41 67 45 68 42 69 44 70 43 71 62 72 63 73 67 74 64 75 66 76
REMARK SMILES IDX 65 77 52 78 53 79 57 80 54 81 56 82 55 83
REMARK H PARENT 24 5 28 32 72 51 50 62
REMARK Flexibility Score: inf
ROOT
ATOM      1  C   UNL A   1      35.172  23.182  23.440  1.00  0.00     0.117 C 
ENDROOT
BRANCH   1   2
ATOM      2  N   UNL A   1      34.754  24.569  23.433  1.00  0.00    -0.354 N 
ATOM      3  C   UNL A   1      33.699  25.232  23.976  1.00  0.00     0.248 C 
ATOM      4  O   UNL A   1      33.644  26.430  23.659  1.00  0.00    -0.272 OA
ATOM      5  H   UNL A   1      35.364  25.156  22.930  1.00  0.00     0.163 HD
BRANCH   3   6
ATOM      6  C   UNL A   1      32.654  24.611  24.959  1.00  0.00     0.144 C 
ATOM      7  C   UNL A   1      30.595  25.357  24.219  1.00  0.00     0.149 C 
ATOM      8  N   UNL A   1      30.693  24.171  23.707  1.00  0.00    -0.169 NA
ATOM      9  C   UNL A   1      31.590  25.705  25.265  1.00  0.00     0.106 C 
ATOM     10  N   UNL A   1      31.808  23.590  24.280  1.00  0.00    -0.249 N 
ATOM     11  C   UNL A   1      33.282  24.234  26.295  1.00  0.00     0.048 C 
BRANCH   7  12
ATOM     12  C   UNL A   1      29.500  26.327  23.882  1.00  0.00     0.354 C 
ATOM     13  O   UNL A   1      28.392  26.250  24.376  1.00  0.00    -0.245 OA
BRANCH  12  14
ATOM     14  O   UNL A   1      29.934  27.175  22.928  1.00  0.00    -0.461 OA
BRANCH  14  15
ATOM     15  C   UNL A   1      30.240  28.502  23.378  1.00  0.00     0.230 C 
ATOM     16  C   UNL A   1      29.090  29.441  23.066  1.00  0.00     0.049 C 
ENDBRANCH  14  15
ENDBRANCH  12  14
ENDBRANCH   7  12
BRANCH  10  17
ATOM     17  C   UNL A   1      31.975  22.228  24.082  1.00  0.00     0.061 A 
ATOM     18  C   UNL A   1      31.998  21.706  22.776  1.00  0.00     0.032 A 
ATOM     19  C   UNL A   1      32.085  21.289  25.112  1.00  0.00     0.032 A 
ATOM     20  C   UNL A   1      32.197  20.345  22.512  1.00  0.00     0.049 A 
ATOM     21  C   UNL A   1      32.281  19.918  24.861  1.00  0.00     0.049 A 
ATOM     22  C   UNL A   1      32.359  19.441  23.557  1.00  0.00     0.129 A 
BRANCH  22  23
ATOM     23  O   UNL A   1      32.565  18.150  23.170  1.00  0.00    -0.406 OA
BRANCH  23  24
ATOM     24  C   UNL A   1      33.738  17.504  23.633  1.00  0.00     0.573 C 
ATOM     25  F   UNL A   1      34.647  18.400  24.076  1.00  0.00    -0.132 F 
ATOM     26  F   UNL A   1      33.453  16.626  24.618  1.00  0.00    -0.132 F 
ATOM     27  F   UNL A   1      34.290  16.820  22.607  1.00  0.00    -0.132 F 
ENDBRANCH  23  24
ENDBRANCH  22  23
ENDBRANCH  10  17
ENDBRANCH   3   6
ENDBRANCH   1   2
BRANCH   1  28
ATOM     28  C   UNL A   1      36.679  23.021  23.623  1.00  0.00     0.042 C 
BRANCH  28  29
ATOM     29  C   UNL A   1      37.211  23.424  24.995  1.00  0.00     0.118 C 
BRANCH  29  30
ATOM     30  N   UNL A   1      38.173  22.475  25.533  1.00  0.00    -0.352 N 
ATOM     31  C   UNL A   1      39.302  22.679  26.287  1.00  0.00     0.251 C 
ATOM     32  H   UNL A   1      37.984  21.532  25.321  1.00  0.00     0.163 HD
ATOM     33  O   UNL A   1      40.068  21.741  26.489  1.00  0.00    -0.269 OA
BRANCH  31  34
ATOM     34  C   UNL A   1      39.627  24.012  26.844  1.00  0.00     0.039 A 
ATOM     35  C   UNL A   1      39.158  24.332  28.123  1.00  0.00     0.014 A 
ATOM     36  C   UNL A   1      40.323  24.970  26.101  1.00  0.00     0.014 A 
ATOM     37  C   UNL A   1      39.443  25.580  28.683  1.00  0.00     0.010 A 
ATOM     38  C   UNL A   1      40.643  26.202  26.677  1.00  0.00     0.010 A 
ATOM     39  C   UNL A   1      40.212  26.515  27.974  1.00  0.00    -0.014 A 
BRANCH  39  40
ATOM     40  C   UNL A   1      40.582  27.818  28.576  1.00  0.00     0.031 A 
ATOM     41  C   UNL A   1      41.966  28.046  29.110  1.00  0.00     0.074 A 
ATOM     42  C   UNL A   1      39.654  28.785  28.701  1.00  0.00     0.049 A 
ATOM     43  N   UNL A   1      42.424  29.055  29.808  1.00  0.00    -0.248 NA
ATOM     44  C   UNL A   1      42.961  26.998  28.838  1.00  0.00     0.031 C 
ATOM     45  C   UNL A   1      38.267  28.698  28.245  1.00  0.00     0.029 A 
ATOM     46  N   UNL A   1      39.744  30.033  29.267  1.00  0.00    -0.354 N 
ATOM     47  C   UNL A   1      43.743  28.740  30.103  1.00  0.00     0.074 A 
ATOM     48  C   UNL A   1      44.022  27.458  29.488  1.00  0.00     0.031 C 
ATOM     49  C   UNL A   1      37.637  29.849  28.535  1.00  0.00     0.029 A 
ATOM     50  C   UNL A   1      38.568  30.738  29.224  1.00  0.00     0.049 A 
ATOM     51  H   UNL A   1      40.571  30.387  29.664  1.00  0.00     0.167 HD
ATOM     52  C   UNL A   1      44.640  29.447  30.831  1.00  0.00     0.031 A 
ATOM     53  C   UNL A   1      38.264  31.959  29.701  1.00  0.00     0.031 A 
ATOM     54  C   UNL A   1      44.398  30.741  31.407  1.00  0.00     0.049 A 
ATOM     55  C   UNL A   1      39.297  32.753  30.442  1.00  0.00     0.074 A 
ATOM     56  C   UNL A   1      45.260  31.532  32.147  1.00  0.00     0.029 A 
ATOM     57  N   UNL A   1      43.211  31.440  31.292  1.00  0.00    -0.354 N 
ATOM     58  N   UNL A   1      40.529  32.425  30.741  1.00  0.00    -0.248 NA
ATOM     59  C   UNL A   1      38.889  34.082  30.921  1.00  0.00     0.031 C 
ATOM     60  C   UNL A   1      44.591  32.718  32.478  1.00  0.00     0.029 A 
ATOM     61  C   UNL A   1      43.316  32.659  31.940  1.00  0.00     0.049 A 
ATOM     62  H   UNL A   1      42.408  31.119  30.820  1.00  0.00     0.167 HD
ATOM     63  C   UNL A   1      41.040  33.498  31.455  1.00  0.00     0.074 A 
ATOM     64  C   UNL A   1      39.993  34.496  31.531  1.00  0.00     0.031 C 
ATOM     65  C   UNL A   1      42.268  33.639  32.006  1.00  0.00     0.031 A 
BRANCH  52  66
ATOM     66  C   UNL A   1      45.975  28.808  31.060  1.00  0.00    -0.014 A 
ATOM     67  C   UNL A   1      46.187  27.957  32.153  1.00  0.00     0.009 A 
ATOM     68  C   UNL A   1      47.023  29.049  30.158  1.00  0.00     0.009 A 
ATOM     69  C   UNL A   1      47.439  27.369  32.349  1.00  0.00     0.001 A 
ATOM     70  C   UNL A   1      48.270  28.456  30.356  1.00  0.00     0.001 A 
ATOM     71  C   UNL A   1      48.478  27.619  31.452  1.00  0.00     0.000 A 
ENDBRANCH  52  66
BRANCH  53  72
ATOM     72  C   UNL A   1      36.901  32.502  29.506  1.00  0.00    -0.014 A 
ATOM     73  C   UNL A   1      36.586  33.213  28.339  1.00  0.00     0.009 A 
ATOM     74  C   UNL A   1      35.914  32.303  30.481  1.00  0.00     0.009 A 
ATOM     75  C   UNL A   1      35.301  33.726  28.157  1.00  0.00     0.001 A 
ATOM     76  C   UNL A   1      34.629  32.814  30.291  1.00  0.00     0.001 A 
ATOM     77  C   UNL A   1      34.325  33.526  29.131  1.00  0.00     0.000 A 
ENDBRANCH  53  72
BRANCH  65  78
ATOM     78  C   UNL A   1      42.535  34.915  32.742  1.00  0.00    -0.014 A 
ATOM     79  C   UNL A   1      43.253  35.950  32.122  1.00  0.00     0.009 A 
ATOM     80  C   UNL A   1      42.058  35.091  34.048  1.00  0.00     0.009 A 
ATOM     81  C   UNL A   1      43.500  37.140  32.808  1.00  0.00     0.001 A 
ATOM     82  C   UNL A   1      42.305  36.284  34.730  1.00  0.00     0.001 A 
ATOM     83  C   UNL A   1      43.028  37.304  34.111  1.00  0.00     0.000 A 
ENDBRANCH  65  78
ENDBRANCH  39  40
ENDBRANCH  31  34
ENDBRANCH  29  30
ENDBRANCH  28  29
ENDBRANCH   1  28
TORSDOF 16
ENDMDL
MODEL 3
REMARK VINA RESULT:     -11.3      4.182      8.645
REMARK SMILES CCOC(=O)C1=NN(c2ccc(OC(F)(F)F)cc2)[C@@](C)(C(=O)NCCCNC(=O)c2ccc(-c3c4nc(c(-c5ccccc5)c5ccc([nH]5)c(-c5ccccc5)c5nc(c(-c6ccccc6)c6ccc3[nH]6)C=C5)C=C4)cc2)C1
REMARK SMILES IDX 25 1 24 2 22 3 23 4 20 6 6 7 7 8 79 9 8 10 21 11 4 12 5 13
REMARK SMILES IDX 3 14 2 15 1 16 9 17 10 18 19 19 11 20 18 21 12 22 13 23
REMARK SMILES IDX 14 24 15 25 16 26 17 27 26 28 27 29 28 30 29 31 30 33 31 34
REMARK SMILES IDX 32 35 78 36 33 37 77 38 34 39 35 40 36 41 71 42 37 43 76 44
REMARK SMILES IDX 70 45 72 46 38 47 75 48 69 49 68 50 39 52 61 53 46 54 60 55
REMARK SMILES IDX 47 56 50 57 59 58 73 59 48 60 49 61 58 63 74 64 51 65 40 66
REMARK SMILES IDX 41 67 45 68 42 69 44 70 43 71 62 72 63 73 67 74 64 75 66 76
REMARK SMILES IDX 65 77 52 78 53 79 57 80 54 81 56 82 55 83
REMARK H PARENT 24 5 28 32 72 51 50 62
REMARK Flexibility Score: inf
ROOT
ATOM      1  C   UNL A   1      34.769  23.683  24.192  1.00  0.00     0.117 C 
ENDROOT
BRANCH   1   2
ATOM      2  N   UNL A   1      34.473  25.099  24.267  1.00  0.00    -0.354 N 
ATOM      3  C   UNL A   1      33.403  25.853  23.898  1.00  0.00     0.248 C 
ATOM      4  O   UNL A   1      33.576  27.072  24.047  1.00  0.00    -0.272 OA
ATOM      5  H   UNL A   1      35.199  25.627  24.671  1.00  0.00     0.163 HD
BRANCH   3   6
ATOM      6  C   UNL A   1      32.040  25.291  23.381  1.00  0.00     0.144 C 
ATOM      7  C   UNL A   1      30.994  24.403  25.241  1.00  0.00     0.149 C 
ATOM      8  N   UNL A   1      30.459  25.576  25.121  1.00  0.00    -0.169 NA
ATOM      9  C   UNL A   1      31.797  23.925  24.087  1.00  0.00     0.106 C 
ATOM     10  N   UNL A   1      30.890  26.078  23.908  1.00  0.00    -0.249 N 
ATOM     11  C   UNL A   1      32.073  25.003  21.885  1.00  0.00     0.048 C 
BRANCH   7  12
ATOM     12  C   UNL A   1      30.768  23.496  26.416  1.00  0.00     0.354 C 
ATOM     13  O   UNL A   1      29.872  23.684  27.216  1.00  0.00    -0.245 OA
BRANCH  12  14
ATOM     14  O   UNL A   1      31.738  22.560  26.452  1.00  0.00    -0.461 OA
BRANCH  14  15
ATOM     15  C   UNL A   1      32.694  22.705  27.511  1.00  0.00     0.230 C 
ATOM     16  C   UNL A   1      33.804  21.682  27.360  1.00  0.00     0.049 C 
ENDBRANCH  14  15
ENDBRANCH  12  14
ENDBRANCH   7  12
BRANCH  10  17
ATOM     17  C   UNL A   1      30.250  27.215  23.439  1.00  0.00     0.061 A 
ATOM     18  C   UNL A   1      28.856  27.343  23.576  1.00  0.00     0.032 A 
ATOM     19  C   UNL A   1      30.893  28.267  22.779  1.00  0.00     0.032 A 
ATOM     20  C   UNL A   1      28.159  28.482  23.151  1.00  0.00     0.049 A 
ATOM     21  C   UNL A   1      30.205  29.415  22.345  1.00  0.00     0.049 A 
ATOM     22  C   UNL A   1      28.835  29.537  22.547  1.00  0.00     0.129 A 
BRANCH  22  23
ATOM     23  O   UNL A   1      28.048  30.595  22.199  1.00  0.00    -0.406 OA
BRANCH  23  24
ATOM     24  C   UNL A   1      28.026  31.713  23.069  1.00  0.00     0.573 C 
ATOM     25  F   UNL A   1      28.125  32.871  22.380  1.00  0.00    -0.132 F 
ATOM     26  F   UNL A   1      26.901  31.727  23.814  1.00  0.00    -0.132 F 
ATOM     27  F   UNL A   1      29.084  31.632  23.906  1.00  0.00    -0.132 F 
ENDBRANCH  23  24
ENDBRANCH  22  23
ENDBRANCH  10  17
ENDBRANCH   3   6
ENDBRANCH   1   2
BRANCH   1  28
ATOM     28  C   UNL A   1      36.267  23.398  24.118  1.00  0.00     0.042 C 
BRANCH  28  29
ATOM     29  C   UNL A   1      37.043  23.673  25.403  1.00  0.00     0.118 C 
BRANCH  29  30
ATOM     30  N   UNL A   1      38.127  22.730  25.626  1.00  0.00    -0.352 N 
ATOM     31  C   UNL A   1      39.365  22.911  26.190  1.00  0.00     0.251 C 
ATOM     32  H   UNL A   1      37.942  21.811  25.322  1.00  0.00     0.163 HD
ATOM     33  O   UNL A   1      40.194  22.007  26.122  1.00  0.00    -0.269 OA
BRANCH  31  34
ATOM     34  C   UNL A   1      39.730  24.180  26.860  1.00  0.00     0.039 A 
ATOM     35  C   UNL A   1      40.458  25.130  26.135  1.00  0.00     0.014 A 
ATOM     36  C   UNL A   1      39.428  24.416  28.204  1.00  0.00     0.014 A 
ATOM     37  C   UNL A   1      40.822  26.340  26.731  1.00  0.00     0.010 A 
ATOM     38  C   UNL A   1      39.756  25.641  28.788  1.00  0.00     0.010 A 
ATOM     39  C   UNL A   1      40.449  26.616  28.055  1.00  0.00    -0.014 A 
BRANCH  39  40
ATOM     40  C   UNL A   1      40.767  27.920  28.685  1.00  0.00     0.031 A 
ATOM     41  C   UNL A   1      42.127  28.177  29.264  1.00  0.00     0.074 A 
ATOM     42  C   UNL A   1      39.809  28.860  28.795  1.00  0.00     0.049 A 
ATOM     43  N   UNL A   1      42.536  29.188  29.989  1.00  0.00    -0.248 NA
ATOM     44  C   UNL A   1      43.158  27.160  29.009  1.00  0.00     0.031 C 
ATOM     45  C   UNL A   1      38.439  28.743  28.295  1.00  0.00     0.029 A 
ATOM     46  N   UNL A   1      39.848  30.102  29.378  1.00  0.00    -0.354 N 
ATOM     47  C   UNL A   1      43.854  28.905  30.320  1.00  0.00     0.074 A 
ATOM     48  C   UNL A   1      44.185  27.640  29.698  1.00  0.00     0.031 C 
ATOM     49  C   UNL A   1      37.770  29.872  28.581  1.00  0.00     0.029 A 
ATOM     50  C   UNL A   1      38.655  30.776  29.308  1.00  0.00     0.049 A 
ATOM     51  H   UNL A   1      40.653  30.473  29.805  1.00  0.00     0.167 HD
ATOM     52  C   UNL A   1      44.709  29.625  31.083  1.00  0.00     0.031 A 
ATOM     53  C   UNL A   1      38.304  31.982  29.791  1.00  0.00     0.031 A 
ATOM     54  C   UNL A   1      44.415  30.904  31.669  1.00  0.00     0.049 A 
ATOM     55  C   UNL A   1      39.292  32.794  30.574  1.00  0.00     0.074 A 
ATOM     56  C   UNL A   1      45.232  31.708  32.445  1.00  0.00     0.029 A 
ATOM     57  N   UNL A   1      43.213  31.574  31.527  1.00  0.00    -0.354 N 
ATOM     58  N   UNL A   1      40.523  32.494  30.906  1.00  0.00    -0.248 NA
ATOM     59  C   UNL A   1      38.835  34.104  31.057  1.00  0.00     0.031 C 
ATOM     60  C   UNL A   1      44.521  32.871  32.770  1.00  0.00     0.029 A 
ATOM     61  C   UNL A   1      43.266  32.786  32.193  1.00  0.00     0.049 A 
ATOM     62  H   UNL A   1      42.434  31.238  31.026  1.00  0.00     0.167 HD
ATOM     63  C   UNL A   1      40.983  33.571  31.649  1.00  0.00     0.074 A 
ATOM     64  C   UNL A   1      39.908  34.539  31.706  1.00  0.00     0.031 C 
ATOM     65  C   UNL A   1      42.190  33.737  32.239  1.00  0.00     0.031 A 
BRANCH  52  66
ATOM     66  C   UNL A   1      46.053  29.020  31.345  1.00  0.00    -0.014 A 
ATOM     67  C   UNL A   1      46.259  28.174  32.444  1.00  0.00     0.009 A 
ATOM     68  C   UNL A   1      47.116  29.286  30.469  1.00  0.00     0.009 A 
ATOM     69  C   UNL A   1      47.520  27.616  32.670  1.00  0.00     0.001 A 
ATOM     70  C   UNL A   1      48.373  28.723  30.697  1.00  0.00     0.001 A 
ATOM     71  C   UNL A   1      48.574  27.891  31.798  1.00  0.00     0.000 A 
ENDBRANCH  52  66
BRANCH  53  72
ATOM     72  C   UNL A   1      36.934  32.491  29.562  1.00  0.00    -0.014 A 
ATOM     73  C   UNL A   1      36.630  33.191  28.386  1.00  0.00     0.009 A 
ATOM     74  C   UNL A   1      35.928  32.271  30.514  1.00  0.00     0.009 A 
ATOM     75  C   UNL A   1      35.338  33.673  28.171  1.00  0.00     0.001 A 
ATOM     76  C   UNL A   1      34.636  32.750  30.291  1.00  0.00     0.001 A 
ATOM     77  C   UNL A   1      34.343  33.452  29.122  1.00  0.00     0.000 A 
ENDBRANCH  53  72
BRANCH  65  78
ATOM     78  C   UNL A   1      42.400  35.009  32.999  1.00  0.00    -0.014 A 
ATOM     79  C   UNL A   1      43.161  36.047  32.440  1.00  0.00     0.009 A 
ATOM     80  C   UNL A   1      41.827  35.179  34.267  1.00  0.00     0.009 A 
ATOM     81  C   UNL A   1      43.355  37.234  33.148  1.00  0.00     0.001 A 
ATOM     82  C   UNL A   1      42.021  36.368  34.971  1.00  0.00     0.001 A 
ATOM     83  C   UNL A   1      42.787  37.392  34.413  1.00  0.00     0.000 A 
ENDBRANCH  65  78
ENDBRANCH  39  40
ENDBRANCH  31  34
ENDBRANCH  29  30
ENDBRANCH  28  29
ENDBRANCH   1  28
TORSDOF 16
ENDMDL
