MODEL 1
REMARK VINA RESULT:      -8.8      0.000      0.000
REMARK SMILES COCCCC(=O)N[C@H]1CC[C@@H](C(=O)NCCCNC(=O)c2ccc(-c3c4nc(c(-c5ccccc5)c5ccc([nH]5)c(-c5ccccc5)c5nc(c(-c6ccccc6)c6ccc3[nH]6)C=C5)C=C4)cc2)CC1
REMARK SMILES IDX 13 1 14 2 15 3 12 5 9 6 10 7 71 8 11 9 70 10 8 11 6 12 7 13
REMARK SMILES IDX 5 15 4 16 3 17 2 18 1 19 16 20 17 21 18 22 19 23 20 24 21 26
REMARK SMILES IDX 22 27 23 28 69 29 24 30 68 31 25 32 26 33 27 34 62 35 28 36
REMARK SMILES IDX 67 37 61 38 63 39 29 40 66 41 60 42 59 43 30 45 52 46 37 47
REMARK SMILES IDX 51 48 38 49 41 50 50 51 64 52 39 53 40 54 49 56 65 57 42 58
REMARK SMILES IDX 31 59 32 60 36 61 33 62 35 63 34 64 53 65 54 66 58 67 55 68
REMARK SMILES IDX 57 69 56 70 43 71 44 72 48 73 45 74 47 75 46 76
REMARK H PARENT 15 4 8 14 19 25 63 44 41 55
REMARK Flexibility Score: inf
ROOT
ATOM      1  C   UNL A   1      35.764  34.866  33.272  1.00  0.00     0.223 C 
ATOM      2  O   UNL A   1      36.890  35.329  33.050  1.00  0.00    -0.275 OA
ATOM      3  N   UNL A   1      34.742  35.527  32.682  1.00  0.00    -0.356 N 
ATOM      4  H   UNL A   1      35.016  36.377  32.266  1.00  0.00     0.163 HD
ENDROOT
BRANCH   1   5
ATOM      5  C   UNL A   1      35.630  33.650  34.203  1.00  0.00     0.078 C 
ATOM      6  C   UNL A   1      38.027  32.278  35.359  1.00  0.00     0.082 C 
ATOM      7  C   UNL A   1      37.377  33.445  36.117  1.00  0.00     0.026 C 
ATOM      8  C   UNL A   1      37.616  32.071  33.902  1.00  0.00     0.026 C 
ATOM      9  C   UNL A   1      35.972  33.831  35.680  1.00  0.00     0.015 C 
ATOM     10  C   UNL A   1      36.149  32.339  33.625  1.00  0.00     0.015 C 
BRANCH   6  11
ATOM     11  N   UNL A   1      39.475  32.385  35.504  1.00  0.00    -0.353 N 
ATOM     12  C   UNL A   1      40.460  31.458  35.572  1.00  0.00     0.220 C 
ATOM     13  O   UNL A   1      41.589  31.865  35.860  1.00  0.00    -0.275 OA
ATOM     14  H   UNL A   1      39.800  33.312  35.564  1.00  0.00     0.163 HD
BRANCH  12  15
ATOM     15  C   UNL A   1      40.248  30.007  35.198  1.00  0.00     0.102 C 
BRANCH  15  16
ATOM     16  C   UNL A   1      41.132  29.356  34.135  1.00  0.00     0.038 C 
BRANCH  16  17
ATOM     17  C   UNL A   1      41.171  27.842  33.909  1.00  0.00     0.160 C 
BRANCH  17  18
ATOM     18  O   UNL A   1      41.153  26.898  34.974  1.00  0.00    -0.385 OA
ATOM     19  C   UNL A   1      41.920  27.113  36.139  1.00  0.00     0.194 C 
ENDBRANCH  17  18
ENDBRANCH  16  17
ENDBRANCH  15  16
ENDBRANCH  12  15
ENDBRANCH   6  11
ENDBRANCH   1   5
BRANCH   3  20
ATOM     20  C   UNL A   1      33.334  35.246  32.535  1.00  0.00     0.117 C 
BRANCH  20  21
ATOM     21  C   UNL A   1      32.616  36.207  31.604  1.00  0.00     0.042 C 
BRANCH  21  22
ATOM     22  C   UNL A   1      33.283  36.365  30.260  1.00  0.00     0.118 C 
BRANCH  22  23
ATOM     23  N   UNL A   1      32.668  35.540  29.226  1.00  0.00    -0.352 N 
ATOM     24  C   UNL A   1      33.139  34.442  28.550  1.00  0.00     0.251 C 
ATOM     25  H   UNL A   1      31.759  35.818  28.970  1.00  0.00     0.163 HD
ATOM     26  O   UNL A   1      32.467  33.978  27.627  1.00  0.00    -0.269 OA
BRANCH  24  27
ATOM     27  C   UNL A   1      34.438  33.825  28.896  1.00  0.00     0.039 A 
ATOM     28  C   UNL A   1      34.495  32.884  29.929  1.00  0.00     0.014 A 
ATOM     29  C   UNL A   1      35.607  34.176  28.225  1.00  0.00     0.014 A 
ATOM     30  C   UNL A   1      35.715  32.280  30.248  1.00  0.00     0.010 A 
ATOM     31  C   UNL A   1      36.771  33.451  28.420  1.00  0.00     0.010 A 
ATOM     32  C   UNL A   1      36.857  32.540  29.475  1.00  0.00    -0.014 A 
BRANCH  32  33
ATOM     33  C   UNL A   1      38.177  31.948  29.801  1.00  0.00     0.031 A 
ATOM     34  C   UNL A   1      39.138  32.706  30.684  1.00  0.00     0.074 A 
ATOM     35  C   UNL A   1      38.528  30.760  29.272  1.00  0.00     0.049 A 
ATOM     36  N   UNL A   1      40.347  32.379  31.063  1.00  0.00    -0.248 NA
ATOM     37  C   UNL A   1      38.703  34.028  31.173  1.00  0.00     0.031 C 
ATOM     38  C   UNL A   1      37.711  29.961  28.356  1.00  0.00     0.029 A 
ATOM     39  N   UNL A   1      39.665  30.013  29.440  1.00  0.00    -0.354 N 
ATOM     40  C   UNL A   1      40.815  33.461  31.802  1.00  0.00     0.074 A 
ATOM     41  C   UNL A   1      39.802  34.486  31.747  1.00  0.00     0.031 C 
ATOM     42  C   UNL A   1      38.348  28.809  28.091  1.00  0.00     0.029 A 
ATOM     43  C   UNL A   1      39.632  28.808  28.781  1.00  0.00     0.049 A 
ATOM     44  H   UNL A   1      40.432  30.312  29.979  1.00  0.00     0.167 HD
ATOM     45  C   UNL A   1      41.967  33.580  32.501  1.00  0.00     0.031 A 
ATOM     46  C   UNL A   1      40.534  27.810  28.752  1.00  0.00     0.031 A 
ATOM     47  C   UNL A   1      42.958  32.542  32.582  1.00  0.00     0.049 A 
ATOM     48  C   UNL A   1      41.799  27.955  29.552  1.00  0.00     0.074 A 
ATOM     49  C   UNL A   1      44.134  32.527  33.309  1.00  0.00     0.029 A 
ATOM     50  N   UNL A   1      42.878  31.330  31.914  1.00  0.00    -0.354 N 
ATOM     51  N   UNL A   1      42.195  28.954  30.305  1.00  0.00    -0.248 NA
ATOM     52  C   UNL A   1      42.732  26.822  29.514  1.00  0.00     0.031 C 
ATOM     53  C   UNL A   1      44.792  31.322  33.038  1.00  0.00     0.029 A 
ATOM     54  C   UNL A   1      43.993  30.563  32.197  1.00  0.00     0.049 A 
ATOM     55  H   UNL A   1      42.137  31.056  31.327  1.00  0.00     0.167 HD
ATOM     56  C   UNL A   1      43.405  28.557  30.856  1.00  0.00     0.074 A 
ATOM     57  C   UNL A   1      43.666  27.219  30.366  1.00  0.00     0.031 C 
ATOM     58  C   UNL A   1      44.228  29.234  31.695  1.00  0.00     0.031 A 
BRANCH  45  59
ATOM     59  C   UNL A   1      42.203  34.874  33.234  1.00  0.00    -0.014 A 
ATOM     60  C   UNL A   1      41.605  35.130  34.480  1.00  0.00     0.009 A 
ATOM     61  C   UNL A   1      43.041  35.850  32.674  1.00  0.00     0.009 A 
ATOM     62  C   UNL A   1      41.801  36.352  35.125  1.00  0.00     0.001 A 
ATOM     63  C   UNL A   1      43.265  37.058  33.339  1.00  0.00     0.001 A 
ATOM     64  C   UNL A   1      42.636  37.313  34.556  1.00  0.00     0.000 A 
ENDBRANCH  45  59
BRANCH  46  65
ATOM     65  C   UNL A   1      40.254  26.572  27.978  1.00  0.00    -0.014 A 
ATOM     66  C   UNL A   1      40.780  26.404  26.687  1.00  0.00     0.009 A 
ATOM     67  C   UNL A   1      39.459  25.551  28.523  1.00  0.00     0.009 A 
ATOM     68  C   UNL A   1      40.487  25.256  25.946  1.00  0.00     0.001 A 
ATOM     69  C   UNL A   1      39.195  24.391  27.792  1.00  0.00     0.001 A 
ATOM     70  C   UNL A   1      39.699  24.250  26.501  1.00  0.00     0.000 A 
ENDBRANCH  46  65
BRANCH  58  71
ATOM     71  C   UNL A   1      45.462  28.517  32.165  1.00  0.00    -0.014 A 
ATOM     72  C   UNL A   1      46.674  28.602  31.464  1.00  0.00     0.009 A 
ATOM     73  C   UNL A   1      45.411  27.763  33.349  1.00  0.00     0.009 A 
ATOM     74  C   UNL A   1      47.799  27.907  31.913  1.00  0.00     0.001 A 
ATOM     75  C   UNL A   1      46.545  27.100  33.815  1.00  0.00     0.001 A 
ATOM     76  C   UNL A   1      47.734  27.161  33.089  1.00  0.00     0.000 A 
ENDBRANCH  58  71
ENDBRANCH  32  33
ENDBRANCH  24  27
ENDBRANCH  22  23
ENDBRANCH  21  22
ENDBRANCH  20  21
ENDBRANCH   3  20
TORSDOF 15
ENDMDL
MODEL 2
REMARK VINA RESULT:      -8.7      4.614     11.246
REMARK SMILES COCCCC(=O)N[C@H]1CC[C@@H](C(=O)NCCCNC(=O)c2ccc(-c3c4nc(c(-c5ccccc5)c5ccc([nH]5)c(-c5ccccc5)c5nc(c(-c6ccccc6)c6ccc3[nH]6)C=C5)C=C4)cc2)CC1
REMARK SMILES IDX 13 1 14 2 15 3 12 5 9 6 10 7 71 8 11 9 70 10 8 11 6 12 7 13
REMARK SMILES IDX 5 15 4 16 3 17 2 18 1 19 16 20 17 21 18 22 19 23 20 24 21 26
REMARK SMILES IDX 22 27 23 28 69 29 24 30 68 31 25 32 26 33 27 34 62 35 28 36
REMARK SMILES IDX 67 37 61 38 63 39 29 40 66 41 60 42 59 43 30 45 52 46 37 47
REMARK SMILES IDX 51 48 38 49 41 50 50 51 64 52 39 53 40 54 49 56 65 57 42 58
REMARK SMILES IDX 31 59 32 60 36 61 33 62 35 63 34 64 53 65 54 66 58 67 55 68
REMARK SMILES IDX 57 69 56 70 43 71 44 72 48 73 45 74 47 75 46 76
REMARK H PARENT 15 4 8 14 19 25 63 44 41 55
REMARK Flexibility Score: inf
ROOT
ATOM      1  C   UNL A   1      46.139  22.821  25.559  1.00  0.00     0.223 C 
ATOM      2  O   UNL A   1      46.587  22.963  26.705  1.00  0.00    -0.275 OA
ATOM      3  N   UNL A   1      45.745  21.564  25.247  1.00  0.00    -0.356 N 
ATOM      4  H   UNL A   1      45.998  20.896  25.924  1.00  0.00     0.163 HD
ENDROOT
BRANCH   1   5
ATOM      5  C   UNL A   1      46.114  24.033  24.615  1.00  0.00     0.078 C 
ATOM      6  C   UNL A   1      46.909  26.768  25.538  1.00  0.00     0.082 C 
ATOM      7  C   UNL A   1      47.970  25.820  24.956  1.00  0.00     0.026 C 
ATOM      8  C   UNL A   1      45.555  26.163  25.910  1.00  0.00     0.026 C 
ATOM      9  C   UNL A   1      47.447  24.628  24.170  1.00  0.00     0.015 C 
ATOM     10  C   UNL A   1      45.070  25.090  24.955  1.00  0.00     0.015 C 
BRANCH   6  11
ATOM     11  N   UNL A   1      47.504  27.495  26.655  1.00  0.00    -0.353 N 
ATOM     12  C   UNL A   1      47.386  28.775  27.082  1.00  0.00     0.220 C 
ATOM     13  O   UNL A   1      48.155  29.135  27.978  1.00  0.00    -0.275 OA
ATOM     14  H   UNL A   1      48.110  26.948  27.205  1.00  0.00     0.163 HD
BRANCH  12  15
ATOM     15  C   UNL A   1      46.297  29.705  26.595  1.00  0.00     0.102 C 
BRANCH  15  16
ATOM     16  C   UNL A   1      45.598  30.643  27.579  1.00  0.00     0.038 C 
BRANCH  16  17
ATOM     17  C   UNL A   1      44.131  31.056  27.424  1.00  0.00     0.160 C 
BRANCH  17  18
ATOM     18  O   UNL A   1      43.311  30.613  26.349  1.00  0.00    -0.385 OA
ATOM     19  C   UNL A   1      42.518  29.454  26.478  1.00  0.00     0.194 C 
ENDBRANCH  17  18
ENDBRANCH  16  17
ENDBRANCH  15  16
ENDBRANCH  12  15
ENDBRANCH   6  11
ENDBRANCH   1   5
BRANCH   3  20
ATOM     20  C   UNL A   1      45.031  21.002  24.126  1.00  0.00     0.117 C 
BRANCH  20  21
ATOM     21  C   UNL A   1      44.799  19.505  24.243  1.00  0.00     0.042 C 
BRANCH  21  22
ATOM     22  C   UNL A   1      44.195  19.085  25.561  1.00  0.00     0.118 C 
BRANCH  22  23
ATOM     23  N   UNL A   1      42.753  18.879  25.479  1.00  0.00    -0.352 N 
ATOM     24  C   UNL A   1      41.706  19.640  25.935  1.00  0.00     0.251 C 
ATOM     25  H   UNL A   1      42.485  18.052  25.017  1.00  0.00     0.163 HD
ATOM     26  O   UNL A   1      40.561  19.194  25.843  1.00  0.00    -0.269 OA
BRANCH  24  27
ATOM     27  C   UNL A   1      41.931  20.968  26.547  1.00  0.00     0.039 A 
ATOM     28  C   UNL A   1      42.141  22.076  25.721  1.00  0.00     0.014 A 
ATOM     29  C   UNL A   1      41.954  21.132  27.930  1.00  0.00     0.014 A 
ATOM     30  C   UNL A   1      42.333  23.338  26.290  1.00  0.00     0.010 A 
ATOM     31  C   UNL A   1      41.965  22.401  28.484  1.00  0.00     0.010 A 
ATOM     32  C   UNL A   1      42.217  23.514  27.678  1.00  0.00    -0.014 A 
BRANCH  32  33
ATOM     33  C   UNL A   1      42.448  24.828  28.325  1.00  0.00     0.031 A 
ATOM     34  C   UNL A   1      43.810  25.154  28.890  1.00  0.00     0.074 A 
ATOM     35  C   UNL A   1      41.431  25.703  28.446  1.00  0.00     0.049 A 
ATOM     36  N   UNL A   1      44.208  26.229  29.518  1.00  0.00    -0.248 NA
ATOM     37  C   UNL A   1      44.852  24.117  28.772  1.00  0.00     0.031 C 
ATOM     38  C   UNL A   1      40.056  25.478  27.995  1.00  0.00     0.029 A 
ATOM     39  N   UNL A   1      41.405  26.966  28.976  1.00  0.00    -0.354 N 
ATOM     40  C   UNL A   1      45.526  25.982  29.889  1.00  0.00     0.074 A 
ATOM     41  C   UNL A   1      45.833  24.628  29.497  1.00  0.00     0.031 C 
ATOM     42  C   UNL A   1      39.335  26.589  28.215  1.00  0.00     0.029 A 
ATOM     43  C   UNL A   1      40.184  27.585  28.858  1.00  0.00     0.049 A 
ATOM     44  H   UNL A   1      42.185  27.389  29.403  1.00  0.00     0.167 HD
ATOM     45  C   UNL A   1      46.419  26.817  30.468  1.00  0.00     0.031 A 
ATOM     46  C   UNL A   1      39.800  28.824  29.218  1.00  0.00     0.031 A 
ATOM     47  C   UNL A   1      46.119  28.176  30.826  1.00  0.00     0.049 A 
ATOM     48  C   UNL A   1      40.813  29.742  29.842  1.00  0.00     0.074 A 
ATOM     49  C   UNL A   1      46.961  29.133  31.361  1.00  0.00     0.029 A 
ATOM     50  N   UNL A   1      44.876  28.769  30.674  1.00  0.00    -0.354 N 
ATOM     51  N   UNL A   1      42.076  29.518  30.121  1.00  0.00    -0.248 NA
ATOM     52  C   UNL A   1      40.352  31.094  30.182  1.00  0.00     0.031 C 
ATOM     53  C   UNL A   1      46.210  30.293  31.581  1.00  0.00     0.029 A 
ATOM     54  C   UNL A   1      44.920  30.077  31.122  1.00  0.00     0.049 A 
ATOM     55  H   UNL A   1      44.080  28.326  30.301  1.00  0.00     0.167 HD
ATOM     56  C   UNL A   1      42.568  30.709  30.636  1.00  0.00     0.074 A 
ATOM     57  C   UNL A   1      41.473  31.657  30.612  1.00  0.00     0.031 C 
ATOM     58  C   UNL A   1      43.814  30.998  31.087  1.00  0.00     0.031 A 
BRANCH  45  59
ATOM     59  C   UNL A   1      47.799  26.278  30.738  1.00  0.00    -0.014 A 
ATOM     60  C   UNL A   1      48.149  25.760  31.997  1.00  0.00     0.009 A 
ATOM     61  C   UNL A   1      48.762  26.282  29.718  1.00  0.00     0.009 A 
ATOM     62  C   UNL A   1      49.445  25.304  32.242  1.00  0.00     0.001 A 
ATOM     63  C   UNL A   1      50.048  25.791  29.955  1.00  0.00     0.001 A 
ATOM     64  C   UNL A   1      50.392  25.314  31.219  1.00  0.00     0.000 A 
ENDBRANCH  45  59
BRANCH  46  65
ATOM     65  C   UNL A   1      38.411  29.281  28.956  1.00  0.00    -0.014 A 
ATOM     66  C   UNL A   1      37.446  29.255  29.976  1.00  0.00     0.009 A 
ATOM     67  C   UNL A   1      38.038  29.746  27.684  1.00  0.00     0.009 A 
ATOM     68  C   UNL A   1      36.131  29.651  29.719  1.00  0.00     0.001 A 
ATOM     69  C   UNL A   1      36.730  30.172  27.440  1.00  0.00     0.001 A 
ATOM     70  C   UNL A   1      35.776  30.113  28.454  1.00  0.00     0.000 A 
ENDBRANCH  46  65
BRANCH  58  71
ATOM     71  C   UNL A   1      44.063  32.407  31.548  1.00  0.00    -0.014 A 
ATOM     72  C   UNL A   1      43.892  32.781  32.889  1.00  0.00     0.009 A 
ATOM     73  C   UNL A   1      44.500  33.367  30.622  1.00  0.00     0.009 A 
ATOM     74  C   UNL A   1      44.109  34.103  33.285  1.00  0.00     0.001 A 
ATOM     75  C   UNL A   1      44.752  34.677  31.026  1.00  0.00     0.001 A 
ATOM     76  C   UNL A   1      44.542  35.047  32.354  1.00  0.00     0.000 A 
ENDBRANCH  58  71
ENDBRANCH  32  33
ENDBRANCH  24  27
ENDBRANCH  22  23
ENDBRANCH  21  22
ENDBRANCH  20  21
ENDBRANCH   3  20
TORSDOF 15
ENDMDL
MODEL 3
REMARK VINA RESULT:      -8.5      3.859      6.724
REMARK SMILES COCCCC(=O)N[C@H]1CC[C@@H](C(=O)NCCCNC(=O)c2ccc(-c3c4nc(c(-c5ccccc5)c5ccc([nH]5)c(-c5ccccc5)c5nc(c(-c6ccccc6)c6ccc3[nH]6)C=C5)C=C4)cc2)CC1
REMARK SMILES IDX 13 1 14 2 15 3 12 5 9 6 10 7 71 8 11 9 70 10 8 11 6 12 7 13
REMARK SMILES IDX 5 15 4 16 3 17 2 18 1 19 16 20 17 21 18 22 19 23 20 24 21 26
REMARK SMILES IDX 22 27 23 28 69 29 24 30 68 31 25 32 26 33 27 34 62 35 28 36
REMARK SMILES IDX 67 37 61 38 63 39 29 40 66 41 60 42 59 43 30 45 52 46 37 47
REMARK SMILES IDX 51 48 38 49 41 50 50 51 64 52 39 53 40 54 49 56 65 57 42 58
REMARK SMILES IDX 31 59 32 60 36 61 33 62 35 63 34 64 53 65 54 66 58 67 55 68
REMARK SMILES IDX 57 69 56 70 43 71 44 72 48 73 45 74 47 75 46 76
REMARK H PARENT 15 4 8 14 19 25 63 44 41 55
REMARK Flexibility Score: inf
ROOT
ATOM      1  C   UNL A   1      31.685  29.365  24.299  1.00  0.00     0.223 C 
ATOM      2  O   UNL A   1      30.902  29.038  23.397  1.00  0.00    -0.275 OA
ATOM      3  N   UNL A   1      31.173  30.203  25.229  1.00  0.00    -0.356 N 
ATOM      4  H   UNL A   1      30.286  30.557  24.990  1.00  0.00     0.163 HD
ENDROOT
BRANCH   1   5
ATOM      5  C   UNL A   1      33.129  28.841  24.256  1.00  0.00     0.078 C 
ATOM      6  C   UNL A   1      33.741  25.920  24.015  1.00  0.00     0.082 C 
ATOM      7  C   UNL A   1      33.579  26.773  22.747  1.00  0.00     0.026 C 
ATOM      8  C   UNL A   1      33.275  26.530  25.336  1.00  0.00     0.026 C 
ATOM      9  C   UNL A   1      33.654  28.280  22.937  1.00  0.00     0.015 C 
ATOM     10  C   UNL A   1      33.549  28.016  25.467  1.00  0.00     0.015 C 
BRANCH   6  11
ATOM     11  N   UNL A   1      33.131  24.617  23.773  1.00  0.00    -0.353 N 
ATOM     12  C   UNL A   1      33.445  23.367  24.190  1.00  0.00     0.220 C 
ATOM     13  O   UNL A   1      32.819  22.435  23.676  1.00  0.00    -0.275 OA
ATOM     14  H   UNL A   1      32.336  24.653  23.194  1.00  0.00     0.163 HD
BRANCH  12  15
ATOM     15  C   UNL A   1      34.419  23.099  25.316  1.00  0.00     0.102 C 
BRANCH  15  16
ATOM     16  C   UNL A   1      33.964  23.240  26.769  1.00  0.00     0.038 C 
BRANCH  16  17
ATOM     17  C   UNL A   1      32.539  22.909  27.222  1.00  0.00     0.160 C 
BRANCH  17  18
ATOM     18  O   UNL A   1      31.534  23.901  27.405  1.00  0.00    -0.385 OA
ATOM     19  C   UNL A   1      30.501  24.062  26.458  1.00  0.00     0.194 C 
ENDBRANCH  17  18
ENDBRANCH  16  17
ENDBRANCH  15  16
ENDBRANCH  12  15
ENDBRANCH   6  11
ENDBRANCH   1   5
BRANCH   3  20
ATOM     20  C   UNL A   1      31.658  30.686  26.500  1.00  0.00     0.117 C 
BRANCH  20  21
ATOM     21  C   UNL A   1      31.464  32.179  26.697  1.00  0.00     0.042 C 
BRANCH  21  22
ATOM     22  C   UNL A   1      32.743  32.928  26.976  1.00  0.00     0.118 C 
BRANCH  22  23
ATOM     23  N   UNL A   1      32.540  34.088  27.838  1.00  0.00    -0.352 N 
ATOM     24  C   UNL A   1      33.258  34.550  28.912  1.00  0.00     0.251 C 
ATOM     25  H   UNL A   1      31.753  34.632  27.609  1.00  0.00     0.163 HD
ATOM     26  O   UNL A   1      32.818  35.503  29.558  1.00  0.00    -0.269 OA
BRANCH  24  27
ATOM     27  C   UNL A   1      34.533  33.916  29.315  1.00  0.00     0.039 A 
ATOM     28  C   UNL A   1      34.530  32.964  30.339  1.00  0.00     0.014 A 
ATOM     29  C   UNL A   1      35.737  34.262  28.706  1.00  0.00     0.014 A 
ATOM     30  C   UNL A   1      35.726  32.345  30.711  1.00  0.00     0.010 A 
ATOM     31  C   UNL A   1      36.882  33.524  28.950  1.00  0.00     0.010 A 
ATOM     32  C   UNL A   1      36.908  32.600  29.997  1.00  0.00    -0.014 A 
BRANCH  32  33
ATOM     33  C   UNL A   1      38.205  31.991  30.382  1.00  0.00     0.031 A 
ATOM     34  C   UNL A   1      39.062  32.659  31.429  1.00  0.00     0.074 A 
ATOM     35  C   UNL A   1      38.630  30.874  29.762  1.00  0.00     0.049 A 
ATOM     36  N   UNL A   1      40.237  32.307  31.883  1.00  0.00    -0.248 NA
ATOM     37  C   UNL A   1      38.554  33.914  32.015  1.00  0.00     0.031 C 
ATOM     38  C   UNL A   1      37.919  30.171  28.692  1.00  0.00     0.029 A 
ATOM     39  N   UNL A   1      39.762  30.126  29.956  1.00  0.00    -0.354 N 
ATOM     40  C   UNL A   1      40.610  33.306  32.776  1.00  0.00     0.074 A 
ATOM     41  C   UNL A   1      39.585  34.319  32.737  1.00  0.00     0.031 C 
ATOM     42  C   UNL A   1      38.604  29.063  28.365  1.00  0.00     0.029 A 
ATOM     43  C   UNL A   1      39.817  29.001  29.170  1.00  0.00     0.049 A 
ATOM     44  H   UNL A   1      40.469  30.373  30.595  1.00  0.00     0.167 HD
ATOM     45  C   UNL A   1      41.689  33.361  33.591  1.00  0.00     0.031 A 
ATOM     46  C   UNL A   1      40.740  28.023  29.119  1.00  0.00     0.031 A 
ATOM     47  C   UNL A   1      42.691  32.332  33.653  1.00  0.00     0.049 A 
ATOM     48  C   UNL A   1      41.921  28.093  30.046  1.00  0.00     0.074 A 
ATOM     49  C   UNL A   1      43.794  32.251  34.482  1.00  0.00     0.029 A 
ATOM     50  N   UNL A   1      42.700  31.200  32.853  1.00  0.00    -0.354 N 
ATOM     51  N   UNL A   1      42.223  29.008  30.937  1.00  0.00    -0.248 NA
ATOM     52  C   UNL A   1      42.879  26.982  29.975  1.00  0.00     0.031 C 
ATOM     53  C   UNL A   1      44.501  31.091  34.146  1.00  0.00     0.029 A 
ATOM     54  C   UNL A   1      43.801  30.420  33.155  1.00  0.00     0.049 A 
ATOM     55  H   UNL A   1      42.024  30.984  32.171  1.00  0.00     0.167 HD
ATOM     56  C   UNL A   1      43.385  28.567  31.554  1.00  0.00     0.074 A 
ATOM     57  C   UNL A   1      43.721  27.294  30.950  1.00  0.00     0.031 C 
ATOM     58  C   UNL A   1      44.112  29.157  32.536  1.00  0.00     0.031 A 
BRANCH  45  59
ATOM     59  C   UNL A   1      41.828  34.569  34.479  1.00  0.00    -0.014 A 
ATOM     60  C   UNL A   1      41.266  34.599  35.767  1.00  0.00     0.009 A 
ATOM     61  C   UNL A   1      42.534  35.692  34.025  1.00  0.00     0.009 A 
ATOM     62  C   UNL A   1      41.368  35.743  36.560  1.00  0.00     0.001 A 
ATOM     63  C   UNL A   1      42.666  36.823  34.834  1.00  0.00     0.001 A 
ATOM     64  C   UNL A   1      42.073  36.852  36.095  1.00  0.00     0.000 A 
ENDBRANCH  45  59
BRANCH  46  65
ATOM     65  C   UNL A   1      40.561  26.874  28.192  1.00  0.00    -0.014 A 
ATOM     66  C   UNL A   1      41.102  26.912  26.897  1.00  0.00     0.009 A 
ATOM     67  C   UNL A   1      39.848  25.734  28.594  1.00  0.00     0.009 A 
ATOM     68  C   UNL A   1      40.903  25.848  26.014  1.00  0.00     0.001 A 
ATOM     69  C   UNL A   1      39.678  24.658  27.720  1.00  0.00     0.001 A 
ATOM     70  C   UNL A   1      40.196  24.721  26.427  1.00  0.00     0.000 A 
ENDBRANCH  46  65
BRANCH  58  71
ATOM     71  C   UNL A   1      45.312  28.407  33.042  1.00  0.00    -0.014 A 
ATOM     72  C   UNL A   1      45.191  27.388  33.998  1.00  0.00     0.009 A 
ATOM     73  C   UNL A   1      46.582  28.714  32.528  1.00  0.00     0.009 A 
ATOM     74  C   UNL A   1      46.326  26.722  34.465  1.00  0.00     0.001 A 
ATOM     75  C   UNL A   1      47.710  28.023  32.969  1.00  0.00     0.001 A 
ATOM     76  C   UNL A   1      47.583  27.038  33.948  1.00  0.00     0.000 A 
ENDBRANCH  58  71
ENDBRANCH  32  33
ENDBRANCH  24  27
ENDBRANCH  22  23
ENDBRANCH  21  22
ENDBRANCH  20  21
ENDBRANCH   3  20
TORSDOF 15
ENDMDL
