MODEL 1
REMARK VINA RESULT:     -13.1      0.000      0.000
REMARK SMILES Cc1cc(C(=O)NCCCNC(=O)c2ccc(-c3c4nc(c(-c5ccccc5)c5ccc([nH]5)c(-c5ccccc5)c5nc(c(-c6ccccc6)c6ccc3[nH]6)C=C5)C=C4)cc2)ccc1NC(=O)N1C[C@@H](C)[C@H](C)C1
REMARK SMILES IDX 9 1 8 2 7 3 5 4 6 5 4 7 1 8 2 9 3 10 64 11 63 12 62 13 65 14
REMARK SMILES IDX 66 15 67 17 68 18 69 19 74 20 70 21 72 22 71 23 73 24 10 25
REMARK SMILES IDX 11 26 12 27 13 29 14 30 15 31 61 32 16 33 60 34 17 35 18 36
REMARK SMILES IDX 19 37 54 38 20 39 59 40 53 41 55 42 21 43 58 44 52 45 51 46
REMARK SMILES IDX 22 48 44 49 29 50 43 51 30 52 33 53 42 54 56 55 31 56 32 57
REMARK SMILES IDX 41 59 57 60 34 61 23 62 24 63 28 64 25 65 27 66 26 67 45 68
REMARK SMILES IDX 46 69 50 70 47 71 49 72 48 73 35 74 36 75 40 76 37 77 39 78
REMARK SMILES IDX 38 79
REMARK H PARENT 7 6 65 16 11 28 55 47 33 58
REMARK Flexibility Score: inf
ROOT
ATOM      1  C   UNL A   1      38.951  22.552  26.361  1.00  0.00     0.042 C 
ENDROOT
BRANCH   1   2
ATOM      2  C   UNL A   1      37.989  21.634  25.604  1.00  0.00     0.118 C 
BRANCH   2   3
ATOM      3  N   UNL A   1      37.670  22.111  24.257  1.00  0.00    -0.352 N 
ATOM      4  C   UNL A   1      36.497  22.636  23.743  1.00  0.00     0.251 C 
ATOM      5  O   UNL A   1      36.520  23.204  22.654  1.00  0.00    -0.269 OA
ATOM      6  H   UNL A   1      38.411  22.049  23.612  1.00  0.00     0.163 HD
BRANCH   4   7
ATOM      7  C   UNL A   1      35.219  22.567  24.500  1.00  0.00     0.040 A 
ATOM      8  C   UNL A   1      32.176  20.310  24.732  1.00  0.00     0.046 C 
ATOM      9  C   UNL A   1      33.023  21.544  24.876  1.00  0.00    -0.027 A 
ATOM     10  C   UNL A   1      34.295  21.544  24.253  1.00  0.00     0.019 A 
ATOM     11  C   UNL A   1      32.665  22.649  25.667  1.00  0.00     0.045 A 
ATOM     12  C   UNL A   1      33.674  23.515  26.080  1.00  0.00     0.027 A 
ATOM     13  C   UNL A   1      34.940  23.451  25.527  1.00  0.00     0.016 A 
BRANCH  11  14
ATOM     14  N   UNL A   1      31.338  22.882  26.079  1.00  0.00    -0.308 N 
ATOM     15  C   UNL A   1      30.716  24.084  26.298  1.00  0.00     0.321 C 
ATOM     16  H   UNL A   1      30.788  22.080  26.229  1.00  0.00     0.171 HD
ATOM     17  O   UNL A   1      29.827  24.152  27.146  1.00  0.00    -0.248 OA
ATOM     18  N   UNL A   1      31.101  25.174  25.552  1.00  0.00    -0.324 N 
ATOM     19  C   UNL A   1      30.999  26.521  26.077  1.00  0.00     0.125 C 
ATOM     20  C   UNL A   1      31.224  25.177  24.097  1.00  0.00     0.125 C 
ATOM     21  C   UNL A   1      30.809  27.423  24.860  1.00  0.00     0.010 C 
ATOM     22  C   UNL A   1      31.483  26.640  23.718  1.00  0.00     0.010 C 
ATOM     23  C   UNL A   1      31.405  28.810  25.063  1.00  0.00     0.010 C 
ATOM     24  C   UNL A   1      30.944  27.016  22.340  1.00  0.00     0.010 C 
ENDBRANCH  11  14
ENDBRANCH   4   7
ENDBRANCH   2   3
ENDBRANCH   1   2
BRANCH   1  25
ATOM     25  C   UNL A   1      40.114  21.855  27.037  1.00  0.00     0.118 C 
BRANCH  25  26
ATOM     26  N   UNL A   1      40.882  20.952  26.181  1.00  0.00    -0.352 N 
ATOM     27  C   UNL A   1      42.259  20.891  26.027  1.00  0.00     0.251 C 
ATOM     28  H   UNL A   1      40.358  20.311  25.649  1.00  0.00     0.163 HD
ATOM     29  O   UNL A   1      42.774  20.030  25.315  1.00  0.00    -0.269 OA
BRANCH  27  30
ATOM     30  C   UNL A   1      43.107  21.772  26.865  1.00  0.00     0.039 A 
ATOM     31  C   UNL A   1      42.956  21.653  28.248  1.00  0.00     0.014 A 
ATOM     32  C   UNL A   1      43.660  22.919  26.306  1.00  0.00     0.014 A 
ATOM     33  C   UNL A   1      43.007  22.804  29.022  1.00  0.00     0.010 A 
ATOM     34  C   UNL A   1      43.596  24.081  27.045  1.00  0.00     0.010 A 
ATOM     35  C   UNL A   1      43.180  24.027  28.376  1.00  0.00    -0.014 A 
BRANCH  35  36
ATOM     36  C   UNL A   1      42.934  25.304  29.024  1.00  0.00     0.031 A 
ATOM     37  C   UNL A   1      41.776  26.089  28.580  1.00  0.00     0.074 A 
ATOM     38  C   UNL A   1      43.761  25.800  29.970  1.00  0.00     0.049 A 
ATOM     39  N   UNL A   1      41.742  27.376  28.561  1.00  0.00    -0.248 NA
ATOM     40  C   UNL A   1      40.577  25.464  28.036  1.00  0.00     0.031 C 
ATOM     41  C   UNL A   1      43.557  26.984  30.800  1.00  0.00     0.029 A 
ATOM     42  N   UNL A   1      45.055  25.437  30.271  1.00  0.00    -0.354 N 
ATOM     43  C   UNL A   1      40.438  27.736  28.329  1.00  0.00     0.074 A 
ATOM     44  C   UNL A   1      39.787  26.527  27.878  1.00  0.00     0.031 C 
ATOM     45  C   UNL A   1      44.745  27.389  31.284  1.00  0.00     0.029 A 
ATOM     46  C   UNL A   1      45.772  26.562  30.682  1.00  0.00     0.049 A 
ATOM     47  H   UNL A   1      45.418  24.524  30.206  1.00  0.00     0.167 HD
ATOM     48  C   UNL A   1      40.016  28.973  28.707  1.00  0.00     0.031 A 
ATOM     49  C   UNL A   1      46.849  27.025  29.976  1.00  0.00     0.031 A 
ATOM     50  C   UNL A   1      41.118  29.779  29.243  1.00  0.00     0.049 A 
ATOM     51  C   UNL A   1      46.613  28.380  29.331  1.00  0.00     0.074 A 
ATOM     52  C   UNL A   1      41.517  30.111  30.530  1.00  0.00     0.029 A 
ATOM     53  N   UNL A   1      42.196  30.083  28.422  1.00  0.00    -0.354 N 
ATOM     54  N   UNL A   1      45.487  29.038  29.385  1.00  0.00    -0.248 NA
ATOM     55  C   UNL A   1      47.598  29.056  28.490  1.00  0.00     0.031 C 
ATOM     56  C   UNL A   1      42.855  30.598  30.470  1.00  0.00     0.029 A 
ATOM     57  C   UNL A   1      43.258  30.596  29.149  1.00  0.00     0.049 A 
ATOM     58  H   UNL A   1      42.204  29.951  27.446  1.00  0.00     0.167 HD
ATOM     59  C   UNL A   1      45.553  30.159  28.597  1.00  0.00     0.074 A 
ATOM     60  C   UNL A   1      46.899  30.118  28.050  1.00  0.00     0.031 C 
ATOM     61  C   UNL A   1      44.478  30.995  28.446  1.00  0.00     0.031 A 
BRANCH  48  62
ATOM     62  C   UNL A   1      38.553  29.317  28.876  1.00  0.00    -0.014 A 
ATOM     63  C   UNL A   1      37.838  29.859  27.793  1.00  0.00     0.009 A 
ATOM     64  C   UNL A   1      37.835  29.194  30.079  1.00  0.00     0.009 A 
ATOM     65  C   UNL A   1      36.529  30.341  27.933  1.00  0.00     0.001 A 
ATOM     66  C   UNL A   1      36.544  29.712  30.241  1.00  0.00     0.001 A 
ATOM     67  C   UNL A   1      35.892  30.297  29.167  1.00  0.00     0.000 A 
ENDBRANCH  48  62
BRANCH  49  68
ATOM     68  C   UNL A   1      47.652  25.912  29.390  1.00  0.00    -0.014 A 
ATOM     69  C   UNL A   1      47.329  25.533  28.069  1.00  0.00     0.009 A 
ATOM     70  C   UNL A   1      48.939  25.643  29.872  1.00  0.00     0.009 A 
ATOM     71  C   UNL A   1      48.333  25.134  27.184  1.00  0.00     0.001 A 
ATOM     72  C   UNL A   1      49.930  25.204  28.987  1.00  0.00     0.001 A 
ATOM     73  C   UNL A   1      49.644  25.023  27.633  1.00  0.00     0.000 A 
ENDBRANCH  49  68
BRANCH  61  74
ATOM     74  C   UNL A   1      44.427  32.264  27.611  1.00  0.00    -0.014 A 
ATOM     75  C   UNL A   1      44.513  33.566  28.115  1.00  0.00     0.009 A 
ATOM     76  C   UNL A   1      44.208  32.162  26.214  1.00  0.00     0.009 A 
ATOM     77  C   UNL A   1      44.491  34.688  27.270  1.00  0.00     0.001 A 
ATOM     78  C   UNL A   1      44.169  33.273  25.368  1.00  0.00     0.001 A 
ATOM     79  C   UNL A   1      44.333  34.541  25.897  1.00  0.00     0.000 A 
ENDBRANCH  61  74
ENDBRANCH  35  36
ENDBRANCH  27  30
ENDBRANCH  25  26
ENDBRANCH   1  25
TORSDOF 11
ENDMDL
MODEL 2
REMARK VINA RESULT:     -12.8      2.500      4.177
REMARK SMILES Cc1cc(C(=O)NCCCNC(=O)c2ccc(-c3c4nc(c(-c5ccccc5)c5ccc([nH]5)c(-c5ccccc5)c5nc(c(-c6ccccc6)c6ccc3[nH]6)C=C5)C=C4)cc2)ccc1NC(=O)N1C[C@@H](C)[C@H](C)C1
REMARK SMILES IDX 9 1 8 2 7 3 5 4 6 5 4 7 1 8 2 9 3 10 64 11 63 12 62 13 65 14
REMARK SMILES IDX 66 15 67 17 68 18 69 19 74 20 70 21 72 22 71 23 73 24 10 25
REMARK SMILES IDX 11 26 12 27 13 29 14 30 15 31 61 32 16 33 60 34 17 35 18 36
REMARK SMILES IDX 19 37 54 38 20 39 59 40 53 41 55 42 21 43 58 44 52 45 51 46
REMARK SMILES IDX 22 48 44 49 29 50 43 51 30 52 33 53 42 54 56 55 31 56 32 57
REMARK SMILES IDX 41 59 57 60 34 61 23 62 24 63 28 64 25 65 27 66 26 67 45 68
REMARK SMILES IDX 46 69 50 70 47 71 49 72 48 73 35 74 36 75 40 76 37 77 39 78
REMARK SMILES IDX 38 79
REMARK H PARENT 7 6 65 16 11 28 55 47 33 58
REMARK Flexibility Score: inf
ROOT
ATOM      1  C   UNL A   1      39.458  21.465  26.117  1.00  0.00     0.042 C 
ENDROOT
BRANCH   1   2
ATOM      2  C   UNL A   1      38.064  21.149  25.572  1.00  0.00     0.118 C 
BRANCH   2   3
ATOM      3  N   UNL A   1      37.765  21.831  24.312  1.00  0.00    -0.352 N 
ATOM      4  C   UNL A   1      36.608  22.457  23.881  1.00  0.00     0.251 C 
ATOM      5  O   UNL A   1      36.652  23.182  22.890  1.00  0.00    -0.269 OA
ATOM      6  H   UNL A   1      38.508  21.849  23.667  1.00  0.00     0.163 HD
BRANCH   4   7
ATOM      7  C   UNL A   1      35.325  22.307  24.615  1.00  0.00     0.040 A 
ATOM      8  C   UNL A   1      32.283  20.036  24.581  1.00  0.00     0.046 C 
ATOM      9  C   UNL A   1      33.128  21.248  24.863  1.00  0.00    -0.027 A 
ATOM     10  C   UNL A   1      34.404  21.316  24.254  1.00  0.00     0.019 A 
ATOM     11  C   UNL A   1      32.762  22.262  25.764  1.00  0.00     0.045 A 
ATOM     12  C   UNL A   1      33.766  23.080  26.276  1.00  0.00     0.027 A 
ATOM     13  C   UNL A   1      35.037  23.076  25.729  1.00  0.00     0.016 A 
BRANCH  11  14
ATOM     14  N   UNL A   1      31.431  22.449  26.189  1.00  0.00    -0.308 N 
ATOM     15  C   UNL A   1      30.774  23.629  26.427  1.00  0.00     0.321 C 
ATOM     16  H   UNL A   1      30.907  21.629  26.333  1.00  0.00     0.171 HD
ATOM     17  O   UNL A   1      29.889  23.660  27.282  1.00  0.00    -0.248 OA
ATOM     18  N   UNL A   1      31.119  24.739  25.692  1.00  0.00    -0.324 N 
ATOM     19  C   UNL A   1      30.980  26.076  26.234  1.00  0.00     0.125 C 
ATOM     20  C   UNL A   1      31.232  24.764  24.236  1.00  0.00     0.125 C 
ATOM     21  C   UNL A   1      30.754  26.986  25.029  1.00  0.00     0.010 C 
ATOM     22  C   UNL A   1      31.443  26.239  23.873  1.00  0.00     0.010 C 
ATOM     23  C   UNL A   1      31.308  28.388  25.245  1.00  0.00     0.010 C 
ATOM     24  C   UNL A   1      30.883  26.615  22.504  1.00  0.00     0.010 C 
ENDBRANCH  11  14
ENDBRANCH   4   7
ENDBRANCH   2   3
ENDBRANCH   1   2
BRANCH   1  25
ATOM     25  C   UNL A   1      39.685  22.908  26.520  1.00  0.00     0.118 C 
BRANCH  25  26
ATOM     26  N   UNL A   1      40.845  23.139  27.380  1.00  0.00    -0.352 N 
ATOM     27  C   UNL A   1      41.200  24.311  28.033  1.00  0.00     0.251 C 
ATOM     28  H   UNL A   1      41.445  22.371  27.512  1.00  0.00     0.163 HD
ATOM     29  O   UNL A   1      42.176  24.341  28.781  1.00  0.00    -0.269 OA
BRANCH  27  30
ATOM     30  C   UNL A   1      40.290  25.477  27.944  1.00  0.00     0.039 A 
ATOM     31  C   UNL A   1      40.746  26.570  27.203  1.00  0.00     0.014 A 
ATOM     32  C   UNL A   1      39.282  25.630  28.889  1.00  0.00     0.014 A 
ATOM     33  C   UNL A   1      40.465  27.848  27.665  1.00  0.00     0.010 A 
ATOM     34  C   UNL A   1      39.096  26.888  29.423  1.00  0.00     0.010 A 
ATOM     35  C   UNL A   1      39.764  27.979  28.863  1.00  0.00    -0.014 A 
BRANCH  35  36
ATOM     36  C   UNL A   1      39.688  29.226  29.602  1.00  0.00     0.031 A 
ATOM     37  C   UNL A   1      38.683  30.212  29.186  1.00  0.00     0.074 A 
ATOM     38  C   UNL A   1      40.539  29.517  30.609  1.00  0.00     0.049 A 
ATOM     39  N   UNL A   1      38.846  31.486  29.269  1.00  0.00    -0.248 NA
ATOM     40  C   UNL A   1      37.427  29.822  28.557  1.00  0.00     0.031 C 
ATOM     41  C   UNL A   1      40.483  30.654  31.524  1.00  0.00     0.029 A 
ATOM     42  N   UNL A   1      41.750  28.937  30.920  1.00  0.00    -0.354 N 
ATOM     43  C   UNL A   1      37.622  32.060  29.025  1.00  0.00     0.074 A 
ATOM     44  C   UNL A   1      36.815  31.004  28.460  1.00  0.00     0.031 C 
ATOM     45  C   UNL A   1      41.697  30.834  32.075  1.00  0.00     0.029 A 
ATOM     46  C   UNL A   1      42.611  29.904  31.441  1.00  0.00     0.049 A 
ATOM     47  H   UNL A   1      41.972  27.986  30.794  1.00  0.00     0.167 HD
ATOM     48  C   UNL A   1      37.378  33.316  29.488  1.00  0.00     0.031 A 
ATOM     49  C   UNL A   1      43.775  30.245  30.808  1.00  0.00     0.031 A 
ATOM     50  C   UNL A   1      38.566  33.900  30.120  1.00  0.00     0.049 A 
ATOM     51  C   UNL A   1      43.775  31.664  30.265  1.00  0.00     0.074 A 
ATOM     52  C   UNL A   1      38.955  34.071  31.440  1.00  0.00     0.029 A 
ATOM     53  N   UNL A   1      39.712  34.093  29.359  1.00  0.00    -0.354 N 
ATOM     54  N   UNL A   1      42.761  32.483  30.337  1.00  0.00    -0.248 NA
ATOM     55  C   UNL A   1      44.887  32.240  29.512  1.00  0.00     0.031 C 
ATOM     56  C   UNL A   1      40.353  34.348  31.461  1.00  0.00     0.029 A 
ATOM     57  C   UNL A   1      40.807  34.380  30.157  1.00  0.00     0.049 A 
ATOM     58  H   UNL A   1      39.741  34.034  28.377  1.00  0.00     0.167 HD
ATOM     59  C   UNL A   1      43.030  33.636  29.643  1.00  0.00     0.074 A 
ATOM     60  C   UNL A   1      44.376  33.427  29.136  1.00  0.00     0.031 C 
ATOM     61  C   UNL A   1      42.103  34.637  29.526  1.00  0.00     0.031 A 
BRANCH  48  62
ATOM     62  C   UNL A   1      35.978  33.870  29.638  1.00  0.00    -0.014 A 
ATOM     63  C   UNL A   1      35.268  34.283  28.497  1.00  0.00     0.009 A 
ATOM     64  C   UNL A   1      35.324  34.068  30.867  1.00  0.00     0.009 A 
ATOM     65  C   UNL A   1      34.037  34.946  28.586  1.00  0.00     0.001 A 
ATOM     66  C   UNL A   1      34.114  34.768  30.970  1.00  0.00     0.001 A 
ATOM     67  C   UNL A   1      33.474  35.217  29.827  1.00  0.00     0.000 A 
ENDBRANCH  48  62
BRANCH  49  68
ATOM     68  C   UNL A   1      44.423  29.068  30.160  1.00  0.00    -0.014 A 
ATOM     69  C   UNL A   1      44.979  28.101  31.026  1.00  0.00     0.009 A 
ATOM     70  C   UNL A   1      44.043  28.677  28.870  1.00  0.00     0.009 A 
ATOM     71  C   UNL A   1      44.918  26.745  30.701  1.00  0.00     0.001 A 
ATOM     72  C   UNL A   1      44.024  27.318  28.538  1.00  0.00     0.001 A 
ATOM     73  C   UNL A   1      44.389  26.352  29.477  1.00  0.00     0.000 A 
ENDBRANCH  49  68
BRANCH  61  74
ATOM     74  C   UNL A   1      42.280  35.957  28.793  1.00  0.00    -0.014 A 
ATOM     75  C   UNL A   1      41.808  36.233  27.505  1.00  0.00     0.009 A 
ATOM     76  C   UNL A   1      43.034  36.989  29.403  1.00  0.00     0.009 A 
ATOM     77  C   UNL A   1      41.984  37.493  26.909  1.00  0.00     0.001 A 
ATOM     78  C   UNL A   1      43.228  38.240  28.811  1.00  0.00     0.001 A 
ATOM     79  C   UNL A   1      42.682  38.499  27.568  1.00  0.00     0.000 A 
ENDBRANCH  61  74
ENDBRANCH  35  36
ENDBRANCH  27  30
ENDBRANCH  25  26
ENDBRANCH   1  25
TORSDOF 11
ENDMDL
MODEL 3
REMARK VINA RESULT:     -12.8      2.948      8.212
REMARK SMILES Cc1cc(C(=O)NCCCNC(=O)c2ccc(-c3c4nc(c(-c5ccccc5)c5ccc([nH]5)c(-c5ccccc5)c5nc(c(-c6ccccc6)c6ccc3[nH]6)C=C5)C=C4)cc2)ccc1NC(=O)N1C[C@@H](C)[C@H](C)C1
REMARK SMILES IDX 9 1 8 2 7 3 5 4 6 5 4 7 1 8 2 9 3 10 64 11 63 12 62 13 65 14
REMARK SMILES IDX 66 15 67 17 68 18 69 19 74 20 70 21 72 22 71 23 73 24 10 25
REMARK SMILES IDX 11 26 12 27 13 29 14 30 15 31 61 32 16 33 60 34 17 35 18 36
REMARK SMILES IDX 19 37 54 38 20 39 59 40 53 41 55 42 21 43 58 44 52 45 51 46
REMARK SMILES IDX 22 48 44 49 29 50 43 51 30 52 33 53 42 54 56 55 31 56 32 57
REMARK SMILES IDX 41 59 57 60 34 61 23 62 24 63 28 64 25 65 27 66 26 67 45 68
REMARK SMILES IDX 46 69 50 70 47 71 49 72 48 73 35 74 36 75 40 76 37 77 39 78
REMARK SMILES IDX 38 79
REMARK H PARENT 7 6 65 16 11 28 55 47 33 58
REMARK Flexibility Score: inf
ROOT
ATOM      1  C   UNL A   1      34.376  30.955  27.256  1.00  0.00     0.042 C 
ENDROOT
BRANCH   1   2
ATOM      2  C   UNL A   1      32.889  30.924  26.896  1.00  0.00     0.118 C 
BRANCH   2   3
ATOM      3  N   UNL A   1      32.145  29.876  27.595  1.00  0.00    -0.352 N 
ATOM      4  C   UNL A   1      31.803  28.596  27.193  1.00  0.00     0.251 C 
ATOM      5  O   UNL A   1      31.392  27.795  28.030  1.00  0.00    -0.269 OA
ATOM      6  H   UNL A   1      31.837  30.120  28.498  1.00  0.00     0.163 HD
BRANCH   4   7
ATOM      7  C   UNL A   1      31.964  28.156  25.783  1.00  0.00     0.040 A 
ATOM      8  C   UNL A   1      29.978  28.207  22.549  1.00  0.00     0.046 C 
ATOM      9  C   UNL A   1      31.026  27.798  23.547  1.00  0.00    -0.027 A 
ATOM     10  C   UNL A   1      30.929  28.329  24.856  1.00  0.00     0.019 A 
ATOM     11  C   UNL A   1      32.139  27.002  23.228  1.00  0.00     0.045 A 
ATOM     12  C   UNL A   1      33.243  27.047  24.074  1.00  0.00     0.027 A 
ATOM     13  C   UNL A   1      33.164  27.646  25.319  1.00  0.00     0.016 A 
BRANCH  11  14
ATOM     14  N   UNL A   1      32.182  26.196  22.073  1.00  0.00    -0.308 N 
ATOM     15  C   UNL A   1      32.878  25.031  21.876  1.00  0.00     0.321 C 
ATOM     16  H   UNL A   1      31.646  26.510  21.310  1.00  0.00     0.171 HD
ATOM     17  O   UNL A   1      33.278  24.756  20.746  1.00  0.00    -0.248 OA
ATOM     18  N   UNL A   1      33.095  24.201  22.951  1.00  0.00    -0.324 N 
ATOM     19  C   UNL A   1      34.261  23.343  23.018  1.00  0.00     0.125 C 
ATOM     20  C   UNL A   1      32.056  23.760  23.878  1.00  0.00     0.125 C 
ATOM     21  C   UNL A   1      33.843  22.147  23.870  1.00  0.00     0.010 C 
ATOM     22  C   UNL A   1      32.731  22.713  24.772  1.00  0.00     0.010 C 
ATOM     23  C   UNL A   1      35.005  21.556  24.658  1.00  0.00     0.010 C 
ATOM     24  C   UNL A   1      31.773  21.639  25.280  1.00  0.00     0.010 C 
ENDBRANCH  11  14
ENDBRANCH   4   7
ENDBRANCH   2   3
ENDBRANCH   1   2
BRANCH   1  25
ATOM     25  C   UNL A   1      34.684  31.208  28.719  1.00  0.00     0.118 C 
BRANCH  25  26
ATOM     26  N   UNL A   1      35.864  32.033  28.972  1.00  0.00    -0.352 N 
ATOM     27  C   UNL A   1      37.190  31.628  29.025  1.00  0.00     0.251 C 
ATOM     28  H   UNL A   1      35.698  32.991  29.123  1.00  0.00     0.163 HD
ATOM     29  O   UNL A   1      38.092  32.450  29.185  1.00  0.00    -0.269 OA
BRANCH  27  30
ATOM     30  C   UNL A   1      37.513  30.214  28.721  1.00  0.00     0.039 A 
ATOM     31  C   UNL A   1      37.701  29.368  29.815  1.00  0.00     0.014 A 
ATOM     32  C   UNL A   1      38.026  29.885  27.470  1.00  0.00     0.014 A 
ATOM     33  C   UNL A   1      38.698  28.404  29.745  1.00  0.00     0.010 A 
ATOM     34  C   UNL A   1      39.094  29.015  27.430  1.00  0.00     0.010 A 
ATOM     35  C   UNL A   1      39.482  28.348  28.594  1.00  0.00    -0.014 A 
BRANCH  35  36
ATOM     36  C   UNL A   1      40.736  27.617  28.526  1.00  0.00     0.031 A 
ATOM     37  C   UNL A   1      40.674  26.159  28.365  1.00  0.00     0.074 A 
ATOM     38  C   UNL A   1      41.932  28.229  28.659  1.00  0.00     0.049 A 
ATOM     39  N   UNL A   1      41.532  25.342  28.869  1.00  0.00    -0.248 NA
ATOM     40  C   UNL A   1      39.569  25.500  27.680  1.00  0.00     0.031 C 
ATOM     41  C   UNL A   1      43.257  27.648  28.465  1.00  0.00     0.029 A 
ATOM     42  N   UNL A   1      42.219  29.476  29.169  1.00  0.00    -0.354 N 
ATOM     43  C   UNL A   1      41.287  24.113  28.307  1.00  0.00     0.074 A 
ATOM     44  C   UNL A   1      39.988  24.233  27.687  1.00  0.00     0.031 C 
ATOM     45  C   UNL A   1      44.167  28.413  29.095  1.00  0.00     0.029 A 
ATOM     46  C   UNL A   1      43.451  29.441  29.824  1.00  0.00     0.049 A 
ATOM     47  H   UNL A   1      41.643  30.270  29.085  1.00  0.00     0.167 HD
ATOM     48  C   UNL A   1      42.285  23.188  28.281  1.00  0.00     0.031 A 
ATOM     49  C   UNL A   1      43.558  29.680  31.167  1.00  0.00     0.031 A 
ATOM     50  C   UNL A   1      43.482  23.665  28.981  1.00  0.00     0.049 A 
ATOM     51  C   UNL A   1      43.982  28.460  31.966  1.00  0.00     0.074 A 
ATOM     52  C   UNL A   1      44.691  24.191  28.549  1.00  0.00     0.029 A 
ATOM     53  N   UNL A   1      43.402  23.961  30.336  1.00  0.00    -0.354 N 
ATOM     54  N   UNL A   1      44.183  27.275  31.456  1.00  0.00    -0.248 NA
ATOM     55  C   UNL A   1      44.119  28.457  33.421  1.00  0.00     0.031 C 
ATOM     56  C   UNL A   1      45.323  24.825  29.658  1.00  0.00     0.029 A 
ATOM     57  C   UNL A   1      44.520  24.655  30.769  1.00  0.00     0.049 A 
ATOM     58  H   UNL A   1      42.646  23.710  30.914  1.00  0.00     0.167 HD
ATOM     59  C   UNL A   1      44.427  26.363  32.452  1.00  0.00     0.074 A 
ATOM     60  C   UNL A   1      44.367  27.157  33.669  1.00  0.00     0.031 C 
ATOM     61  C   UNL A   1      44.622  25.036  32.179  1.00  0.00     0.031 A 
BRANCH  48  62
ATOM     62  C   UNL A   1      42.263  21.994  27.352  1.00  0.00    -0.014 A 
ATOM     63  C   UNL A   1      41.343  20.956  27.576  1.00  0.00     0.009 A 
ATOM     64  C   UNL A   1      43.153  21.799  26.280  1.00  0.00     0.009 A 
ATOM     65  C   UNL A   1      41.380  19.759  26.848  1.00  0.00     0.001 A 
ATOM     66  C   UNL A   1      43.227  20.590  25.576  1.00  0.00     0.001 A 
ATOM     67  C   UNL A   1      42.345  19.563  25.867  1.00  0.00     0.000 A 
ENDBRANCH  48  62
BRANCH  49  68
ATOM     68  C   UNL A   1      42.600  30.728  31.625  1.00  0.00    -0.014 A 
ATOM     69  C   UNL A   1      42.873  32.051  31.215  1.00  0.00     0.009 A 
ATOM     70  C   UNL A   1      41.283  30.383  31.952  1.00  0.00     0.009 A 
ATOM     71  C   UNL A   1      41.828  32.922  30.898  1.00  0.00     0.001 A 
ATOM     72  C   UNL A   1      40.245  31.277  31.669  1.00  0.00     0.001 A 
ATOM     73  C   UNL A   1      40.512  32.512  31.075  1.00  0.00     0.000 A 
ENDBRANCH  49  68
BRANCH  61  74
ATOM     74  C   UNL A   1      44.904  23.934  33.187  1.00  0.00    -0.014 A 
ATOM     75  C   UNL A   1      43.986  22.962  33.597  1.00  0.00     0.009 A 
ATOM     76  C   UNL A   1      46.165  23.896  33.833  1.00  0.00     0.009 A 
ATOM     77  C   UNL A   1      44.336  21.954  34.511  1.00  0.00     0.001 A 
ATOM     78  C   UNL A   1      46.517  22.906  34.755  1.00  0.00     0.001 A 
ATOM     79  C   UNL A   1      45.604  21.918  35.078  1.00  0.00     0.000 A 
ENDBRANCH  61  74
ENDBRANCH  35  36
ENDBRANCH  27  30
ENDBRANCH  25  26
ENDBRANCH   1  25
TORSDOF 11
ENDMDL
