MODEL 1
REMARK VINA RESULT:     -11.4      0.000      0.000
REMARK SMILES O=C(NCCCNC(=O)[C@]1(CCc2cccnc2)CCC[NH2+]C1)c1ccc(-c2c3nc(c(-c4ccccc4)c4ccc([nH]4)c(-c4ccccc4)c4nc(c(-c5ccccc5)c5ccc2[nH]5)C=C4)C=C3)cc1
REMARK SMILES IDX 5 1 4 2 3 3 1 4 2 5 24 7 25 8 71 9 26 10 70 11 27 12 28 13
REMARK SMILES IDX 29 14 64 15 30 16 69 17 63 18 65 19 31 20 68 21 62 22 61 23
REMARK SMILES IDX 32 25 54 26 39 27 53 28 40 29 43 30 52 31 66 32 41 33 42 34
REMARK SMILES IDX 51 36 67 37 44 38 33 39 34 40 38 41 35 42 37 43 36 44 55 45
REMARK SMILES IDX 56 46 60 47 57 48 59 49 58 50 45 51 46 52 50 53 47 54 49 55
REMARK SMILES IDX 48 56 6 57 7 58 8 59 9 61 10 62 19 63 23 64 20 65 22 66
REMARK SMILES IDX 21 67 11 70 12 71 13 72 14 73 18 74 15 75 17 76 16 77
REMARK H PARENT 3 6 65 24 43 35 7 60 22 68 22 69
REMARK Flexibility Score: inf
ROOT
ATOM      1  C   UNL A   1      37.361  19.775  24.998  1.00  0.00     0.042 C 
ENDROOT
BRANCH   1   2
ATOM      2  C   UNL A   1      38.651  20.409  25.489  1.00  0.00     0.118 C 
BRANCH   2   3
ATOM      3  N   UNL A   1      39.673  19.402  25.745  1.00  0.00    -0.352 N 
ATOM      4  O   UNL A   1      41.780  18.629  25.961  1.00  0.00    -0.269 OA
ATOM      5  C   UNL A   1      40.992  19.570  26.077  1.00  0.00     0.251 C 
ATOM      6  H   UNL A   1      39.373  18.468  25.671  1.00  0.00     0.163 HD
BRANCH   5   7
ATOM      7  C   UNL A   1      41.474  20.873  26.577  1.00  0.00     0.039 A 
ATOM      8  C   UNL A   1      41.944  21.841  25.686  1.00  0.00     0.014 A 
ATOM      9  C   UNL A   1      41.399  21.158  27.943  1.00  0.00     0.014 A 
ATOM     10  C   UNL A   1      42.465  23.033  26.166  1.00  0.00     0.010 A 
ATOM     11  C   UNL A   1      41.819  22.405  28.415  1.00  0.00     0.010 A 
ATOM     12  C   UNL A   1      42.367  23.345  27.530  1.00  0.00    -0.014 A 
BRANCH  12  13
ATOM     13  C   UNL A   1      42.735  24.708  27.980  1.00  0.00     0.031 A 
ATOM     14  C   UNL A   1      41.693  25.753  28.242  1.00  0.00     0.074 A 
ATOM     15  C   UNL A   1      44.042  24.985  28.158  1.00  0.00     0.049 A 
ATOM     16  N   UNL A   1      41.856  26.990  28.636  1.00  0.00    -0.248 NA
ATOM     17  C   UNL A   1      40.291  25.368  28.022  1.00  0.00     0.031 C 
ATOM     18  C   UNL A   1      45.143  24.045  27.918  1.00  0.00     0.029 A 
ATOM     19  N   UNL A   1      44.668  26.123  28.591  1.00  0.00    -0.354 N 
ATOM     20  C   UNL A   1      40.582  27.540  28.688  1.00  0.00     0.074 A 
ATOM     21  C   UNL A   1      39.658  26.508  28.266  1.00  0.00     0.031 C 
ATOM     22  C   UNL A   1      46.301  24.630  28.250  1.00  0.00     0.029 A 
ATOM     23  C   UNL A   1      46.034  26.005  28.652  1.00  0.00     0.049 A 
ATOM     24  H   UNL A   1      44.185  26.946  28.834  1.00  0.00     0.167 HD
ATOM     25  C   UNL A   1      40.220  28.793  29.056  1.00  0.00     0.031 A 
ATOM     26  C   UNL A   1      46.978  26.908  28.971  1.00  0.00     0.031 A 
ATOM     27  C   UNL A   1      41.150  29.813  29.470  1.00  0.00     0.049 A 
ATOM     28  C   UNL A   1      46.552  28.293  29.350  1.00  0.00     0.074 A 
ATOM     29  C   UNL A   1      40.881  31.102  29.900  1.00  0.00     0.029 A 
ATOM     30  N   UNL A   1      42.529  29.662  29.496  1.00  0.00    -0.354 N 
ATOM     31  N   UNL A   1      45.340  28.785  29.435  1.00  0.00    -0.248 NA
ATOM     32  C   UNL A   1      47.620  29.246  29.673  1.00  0.00     0.031 C 
ATOM     33  C   UNL A   1      42.101  31.747  30.131  1.00  0.00     0.029 A 
ATOM     34  C   UNL A   1      43.127  30.843  29.904  1.00  0.00     0.049 A 
ATOM     35  H   UNL A   1      43.010  28.837  29.260  1.00  0.00     0.167 HD
ATOM     36  C   UNL A   1      45.497  30.104  29.833  1.00  0.00     0.074 A 
ATOM     37  C   UNL A   1      46.920  30.326  29.994  1.00  0.00     0.031 C 
ATOM     38  C   UNL A   1      44.547  31.047  30.044  1.00  0.00     0.031 A 
BRANCH  25  39
ATOM     39  C   UNL A   1      38.759  29.141  28.985  1.00  0.00    -0.014 A 
ATOM     40  C   UNL A   1      37.924  29.042  30.109  1.00  0.00     0.009 A 
ATOM     41  C   UNL A   1      38.213  29.599  27.775  1.00  0.00     0.009 A 
ATOM     42  C   UNL A   1      36.566  29.358  30.013  1.00  0.00     0.001 A 
ATOM     43  C   UNL A   1      36.862  29.942  27.689  1.00  0.00     0.001 A 
ATOM     44  C   UNL A   1      36.037  29.810  28.804  1.00  0.00     0.000 A 
ENDBRANCH  25  39
BRANCH  26  45
ATOM     45  C   UNL A   1      48.410  26.522  28.909  1.00  0.00    -0.014 A 
ATOM     46  C   UNL A   1      49.054  25.969  30.025  1.00  0.00     0.009 A 
ATOM     47  C   UNL A   1      49.129  26.663  27.710  1.00  0.00     0.009 A 
ATOM     48  C   UNL A   1      50.393  25.577  29.945  1.00  0.00     0.001 A 
ATOM     49  C   UNL A   1      50.456  26.242  27.623  1.00  0.00     0.001 A 
ATOM     50  C   UNL A   1      51.089  25.708  28.743  1.00  0.00     0.000 A 
ENDBRANCH  26  45
BRANCH  38  51
ATOM     51  C   UNL A   1      45.022  32.400  30.488  1.00  0.00    -0.014 A 
ATOM     52  C   UNL A   1      45.314  33.409  29.558  1.00  0.00     0.009 A 
ATOM     53  C   UNL A   1      45.152  32.675  31.859  1.00  0.00     0.009 A 
ATOM     54  C   UNL A   1      45.756  34.661  29.993  1.00  0.00     0.001 A 
ATOM     55  C   UNL A   1      45.566  33.935  32.290  1.00  0.00     0.001 A 
ATOM     56  C   UNL A   1      45.877  34.924  31.357  1.00  0.00     0.000 A 
ENDBRANCH  38  51
ENDBRANCH  12  13
ENDBRANCH   5   7
ENDBRANCH   2   3
ENDBRANCH   1   2
BRANCH   1  57
ATOM     57  C   UNL A   1      36.258  20.804  24.801  1.00  0.00     0.117 C 
BRANCH  57  58
ATOM     58  N   UNL A   1      35.423  20.876  25.977  1.00  0.00    -0.355 N 
ATOM     59  C   UNL A   1      34.241  21.451  26.272  1.00  0.00     0.231 C 
ATOM     60  H   UNL A   1      35.808  20.391  26.742  1.00  0.00     0.163 HD
ATOM     61  O   UNL A   1      33.959  21.431  27.483  1.00  0.00    -0.274 OA
BRANCH  59  62
ATOM     62  C   UNL A   1      33.200  21.990  25.262  1.00  0.00     0.098 C 
ATOM     63  C   UNL A   1      33.579  22.575  23.883  1.00  0.00     0.028 C 
ATOM     64  C   UNL A   1      32.460  23.120  26.034  1.00  0.00     0.277 C 
ATOM     65  C   UNL A   1      34.214  23.967  23.903  1.00  0.00     0.063 C 
ATOM     66  N   UNL A   1      33.308  24.313  26.175  1.00  0.00    -0.345 N 
ATOM     67  C   UNL A   1      33.556  24.933  24.881  1.00  0.00     0.260 C 
ATOM     68  H   UNL A   1      32.841  24.985  26.783  1.00  0.00     0.346 HD
ATOM     69  H   UNL A   1      34.202  24.030  26.574  1.00  0.00     0.346 HD
BRANCH  62  70
ATOM     70  C   UNL A   1      32.191  20.805  25.025  1.00  0.00     0.028 C 
BRANCH  70  71
ATOM     71  C   UNL A   1      32.514  19.826  23.870  1.00  0.00     0.038 C 
BRANCH  71  72
ATOM     72  C   UNL A   1      32.981  18.460  24.297  1.00  0.00    -0.030 A 
ATOM     73  C   UNL A   1      33.827  17.692  23.490  1.00  0.00     0.007 A 
ATOM     74  C   UNL A   1      32.548  17.881  25.486  1.00  0.00     0.114 A 
ATOM     75  C   UNL A   1      34.132  16.384  23.855  1.00  0.00     0.020 A 
ATOM     76  N   UNL A   1      32.819  16.609  25.864  1.00  0.00    -0.264 NA
ATOM     77  C   UNL A   1      33.594  15.886  25.028  1.00  0.00     0.111 A 
ENDBRANCH  71  72
ENDBRANCH  70  71
ENDBRANCH  62  70
ENDBRANCH  59  62
ENDBRANCH  57  58
ENDBRANCH   1  57
TORSDOF 13
ENDMDL
MODEL 2
REMARK VINA RESULT:     -11.4      0.465      6.109
REMARK SMILES O=C(NCCCNC(=O)[C@]1(CCc2cccnc2)CCC[NH2+]C1)c1ccc(-c2c3nc(c(-c4ccccc4)c4ccc([nH]4)c(-c4ccccc4)c4nc(c(-c5ccccc5)c5ccc2[nH]5)C=C4)C=C3)cc1
REMARK SMILES IDX 5 1 4 2 3 3 1 4 2 5 24 7 25 8 71 9 26 10 70 11 27 12 28 13
REMARK SMILES IDX 29 14 64 15 30 16 69 17 63 18 65 19 31 20 68 21 62 22 61 23
REMARK SMILES IDX 32 25 54 26 39 27 53 28 40 29 43 30 52 31 66 32 41 33 42 34
REMARK SMILES IDX 51 36 67 37 44 38 33 39 34 40 38 41 35 42 37 43 36 44 55 45
REMARK SMILES IDX 56 46 60 47 57 48 59 49 58 50 45 51 46 52 50 53 47 54 49 55
REMARK SMILES IDX 48 56 6 57 7 58 8 59 9 61 10 62 19 63 23 64 20 65 22 66
REMARK SMILES IDX 21 67 11 70 12 71 13 72 14 73 18 74 15 75 17 76 16 77
REMARK H PARENT 3 6 65 24 43 35 7 60 22 68 22 69
REMARK Flexibility Score: inf
ROOT
ATOM      1  C   UNL A   1      37.423  19.747  24.961  1.00  0.00     0.042 C 
ENDROOT
BRANCH   1   2
ATOM      2  C   UNL A   1      38.655  20.382  25.583  1.00  0.00     0.118 C 
BRANCH   2   3
ATOM      3  N   UNL A   1      39.724  19.406  25.757  1.00  0.00    -0.352 N 
ATOM      4  O   UNL A   1      41.865  18.709  25.864  1.00  0.00    -0.269 OA
ATOM      5  C   UNL A   1      41.046  19.611  26.051  1.00  0.00     0.251 C 
ATOM      6  H   UNL A   1      39.457  18.465  25.649  1.00  0.00     0.163 HD
BRANCH   5   7
ATOM      7  C   UNL A   1      41.494  20.909  26.594  1.00  0.00     0.039 A 
ATOM      8  C   UNL A   1      41.959  21.911  25.738  1.00  0.00     0.014 A 
ATOM      9  C   UNL A   1      41.395  21.153  27.967  1.00  0.00     0.014 A 
ATOM     10  C   UNL A   1      42.449  23.099  26.260  1.00  0.00     0.010 A 
ATOM     11  C   UNL A   1      41.783  22.394  28.480  1.00  0.00     0.010 A 
ATOM     12  C   UNL A   1      42.325  23.369  27.630  1.00  0.00    -0.014 A 
BRANCH  12  13
ATOM     13  C   UNL A   1      42.660  24.725  28.124  1.00  0.00     0.031 A 
ATOM     14  C   UNL A   1      44.068  25.105  28.471  1.00  0.00     0.074 A 
ATOM     15  C   UNL A   1      41.660  25.620  28.246  1.00  0.00     0.049 A 
ATOM     16  N   UNL A   1      44.521  26.249  28.917  1.00  0.00    -0.248 NA
ATOM     17  C   UNL A   1      45.099  24.069  28.310  1.00  0.00     0.031 C 
ATOM     18  C   UNL A   1      40.248  25.353  27.949  1.00  0.00     0.029 A 
ATOM     19  N   UNL A   1      41.672  26.933  28.636  1.00  0.00    -0.354 N 
ATOM     20  C   UNL A   1      45.882  26.065  29.116  1.00  0.00     0.074 A 
ATOM     21  C   UNL A   1      46.179  24.693  28.759  1.00  0.00     0.031 C 
ATOM     22  C   UNL A   1      39.541  26.476  28.124  1.00  0.00     0.029 A 
ATOM     23  C   UNL A   1      40.431  27.519  28.616  1.00  0.00     0.049 A 
ATOM     24  H   UNL A   1      42.490  27.409  28.905  1.00  0.00     0.167 HD
ATOM     25  C   UNL A   1      46.799  26.961  29.555  1.00  0.00     0.031 A 
ATOM     26  C   UNL A   1      40.040  28.754  28.978  1.00  0.00     0.031 A 
ATOM     27  C   UNL A   1      46.490  28.322  29.911  1.00  0.00     0.049 A 
ATOM     28  C   UNL A   1      41.069  29.717  29.484  1.00  0.00     0.074 A 
ATOM     29  C   UNL A   1      47.352  29.322  30.329  1.00  0.00     0.029 A 
ATOM     30  N   UNL A   1      45.216  28.872  29.900  1.00  0.00    -0.354 N 
ATOM     31  N   UNL A   1      42.361  29.541  29.624  1.00  0.00    -0.248 NA
ATOM     32  C   UNL A   1      40.590  31.046  29.882  1.00  0.00     0.031 C 
ATOM     33  C   UNL A   1      46.593  30.458  30.625  1.00  0.00     0.029 A 
ATOM     34  C   UNL A   1      45.264  30.187  30.334  1.00  0.00     0.049 A 
ATOM     35  H   UNL A   1      44.399  28.398  29.624  1.00  0.00     0.167 HD
ATOM     36  C   UNL A   1      42.853  30.740  30.117  1.00  0.00     0.074 A 
ATOM     37  C   UNL A   1      41.724  31.642  30.228  1.00  0.00     0.031 C 
ATOM     38  C   UNL A   1      44.126  31.063  30.451  1.00  0.00     0.031 A 
BRANCH  25  39
ATOM     39  C   UNL A   1      48.215  26.482  29.714  1.00  0.00    -0.014 A 
ATOM     40  C   UNL A   1      49.146  26.576  28.667  1.00  0.00     0.009 A 
ATOM     41  C   UNL A   1      48.633  25.949  30.944  1.00  0.00     0.009 A 
ATOM     42  C   UNL A   1      50.452  26.110  28.836  1.00  0.00     0.001 A 
ATOM     43  C   UNL A   1      49.947  25.511  31.120  1.00  0.00     0.001 A 
ATOM     44  C   UNL A   1      50.852  25.581  30.064  1.00  0.00     0.000 A 
ENDBRANCH  25  39
BRANCH  26  45
ATOM     45  C   UNL A   1      38.603  29.118  28.899  1.00  0.00    -0.014 A 
ATOM     46  C   UNL A   1      37.760  28.964  30.009  1.00  0.00     0.009 A 
ATOM     47  C   UNL A   1      38.078  29.669  27.718  1.00  0.00     0.009 A 
ATOM     48  C   UNL A   1      36.418  29.342  29.934  1.00  0.00     0.001 A 
ATOM     49  C   UNL A   1      36.744  30.075  27.655  1.00  0.00     0.001 A 
ATOM     50  C   UNL A   1      35.913  29.903  28.761  1.00  0.00     0.000 A 
ENDBRANCH  26  45
BRANCH  38  51
ATOM     51  C   UNL A   1      44.361  32.459  30.951  1.00  0.00    -0.014 A 
ATOM     52  C   UNL A   1      44.393  32.743  32.324  1.00  0.00     0.009 A 
ATOM     53  C   UNL A   1      44.582  33.498  30.032  1.00  0.00     0.009 A 
ATOM     54  C   UNL A   1      44.612  34.049  32.768  1.00  0.00     0.001 A 
ATOM     55  C   UNL A   1      44.829  34.796  30.480  1.00  0.00     0.001 A 
ATOM     56  C   UNL A   1      44.834  35.072  31.847  1.00  0.00     0.000 A 
ENDBRANCH  38  51
ENDBRANCH  12  13
ENDBRANCH   5   7
ENDBRANCH   2   3
ENDBRANCH   1   2
BRANCH   1  57
ATOM     57  C   UNL A   1      36.307  20.758  24.745  1.00  0.00     0.117 C 
BRANCH  57  58
ATOM     58  N   UNL A   1      35.483  20.856  25.926  1.00  0.00    -0.355 N 
ATOM     59  C   UNL A   1      34.317  21.460  26.228  1.00  0.00     0.231 C 
ATOM     60  H   UNL A   1      35.862  20.365  26.691  1.00  0.00     0.163 HD
ATOM     61  O   UNL A   1      34.043  21.453  27.440  1.00  0.00    -0.274 OA
BRANCH  59  62
ATOM     62  C   UNL A   1      33.282  22.020  25.223  1.00  0.00     0.098 C 
ATOM     63  C   UNL A   1      33.665  22.591  23.839  1.00  0.00     0.028 C 
ATOM     64  C   UNL A   1      32.574  23.170  25.996  1.00  0.00     0.277 C 
ATOM     65  C   UNL A   1      34.333  23.967  23.849  1.00  0.00     0.063 C 
ATOM     66  N   UNL A   1      33.452  24.344  26.125  1.00  0.00    -0.345 N 
ATOM     67  C   UNL A   1      33.705  24.952  24.827  1.00  0.00     0.260 C 
ATOM     68  H   UNL A   1      33.005  25.028  26.735  1.00  0.00     0.346 HD
ATOM     69  H   UNL A   1      34.342  24.040  26.520  1.00  0.00     0.346 HD
BRANCH  62  70
ATOM     70  C   UNL A   1      32.243  20.858  24.998  1.00  0.00     0.028 C 
BRANCH  70  71
ATOM     71  C   UNL A   1      32.527  19.877  23.834  1.00  0.00     0.038 C 
BRANCH  71  72
ATOM     72  C   UNL A   1      32.957  18.495  24.250  1.00  0.00    -0.030 A 
ATOM     73  C   UNL A   1      33.755  17.699  23.423  1.00  0.00     0.007 A 
ATOM     74  C   UNL A   1      32.533  17.931  25.449  1.00  0.00     0.114 A 
ATOM     75  C   UNL A   1      34.025  16.381  23.780  1.00  0.00     0.020 A 
ATOM     76  N   UNL A   1      32.770  16.650  25.821  1.00  0.00    -0.264 NA
ATOM     77  C   UNL A   1      33.499  15.901  24.966  1.00  0.00     0.111 A 
ENDBRANCH  71  72
ENDBRANCH  70  71
ENDBRANCH  62  70
ENDBRANCH  59  62
ENDBRANCH  57  58
ENDBRANCH   1  57
TORSDOF 13
ENDMDL
MODEL 3
REMARK VINA RESULT:     -11.3      2.587      7.359
REMARK SMILES O=C(NCCCNC(=O)[C@]1(CCc2cccnc2)CCC[NH2+]C1)c1ccc(-c2c3nc(c(-c4ccccc4)c4ccc([nH]4)c(-c4ccccc4)c4nc(c(-c5ccccc5)c5ccc2[nH]5)C=C4)C=C3)cc1
REMARK SMILES IDX 5 1 4 2 3 3 1 4 2 5 24 7 25 8 71 9 26 10 70 11 27 12 28 13
REMARK SMILES IDX 29 14 64 15 30 16 69 17 63 18 65 19 31 20 68 21 62 22 61 23
REMARK SMILES IDX 32 25 54 26 39 27 53 28 40 29 43 30 52 31 66 32 41 33 42 34
REMARK SMILES IDX 51 36 67 37 44 38 33 39 34 40 38 41 35 42 37 43 36 44 55 45
REMARK SMILES IDX 56 46 60 47 57 48 59 49 58 50 45 51 46 52 50 53 47 54 49 55
REMARK SMILES IDX 48 56 6 57 7 58 8 59 9 61 10 62 19 63 23 64 20 65 22 66
REMARK SMILES IDX 21 67 11 70 12 71 13 72 14 73 18 74 15 75 17 76 16 77
REMARK H PARENT 3 6 65 24 43 35 7 60 22 68 22 69
REMARK Flexibility Score: inf
ROOT
ATOM      1  C   UNL A   1      33.123  28.287  25.943  1.00  0.00     0.042 C 
ENDROOT
BRANCH   1   2
ATOM      2  C   UNL A   1      33.592  28.573  27.360  1.00  0.00     0.118 C 
BRANCH   2   3
ATOM      3  N   UNL A   1      33.613  30.005  27.632  1.00  0.00    -0.352 N 
ATOM      4  O   UNL A   1      34.283  31.881  28.689  1.00  0.00    -0.269 OA
ATOM      5  C   UNL A   1      34.561  30.750  28.283  1.00  0.00     0.251 C 
ATOM      6  H   UNL A   1      32.835  30.509  27.300  1.00  0.00     0.163 HD
BRANCH   5   7
ATOM      7  C   UNL A   1      35.916  30.206  28.497  1.00  0.00     0.039 A 
ATOM      8  C   UNL A   1      36.872  30.268  27.479  1.00  0.00     0.014 A 
ATOM      9  C   UNL A   1      36.260  29.682  29.747  1.00  0.00     0.014 A 
ATOM     10  C   UNL A   1      38.119  29.689  27.660  1.00  0.00     0.010 A 
ATOM     11  C   UNL A   1      37.553  29.201  29.965  1.00  0.00     0.010 A 
ATOM     12  C   UNL A   1      38.487  29.190  28.918  1.00  0.00    -0.014 A 
BRANCH  12  13
ATOM     13  C   UNL A   1      39.891  28.774  29.138  1.00  0.00     0.031 A 
ATOM     14  C   UNL A   1      40.886  29.689  29.786  1.00  0.00     0.074 A 
ATOM     15  C   UNL A   1      40.255  27.537  28.746  1.00  0.00     0.049 A 
ATOM     16  N   UNL A   1      42.150  29.474  30.045  1.00  0.00    -0.248 NA
ATOM     17  C   UNL A   1      40.407  31.022  30.182  1.00  0.00     0.031 C 
ATOM     18  C   UNL A   1      39.371  26.565  28.092  1.00  0.00     0.029 A 
ATOM     19  N   UNL A   1      41.451  26.876  28.850  1.00  0.00    -0.354 N 
ATOM     20  C   UNL A   1      42.626  30.649  30.611  1.00  0.00     0.074 A 
ATOM     21  C   UNL A   1      41.519  31.582  30.640  1.00  0.00     0.031 C 
ATOM     22  C   UNL A   1      40.041  25.423  27.895  1.00  0.00     0.029 A 
ATOM     23  C   UNL A   1      41.417  25.603  28.337  1.00  0.00     0.049 A 
ATOM     24  H   UNL A   1      42.255  27.277  29.252  1.00  0.00     0.167 HD
ATOM     25  C   UNL A   1      43.873  30.921  31.065  1.00  0.00     0.031 A 
ATOM     26  C   UNL A   1      42.391  24.685  28.209  1.00  0.00     0.031 A 
ATOM     27  C   UNL A   1      44.967  29.985  31.026  1.00  0.00     0.049 A 
ATOM     28  C   UNL A   1      43.767  25.021  28.697  1.00  0.00     0.074 A 
ATOM     29  C   UNL A   1      46.260  30.148  31.497  1.00  0.00     0.029 A 
ATOM     30  N   UNL A   1      44.901  28.712  30.478  1.00  0.00    -0.354 N 
ATOM     31  N   UNL A   1      44.191  26.122  29.269  1.00  0.00    -0.248 NA
ATOM     32  C   UNL A   1      44.799  23.992  28.520  1.00  0.00     0.031 C 
ATOM     33  C   UNL A   1      46.988  28.996  31.181  1.00  0.00     0.029 A 
ATOM     34  C   UNL A   1      46.136  28.091  30.568  1.00  0.00     0.049 A 
ATOM     35  H   UNL A   1      44.094  28.310  30.082  1.00  0.00     0.167 HD
ATOM     36  C   UNL A   1      45.536  25.916  29.531  1.00  0.00     0.074 A 
ATOM     37  C   UNL A   1      45.851  24.576  29.077  1.00  0.00     0.031 C 
ATOM     38  C   UNL A   1      46.431  26.762  30.097  1.00  0.00     0.031 A 
BRANCH  25  39
ATOM     39  C   UNL A   1      44.129  32.301  31.603  1.00  0.00    -0.014 A 
ATOM     40  C   UNL A   1      43.960  32.604  32.963  1.00  0.00     0.009 A 
ATOM     41  C   UNL A   1      44.572  33.313  30.735  1.00  0.00     0.009 A 
ATOM     42  C   UNL A   1      44.190  33.899  33.435  1.00  0.00     0.001 A 
ATOM     43  C   UNL A   1      44.830  34.598  31.214  1.00  0.00     0.001 A 
ATOM     44  C   UNL A   1      44.628  34.894  32.561  1.00  0.00     0.000 A 
ENDBRANCH  25  39
BRANCH  26  45
ATOM     45  C   UNL A   1      42.088  23.383  27.564  1.00  0.00    -0.014 A 
ATOM     46  C   UNL A   1      42.425  23.150  26.223  1.00  0.00     0.009 A 
ATOM     47  C   UNL A   1      41.499  22.346  28.307  1.00  0.00     0.009 A 
ATOM     48  C   UNL A   1      42.165  21.910  25.636  1.00  0.00     0.001 A 
ATOM     49  C   UNL A   1      41.270  21.098  27.727  1.00  0.00     0.001 A 
ATOM     50  C   UNL A   1      41.596  20.884  26.390  1.00  0.00     0.000 A 
ENDBRANCH  26  45
BRANCH  38  51
ATOM     51  C   UNL A   1      47.832  26.250  30.267  1.00  0.00    -0.014 A 
ATOM     52  C   UNL A   1      48.272  25.732  31.495  1.00  0.00     0.009 A 
ATOM     53  C   UNL A   1      48.713  26.261  29.174  1.00  0.00     0.009 A 
ATOM     54  C   UNL A   1      49.580  25.262  31.632  1.00  0.00     0.001 A 
ATOM     55  C   UNL A   1      50.010  25.763  29.308  1.00  0.00     0.001 A 
ATOM     56  C   UNL A   1      50.445  25.274  30.539  1.00  0.00     0.000 A 
ENDBRANCH  38  51
ENDBRANCH  12  13
ENDBRANCH   5   7
ENDBRANCH   2   3
ENDBRANCH   1   2
BRANCH   1  57
ATOM     57  C   UNL A   1      31.666  27.853  25.901  1.00  0.00     0.117 C 
BRANCH  57  58
ATOM     58  N   UNL A   1      31.482  26.638  26.659  1.00  0.00    -0.355 N 
ATOM     59  C   UNL A   1      31.693  25.328  26.427  1.00  0.00     0.231 C 
ATOM     60  H   UNL A   1      31.117  26.808  27.558  1.00  0.00     0.163 HD
ATOM     61  O   UNL A   1      31.213  24.578  27.294  1.00  0.00    -0.274 OA
BRANCH  59  62
ATOM     62  C   UNL A   1      32.554  24.720  25.294  1.00  0.00     0.098 C 
ATOM     63  C   UNL A   1      32.635  25.321  23.873  1.00  0.00     0.028 C 
ATOM     64  C   UNL A   1      32.013  23.270  25.132  1.00  0.00     0.277 C 
ATOM     65  C   UNL A   1      31.404  25.108  22.990  1.00  0.00     0.063 C 
ATOM     66  N   UNL A   1      30.698  23.263  24.473  1.00  0.00    -0.345 N 
ATOM     67  C   UNL A   1      30.804  23.711  23.092  1.00  0.00     0.260 C 
ATOM     68  H   UNL A   1      30.322  22.316  24.489  1.00  0.00     0.346 HD
ATOM     69  H   UNL A   1      30.082  23.902  24.974  1.00  0.00     0.346 HD
BRANCH  62  70
ATOM     70  C   UNL A   1      34.017  24.644  25.873  1.00  0.00     0.028 C 
BRANCH  70  71
ATOM     71  C   UNL A   1      35.173  24.531  24.849  1.00  0.00     0.038 C 
BRANCH  71  72
ATOM     72  C   UNL A   1      36.180  23.448  25.132  1.00  0.00    -0.030 A 
ATOM     73  C   UNL A   1      37.394  23.727  25.765  1.00  0.00     0.007 A 
ATOM     74  C   UNL A   1      35.968  22.133  24.727  1.00  0.00     0.114 A 
ATOM     75  C   UNL A   1      38.355  22.729  25.893  1.00  0.00     0.020 A 
ATOM     76  N   UNL A   1      36.885  21.142  24.829  1.00  0.00    -0.264 NA
ATOM     77  C   UNL A   1      38.065  21.470  25.397  1.00  0.00     0.111 A 
ENDBRANCH  71  72
ENDBRANCH  70  71
ENDBRANCH  62  70
ENDBRANCH  59  62
ENDBRANCH  57  58
ENDBRANCH   1  57
TORSDOF 13
ENDMDL
