MODEL 1
REMARK VINA RESULT:     -11.0      0.000      0.000
REMARK SMILES CC(C)(C)[C@@H]1CC(C(=O)NCCCNC(=O)c2ccc(-c3c4nc(c(-c5ccccc5)c5ccc([nH]5)c(-c5ccccc5)c5nc(c(-c6ccccc6)c6ccc3[nH]6)C=C5)C=C4)cc2)C[C@@H](C(C)(C)C)C1
REMARK SMILES IDX 12 1 11 2 10 3 8 4 9 5 7 7 5 8 6 9 71 10 66 11 65 12 2 13
REMARK SMILES IDX 1 14 3 15 4 16 67 17 68 18 69 19 70 20 13 21 14 22 15 23
REMARK SMILES IDX 16 25 17 26 18 27 64 28 19 29 63 30 20 31 21 32 22 33 57 34
REMARK SMILES IDX 23 35 62 36 56 37 58 38 24 39 61 40 55 41 54 42 25 44 47 45
REMARK SMILES IDX 32 46 46 47 33 48 36 49 45 50 59 51 34 52 35 53 44 55 60 56
REMARK SMILES IDX 37 57 26 58 27 59 31 60 28 61 30 62 29 63 48 64 49 65 53 66
REMARK SMILES IDX 50 67 52 68 51 69 38 70 39 71 43 72 40 73 42 74 41 75
REMARK H PARENT 10 6 14 24 58 43 36 54
REMARK Flexibility Score: inf
ROOT
ATOM      1  C   UNL A   1      38.144  19.663  24.936  1.00  0.00     0.042 C 
ENDROOT
BRANCH   1   2
ATOM      2  C   UNL A   1      37.060  20.727  24.814  1.00  0.00     0.117 C 
BRANCH   2   3
ATOM      3  N   UNL A   1      37.504  22.030  25.287  1.00  0.00    -0.356 N 
ATOM      4  C   UNL A   1      36.867  23.229  25.379  1.00  0.00     0.223 C 
ATOM      5  O   UNL A   1      37.524  24.189  25.794  1.00  0.00    -0.275 OA
ATOM      6  H   UNL A   1      38.439  22.047  25.596  1.00  0.00     0.163 HD
BRANCH   4   7
ATOM      7  C   UNL A   1      35.396  23.399  25.008  1.00  0.00     0.079 C 
ATOM      8  C   UNL A   1      33.536  25.195  24.737  1.00  0.00    -0.005 C 
ATOM      9  C   UNL A   1      34.898  24.808  25.338  1.00  0.00     0.017 C 
ATOM     10  C   UNL A   1      33.390  24.692  23.282  1.00  0.00     0.008 C 
ATOM     11  C   UNL A   1      33.744  23.205  23.038  1.00  0.00    -0.005 C 
ATOM     12  C   UNL A   1      35.154  22.928  23.578  1.00  0.00     0.017 C 
BRANCH   8  13
ATOM     13  C   UNL A   1      33.209  26.736  24.910  1.00  0.00    -0.035 C 
ATOM     14  C   UNL A   1      33.959  27.312  26.132  1.00  0.00     0.011 C 
ATOM     15  C   UNL A   1      31.706  27.026  25.103  1.00  0.00     0.011 C 
ATOM     16  C   UNL A   1      33.688  27.518  23.666  1.00  0.00     0.011 C 
ENDBRANCH   8  13
BRANCH  11  17
ATOM     17  C   UNL A   1      32.630  22.141  23.386  1.00  0.00    -0.035 C 
ATOM     18  C   UNL A   1      31.445  22.873  24.063  1.00  0.00     0.011 C 
ATOM     19  C   UNL A   1      32.074  21.474  22.109  1.00  0.00     0.011 C 
ATOM     20  C   UNL A   1      33.075  21.021  24.338  1.00  0.00     0.011 C 
ENDBRANCH  11  17
ENDBRANCH   4   7
ENDBRANCH   2   3
ENDBRANCH   1   2
BRANCH   1  21
ATOM     21  C   UNL A   1      39.167  19.944  26.024  1.00  0.00     0.118 C 
BRANCH  21  22
ATOM     22  N   UNL A   1      40.403  19.201  25.835  1.00  0.00    -0.352 N 
ATOM     23  C   UNL A   1      41.709  19.608  25.942  1.00  0.00     0.251 C 
ATOM     24  H   UNL A   1      40.284  18.254  25.590  1.00  0.00     0.163 HD
ATOM     25  O   UNL A   1      42.608  18.870  25.548  1.00  0.00    -0.269 OA
BRANCH  23  26
ATOM     26  C   UNL A   1      42.041  20.934  26.507  1.00  0.00     0.039 A 
ATOM     27  C   UNL A   1      42.360  21.976  25.632  1.00  0.00     0.014 A 
ATOM     28  C   UNL A   1      42.071  21.150  27.887  1.00  0.00     0.014 A 
ATOM     29  C   UNL A   1      42.649  23.244  26.140  1.00  0.00     0.010 A 
ATOM     30  C   UNL A   1      42.266  22.434  28.387  1.00  0.00     0.010 A 
ATOM     31  C   UNL A   1      42.572  23.492  27.519  1.00  0.00    -0.014 A 
BRANCH  31  32
ATOM     32  C   UNL A   1      42.831  24.843  28.074  1.00  0.00     0.031 A 
ATOM     33  C   UNL A   1      44.223  25.238  28.485  1.00  0.00     0.074 A 
ATOM     34  C   UNL A   1      41.805  25.697  28.254  1.00  0.00     0.049 A 
ATOM     35  N   UNL A   1      44.639  26.359  29.020  1.00  0.00    -0.248 NA
ATOM     36  C   UNL A   1      45.284  24.234  28.299  1.00  0.00     0.031 C 
ATOM     37  C   UNL A   1      40.402  25.418  27.943  1.00  0.00     0.029 A 
ATOM     38  N   UNL A   1      41.787  26.977  28.747  1.00  0.00    -0.354 N 
ATOM     39  C   UNL A   1      45.997  26.185  29.252  1.00  0.00     0.074 A 
ATOM     40  C   UNL A   1      46.327  24.836  28.849  1.00  0.00     0.031 C 
ATOM     41  C   UNL A   1      39.666  26.508  28.216  1.00  0.00     0.029 A 
ATOM     42  C   UNL A   1      40.537  27.547  28.753  1.00  0.00     0.049 A 
ATOM     43  H   UNL A   1      42.594  27.444  29.065  1.00  0.00     0.167 HD
ATOM     44  C   UNL A   1      46.898  27.074  29.735  1.00  0.00     0.031 A 
ATOM     45  C   UNL A   1      40.139  28.770  29.146  1.00  0.00     0.031 A 
ATOM     46  C   UNL A   1      46.577  28.423  30.114  1.00  0.00     0.049 A 
ATOM     47  C   UNL A   1      41.158  29.744  29.664  1.00  0.00     0.074 A 
ATOM     48  C   UNL A   1      47.429  29.420  30.559  1.00  0.00     0.029 A 
ATOM     49  N   UNL A   1      45.302  28.965  30.091  1.00  0.00    -0.354 N 
ATOM     50  N   UNL A   1      42.451  29.585  29.815  1.00  0.00    -0.248 NA
ATOM     51  C   UNL A   1      40.664  31.072  30.054  1.00  0.00     0.031 C 
ATOM     52  C   UNL A   1      46.661  30.555  30.842  1.00  0.00     0.029 A 
ATOM     53  C   UNL A   1      45.340  30.278  30.529  1.00  0.00     0.049 A 
ATOM     54  H   UNL A   1      44.490  28.488  29.807  1.00  0.00     0.167 HD
ATOM     55  C   UNL A   1      42.927  30.798  30.293  1.00  0.00     0.074 A 
ATOM     56  C   UNL A   1      41.788  31.688  30.390  1.00  0.00     0.031 C 
ATOM     57  C   UNL A   1      44.196  31.146  30.622  1.00  0.00     0.031 A 
BRANCH  44  58
ATOM     58  C   UNL A   1      48.319  26.608  29.877  1.00  0.00    -0.014 A 
ATOM     59  C   UNL A   1      48.756  25.951  31.039  1.00  0.00     0.009 A 
ATOM     60  C   UNL A   1      49.229  26.806  28.827  1.00  0.00     0.009 A 
ATOM     61  C   UNL A   1      50.084  25.538  31.162  1.00  0.00     0.001 A 
ATOM     62  C   UNL A   1      50.550  26.366  28.942  1.00  0.00     0.001 A 
ATOM     63  C   UNL A   1      50.979  25.742  30.112  1.00  0.00     0.000 A 
ENDBRANCH  44  58
BRANCH  45  64
ATOM     64  C   UNL A   1      38.710  29.158  29.032  1.00  0.00    -0.014 A 
ATOM     65  C   UNL A   1      38.198  29.632  27.815  1.00  0.00     0.009 A 
ATOM     66  C   UNL A   1      37.851  29.058  30.138  1.00  0.00     0.009 A 
ATOM     67  C   UNL A   1      36.861  30.025  27.713  1.00  0.00     0.001 A 
ATOM     68  C   UNL A   1      36.508  29.425  30.026  1.00  0.00     0.001 A 
ATOM     69  C   UNL A   1      36.017  29.917  28.817  1.00  0.00     0.000 A 
ENDBRANCH  45  64
BRANCH  57  70
ATOM     70  C   UNL A   1      44.416  32.556  31.088  1.00  0.00    -0.014 A 
ATOM     71  C   UNL A   1      44.356  32.890  32.450  1.00  0.00     0.009 A 
ATOM     72  C   UNL A   1      44.715  33.558  30.152  1.00  0.00     0.009 A 
ATOM     73  C   UNL A   1      44.555  34.209  32.861  1.00  0.00     0.001 A 
ATOM     74  C   UNL A   1      44.940  34.871  30.570  1.00  0.00     0.001 A 
ATOM     75  C   UNL A   1      44.850  35.196  31.921  1.00  0.00     0.000 A 
ENDBRANCH  57  70
ENDBRANCH  31  32
ENDBRANCH  23  26
ENDBRANCH  21  22
ENDBRANCH   1  21
TORSDOF 12
ENDMDL
MODEL 2
REMARK VINA RESULT:     -11.0      2.569      7.508
REMARK SMILES CC(C)(C)[C@@H]1CC(C(=O)NCCCNC(=O)c2ccc(-c3c4nc(c(-c5ccccc5)c5ccc([nH]5)c(-c5ccccc5)c5nc(c(-c6ccccc6)c6ccc3[nH]6)C=C5)C=C4)cc2)C[C@@H](C(C)(C)C)C1
REMARK SMILES IDX 12 1 11 2 10 3 8 4 9 5 7 7 5 8 6 9 71 10 66 11 65 12 2 13
REMARK SMILES IDX 1 14 3 15 4 16 67 17 68 18 69 19 70 20 13 21 14 22 15 23
REMARK SMILES IDX 16 25 17 26 18 27 64 28 19 29 63 30 20 31 21 32 22 33 57 34
REMARK SMILES IDX 23 35 62 36 56 37 58 38 24 39 61 40 55 41 54 42 25 44 47 45
REMARK SMILES IDX 32 46 46 47 33 48 36 49 45 50 59 51 34 52 35 53 44 55 60 56
REMARK SMILES IDX 37 57 26 58 27 59 31 60 28 61 30 62 29 63 48 64 49 65 53 66
REMARK SMILES IDX 50 67 52 68 51 69 38 70 39 71 43 72 40 73 42 74 41 75
REMARK H PARENT 10 6 14 24 58 43 36 54
REMARK Flexibility Score: inf
ROOT
ATOM      1  C   UNL A   1      31.966  28.099  27.556  1.00  0.00     0.042 C 
ENDROOT
BRANCH   1   2
ATOM      2  C   UNL A   1      31.438  27.166  26.474  1.00  0.00     0.117 C 
BRANCH   2   3
ATOM      3  N   UNL A   1      31.042  25.869  27.002  1.00  0.00    -0.356 N 
ATOM      4  C   UNL A   1      31.353  24.599  26.623  1.00  0.00     0.223 C 
ATOM      5  O   UNL A   1      30.826  23.676  27.251  1.00  0.00    -0.275 OA
ATOM      6  H   UNL A   1      30.436  25.920  27.776  1.00  0.00     0.163 HD
BRANCH   4   7
ATOM      7  C   UNL A   1      32.325  24.307  25.483  1.00  0.00     0.079 C 
ATOM      8  C   UNL A   1      33.007  25.105  23.105  1.00  0.00    -0.005 C 
ATOM      9  C   UNL A   1      31.944  25.077  24.216  1.00  0.00     0.017 C 
ATOM     10  C   UNL A   1      34.429  25.304  23.679  1.00  0.00     0.008 C 
ATOM     11  C   UNL A   1      34.824  24.376  24.853  1.00  0.00    -0.005 C 
ATOM     12  C   UNL A   1      33.764  24.482  25.957  1.00  0.00     0.017 C 
BRANCH   8  13
ATOM     13  C   UNL A   1      32.645  26.119  21.942  1.00  0.00    -0.035 C 
ATOM     14  C   UNL A   1      31.224  26.689  22.146  1.00  0.00     0.011 C 
ATOM     15  C   UNL A   1      32.698  25.484  20.536  1.00  0.00     0.011 C 
ATOM     16  C   UNL A   1      33.627  27.312  21.960  1.00  0.00     0.011 C 
ENDBRANCH   8  13
BRANCH  11  17
ATOM     17  C   UNL A   1      35.314  22.922  24.478  1.00  0.00    -0.035 C 
ATOM     18  C   UNL A   1      36.358  23.033  23.339  1.00  0.00     0.011 C 
ATOM     19  C   UNL A   1      36.023  22.245  25.671  1.00  0.00     0.011 C 
ATOM     20  C   UNL A   1      34.212  21.969  23.991  1.00  0.00     0.011 C 
ENDBRANCH  11  17
ENDBRANCH   4   7
ENDBRANCH   2   3
ENDBRANCH   1   2
BRANCH   1  21
ATOM     21  C   UNL A   1      33.333  28.690  27.251  1.00  0.00     0.118 C 
BRANCH  21  22
ATOM     22  N   UNL A   1      33.380  30.128  27.460  1.00  0.00    -0.352 N 
ATOM     23  C   UNL A   1      34.351  30.912  28.031  1.00  0.00     0.251 C 
ATOM     24  H   UNL A   1      32.588  30.619  27.140  1.00  0.00     0.163 HD
ATOM     25  O   UNL A   1      34.108  32.087  28.287  1.00  0.00    -0.269 OA
BRANCH  23  26
ATOM     26  C   UNL A   1      35.678  30.347  28.360  1.00  0.00     0.039 A 
ATOM     27  C   UNL A   1      36.687  30.399  27.395  1.00  0.00     0.014 A 
ATOM     28  C   UNL A   1      35.926  29.741  29.594  1.00  0.00     0.014 A 
ATOM     29  C   UNL A   1      37.957  29.899  27.691  1.00  0.00     0.010 A 
ATOM     30  C   UNL A   1      37.214  29.330  29.922  1.00  0.00     0.010 A 
ATOM     31  C   UNL A   1      38.240  29.390  28.968  1.00  0.00    -0.014 A 
BRANCH  31  32
ATOM     32  C   UNL A   1      39.594  28.896  29.316  1.00  0.00     0.031 A 
ATOM     33  C   UNL A   1      40.530  29.755  30.122  1.00  0.00     0.074 A 
ATOM     34  C   UNL A   1      40.001  27.693  28.864  1.00  0.00     0.049 A 
ATOM     35  N   UNL A   1      41.762  29.510  30.495  1.00  0.00    -0.248 NA
ATOM     36  C   UNL A   1      40.029  31.074  30.541  1.00  0.00     0.031 C 
ATOM     37  C   UNL A   1      39.209  26.785  28.033  1.00  0.00     0.029 A 
ATOM     38  N   UNL A   1      41.188  27.029  29.043  1.00  0.00    -0.354 N 
ATOM     39  C   UNL A   1      42.184  30.648  31.169  1.00  0.00     0.074 A 
ATOM     40  C   UNL A   1      41.101  31.604  31.110  1.00  0.00     0.031 C 
ATOM     41  C   UNL A   1      39.918  25.667  27.805  1.00  0.00     0.029 A 
ATOM     42  C   UNL A   1      41.224  25.794  28.443  1.00  0.00     0.049 A 
ATOM     43  H   UNL A   1      41.944  27.403  29.553  1.00  0.00     0.167 HD
ATOM     44  C   UNL A   1      43.361  30.873  31.802  1.00  0.00     0.031 A 
ATOM     45  C   UNL A   1      42.197  24.866  28.413  1.00  0.00     0.031 A 
ATOM     46  C   UNL A   1      44.431  29.916  31.881  1.00  0.00     0.049 A 
ATOM     47  C   UNL A   1      43.488  25.133  29.135  1.00  0.00     0.074 A 
ATOM     48  C   UNL A   1      45.639  30.026  32.549  1.00  0.00     0.029 A 
ATOM     49  N   UNL A   1      44.420  28.671  31.273  1.00  0.00    -0.354 N 
ATOM     50  N   UNL A   1      43.847  26.189  29.824  1.00  0.00    -0.248 NA
ATOM     51  C   UNL A   1      44.502  24.071  29.085  1.00  0.00     0.031 C 
ATOM     52  C   UNL A   1      46.376  28.860  32.311  1.00  0.00     0.029 A 
ATOM     53  C   UNL A   1      45.607  28.008  31.535  1.00  0.00     0.049 A 
ATOM     54  H   UNL A   1      43.680  28.311  30.734  1.00  0.00     0.167 HD
ATOM     55  C   UNL A   1      45.117  25.909  30.310  1.00  0.00     0.074 A 
ATOM     56  C   UNL A   1      45.458  24.578  29.852  1.00  0.00     0.031 C 
ATOM     57  C   UNL A   1      45.929  26.685  31.068  1.00  0.00     0.031 A 
BRANCH  44  58
ATOM     58  C   UNL A   1      43.545  32.212  32.459  1.00  0.00    -0.014 A 
ATOM     59  C   UNL A   1      43.172  32.422  33.797  1.00  0.00     0.009 A 
ATOM     60  C   UNL A   1      44.120  33.271  31.741  1.00  0.00     0.009 A 
ATOM     61  C   UNL A   1      43.335  33.676  34.389  1.00  0.00     0.001 A 
ATOM     62  C   UNL A   1      44.307  34.517  32.344  1.00  0.00     0.001 A 
ATOM     63  C   UNL A   1      43.906  34.721  33.663  1.00  0.00     0.000 A 
ENDBRANCH  44  58
BRANCH  45  64
ATOM     64  C   UNL A   1      41.978  23.582  27.701  1.00  0.00    -0.014 A 
ATOM     65  C   UNL A   1      41.327  22.518  28.343  1.00  0.00     0.009 A 
ATOM     66  C   UNL A   1      42.420  23.412  26.380  1.00  0.00     0.009 A 
ATOM     67  C   UNL A   1      41.145  21.298  27.686  1.00  0.00     0.001 A 
ATOM     68  C   UNL A   1      42.212  22.201  25.716  1.00  0.00     0.001 A 
ATOM     69  C   UNL A   1      41.584  21.143  26.371  1.00  0.00     0.000 A 
ENDBRANCH  45  64
BRANCH  57  70
ATOM     70  C   UNL A   1      47.251  26.098  31.471  1.00  0.00    -0.014 A 
ATOM     71  C   UNL A   1      48.354  26.123  30.604  1.00  0.00     0.009 A 
ATOM     72  C   UNL A   1      47.399  25.535  32.748  1.00  0.00     0.009 A 
ATOM     73  C   UNL A   1      49.570  25.563  30.995  1.00  0.00     0.001 A 
ATOM     74  C   UNL A   1      48.626  25.000  33.146  1.00  0.00     0.001 A 
ATOM     75  C   UNL A   1      49.706  25.005  32.266  1.00  0.00     0.000 A 
ENDBRANCH  57  70
ENDBRANCH  31  32
ENDBRANCH  23  26
ENDBRANCH  21  22
ENDBRANCH   1  21
TORSDOF 12
ENDMDL
MODEL 3
REMARK VINA RESULT:     -10.9      2.701      7.645
REMARK SMILES CC(C)(C)[C@@H]1CC(C(=O)NCCCNC(=O)c2ccc(-c3c4nc(c(-c5ccccc5)c5ccc([nH]5)c(-c5ccccc5)c5nc(c(-c6ccccc6)c6ccc3[nH]6)C=C5)C=C4)cc2)C[C@@H](C(C)(C)C)C1
REMARK SMILES IDX 12 1 11 2 10 3 8 4 9 5 7 7 5 8 6 9 71 10 66 11 65 12 2 13
REMARK SMILES IDX 1 14 3 15 4 16 67 17 68 18 69 19 70 20 13 21 14 22 15 23
REMARK SMILES IDX 16 25 17 26 18 27 64 28 19 29 63 30 20 31 21 32 22 33 57 34
REMARK SMILES IDX 23 35 62 36 56 37 58 38 24 39 61 40 55 41 54 42 25 44 47 45
REMARK SMILES IDX 32 46 46 47 33 48 36 49 45 50 59 51 34 52 35 53 44 55 60 56
REMARK SMILES IDX 37 57 26 58 27 59 31 60 28 61 30 62 29 63 48 64 49 65 53 66
REMARK SMILES IDX 50 67 52 68 51 69 38 70 39 71 43 72 40 73 42 74 41 75
REMARK H PARENT 10 6 14 24 58 43 36 54
REMARK Flexibility Score: inf
ROOT
ATOM      1  C   UNL A   1      33.214  28.110  27.175  1.00  0.00     0.042 C 
ENDROOT
BRANCH   1   2
ATOM      2  C   UNL A   1      31.745  27.829  26.881  1.00  0.00     0.117 C 
BRANCH   2   3
ATOM      3  N   UNL A   1      31.375  26.451  27.163  1.00  0.00    -0.356 N 
ATOM      4  C   UNL A   1      31.590  25.293  26.480  1.00  0.00     0.223 C 
ATOM      5  O   UNL A   1      31.116  24.258  26.957  1.00  0.00    -0.275 OA
ATOM      6  H   UNL A   1      30.877  26.334  28.004  1.00  0.00     0.163 HD
BRANCH   4   7
ATOM      7  C   UNL A   1      32.396  25.252  25.184  1.00  0.00     0.079 C 
ATOM      8  C   UNL A   1      34.463  24.124  24.082  1.00  0.00    -0.005 C 
ATOM      9  C   UNL A   1      33.713  24.495  25.373  1.00  0.00     0.017 C 
ATOM     10  C   UNL A   1      33.494  23.640  22.978  1.00  0.00     0.008 C 
ATOM     11  C   UNL A   1      32.264  24.539  22.711  1.00  0.00    -0.005 C 
ATOM     12  C   UNL A   1      31.519  24.779  24.030  1.00  0.00     0.017 C 
BRANCH   8  13
ATOM     13  C   UNL A   1      35.673  23.135  24.343  1.00  0.00    -0.035 C 
ATOM     14  C   UNL A   1      36.531  22.985  23.068  1.00  0.00     0.011 C 
ATOM     15  C   UNL A   1      35.227  21.723  24.778  1.00  0.00     0.011 C 
ATOM     16  C   UNL A   1      36.589  23.705  25.450  1.00  0.00     0.011 C 
ENDBRANCH   8  13
BRANCH  11  17
ATOM     17  C   UNL A   1      32.490  25.799  21.786  1.00  0.00    -0.035 C 
ATOM     18  C   UNL A   1      32.652  25.313  20.324  1.00  0.00     0.011 C 
ATOM     19  C   UNL A   1      31.265  26.740  21.812  1.00  0.00     0.011 C 
ATOM     20  C   UNL A   1      33.728  26.641  22.124  1.00  0.00     0.011 C 
ENDBRANCH  11  17
ENDBRANCH   4   7
ENDBRANCH   2   3
ENDBRANCH   1   2
BRANCH   1  21
ATOM     21  C   UNL A   1      33.807  29.239  26.347  1.00  0.00     0.118 C 
BRANCH  21  22
ATOM     22  N   UNL A   1      33.684  30.534  26.997  1.00  0.00    -0.352 N 
ATOM     23  C   UNL A   1      34.463  31.121  27.962  1.00  0.00     0.251 C 
ATOM     24  H   UNL A   1      32.919  31.077  26.698  1.00  0.00     0.163 HD
ATOM     25  O   UNL A   1      34.072  32.143  28.518  1.00  0.00    -0.269 OA
BRANCH  23  26
ATOM     26  C   UNL A   1      35.759  30.522  28.352  1.00  0.00     0.039 A 
ATOM     27  C   UNL A   1      36.844  30.643  27.480  1.00  0.00     0.014 A 
ATOM     28  C   UNL A   1      35.903  29.818  29.550  1.00  0.00     0.014 A 
ATOM     29  C   UNL A   1      38.084  30.111  27.838  1.00  0.00     0.010 A 
ATOM     30  C   UNL A   1      37.160  29.372  29.948  1.00  0.00     0.010 A 
ATOM     31  C   UNL A   1      38.261  29.500  29.089  1.00  0.00    -0.014 A 
BRANCH  31  32
ATOM     32  C   UNL A   1      39.582  28.970  29.506  1.00  0.00     0.031 A 
ATOM     33  C   UNL A   1      40.461  29.768  30.430  1.00  0.00     0.074 A 
ATOM     34  C   UNL A   1      40.012  27.791  29.014  1.00  0.00     0.049 A 
ATOM     35  N   UNL A   1      41.659  29.486  30.877  1.00  0.00    -0.248 NA
ATOM     36  C   UNL A   1      39.940  31.066  30.890  1.00  0.00     0.031 C 
ATOM     37  C   UNL A   1      39.278  26.944  28.073  1.00  0.00     0.029 A 
ATOM     38  N   UNL A   1      41.178  27.104  29.240  1.00  0.00    -0.354 N 
ATOM     39  C   UNL A   1      42.039  30.576  31.649  1.00  0.00     0.074 A 
ATOM     40  C   UNL A   1      40.971  31.547  31.568  1.00  0.00     0.031 C 
ATOM     41  C   UNL A   1      39.993  25.833  27.831  1.00  0.00     0.029 A 
ATOM     42  C   UNL A   1      41.248  25.906  28.571  1.00  0.00     0.049 A 
ATOM     43  H   UNL A   1      41.896  27.437  29.826  1.00  0.00     0.167 HD
ATOM     44  C   UNL A   1      43.167  30.749  32.380  1.00  0.00     0.031 A 
ATOM     45  C   UNL A   1      42.214  24.970  28.557  1.00  0.00     0.031 A 
ATOM     46  C   UNL A   1      44.221  29.776  32.480  1.00  0.00     0.049 A 
ATOM     47  C   UNL A   1      43.449  25.177  29.387  1.00  0.00     0.074 A 
ATOM     48  C   UNL A   1      45.376  29.832  33.241  1.00  0.00     0.029 A 
ATOM     49  N   UNL A   1      44.246  28.570  31.799  1.00  0.00    -0.354 N 
ATOM     50  N   UNL A   1      43.763  26.186  30.164  1.00  0.00    -0.248 NA
ATOM     51  C   UNL A   1      44.457  24.108  29.348  1.00  0.00     0.031 C 
ATOM     52  C   UNL A   1      46.120  28.673  32.989  1.00  0.00     0.029 A 
ATOM     53  C   UNL A   1      45.404  27.878  32.108  1.00  0.00     0.049 A 
ATOM     54  H   UNL A   1      43.545  28.252  31.185  1.00  0.00     0.167 HD
ATOM     55  C   UNL A   1      44.991  25.863  30.724  1.00  0.00     0.074 A 
ATOM     56  C   UNL A   1      45.356  24.557  30.213  1.00  0.00     0.031 C 
ATOM     57  C   UNL A   1      45.751  26.582  31.587  1.00  0.00     0.031 A 
BRANCH  44  58
ATOM     58  C   UNL A   1      43.312  32.044  33.129  1.00  0.00    -0.014 A 
ATOM     59  C   UNL A   1      42.935  32.149  34.479  1.00  0.00     0.009 A 
ATOM     60  C   UNL A   1      43.852  33.168  32.486  1.00  0.00     0.009 A 
ATOM     61  C   UNL A   1      43.060  33.363  35.156  1.00  0.00     0.001 A 
ATOM     62  C   UNL A   1      44.003  34.373  33.175  1.00  0.00     0.001 A 
ATOM     63  C   UNL A   1      43.598  34.473  34.505  1.00  0.00     0.000 A 
ENDBRANCH  44  58
BRANCH  45  64
ATOM     64  C   UNL A   1      42.040  23.733  27.754  1.00  0.00    -0.014 A 
ATOM     65  C   UNL A   1      42.524  23.668  26.439  1.00  0.00     0.009 A 
ATOM     66  C   UNL A   1      41.388  22.615  28.295  1.00  0.00     0.009 A 
ATOM     67  C   UNL A   1      42.336  22.517  25.671  1.00  0.00     0.001 A 
ATOM     68  C   UNL A   1      41.226  21.455  27.535  1.00  0.00     0.001 A 
ATOM     69  C   UNL A   1      41.691  21.409  26.221  1.00  0.00     0.000 A 
ENDBRANCH  45  64
BRANCH  57  70
ATOM     70  C   UNL A   1      47.034  25.956  32.050  1.00  0.00    -0.014 A 
ATOM     71  C   UNL A   1      48.216  26.080  31.305  1.00  0.00     0.009 A 
ATOM     72  C   UNL A   1      47.064  25.253  33.265  1.00  0.00     0.009 A 
ATOM     73  C   UNL A   1      49.396  25.482  31.750  1.00  0.00     0.001 A 
ATOM     74  C   UNL A   1      48.252  24.679  33.720  1.00  0.00     0.001 A 
ATOM     75  C   UNL A   1      49.414  24.785  32.957  1.00  0.00     0.000 A 
ENDBRANCH  57  70
ENDBRANCH  31  32
ENDBRANCH  23  26
ENDBRANCH  21  22
ENDBRANCH   1  21
TORSDOF 12
ENDMDL
