MODEL 1
REMARK VINA RESULT:     -13.3      0.000      0.000
REMARK SMILES O=C(NCCCNC(=O)[C@H](CO)NC(=O)[C@H](Cc1c[nH]c2ccccc12)NC(=O)c1ccc(F)cc1)c1ccc(-c2c3nc(c(-c4ccccc4)c4ccc([nH]4)c(-c4ccccc4)c4nc(c(-c5ccccc5)c5ccc2[nH]5)C=C4)C=C3)cc1
REMARK SMILES IDX 6 1 5 2 4 3 3 4 1 5 2 6 37 8 38 9 84 10 39 11 83 12 40 13
REMARK SMILES IDX 41 14 42 15 77 16 43 17 82 18 76 19 78 20 44 21 81 22 75 23
REMARK SMILES IDX 74 24 45 26 67 27 52 28 66 29 53 30 56 31 65 32 79 33 54 34
REMARK SMILES IDX 55 35 64 37 80 38 57 39 46 40 47 41 51 42 48 43 50 44 49 45
REMARK SMILES IDX 68 46 69 47 73 48 70 49 72 50 71 51 58 52 59 53 63 54 60 55
REMARK SMILES IDX 62 56 61 57 7 58 8 59 9 61 10 62 13 63 14 64 15 66 16 67
REMARK SMILES IDX 27 68 28 69 29 71 30 72 31 73 36 74 32 75 35 76 33 77 34 78
REMARK SMILES IDX 17 79 18 80 19 81 26 82 20 83 21 84 25 85 22 87 24 88 23 89
REMARK SMILES IDX 11 90 12 91
REMARK H PARENT 3 7 78 25 56 36 7 60 13 65 27 70 20 86 12 92
REMARK Flexibility Score: inf
ROOT
ATOM      1  C   UNL A   1      37.003  20.551  24.938  1.00  0.00     0.117 C 
ENDROOT
BRANCH   1   2
ATOM      2  C   UNL A   1      38.142  19.559  25.033  1.00  0.00     0.042 C 
BRANCH   2   3
ATOM      3  C   UNL A   1      39.240  20.158  25.858  1.00  0.00     0.118 C 
BRANCH   3   4
ATOM      4  N   UNL A   1      40.378  19.242  25.924  1.00  0.00    -0.352 N 
ATOM      5  O   UNL A   1      42.588  18.760  25.757  1.00  0.00    -0.269 OA
ATOM      6  C   UNL A   1      41.711  19.566  26.038  1.00  0.00     0.251 C 
ATOM      7  H   UNL A   1      40.167  18.281  25.882  1.00  0.00     0.163 HD
BRANCH   6   8
ATOM      8  C   UNL A   1      42.044  20.926  26.502  1.00  0.00     0.039 A 
ATOM      9  C   UNL A   1      41.945  21.193  27.866  1.00  0.00     0.014 A 
ATOM     10  C   UNL A   1      42.372  21.940  25.603  1.00  0.00     0.014 A 
ATOM     11  C   UNL A   1      41.911  22.497  28.300  1.00  0.00     0.010 A 
ATOM     12  C   UNL A   1      42.578  23.232  26.089  1.00  0.00     0.010 A 
ATOM     13  C   UNL A   1      42.340  23.517  27.443  1.00  0.00    -0.014 A 
BRANCH  13  14
ATOM     14  C   UNL A   1      42.685  24.813  28.069  1.00  0.00     0.031 A 
ATOM     15  C   UNL A   1      44.087  25.152  28.462  1.00  0.00     0.074 A 
ATOM     16  C   UNL A   1      41.681  25.703  28.220  1.00  0.00     0.049 A 
ATOM     17  N   UNL A   1      44.529  26.248  29.022  1.00  0.00    -0.248 NA
ATOM     18  C   UNL A   1      45.126  24.141  28.213  1.00  0.00     0.031 C 
ATOM     19  C   UNL A   1      40.274  25.463  27.865  1.00  0.00     0.029 A 
ATOM     20  N   UNL A   1      41.683  26.998  28.661  1.00  0.00    -0.354 N 
ATOM     21  C   UNL A   1      45.889  26.052  29.217  1.00  0.00     0.074 A 
ATOM     22  C   UNL A   1      46.197  24.720  28.740  1.00  0.00     0.031 C 
ATOM     23  C   UNL A   1      39.577  26.594  28.006  1.00  0.00     0.029 A 
ATOM     24  C   UNL A   1      40.447  27.596  28.593  1.00  0.00     0.049 A 
ATOM     25  H   UNL A   1      42.489  27.455  28.992  1.00  0.00     0.167 HD
ATOM     26  C   UNL A   1      46.791  26.912  29.748  1.00  0.00     0.031 A 
ATOM     27  C   UNL A   1      40.038  28.806  29.008  1.00  0.00     0.031 A 
ATOM     28  C   UNL A   1      46.455  28.228  30.230  1.00  0.00     0.049 A 
ATOM     29  C   UNL A   1      41.048  29.702  29.647  1.00  0.00     0.074 A 
ATOM     30  C   UNL A   1      47.286  29.178  30.797  1.00  0.00     0.029 A 
ATOM     31  N   UNL A   1      45.180  28.778  30.203  1.00  0.00    -0.354 N 
ATOM     32  N   UNL A   1      42.331  29.500  29.827  1.00  0.00    -0.248 NA
ATOM     33  C   UNL A   1      40.557  30.990  30.145  1.00  0.00     0.031 C 
ATOM     34  C   UNL A   1      46.505  30.280  31.162  1.00  0.00     0.029 A 
ATOM     35  C   UNL A   1      45.199  30.047  30.759  1.00  0.00     0.049 A 
ATOM     36  H   UNL A   1      44.379  28.332  29.842  1.00  0.00     0.167 HD
ATOM     37  C   UNL A   1      42.807  30.644  30.446  1.00  0.00     0.074 A 
ATOM     38  C   UNL A   1      41.679  31.547  30.574  1.00  0.00     0.031 C 
ATOM     39  C   UNL A   1      44.061  30.923  30.877  1.00  0.00     0.031 A 
BRANCH  26  40
ATOM     40  C   UNL A   1      48.216  26.445  29.862  1.00  0.00    -0.014 A 
ATOM     41  C   UNL A   1      49.149  26.689  28.842  1.00  0.00     0.009 A 
ATOM     42  C   UNL A   1      48.643  25.787  31.027  1.00  0.00     0.009 A 
ATOM     43  C   UNL A   1      50.472  26.257  28.973  1.00  0.00     0.001 A 
ATOM     44  C   UNL A   1      49.973  25.385  31.168  1.00  0.00     0.001 A 
ATOM     45  C   UNL A   1      50.883  25.611  30.139  1.00  0.00     0.000 A 
ENDBRANCH  26  40
BRANCH  27  46
ATOM     46  C   UNL A   1      38.608  29.192  28.891  1.00  0.00    -0.014 A 
ATOM     47  C   UNL A   1      38.099  29.719  27.695  1.00  0.00     0.009 A 
ATOM     48  C   UNL A   1      37.739  29.039  29.986  1.00  0.00     0.009 A 
ATOM     49  C   UNL A   1      36.763  30.119  27.613  1.00  0.00     0.001 A 
ATOM     50  C   UNL A   1      36.396  29.397  29.886  1.00  0.00     0.001 A 
ATOM     51  C   UNL A   1      35.913  29.953  28.705  1.00  0.00     0.000 A 
ENDBRANCH  27  46
BRANCH  39  52
ATOM     52  C   UNL A   1      44.271  32.282  31.482  1.00  0.00    -0.014 A 
ATOM     53  C   UNL A   1      44.014  32.527  32.839  1.00  0.00     0.009 A 
ATOM     54  C   UNL A   1      44.735  33.331  30.673  1.00  0.00     0.009 A 
ATOM     55  C   UNL A   1      44.170  33.810  33.364  1.00  0.00     0.001 A 
ATOM     56  C   UNL A   1      44.927  34.602  31.210  1.00  0.00     0.001 A 
ATOM     57  C   UNL A   1      44.631  34.844  32.551  1.00  0.00     0.000 A 
ENDBRANCH  39  52
ENDBRANCH  13  14
ENDBRANCH   6   8
ENDBRANCH   3   4
ENDBRANCH   2   3
ENDBRANCH   1   2
BRANCH   1  58
ATOM     58  N   UNL A   1      35.688  19.879  24.995  1.00  0.00    -0.354 N 
ATOM     59  C   UNL A   1      34.278  20.085  24.749  1.00  0.00     0.244 C 
ATOM     60  H   UNL A   1      35.820  18.958  25.318  1.00  0.00     0.163 HD
ATOM     61  O   UNL A   1      34.009  18.874  25.127  1.00  0.00    -0.273 OA
BRANCH  59  62
ATOM     62  C   UNL A   1      32.953  21.718  24.101  1.00  0.00     0.197 C 
BRANCH  62  63
ATOM     63  N   UNL A   1      32.713  22.354  22.539  1.00  0.00    -0.340 N 
ATOM     64  C   UNL A   1      33.054  23.539  21.951  1.00  0.00     0.243 C 
ATOM     65  H   UNL A   1      32.230  21.743  21.936  1.00  0.00     0.164 HD
ATOM     66  O   UNL A   1      33.133  23.543  20.716  1.00  0.00    -0.273 OA
BRANCH  64  67
ATOM     67  C   UNL A   1      33.394  24.818  22.746  1.00  0.00     0.176 C 
BRANCH  67  68
ATOM     68  N   UNL A   1      34.653  24.588  23.483  1.00  0.00    -0.340 N 
ATOM     69  C   UNL A   1      34.872  24.671  24.840  1.00  0.00     0.251 C 
ATOM     70  H   UNL A   1      35.434  24.343  22.935  1.00  0.00     0.164 HD
ATOM     71  O   UNL A   1      35.901  24.233  25.341  1.00  0.00    -0.269 OA
BRANCH  69  72
ATOM     72  C   UNL A   1      33.923  25.431  25.681  1.00  0.00     0.040 A 
ATOM     73  C   UNL A   1      32.736  24.878  26.170  1.00  0.00     0.017 A 
ATOM     74  C   UNL A   1      34.213  26.784  25.892  1.00  0.00     0.017 A 
ATOM     75  C   UNL A   1      31.769  25.711  26.731  1.00  0.00     0.040 A 
ATOM     76  C   UNL A   1      33.259  27.607  26.488  1.00  0.00     0.040 A 
ATOM     77  C   UNL A   1      32.033  27.070  26.868  1.00  0.00     0.123 A 
ATOM     78  F   UNL A   1      31.088  27.877  27.366  1.00  0.00    -0.207 F 
ENDBRANCH  69  72
ENDBRANCH  67  68
BRANCH  67  79
ATOM     79  C   UNL A   1      33.262  26.139  21.941  1.00  0.00     0.072 C 
BRANCH  79  80
ATOM     80  C   UNL A   1      32.757  27.276  22.753  1.00  0.00    -0.020 A 
ATOM     81  C   UNL A   1      33.288  28.560  22.744  1.00  0.00     0.087 A 
ATOM     82  C   UNL A   1      31.482  27.340  23.366  1.00  0.00     0.003 A 
ATOM     83  N   UNL A   1      32.291  29.517  22.707  1.00  0.00    -0.361 N 
ATOM     84  C   UNL A   1      31.051  28.935  22.817  1.00  0.00     0.046 A 
ATOM     85  C   UNL A   1      30.194  26.164  23.803  1.00  0.00     0.010 A 
ATOM     86  H   UNL A   1      32.448  30.484  22.613  1.00  0.00     0.166 HD
ATOM     87  C   UNL A   1      29.304  29.397  22.657  1.00  0.00     0.026 A 
ATOM     88  C   UNL A   1      28.447  26.611  23.658  1.00  0.00     0.001 A 
ATOM     89  C   UNL A   1      28.012  28.244  23.157  1.00  0.00     0.002 A 
ENDBRANCH  79  80
ENDBRANCH  67  79
ENDBRANCH  64  67
ENDBRANCH  62  63
BRANCH  62  90
ATOM     90  C   UNL A   1      31.278  22.122  24.541  1.00  0.00     0.191 C 
BRANCH  90  91
ATOM     91  O   UNL A   1      30.846  21.769  25.859  1.00  0.00    -0.394 OA
ATOM     92  H   UNL A   1      31.518  22.043  26.504  1.00  0.00     0.210 HD
ENDBRANCH  90  91
ENDBRANCH  62  90
ENDBRANCH  59  62
ENDBRANCH   1  58
TORSDOF 18
ENDMDL
MODEL 2
REMARK VINA RESULT:     -13.1      3.132      8.394
REMARK SMILES O=C(NCCCNC(=O)[C@H](CO)NC(=O)[C@H](Cc1c[nH]c2ccccc12)NC(=O)c1ccc(F)cc1)c1ccc(-c2c3nc(c(-c4ccccc4)c4ccc([nH]4)c(-c4ccccc4)c4nc(c(-c5ccccc5)c5ccc2[nH]5)C=C4)C=C3)cc1
REMARK SMILES IDX 6 1 5 2 4 3 3 4 1 5 2 6 37 8 38 9 84 10 39 11 83 12 40 13
REMARK SMILES IDX 41 14 42 15 77 16 43 17 82 18 76 19 78 20 44 21 81 22 75 23
REMARK SMILES IDX 74 24 45 26 67 27 52 28 66 29 53 30 56 31 65 32 79 33 54 34
REMARK SMILES IDX 55 35 64 37 80 38 57 39 46 40 47 41 51 42 48 43 50 44 49 45
REMARK SMILES IDX 68 46 69 47 73 48 70 49 72 50 71 51 58 52 59 53 63 54 60 55
REMARK SMILES IDX 62 56 61 57 7 58 8 59 9 61 10 62 13 63 14 64 15 66 16 67
REMARK SMILES IDX 27 68 28 69 29 71 30 72 31 73 36 74 32 75 35 76 33 77 34 78
REMARK SMILES IDX 17 79 18 80 19 81 26 82 20 83 21 84 25 85 22 87 24 88 23 89
REMARK SMILES IDX 11 90 12 91
REMARK H PARENT 3 7 78 25 56 36 7 60 13 65 27 70 20 86 12 92
REMARK Flexibility Score: inf
ROOT
ATOM      1  C   UNL A   1      31.609  30.412  25.896  1.00  0.00     0.117 C 
ENDROOT
BRANCH   1   2
ATOM      2  C   UNL A   1      31.358  31.773  26.510  1.00  0.00     0.042 C 
BRANCH   2   3
ATOM      3  C   UNL A   1      32.633  32.279  27.111  1.00  0.00     0.118 C 
BRANCH   3   4
ATOM      4  N   UNL A   1      32.484  33.678  27.509  1.00  0.00    -0.352 N 
ATOM      5  O   UNL A   1      32.744  35.395  28.967  1.00  0.00    -0.269 OA
ATOM      6  C   UNL A   1      33.167  34.345  28.500  1.00  0.00     0.251 C 
ATOM      7  H   UNL A   1      31.817  34.203  27.011  1.00  0.00     0.163 HD
BRANCH   6   8
ATOM      8  C   UNL A   1      34.422  33.743  28.987  1.00  0.00     0.039 A 
ATOM      9  C   UNL A   1      35.580  33.958  28.244  1.00  0.00     0.014 A 
ATOM     10  C   UNL A   1      34.443  32.918  30.111  1.00  0.00     0.014 A 
ATOM     11  C   UNL A   1      36.680  33.160  28.457  1.00  0.00     0.010 A 
ATOM     12  C   UNL A   1      35.640  32.294  30.467  1.00  0.00     0.010 A 
ATOM     13  C   UNL A   1      36.764  32.406  29.633  1.00  0.00    -0.014 A 
BRANCH  13  14
ATOM     14  C   UNL A   1      38.106  31.913  30.014  1.00  0.00     0.031 A 
ATOM     15  C   UNL A   1      38.984  32.664  30.963  1.00  0.00     0.074 A 
ATOM     16  C   UNL A   1      38.482  30.719  29.508  1.00  0.00     0.049 A 
ATOM     17  N   UNL A   1      40.183  32.349  31.379  1.00  0.00    -0.248 NA
ATOM     18  C   UNL A   1      38.472  33.932  31.505  1.00  0.00     0.031 C 
ATOM     19  C   UNL A   1      37.690  29.907  28.571  1.00  0.00     0.029 A 
ATOM     20  N   UNL A   1      39.591  29.952  29.736  1.00  0.00    -0.354 N 
ATOM     21  C   UNL A   1      40.580  33.386  32.211  1.00  0.00     0.074 A 
ATOM     22  C   UNL A   1      39.505  34.356  32.220  1.00  0.00     0.031 C 
ATOM     23  C   UNL A   1      38.286  28.726  28.387  1.00  0.00     0.029 A 
ATOM     24  C   UNL A   1      39.565  28.749  29.073  1.00  0.00     0.049 A 
ATOM     25  H   UNL A   1      40.333  30.234  30.319  1.00  0.00     0.167 HD
ATOM     26  C   UNL A   1      41.740  33.509  32.900  1.00  0.00     0.031 A 
ATOM     27  C   UNL A   1      40.492  27.782  28.979  1.00  0.00     0.031 A 
ATOM     28  C   UNL A   1      42.801  32.535  32.861  1.00  0.00     0.049 A 
ATOM     29  C   UNL A   1      41.785  27.983  29.702  1.00  0.00     0.074 A 
ATOM     30  C   UNL A   1      44.023  32.563  33.511  1.00  0.00     0.029 A 
ATOM     31  N   UNL A   1      42.766  31.356  32.129  1.00  0.00    -0.354 N 
ATOM     32  N   UNL A   1      42.146  28.973  30.482  1.00  0.00    -0.248 NA
ATOM     33  C   UNL A   1      42.799  26.940  29.528  1.00  0.00     0.031 C 
ATOM     34  C   UNL A   1      44.747  31.430  33.128  1.00  0.00     0.029 A 
ATOM     35  C   UNL A   1      43.951  30.658  32.297  1.00  0.00     0.049 A 
ATOM     36  H   UNL A   1      42.010  31.060  31.571  1.00  0.00     0.167 HD
ATOM     37  C   UNL A   1      43.427  28.664  30.908  1.00  0.00     0.074 A 
ATOM     38  C   UNL A   1      43.760  27.378  30.328  1.00  0.00     0.031 C 
ATOM     39  C   UNL A   1      44.258  29.381  31.703  1.00  0.00     0.031 A 
BRANCH  26  40
ATOM     40  C   UNL A   1      41.931  34.752  33.726  1.00  0.00    -0.014 A 
ATOM     41  C   UNL A   1      41.440  34.839  35.038  1.00  0.00     0.009 A 
ATOM     42  C   UNL A   1      42.650  35.836  33.199  1.00  0.00     0.009 A 
ATOM     43  C   UNL A   1      41.639  35.998  35.794  1.00  0.00     0.001 A 
ATOM     44  C   UNL A   1      42.875  36.981  33.967  1.00  0.00     0.001 A 
ATOM     45  C   UNL A   1      42.361  37.065  35.260  1.00  0.00     0.000 A 
ENDBRANCH  26  40
BRANCH  27  46
ATOM     46  C   UNL A   1      40.249  26.593  28.121  1.00  0.00    -0.014 A 
ATOM     47  C   UNL A   1      39.500  25.506  28.592  1.00  0.00     0.009 A 
ATOM     48  C   UNL A   1      40.773  26.540  26.818  1.00  0.00     0.009 A 
ATOM     49  C   UNL A   1      39.317  24.376  27.791  1.00  0.00     0.001 A 
ATOM     50  C   UNL A   1      40.550  25.430  26.004  1.00  0.00     0.001 A 
ATOM     51  C   UNL A   1      39.836  24.341  26.498  1.00  0.00     0.000 A 
ENDBRANCH  27  46
BRANCH  39  52
ATOM     52  C   UNL A   1      45.585  28.753  32.019  1.00  0.00    -0.014 A 
ATOM     53  C   UNL A   1      45.753  27.914  33.131  1.00  0.00     0.009 A 
ATOM     54  C   UNL A   1      46.683  29.007  31.182  1.00  0.00     0.009 A 
ATOM     55  C   UNL A   1      47.009  27.383  33.428  1.00  0.00     0.001 A 
ATOM     56  C   UNL A   1      47.927  28.443  31.460  1.00  0.00     0.001 A 
ATOM     57  C   UNL A   1      48.092  27.644  32.591  1.00  0.00     0.000 A 
ENDBRANCH  39  52
ENDBRANCH  13  14
ENDBRANCH   6   8
ENDBRANCH   3   4
ENDBRANCH   2   3
ENDBRANCH   1   2
BRANCH   1  58
ATOM     58  N   UNL A   1      31.623  29.347  26.921  1.00  0.00    -0.354 N 
ATOM     59  C   UNL A   1      31.349  27.941  27.124  1.00  0.00     0.244 C 
ATOM     60  H   UNL A   1      31.930  29.734  27.773  1.00  0.00     0.163 HD
ATOM     61  O   UNL A   1      31.679  28.031  28.374  1.00  0.00    -0.273 OA
BRANCH  59  62
ATOM     62  C   UNL A   1      30.594  26.237  25.953  1.00  0.00     0.197 C 
BRANCH  62  63
ATOM     63  N   UNL A   1      29.963  24.752  26.499  1.00  0.00    -0.340 N 
ATOM     64  C   UNL A   1      30.401  23.462  26.408  1.00  0.00     0.243 C 
ATOM     65  H   UNL A   1      29.106  24.841  26.977  1.00  0.00     0.164 HD
ATOM     66  O   UNL A   1      29.969  22.669  27.254  1.00  0.00    -0.273 OA
BRANCH  64  67
ATOM     67  C   UNL A   1      31.431  22.983  25.362  1.00  0.00     0.176 C 
BRANCH  67  68
ATOM     68  N   UNL A   1      31.694  21.548  25.590  1.00  0.00    -0.340 N 
ATOM     69  C   UNL A   1      32.884  20.945  25.932  1.00  0.00     0.251 C 
ATOM     70  H   UNL A   1      30.921  20.947  25.484  1.00  0.00     0.164 HD
ATOM     71  O   UNL A   1      32.914  19.781  26.315  1.00  0.00    -0.269 OA
BRANCH  69  72
ATOM     72  C   UNL A   1      34.155  21.662  25.694  1.00  0.00     0.040 A 
ATOM     73  C   UNL A   1      34.705  22.553  26.621  1.00  0.00     0.017 A 
ATOM     74  C   UNL A   1      34.748  21.492  24.438  1.00  0.00     0.017 A 
ATOM     75  C   UNL A   1      35.755  23.386  26.234  1.00  0.00     0.040 A 
ATOM     76  C   UNL A   1      35.820  22.301  24.068  1.00  0.00     0.040 A 
ATOM     77  C   UNL A   1      36.290  23.264  24.956  1.00  0.00     0.123 A 
ATOM     78  F   UNL A   1      37.268  24.093  24.570  1.00  0.00    -0.207 F 
ENDBRANCH  69  72
ENDBRANCH  67  68
BRANCH  67  79
ATOM     79  C   UNL A   1      31.141  23.441  23.906  1.00  0.00     0.072 C 
BRANCH  79  80
ATOM     80  C   UNL A   1      32.359  23.862  23.168  1.00  0.00    -0.020 A 
ATOM     81  C   UNL A   1      32.632  23.556  21.841  1.00  0.00     0.087 A 
ATOM     82  C   UNL A   1      33.230  24.908  23.558  1.00  0.00     0.003 A 
ATOM     83  N   UNL A   1      33.120  24.656  21.160  1.00  0.00    -0.361 N 
ATOM     84  C   UNL A   1      33.318  25.712  22.016  1.00  0.00     0.046 A 
ATOM     85  C   UNL A   1      33.556  25.828  25.068  1.00  0.00     0.010 A 
ATOM     86  H   UNL A   1      33.300  24.680  20.193  1.00  0.00     0.166 HD
ATOM     87  C   UNL A   1      33.707  27.482  21.938  1.00  0.00     0.026 A 
ATOM     88  C   UNL A   1      33.954  27.592  25.008  1.00  0.00     0.001 A 
ATOM     89  C   UNL A   1      34.098  28.391  23.444  1.00  0.00     0.002 A 
ENDBRANCH  79  80
ENDBRANCH  67  79
ENDBRANCH  64  67
ENDBRANCH  62  63
BRANCH  62  90
ATOM     90  C   UNL A   1      29.560  26.166  24.508  1.00  0.00     0.191 C 
BRANCH  90  91
ATOM     91  O   UNL A   1      28.153  26.014  24.720  1.00  0.00    -0.394 OA
ATOM     92  H   UNL A   1      27.724  26.883  24.669  1.00  0.00     0.210 HD
ENDBRANCH  90  91
ENDBRANCH  62  90
ENDBRANCH  59  62
ENDBRANCH   1  58
TORSDOF 18
ENDMDL
MODEL 3
REMARK VINA RESULT:     -13.0      3.782      9.234
REMARK SMILES O=C(NCCCNC(=O)[C@H](CO)NC(=O)[C@H](Cc1c[nH]c2ccccc12)NC(=O)c1ccc(F)cc1)c1ccc(-c2c3nc(c(-c4ccccc4)c4ccc([nH]4)c(-c4ccccc4)c4nc(c(-c5ccccc5)c5ccc2[nH]5)C=C4)C=C3)cc1
REMARK SMILES IDX 6 1 5 2 4 3 3 4 1 5 2 6 37 8 38 9 84 10 39 11 83 12 40 13
REMARK SMILES IDX 41 14 42 15 77 16 43 17 82 18 76 19 78 20 44 21 81 22 75 23
REMARK SMILES IDX 74 24 45 26 67 27 52 28 66 29 53 30 56 31 65 32 79 33 54 34
REMARK SMILES IDX 55 35 64 37 80 38 57 39 46 40 47 41 51 42 48 43 50 44 49 45
REMARK SMILES IDX 68 46 69 47 73 48 70 49 72 50 71 51 58 52 59 53 63 54 60 55
REMARK SMILES IDX 62 56 61 57 7 58 8 59 9 61 10 62 13 63 14 64 15 66 16 67
REMARK SMILES IDX 27 68 28 69 29 71 30 72 31 73 36 74 32 75 35 76 33 77 34 78
REMARK SMILES IDX 17 79 18 80 19 81 26 82 20 83 21 84 25 85 22 87 24 88 23 89
REMARK SMILES IDX 11 90 12 91
REMARK H PARENT 3 7 78 25 56 36 7 60 13 65 27 70 20 86 12 92
REMARK Flexibility Score: inf
ROOT
ATOM      1  C   UNL A   1      31.746  30.447  25.813  1.00  0.00     0.117 C 
ENDROOT
BRANCH   1   2
ATOM      2  C   UNL A   1      31.379  31.791  26.403  1.00  0.00     0.042 C 
BRANCH   2   3
ATOM      3  C   UNL A   1      32.562  32.337  27.142  1.00  0.00     0.118 C 
BRANCH   3   4
ATOM      4  N   UNL A   1      32.356  33.751  27.452  1.00  0.00    -0.352 N 
ATOM      5  O   UNL A   1      32.543  35.565  28.800  1.00  0.00    -0.269 OA
ATOM      6  C   UNL A   1      33.008  34.506  28.400  1.00  0.00     0.251 C 
ATOM      7  H   UNL A   1      31.670  34.217  26.921  1.00  0.00     0.163 HD
BRANCH   6   8
ATOM      8  C   UNL A   1      34.284  33.986  28.925  1.00  0.00     0.039 A 
ATOM      9  C   UNL A   1      34.240  33.139  30.030  1.00  0.00     0.014 A 
ATOM     10  C   UNL A   1      35.507  34.386  28.387  1.00  0.00     0.014 A 
ATOM     11  C   UNL A   1      35.386  32.906  30.752  1.00  0.00     0.010 A 
ATOM     12  C   UNL A   1      36.686  33.942  28.989  1.00  0.00     0.010 A 
ATOM     13  C   UNL A   1      36.629  33.204  30.181  1.00  0.00    -0.014 A 
BRANCH  13  14
ATOM     14  C   UNL A   1      37.814  32.563  30.793  1.00  0.00     0.031 A 
ATOM     15  C   UNL A   1      38.386  33.033  32.092  1.00  0.00     0.074 A 
ATOM     16  C   UNL A   1      38.326  31.491  30.151  1.00  0.00     0.049 A 
ATOM     17  N   UNL A   1      39.421  32.565  32.739  1.00  0.00    -0.248 NA
ATOM     18  C   UNL A   1      37.732  34.177  32.747  1.00  0.00     0.031 C 
ATOM     19  C   UNL A   1      37.834  30.953  28.873  1.00  0.00     0.029 A 
ATOM     20  N   UNL A   1      39.331  30.630  30.494  1.00  0.00    -0.354 N 
ATOM     21  C   UNL A   1      39.561  33.369  33.861  1.00  0.00     0.074 A 
ATOM     22  C   UNL A   1      38.521  34.373  33.796  1.00  0.00     0.031 C 
ATOM     23  C   UNL A   1      38.467  29.810  28.595  1.00  0.00     0.029 A 
ATOM     24  C   UNL A   1      39.501  29.606  29.592  1.00  0.00     0.049 A 
ATOM     25  H   UNL A   1      39.878  30.732  31.306  1.00  0.00     0.167 HD
ATOM     26  C   UNL A   1      40.480  33.269  34.852  1.00  0.00     0.031 A 
ATOM     27  C   UNL A   1      40.424  28.633  29.539  1.00  0.00     0.031 A 
ATOM     28  C   UNL A   1      41.517  32.269  34.885  1.00  0.00     0.049 A 
ATOM     29  C   UNL A   1      41.461  28.594  30.615  1.00  0.00     0.074 A 
ATOM     30  C   UNL A   1      42.507  32.082  35.834  1.00  0.00     0.029 A 
ATOM     31  N   UNL A   1      41.697  31.285  33.922  1.00  0.00    -0.354 N 
ATOM     32  N   UNL A   1      41.581  29.365  31.669  1.00  0.00    -0.248 NA
ATOM     33  C   UNL A   1      42.490  27.559  30.493  1.00  0.00     0.031 C 
ATOM     34  C   UNL A   1      43.318  31.021  35.417  1.00  0.00     0.029 A 
ATOM     35  C   UNL A   1      42.793  30.500  34.245  1.00  0.00     0.049 A 
ATOM     36  H   UNL A   1      41.130  31.163  33.126  1.00  0.00     0.167 HD
ATOM     37  C   UNL A   1      42.694  28.896  32.348  1.00  0.00     0.074 A 
ATOM     38  C   UNL A   1      43.185  27.753  31.604  1.00  0.00     0.031 C 
ATOM     39  C   UNL A   1      43.263  29.371  33.483  1.00  0.00     0.031 A 
BRANCH  26  40
ATOM     40  C   UNL A   1      40.423  34.285  35.960  1.00  0.00    -0.014 A 
ATOM     41  C   UNL A   1      39.673  34.055  37.124  1.00  0.00     0.009 A 
ATOM     42  C   UNL A   1      41.165  35.472  35.857  1.00  0.00     0.009 A 
ATOM     43  C   UNL A   1      39.643  35.006  38.147  1.00  0.00     0.001 A 
ATOM     44  C   UNL A   1      41.158  36.407  36.895  1.00  0.00     0.001 A 
ATOM     45  C   UNL A   1      40.390  36.178  38.034  1.00  0.00     0.000 A 
ENDBRANCH  26  40
BRANCH  27  46
ATOM     46  C   UNL A   1      40.441  27.679  28.399  1.00  0.00    -0.014 A 
ATOM     47  C   UNL A   1      39.760  26.456  28.474  1.00  0.00     0.009 A 
ATOM     48  C   UNL A   1      41.146  27.991  27.223  1.00  0.00     0.009 A 
ATOM     49  C   UNL A   1      39.820  25.550  27.412  1.00  0.00     0.001 A 
ATOM     50  C   UNL A   1      41.166  27.104  26.147  1.00  0.00     0.001 A 
ATOM     51  C   UNL A   1      40.518  25.876  26.249  1.00  0.00     0.000 A 
ENDBRANCH  27  46
BRANCH  39  52
ATOM     52  C   UNL A   1      44.452  28.613  33.999  1.00  0.00    -0.014 A 
ATOM     53  C   UNL A   1      45.762  28.987  33.661  1.00  0.00     0.009 A 
ATOM     54  C   UNL A   1      44.253  27.505  34.837  1.00  0.00     0.009 A 
ATOM     55  C   UNL A   1      46.847  28.236  34.114  1.00  0.00     0.001 A 
ATOM     56  C   UNL A   1      45.341  26.780  35.319  1.00  0.00     0.001 A 
ATOM     57  C   UNL A   1      46.636  27.138  34.946  1.00  0.00     0.000 A 
ENDBRANCH  39  52
ENDBRANCH  13  14
ENDBRANCH   6   8
ENDBRANCH   3   4
ENDBRANCH   2   3
ENDBRANCH   1   2
BRANCH   1  58
ATOM     58  N   UNL A   1      31.756  29.385  26.841  1.00  0.00    -0.354 N 
ATOM     59  C   UNL A   1      31.403  28.001  27.070  1.00  0.00     0.244 C 
ATOM     60  H   UNL A   1      32.142  29.753  27.669  1.00  0.00     0.163 HD
ATOM     61  O   UNL A   1      31.819  28.072  28.296  1.00  0.00    -0.273 OA
BRANCH  59  62
ATOM     62  C   UNL A   1      30.462  26.349  25.961  1.00  0.00     0.197 C 
BRANCH  62  63
ATOM     63  N   UNL A   1      29.880  24.856  26.542  1.00  0.00    -0.340 N 
ATOM     64  C   UNL A   1      30.436  23.613  26.639  1.00  0.00     0.243 C 
ATOM     65  H   UNL A   1      28.955  24.899  26.877  1.00  0.00     0.164 HD
ATOM     66  O   UNL A   1      29.944  22.850  27.481  1.00  0.00    -0.273 OA
BRANCH  64  67
ATOM     67  C   UNL A   1      31.654  23.156  25.808  1.00  0.00     0.176 C 
BRANCH  67  68
ATOM     68  N   UNL A   1      32.792  24.043  26.125  1.00  0.00    -0.340 N 
ATOM     69  C   UNL A   1      33.303  25.074  25.369  1.00  0.00     0.251 C 
ATOM     70  H   UNL A   1      33.242  23.875  26.985  1.00  0.00     0.164 HD
ATOM     71  O   UNL A   1      34.098  25.874  25.849  1.00  0.00    -0.269 OA
BRANCH  69  72
ATOM     72  C   UNL A   1      33.003  25.129  23.922  1.00  0.00     0.040 A 
ATOM     73  C   UNL A   1      32.983  23.991  23.110  1.00  0.00     0.017 A 
ATOM     74  C   UNL A   1      32.838  26.401  23.361  1.00  0.00     0.017 A 
ATOM     75  C   UNL A   1      32.953  24.136  21.723  1.00  0.00     0.040 A 
ATOM     76  C   UNL A   1      32.771  26.539  21.977  1.00  0.00     0.040 A 
ATOM     77  C   UNL A   1      32.866  25.409  21.170  1.00  0.00     0.123 A 
ATOM     78  F   UNL A   1      32.883  25.551  19.839  1.00  0.00    -0.207 F 
ENDBRANCH  69  72
ENDBRANCH  67  68
BRANCH  67  79
ATOM     79  C   UNL A   1      31.911  21.624  25.817  1.00  0.00     0.072 C 
BRANCH  79  80
ATOM     80  C   UNL A   1      33.194  21.240  25.176  1.00  0.00    -0.020 A 
ATOM     81  C   UNL A   1      34.453  21.449  25.725  1.00  0.00     0.087 A 
ATOM     82  C   UNL A   1      33.334  20.306  24.120  1.00  0.00     0.003 A 
ATOM     83  N   UNL A   1      35.260  20.337  25.575  1.00  0.00    -0.361 N 
ATOM     84  C   UNL A   1      34.636  19.380  24.812  1.00  0.00     0.046 A 
ATOM     85  C   UNL A   1      32.245  19.551  22.905  1.00  0.00     0.010 A 
ATOM     86  H   UNL A   1      36.161  20.243  25.962  1.00  0.00     0.166 HD
ATOM     87  C   UNL A   1      34.870  17.647  24.330  1.00  0.00     0.026 A 
ATOM     88  C   UNL A   1      32.470  17.828  22.406  1.00  0.00     0.001 A 
ATOM     89  C   UNL A   1      33.822  16.908  23.064  1.00  0.00     0.002 A 
ENDBRANCH  79  80
ENDBRANCH  67  79
ENDBRANCH  64  67
ENDBRANCH  62  63
BRANCH  62  90
ATOM     90  C   UNL A   1      29.240  26.341  24.669  1.00  0.00     0.191 C 
BRANCH  90  91
ATOM     91  O   UNL A   1      29.438  25.423  23.589  1.00  0.00    -0.394 OA
ATOM     92  H   UNL A   1      28.754  25.564  22.916  1.00  0.00     0.210 HD
ENDBRANCH  90  91
ENDBRANCH  62  90
ENDBRANCH  59  62
ENDBRANCH   1  58
TORSDOF 18
ENDMDL
