MODEL 1
REMARK VINA RESULT:     -12.4      0.000      0.000
REMARK SMILES CC(C)Oc1ccc([C@@H]2CC(=O)Nc3c(C(=O)NCCCNC(=O)c4ccc(-c5c6nc(c(-c7ccccc7)c7ccc([nH]7)c(-c7ccccc7)c7nc(c(-c8ccccc8)c8ccc5[nH]8)C=C7)C=C6)cc4)nsc32)cc1
REMARK SMILES IDX 19 1 18 2 16 3 17 4 15 6 9 7 10 8 75 9 11 10 14 11 74 12
REMARK SMILES IDX 12 13 13 14 73 15 8 17 5 18 6 19 77 20 7 21 76 22 4 23 2 24
REMARK SMILES IDX 1 25 3 26 20 27 21 28 22 29 23 30 24 32 25 33 26 34 72 35
REMARK SMILES IDX 27 36 71 37 28 38 29 39 30 40 65 41 31 42 70 43 64 44 66 45
REMARK SMILES IDX 32 46 69 47 63 48 62 49 33 51 55 52 40 53 54 54 41 55 44 56
REMARK SMILES IDX 53 57 67 58 42 59 43 60 52 62 68 63 45 64 34 65 35 66 39 67
REMARK SMILES IDX 36 68 38 69 37 70 56 71 57 72 61 73 58 74 60 75 59 76 46 77
REMARK SMILES IDX 47 78 51 79 48 80 50 81 49 82
REMARK H PARENT 18 5 13 16 22 31 66 50 44 61
REMARK Flexibility Score: inf
ROOT
ATOM      1  C   UNL A   1      36.195  22.113  25.523  1.00  0.00     0.118 C 
ENDROOT
BRANCH   1   2
ATOM      2  N   UNL A   1      35.024  21.285  25.734  1.00  0.00    -0.351 N 
ATOM      3  C   UNL A   1      33.694  21.653  25.527  1.00  0.00     0.273 C 
ATOM      4  O   UNL A   1      32.842  20.766  25.592  1.00  0.00    -0.267 OA
ATOM      5  H   UNL A   1      35.185  20.368  26.056  1.00  0.00     0.163 HD
BRANCH   3   6
ATOM      6  C   UNL A   1      33.352  23.083  25.332  1.00  0.00     0.165 A 
ATOM      7  C   UNL A   1      33.116  26.153  23.169  1.00  0.00     0.073 C 
ATOM      8  C   UNL A   1      33.193  25.503  21.773  1.00  0.00     0.114 C 
ATOM      9  C   UNL A   1      33.209  25.136  24.259  1.00  0.00     0.058 A 
ATOM     10  C   UNL A   1      33.178  23.988  21.720  1.00  0.00     0.225 C 
ATOM     11  C   UNL A   1      33.044  23.785  24.102  1.00  0.00     0.089 A 
ATOM     12  S   UNL A   1      33.427  25.475  25.906  1.00  0.00    -0.038 S 
ATOM     13  O   UNL A   1      33.506  23.372  20.705  1.00  0.00    -0.275 OA
ATOM     14  N   UNL A   1      32.802  23.285  22.834  1.00  0.00    -0.323 N 
ATOM     15  N   UNL A   1      33.459  23.896  26.397  1.00  0.00    -0.185 NA
ATOM     16  H   UNL A   1      32.356  22.414  22.733  1.00  0.00     0.170 HD
BRANCH   7  17
ATOM     17  C   UNL A   1      31.831  26.941  23.319  1.00  0.00    -0.039 A 
ATOM     18  C   UNL A   1      29.440  28.372  23.235  1.00  0.00     0.119 A 
ATOM     19  C   UNL A   1      29.428  27.018  23.568  1.00  0.00     0.047 A 
ATOM     20  C   UNL A   1      30.646  29.037  23.062  1.00  0.00     0.047 A 
ATOM     21  C   UNL A   1      30.623  26.298  23.607  1.00  0.00     0.008 A 
ATOM     22  C   UNL A   1      31.835  28.325  23.084  1.00  0.00     0.008 A 
BRANCH  18  23
ATOM     23  O   UNL A   1      28.242  29.018  23.151  1.00  0.00    -0.491 OA
BRANCH  23  24
ATOM     24  C   UNL A   1      28.280  30.398  22.729  1.00  0.00     0.167 C 
ATOM     25  C   UNL A   1      27.954  30.599  21.250  1.00  0.00     0.052 C 
ATOM     26  C   UNL A   1      27.488  31.350  23.627  1.00  0.00     0.052 C 
ENDBRANCH  23  24
ENDBRANCH  18  23
ENDBRANCH   7  17
ENDBRANCH   3   6
ENDBRANCH   1   2
BRANCH   1  27
ATOM     27  C   UNL A   1      37.383  21.598  24.746  1.00  0.00     0.042 C 
BRANCH  27  28
ATOM     28  C   UNL A   1      38.605  21.408  25.599  1.00  0.00     0.118 C 
BRANCH  28  29
ATOM     29  N   UNL A   1      39.136  20.036  25.679  1.00  0.00    -0.352 N 
ATOM     30  C   UNL A   1      40.461  19.670  25.950  1.00  0.00     0.251 C 
ATOM     31  H   UNL A   1      38.496  19.305  25.525  1.00  0.00     0.163 HD
ATOM     32  O   UNL A   1      40.876  18.545  25.811  1.00  0.00    -0.269 OA
BRANCH  30  33
ATOM     33  C   UNL A   1      41.335  20.752  26.449  1.00  0.00     0.039 A 
ATOM     34  C   UNL A   1      41.904  21.722  25.619  1.00  0.00     0.014 A 
ATOM     35  C   UNL A   1      41.310  20.900  27.822  1.00  0.00     0.014 A 
ATOM     36  C   UNL A   1      42.343  22.912  26.202  1.00  0.00     0.010 A 
ATOM     37  C   UNL A   1      41.397  22.169  28.302  1.00  0.00     0.010 A 
ATOM     38  C   UNL A   1      42.048  23.138  27.551  1.00  0.00    -0.014 A 
BRANCH  38  39
ATOM     39  C   UNL A   1      42.314  24.383  28.259  1.00  0.00     0.031 A 
ATOM     40  C   UNL A   1      41.284  25.446  28.090  1.00  0.00     0.074 A 
ATOM     41  C   UNL A   1      43.242  24.408  29.247  1.00  0.00     0.049 A 
ATOM     42  N   UNL A   1      41.433  26.619  27.571  1.00  0.00    -0.248 NA
ATOM     43  C   UNL A   1      39.886  25.127  28.438  1.00  0.00     0.031 C 
ATOM     44  C   UNL A   1      44.072  23.297  29.756  1.00  0.00     0.029 A 
ATOM     45  N   UNL A   1      43.529  25.393  30.133  1.00  0.00    -0.354 N 
ATOM     46  C   UNL A   1      40.205  27.263  27.708  1.00  0.00     0.074 A 
ATOM     47  C   UNL A   1      39.253  26.242  28.063  1.00  0.00     0.031 C 
ATOM     48  C   UNL A   1      44.528  23.588  30.991  1.00  0.00     0.029 A 
ATOM     49  C   UNL A   1      44.213  24.973  31.270  1.00  0.00     0.049 A 
ATOM     50  H   UNL A   1      43.272  26.332  29.985  1.00  0.00     0.167 HD
ATOM     51  C   UNL A   1      40.118  28.622  27.774  1.00  0.00     0.031 A 
ATOM     52  C   UNL A   1      44.488  25.708  32.375  1.00  0.00     0.031 A 
ATOM     53  C   UNL A   1      41.357  29.244  27.383  1.00  0.00     0.049 A 
ATOM     54  C   UNL A   1      44.315  27.129  31.995  1.00  0.00     0.074 A 
ATOM     55  C   UNL A   1      42.113  29.265  26.230  1.00  0.00     0.029 A 
ATOM     56  N   UNL A   1      42.200  29.630  28.400  1.00  0.00    -0.354 N 
ATOM     57  N   UNL A   1      45.070  27.730  31.119  1.00  0.00    -0.248 NA
ATOM     58  C   UNL A   1      43.009  27.728  32.213  1.00  0.00     0.031 C 
ATOM     59  C   UNL A   1      43.463  29.175  26.683  1.00  0.00     0.029 A 
ATOM     60  C   UNL A   1      43.461  29.199  28.080  1.00  0.00     0.049 A 
ATOM     61  H   UNL A   1      41.944  30.125  29.211  1.00  0.00     0.167 HD
ATOM     62  C   UNL A   1      44.192  28.497  30.365  1.00  0.00     0.074 A 
ATOM     63  C   UNL A   1      42.954  28.530  31.144  1.00  0.00     0.031 C 
ATOM     64  C   UNL A   1      44.449  28.780  29.052  1.00  0.00     0.031 A 
BRANCH  51  65
ATOM     65  C   UNL A   1      39.081  29.372  28.577  1.00  0.00    -0.014 A 
ATOM     66  C   UNL A   1      38.085  30.090  27.887  1.00  0.00     0.009 A 
ATOM     67  C   UNL A   1      39.201  29.632  29.954  1.00  0.00     0.009 A 
ATOM     68  C   UNL A   1      37.312  31.067  28.525  1.00  0.00     0.001 A 
ATOM     69  C   UNL A   1      38.403  30.579  30.604  1.00  0.00     0.001 A 
ATOM     70  C   UNL A   1      37.478  31.318  29.883  1.00  0.00     0.000 A 
ENDBRANCH  51  65
BRANCH  52  71
ATOM     71  C   UNL A   1      44.610  25.265  33.781  1.00  0.00    -0.014 A 
ATOM     72  C   UNL A   1      43.488  24.844  34.510  1.00  0.00     0.009 A 
ATOM     73  C   UNL A   1      45.881  25.003  34.330  1.00  0.00     0.009 A 
ATOM     74  C   UNL A   1      43.631  24.156  35.725  1.00  0.00     0.001 A 
ATOM     75  C   UNL A   1      46.025  24.314  35.541  1.00  0.00     0.001 A 
ATOM     76  C   UNL A   1      44.899  23.878  36.231  1.00  0.00     0.000 A 
ENDBRANCH  52  71
BRANCH  64  77
ATOM     77  C   UNL A   1      45.803  28.402  28.493  1.00  0.00    -0.014 A 
ATOM     78  C   UNL A   1      46.090  27.135  27.953  1.00  0.00     0.009 A 
ATOM     79  C   UNL A   1      46.752  29.421  28.331  1.00  0.00     0.009 A 
ATOM     80  C   UNL A   1      47.296  26.897  27.281  1.00  0.00     0.001 A 
ATOM     81  C   UNL A   1      47.945  29.189  27.645  1.00  0.00     0.001 A 
ATOM     82  C   UNL A   1      48.219  27.927  27.122  1.00  0.00     0.000 A 
ENDBRANCH  64  77
ENDBRANCH  38  39
ENDBRANCH  30  33
ENDBRANCH  28  29
ENDBRANCH  27  28
ENDBRANCH   1  27
TORSDOF 13
ENDMDL
MODEL 2
REMARK VINA RESULT:     -12.2      1.886      2.505
REMARK SMILES CC(C)Oc1ccc([C@@H]2CC(=O)Nc3c(C(=O)NCCCNC(=O)c4ccc(-c5c6nc(c(-c7ccccc7)c7ccc([nH]7)c(-c7ccccc7)c7nc(c(-c8ccccc8)c8ccc5[nH]8)C=C7)C=C6)cc4)nsc32)cc1
REMARK SMILES IDX 19 1 18 2 16 3 17 4 15 6 9 7 10 8 75 9 11 10 14 11 74 12
REMARK SMILES IDX 12 13 13 14 73 15 8 17 5 18 6 19 77 20 7 21 76 22 4 23 2 24
REMARK SMILES IDX 1 25 3 26 20 27 21 28 22 29 23 30 24 32 25 33 26 34 72 35
REMARK SMILES IDX 27 36 71 37 28 38 29 39 30 40 65 41 31 42 70 43 64 44 66 45
REMARK SMILES IDX 32 46 69 47 63 48 62 49 33 51 55 52 40 53 54 54 41 55 44 56
REMARK SMILES IDX 53 57 67 58 42 59 43 60 52 62 68 63 45 64 34 65 35 66 39 67
REMARK SMILES IDX 36 68 38 69 37 70 56 71 57 72 61 73 58 74 60 75 59 76 46 77
REMARK SMILES IDX 47 78 51 79 48 80 50 81 49 82
REMARK H PARENT 18 5 13 16 22 31 66 50 44 61
REMARK Flexibility Score: inf
ROOT
ATOM      1  C   UNL A   1      37.610  21.824  25.412  1.00  0.00     0.118 C 
ENDROOT
BRANCH   1   2
ATOM      2  N   UNL A   1      36.597  20.788  25.435  1.00  0.00    -0.351 N 
ATOM      3  C   UNL A   1      35.290  20.888  24.955  1.00  0.00     0.273 C 
ATOM      4  O   UNL A   1      34.624  19.854  24.900  1.00  0.00    -0.267 OA
ATOM      5  H   UNL A   1      36.858  19.925  25.829  1.00  0.00     0.163 HD
BRANCH   3   6
ATOM      6  C   UNL A   1      34.732  22.222  24.624  1.00  0.00     0.165 A 
ATOM      7  C   UNL A   1      32.071  24.862  24.965  1.00  0.00     0.073 C 
ATOM      8  C   UNL A   1      31.383  24.382  26.259  1.00  0.00     0.114 C 
ATOM      9  C   UNL A   1      33.192  23.959  24.567  1.00  0.00     0.058 A 
ATOM     10  C   UNL A   1      32.029  23.221  26.989  1.00  0.00     0.225 C 
ATOM     11  C   UNL A   1      33.786  23.024  25.374  1.00  0.00     0.089 A 
ATOM     12  S   UNL A   1      34.008  23.998  23.081  1.00  0.00    -0.038 S 
ATOM     13  O   UNL A   1      31.429  22.590  27.860  1.00  0.00    -0.275 OA
ATOM     14  N   UNL A   1      33.308  22.855  26.662  1.00  0.00    -0.323 N 
ATOM     15  N   UNL A   1      35.017  22.729  23.412  1.00  0.00    -0.185 NA
ATOM     16  H   UNL A   1      33.894  22.466  27.350  1.00  0.00     0.170 HD
BRANCH   7  17
ATOM     17  C   UNL A   1      32.593  26.274  25.131  1.00  0.00    -0.039 A 
ATOM     18  C   UNL A   1      33.222  28.957  25.556  1.00  0.00     0.119 A 
ATOM     19  C   UNL A   1      33.600  27.997  26.495  1.00  0.00     0.047 A 
ATOM     20  C   UNL A   1      32.640  28.568  24.357  1.00  0.00     0.047 A 
ATOM     21  C   UNL A   1      33.283  26.654  26.287  1.00  0.00     0.008 A 
ATOM     22  C   UNL A   1      32.309  27.238  24.151  1.00  0.00     0.008 A 
BRANCH  18  23
ATOM     23  O   UNL A   1      33.501  30.263  25.832  1.00  0.00    -0.491 OA
BRANCH  23  24
ATOM     24  C   UNL A   1      32.827  30.840  26.970  1.00  0.00     0.167 C 
ATOM     25  C   UNL A   1      33.728  31.715  27.842  1.00  0.00     0.052 C 
ATOM     26  C   UNL A   1      31.506  31.535  26.630  1.00  0.00     0.052 C 
ENDBRANCH  23  24
ENDBRANCH  18  23
ENDBRANCH   7  17
ENDBRANCH   3   6
ENDBRANCH   1   2
BRANCH   1  27
ATOM     27  C   UNL A   1      39.079  21.476  25.376  1.00  0.00     0.042 C 
BRANCH  27  28
ATOM     28  C   UNL A   1      39.491  20.553  26.488  1.00  0.00     0.118 C 
BRANCH  28  29
ATOM     29  N   UNL A   1      40.377  19.438  26.114  1.00  0.00    -0.352 N 
ATOM     30  C   UNL A   1      41.770  19.493  25.972  1.00  0.00     0.251 C 
ATOM     31  H   UNL A   1      39.948  18.569  25.945  1.00  0.00     0.163 HD
ATOM     32  O   UNL A   1      42.418  18.603  25.477  1.00  0.00    -0.269 OA
BRANCH  30  33
ATOM     33  C   UNL A   1      42.420  20.713  26.493  1.00  0.00     0.039 A 
ATOM     34  C   UNL A   1      42.830  21.772  25.678  1.00  0.00     0.014 A 
ATOM     35  C   UNL A   1      42.326  20.852  27.865  1.00  0.00     0.014 A 
ATOM     36  C   UNL A   1      43.030  23.020  26.269  1.00  0.00     0.010 A 
ATOM     37  C   UNL A   1      42.168  22.115  28.342  1.00  0.00     0.010 A 
ATOM     38  C   UNL A   1      42.658  23.187  27.608  1.00  0.00    -0.014 A 
BRANCH  38  39
ATOM     39  C   UNL A   1      42.673  24.458  28.319  1.00  0.00     0.031 A 
ATOM     40  C   UNL A   1      41.511  25.351  28.056  1.00  0.00     0.074 A 
ATOM     41  C   UNL A   1      43.504  24.625  29.378  1.00  0.00     0.049 A 
ATOM     42  N   UNL A   1      41.521  26.533  27.535  1.00  0.00    -0.248 NA
ATOM     43  C   UNL A   1      40.155  24.824  28.294  1.00  0.00     0.031 C 
ATOM     44  C   UNL A   1      44.449  23.652  29.965  1.00  0.00     0.029 A 
ATOM     45  N   UNL A   1      43.565  25.641  30.272  1.00  0.00    -0.354 N 
ATOM     46  C   UNL A   1      40.203  26.983  27.566  1.00  0.00     0.074 A 
ATOM     47  C   UNL A   1      39.392  25.829  27.856  1.00  0.00     0.031 C 
ATOM     48  C   UNL A   1      44.754  24.010  31.230  1.00  0.00     0.029 A 
ATOM     49  C   UNL A   1      44.211  25.331  31.465  1.00  0.00     0.049 A 
ATOM     50  H   UNL A   1      43.181  26.531  30.092  1.00  0.00     0.167 HD
ATOM     51  C   UNL A   1      39.905  28.313  27.607  1.00  0.00     0.031 A 
ATOM     52  C   UNL A   1      44.281  26.099  32.579  1.00  0.00     0.031 A 
ATOM     53  C   UNL A   1      41.063  29.116  27.309  1.00  0.00     0.049 A 
ATOM     54  C   UNL A   1      43.926  27.478  32.169  1.00  0.00     0.074 A 
ATOM     55  C   UNL A   1      41.898  29.252  26.220  1.00  0.00     0.029 A 
ATOM     56  N   UNL A   1      41.753  29.626  28.385  1.00  0.00    -0.354 N 
ATOM     57  N   UNL A   1      44.648  28.187  31.348  1.00  0.00    -0.248 NA
ATOM     58  C   UNL A   1      42.530  27.871  32.274  1.00  0.00     0.031 C 
ATOM     59  C   UNL A   1      43.205  29.369  26.780  1.00  0.00     0.029 A 
ATOM     60  C   UNL A   1      43.086  29.392  28.172  1.00  0.00     0.049 A 
ATOM     61  H   UNL A   1      41.360  30.077  29.167  1.00  0.00     0.167 HD
ATOM     62  C   UNL A   1      43.729  28.811  30.517  1.00  0.00     0.074 A 
ATOM     63  C   UNL A   1      42.440  28.655  31.194  1.00  0.00     0.031 C 
ATOM     64  C   UNL A   1      44.044  29.129  29.226  1.00  0.00     0.031 A 
BRANCH  51  65
ATOM     65  C   UNL A   1      38.706  28.896  28.316  1.00  0.00    -0.014 A 
ATOM     66  C   UNL A   1      37.966  29.905  27.667  1.00  0.00     0.009 A 
ATOM     67  C   UNL A   1      38.438  28.703  29.683  1.00  0.00     0.009 A 
ATOM     68  C   UNL A   1      37.072  30.722  28.368  1.00  0.00     0.001 A 
ATOM     69  C   UNL A   1      37.516  29.491  30.379  1.00  0.00     0.001 A 
ATOM     70  C   UNL A   1      36.854  30.521  29.727  1.00  0.00     0.000 A 
ENDBRANCH  51  65
BRANCH  52  71
ATOM     71  C   UNL A   1      44.355  25.680  33.996  1.00  0.00    -0.014 A 
ATOM     72  C   UNL A   1      44.748  26.579  34.999  1.00  0.00     0.009 A 
ATOM     73  C   UNL A   1      43.782  24.459  34.402  1.00  0.00     0.009 A 
ATOM     74  C   UNL A   1      44.542  26.283  36.355  1.00  0.00     0.001 A 
ATOM     75  C   UNL A   1      43.574  24.164  35.755  1.00  0.00     0.001 A 
ATOM     76  C   UNL A   1      43.942  25.084  36.731  1.00  0.00     0.000 A 
ENDBRANCH  52  71
BRANCH  64  77
ATOM     77  C   UNL A   1      45.481  28.962  28.782  1.00  0.00    -0.014 A 
ATOM     78  C   UNL A   1      45.999  27.755  28.277  1.00  0.00     0.009 A 
ATOM     79  C   UNL A   1      46.275  30.112  28.687  1.00  0.00     0.009 A 
ATOM     80  C   UNL A   1      47.278  27.703  27.707  1.00  0.00     0.001 A 
ATOM     81  C   UNL A   1      47.542  30.066  28.103  1.00  0.00     0.001 A 
ATOM     82  C   UNL A   1      48.045  28.862  27.615  1.00  0.00     0.000 A 
ENDBRANCH  64  77
ENDBRANCH  38  39
ENDBRANCH  30  33
ENDBRANCH  28  29
ENDBRANCH  27  28
ENDBRANCH   1  27
TORSDOF 13
ENDMDL
MODEL 3
REMARK VINA RESULT:     -12.1      3.903      9.265
REMARK SMILES CC(C)Oc1ccc([C@@H]2CC(=O)Nc3c(C(=O)NCCCNC(=O)c4ccc(-c5c6nc(c(-c7ccccc7)c7ccc([nH]7)c(-c7ccccc7)c7nc(c(-c8ccccc8)c8ccc5[nH]8)C=C7)C=C6)cc4)nsc32)cc1
REMARK SMILES IDX 19 1 18 2 16 3 17 4 15 6 9 7 10 8 75 9 11 10 14 11 74 12
REMARK SMILES IDX 12 13 13 14 73 15 8 17 5 18 6 19 77 20 7 21 76 22 4 23 2 24
REMARK SMILES IDX 1 25 3 26 20 27 21 28 22 29 23 30 24 32 25 33 26 34 72 35
REMARK SMILES IDX 27 36 71 37 28 38 29 39 30 40 65 41 31 42 70 43 64 44 66 45
REMARK SMILES IDX 32 46 69 47 63 48 62 49 33 51 55 52 40 53 54 54 41 55 44 56
REMARK SMILES IDX 53 57 67 58 42 59 43 60 52 62 68 63 45 64 34 65 35 66 39 67
REMARK SMILES IDX 36 68 38 69 37 70 56 71 57 72 61 73 58 74 60 75 59 76 46 77
REMARK SMILES IDX 47 78 51 79 48 80 50 81 49 82
REMARK H PARENT 18 5 13 16 22 31 66 50 44 61
REMARK Flexibility Score: inf
ROOT
ATOM      1  C   UNL A   1      31.874  29.581  25.845  1.00  0.00     0.118 C 
ENDROOT
BRANCH   1   2
ATOM      2  N   UNL A   1      31.399  29.575  24.476  1.00  0.00    -0.351 N 
ATOM      3  C   UNL A   1      31.342  28.477  23.617  1.00  0.00     0.273 C 
ATOM      4  O   UNL A   1      30.748  28.621  22.548  1.00  0.00    -0.267 OA
ATOM      5  H   UNL A   1      31.083  30.436  24.116  1.00  0.00     0.163 HD
BRANCH   3   6
ATOM      6  C   UNL A   1      32.062  27.230  23.974  1.00  0.00     0.165 A 
ATOM      7  C   UNL A   1      32.484  24.162  26.111  1.00  0.00     0.073 C 
ATOM      8  C   UNL A   1      31.079  24.080  26.743  1.00  0.00     0.114 C 
ATOM      9  C   UNL A   1      32.614  25.338  25.200  1.00  0.00     0.058 A 
ATOM     10  C   UNL A   1      30.040  25.060  26.233  1.00  0.00     0.225 C 
ATOM     11  C   UNL A   1      31.573  26.072  24.697  1.00  0.00     0.089 A 
ATOM     12  S   UNL A   1      34.064  25.913  24.536  1.00  0.00    -0.038 S 
ATOM     13  O   UNL A   1      28.991  25.266  26.843  1.00  0.00    -0.275 OA
ATOM     14  N   UNL A   1      30.281  25.743  25.070  1.00  0.00    -0.323 N 
ATOM     15  N   UNL A   1      33.382  27.185  23.726  1.00  0.00    -0.185 NA
ATOM     16  H   UNL A   1      29.528  26.004  24.493  1.00  0.00     0.170 HD
BRANCH   7  17
ATOM     17  C   UNL A   1      32.799  22.892  25.348  1.00  0.00    -0.039 A 
ATOM     18  C   UNL A   1      33.198  20.381  24.203  1.00  0.00     0.119 A 
ATOM     19  C   UNL A   1      32.200  21.221  23.707  1.00  0.00     0.047 A 
ATOM     20  C   UNL A   1      34.069  20.837  25.183  1.00  0.00     0.047 A 
ATOM     21  C   UNL A   1      31.995  22.477  24.281  1.00  0.00     0.008 A 
ATOM     22  C   UNL A   1      33.862  22.076  25.767  1.00  0.00     0.008 A 
BRANCH  18  23
ATOM     23  O   UNL A   1      33.320  19.141  23.649  1.00  0.00    -0.491 OA
BRANCH  23  24
ATOM     24  C   UNL A   1      33.709  18.073  24.537  1.00  0.00     0.167 C 
ATOM     25  C   UNL A   1      32.578  17.576  25.437  1.00  0.00     0.052 C 
ATOM     26  C   UNL A   1      34.443  16.921  23.848  1.00  0.00     0.052 C 
ENDBRANCH  23  24
ENDBRANCH  18  23
ENDBRANCH   7  17
ENDBRANCH   3   6
ENDBRANCH   1   2
BRANCH   1  27
ATOM     27  C   UNL A   1      33.264  30.066  26.185  1.00  0.00     0.042 C 
BRANCH  27  28
ATOM     28  C   UNL A   1      33.291  30.979  27.378  1.00  0.00     0.118 C 
BRANCH  28  29
ATOM     29  N   UNL A   1      32.625  32.283  27.214  1.00  0.00    -0.352 N 
ATOM     30  C   UNL A   1      32.937  33.469  27.890  1.00  0.00     0.251 C 
ATOM     31  H   UNL A   1      31.886  32.323  26.565  1.00  0.00     0.163 HD
ATOM     32  O   UNL A   1      32.236  34.451  27.858  1.00  0.00    -0.269 OA
BRANCH  30  33
ATOM     33  C   UNL A   1      34.210  33.463  28.640  1.00  0.00     0.039 A 
ATOM     34  C   UNL A   1      34.333  32.959  29.939  1.00  0.00     0.014 A 
ATOM     35  C   UNL A   1      35.320  33.722  27.858  1.00  0.00     0.014 A 
ATOM     36  C   UNL A   1      35.605  32.607  30.391  1.00  0.00     0.010 A 
ATOM     37  C   UNL A   1      36.458  33.048  28.169  1.00  0.00     0.010 A 
ATOM     38  C   UNL A   1      36.663  32.624  29.475  1.00  0.00    -0.014 A 
BRANCH  38  39
ATOM     39  C   UNL A   1      38.011  32.150  29.759  1.00  0.00     0.031 A 
ATOM     40  C   UNL A   1      38.260  30.712  29.460  1.00  0.00     0.074 A 
ATOM     41  C   UNL A   1      39.012  33.046  29.946  1.00  0.00     0.049 A 
ATOM     42  N   UNL A   1      38.598  29.778  30.284  1.00  0.00    -0.248 NA
ATOM     43  C   UNL A   1      37.989  30.225  28.094  1.00  0.00     0.031 C 
ATOM     44  C   UNL A   1      38.945  34.521  29.893  1.00  0.00     0.029 A 
ATOM     45  N   UNL A   1      40.346  32.835  30.054  1.00  0.00    -0.354 N 
ATOM     46  C   UNL A   1      38.781  28.630  29.516  1.00  0.00     0.074 A 
ATOM     47  C   UNL A   1      38.209  28.914  28.226  1.00  0.00     0.031 C 
ATOM     48  C   UNL A   1      40.176  35.032  29.687  1.00  0.00     0.029 A 
ATOM     49  C   UNL A   1      41.135  33.956  29.811  1.00  0.00     0.049 A 
ATOM     50  H   UNL A   1      40.728  31.957  30.286  1.00  0.00     0.167 HD
ATOM     51  C   UNL A   1      39.619  27.631  29.917  1.00  0.00     0.031 A 
ATOM     52  C   UNL A   1      42.485  33.995  29.701  1.00  0.00     0.031 A 
ATOM     53  C   UNL A   1      39.998  27.791  31.298  1.00  0.00     0.049 A 
ATOM     54  C   UNL A   1      42.998  32.740  30.299  1.00  0.00     0.074 A 
ATOM     55  C   UNL A   1      39.317  27.815  32.497  1.00  0.00     0.029 A 
ATOM     56  N   UNL A   1      41.213  28.389  31.537  1.00  0.00    -0.354 N 
ATOM     57  N   UNL A   1      42.873  32.449  31.563  1.00  0.00    -0.248 NA
ATOM     58  C   UNL A   1      43.197  31.607  29.411  1.00  0.00     0.031 C 
ATOM     59  C   UNL A   1      39.943  28.854  33.247  1.00  0.00     0.029 A 
ATOM     60  C   UNL A   1      41.025  29.339  32.507  1.00  0.00     0.049 A 
ATOM     61  H   UNL A   1      42.065  28.174  31.093  1.00  0.00     0.167 HD
ATOM     62  C   UNL A   1      42.536  31.103  31.583  1.00  0.00     0.074 A 
ATOM     63  C   UNL A   1      42.843  30.616  30.237  1.00  0.00     0.031 C 
ATOM     64  C   UNL A   1      41.764  30.582  32.584  1.00  0.00     0.031 A 
BRANCH  51  65
ATOM     65  C   UNL A   1      40.422  26.763  28.978  1.00  0.00    -0.014 A 
ATOM     66  C   UNL A   1      41.620  27.278  28.446  1.00  0.00     0.009 A 
ATOM     67  C   UNL A   1      39.924  25.591  28.382  1.00  0.00     0.009 A 
ATOM     68  C   UNL A   1      42.236  26.696  27.331  1.00  0.00     0.001 A 
ATOM     69  C   UNL A   1      40.558  24.983  27.293  1.00  0.00     0.001 A 
ATOM     70  C   UNL A   1      41.698  25.553  26.749  1.00  0.00     0.000 A 
ENDBRANCH  51  65
BRANCH  52  71
ATOM     71  C   UNL A   1      43.327  34.892  28.879  1.00  0.00    -0.014 A 
ATOM     72  C   UNL A   1      44.466  35.511  29.414  1.00  0.00     0.009 A 
ATOM     73  C   UNL A   1      43.157  34.933  27.481  1.00  0.00     0.009 A 
ATOM     74  C   UNL A   1      45.419  36.117  28.580  1.00  0.00     0.001 A 
ATOM     75  C   UNL A   1      44.109  35.535  26.648  1.00  0.00     0.001 A 
ATOM     76  C   UNL A   1      45.247  36.115  27.198  1.00  0.00     0.000 A 
ENDBRANCH  52  71
BRANCH  64  77
ATOM     77  C   UNL A   1      41.448  31.464  33.772  1.00  0.00    -0.014 A 
ATOM     78  C   UNL A   1      40.347  32.339  33.814  1.00  0.00     0.009 A 
ATOM     79  C   UNL A   1      42.171  31.254  34.953  1.00  0.00     0.009 A 
ATOM     80  C   UNL A   1      39.992  32.991  35.002  1.00  0.00     0.001 A 
ATOM     81  C   UNL A   1      41.807  31.889  36.142  1.00  0.00     0.001 A 
ATOM     82  C   UNL A   1      40.719  32.759  36.166  1.00  0.00     0.000 A 
ENDBRANCH  64  77
ENDBRANCH  38  39
ENDBRANCH  30  33
ENDBRANCH  28  29
ENDBRANCH  27  28
ENDBRANCH   1  27
TORSDOF 13
ENDMDL
