MODEL 1
REMARK VINA RESULT:     -11.2      0.000      0.000
REMARK SMILES O=C(NCCCNC(=O)[C@H]1CC[C@@H](CNC(=O)[C@@H]2CCC[NH2+]C2)O1)c1ccc(-c2c3nc(c(-c4ccccc4)c4ccc([nH]4)c(-c4ccccc4)c4nc(c(-c5ccccc5)c5ccc2[nH]5)C=C4)C=C3)cc1
REMARK SMILES IDX 5 1 4 2 3 3 1 4 2 5 25 7 26 8 72 9 27 10 71 11 28 12 29 13
REMARK SMILES IDX 30 14 65 15 31 16 70 17 64 18 66 19 32 20 69 21 63 22 62 23
REMARK SMILES IDX 33 25 55 26 40 27 54 28 41 29 44 30 53 31 67 32 42 33 43 34
REMARK SMILES IDX 52 36 68 37 45 38 34 39 35 40 39 41 36 42 38 43 37 44 56 45
REMARK SMILES IDX 57 46 61 47 58 48 60 49 59 50 46 51 47 52 51 53 48 54 50 55
REMARK SMILES IDX 49 56 6 57 7 58 8 59 9 61 10 62 11 63 24 64 12 65 13 66
REMARK SMILES IDX 14 67 15 68 16 69 17 71 18 72 19 73 23 74 20 75 22 76 21 77
REMARK H PARENT 3 6 66 24 44 35 7 60 15 70 22 78 22 79
REMARK Flexibility Score: inf
ROOT
ATOM      1  C   UNL A   1      38.023  19.791  24.973  1.00  0.00     0.042 C 
ENDROOT
BRANCH   1   2
ATOM      2  C   UNL A   1      39.063  20.003  26.065  1.00  0.00     0.118 C 
BRANCH   2   3
ATOM      3  N   UNL A   1      40.209  19.113  25.906  1.00  0.00    -0.352 N 
ATOM      4  O   UNL A   1      42.356  18.551  25.512  1.00  0.00    -0.269 OA
ATOM      5  C   UNL A   1      41.552  19.392  25.894  1.00  0.00     0.251 C 
ATOM      6  H   UNL A   1      39.981  18.162  25.789  1.00  0.00     0.163 HD
BRANCH   5   7
ATOM      7  C   UNL A   1      42.032  20.718  26.327  1.00  0.00     0.039 A 
ATOM      8  C   UNL A   1      42.258  20.988  27.678  1.00  0.00     0.014 A 
ATOM      9  C   UNL A   1      42.288  21.694  25.361  1.00  0.00     0.014 A 
ATOM     10  C   UNL A   1      42.587  22.275  28.080  1.00  0.00     0.010 A 
ATOM     11  C   UNL A   1      42.722  22.957  25.758  1.00  0.00     0.010 A 
ATOM     12  C   UNL A   1      42.847  23.265  27.123  1.00  0.00    -0.014 A 
BRANCH  12  13
ATOM     13  C   UNL A   1      43.316  24.602  27.553  1.00  0.00     0.031 A 
ATOM     14  C   UNL A   1      42.338  25.656  27.975  1.00  0.00     0.074 A 
ATOM     15  C   UNL A   1      44.636  24.864  27.527  1.00  0.00     0.049 A 
ATOM     16  N   UNL A   1      42.560  26.907  28.287  1.00  0.00    -0.248 NA
ATOM     17  C   UNL A   1      40.923  25.260  28.044  1.00  0.00     0.031 C 
ATOM     18  C   UNL A   1      45.679  23.908  27.145  1.00  0.00     0.029 A 
ATOM     19  N   UNL A   1      45.326  26.009  27.822  1.00  0.00    -0.354 N 
ATOM     20  C   UNL A   1      41.314  27.456  28.559  1.00  0.00     0.074 A 
ATOM     21  C   UNL A   1      40.337  26.408  28.353  1.00  0.00     0.031 C 
ATOM     22  C   UNL A   1      46.876  24.501  27.248  1.00  0.00     0.029 A 
ATOM     23  C   UNL A   1      46.679  25.896  27.624  1.00  0.00     0.049 A 
ATOM     24  H   UNL A   1      44.893  26.834  28.144  1.00  0.00     0.167 HD
ATOM     25  C   UNL A   1      41.014  28.722  28.940  1.00  0.00     0.031 A 
ATOM     26  C   UNL A   1      47.654  26.819  27.693  1.00  0.00     0.031 A 
ATOM     27  C   UNL A   1      41.998  29.757  29.126  1.00  0.00     0.049 A 
ATOM     28  C   UNL A   1      47.294  28.226  28.060  1.00  0.00     0.074 A 
ATOM     29  C   UNL A   1      41.806  31.065  29.538  1.00  0.00     0.029 A 
ATOM     30  N   UNL A   1      43.358  29.605  28.897  1.00  0.00    -0.354 N 
ATOM     31  N   UNL A   1      46.115  28.728  28.339  1.00  0.00    -0.248 NA
ATOM     32  C   UNL A   1      48.395  29.195  28.126  1.00  0.00     0.031 C 
ATOM     33  C   UNL A   1      43.040  31.721  29.493  1.00  0.00     0.029 A 
ATOM     34  C   UNL A   1      44.013  30.802  29.130  1.00  0.00     0.049 A 
ATOM     35  H   UNL A   1      43.793  28.769  28.612  1.00  0.00     0.167 HD
ATOM     36  C   UNL A   1      46.334  30.064  28.643  1.00  0.00     0.074 A 
ATOM     37  C   UNL A   1      47.760  30.291  28.519  1.00  0.00     0.031 C 
ATOM     38  C   UNL A   1      45.435  31.011  29.004  1.00  0.00     0.031 A 
BRANCH  25  39
ATOM     39  C   UNL A   1      39.560  29.062  29.127  1.00  0.00    -0.014 A 
ATOM     40  C   UNL A   1      38.925  28.934  30.372  1.00  0.00     0.009 A 
ATOM     41  C   UNL A   1      38.813  29.527  28.033  1.00  0.00     0.009 A 
ATOM     42  C   UNL A   1      37.562  29.214  30.505  1.00  0.00     0.001 A 
ATOM     43  C   UNL A   1      37.459  29.839  28.176  1.00  0.00     0.001 A 
ATOM     44  C   UNL A   1      36.831  29.668  29.408  1.00  0.00     0.000 A 
ENDBRANCH  25  39
BRANCH  26  45
ATOM     45  C   UNL A   1      49.052  26.424  27.382  1.00  0.00    -0.014 A 
ATOM     46  C   UNL A   1      49.915  25.996  28.399  1.00  0.00     0.009 A 
ATOM     47  C   UNL A   1      49.509  26.418  26.054  1.00  0.00     0.009 A 
ATOM     48  C   UNL A   1      51.213  25.580  28.093  1.00  0.00     0.001 A 
ATOM     49  C   UNL A   1      50.795  25.973  25.748  1.00  0.00     0.001 A 
ATOM     50  C   UNL A   1      51.649  25.561  26.768  1.00  0.00     0.000 A 
ENDBRANCH  26  45
BRANCH  38  51
ATOM     51  C   UNL A   1      45.968  32.373  29.348  1.00  0.00    -0.014 A 
ATOM     52  C   UNL A   1      46.058  33.392  28.388  1.00  0.00     0.009 A 
ATOM     53  C   UNL A   1      46.322  32.655  30.676  1.00  0.00     0.009 A 
ATOM     54  C   UNL A   1      46.512  34.662  28.750  1.00  0.00     0.001 A 
ATOM     55  C   UNL A   1      46.745  33.933  31.042  1.00  0.00     0.001 A 
ATOM     56  C   UNL A   1      46.846  34.934  30.078  1.00  0.00     0.000 A 
ENDBRANCH  38  51
ENDBRANCH  12  13
ENDBRANCH   5   7
ENDBRANCH   2   3
ENDBRANCH   1   2
BRANCH   1  57
ATOM     57  C   UNL A   1      37.027  20.937  24.923  1.00  0.00     0.117 C 
BRANCH  57  58
ATOM     58  N   UNL A   1      37.484  22.068  25.695  1.00  0.00    -0.354 N 
ATOM     59  C   UNL A   1      37.059  23.356  25.747  1.00  0.00     0.249 C 
ATOM     60  H   UNL A   1      38.242  21.870  26.292  1.00  0.00     0.163 HD
ATOM     61  O   UNL A   1      37.673  24.101  26.522  1.00  0.00    -0.272 OA
BRANCH  59  62
ATOM     62  C   UNL A   1      35.837  23.883  24.972  1.00  0.00     0.207 C 
ATOM     63  C   UNL A   1      35.702  23.594  23.487  1.00  0.00     0.045 C 
ATOM     64  O   UNL A   1      34.644  23.445  25.621  1.00  0.00    -0.363 OA
ATOM     65  C   UNL A   1      34.416  22.800  23.343  1.00  0.00     0.037 C 
ATOM     66  C   UNL A   1      33.682  23.016  24.658  1.00  0.00     0.138 C 
BRANCH  66  67
ATOM     67  C   UNL A   1      32.918  21.807  25.232  1.00  0.00     0.147 C 
BRANCH  67  68
ATOM     68  N   UNL A   1      32.457  20.869  24.215  1.00  0.00    -0.353 N 
ATOM     69  C   UNL A   1      32.699  19.543  24.025  1.00  0.00     0.228 C 
ATOM     70  H   UNL A   1      31.860  21.267  23.541  1.00  0.00     0.163 HD
ATOM     71  O   UNL A   1      32.179  19.033  23.028  1.00  0.00    -0.275 OA
BRANCH  69  72
ATOM     72  C   UNL A   1      33.574  18.732  24.983  1.00  0.00     0.133 C 
ATOM     73  C   UNL A   1      34.699  17.976  24.271  1.00  0.00     0.025 C 
ATOM     74  C   UNL A   1      32.711  17.721  25.766  1.00  0.00     0.274 C 
ATOM     75  C   UNL A   1      34.172  16.799  23.451  1.00  0.00     0.062 C 
ATOM     76  N   UNL A   1      32.187  16.621  24.944  1.00  0.00    -0.346 N 
ATOM     77  C   UNL A   1      33.260  15.890  24.272  1.00  0.00     0.260 C 
ATOM     78  H   UNL A   1      31.673  15.976  25.543  1.00  0.00     0.346 HD
ATOM     79  H   UNL A   1      31.577  17.020  24.229  1.00  0.00     0.346 HD
ENDBRANCH  69  72
ENDBRANCH  67  68
ENDBRANCH  66  67
ENDBRANCH  59  62
ENDBRANCH  57  58
ENDBRANCH   1  57
TORSDOF 13
ENDMDL
MODEL 2
REMARK VINA RESULT:     -11.1      5.179      9.749
REMARK SMILES O=C(NCCCNC(=O)[C@H]1CC[C@@H](CNC(=O)[C@@H]2CCC[NH2+]C2)O1)c1ccc(-c2c3nc(c(-c4ccccc4)c4ccc([nH]4)c(-c4ccccc4)c4nc(c(-c5ccccc5)c5ccc2[nH]5)C=C4)C=C3)cc1
REMARK SMILES IDX 5 1 4 2 3 3 1 4 2 5 25 7 26 8 72 9 27 10 71 11 28 12 29 13
REMARK SMILES IDX 30 14 65 15 31 16 70 17 64 18 66 19 32 20 69 21 63 22 62 23
REMARK SMILES IDX 33 25 55 26 40 27 54 28 41 29 44 30 53 31 67 32 42 33 43 34
REMARK SMILES IDX 52 36 68 37 45 38 34 39 35 40 39 41 36 42 38 43 37 44 56 45
REMARK SMILES IDX 57 46 61 47 58 48 60 49 59 50 46 51 47 52 51 53 48 54 50 55
REMARK SMILES IDX 49 56 6 57 7 58 8 59 9 61 10 62 11 63 24 64 12 65 13 66
REMARK SMILES IDX 14 67 15 68 16 69 17 71 18 72 19 73 23 74 20 75 22 76 21 77
REMARK H PARENT 3 6 66 24 44 35 7 60 15 70 22 78 22 79
REMARK Flexibility Score: inf
ROOT
ATOM      1  C   UNL A   1      31.074  31.424  26.026  1.00  0.00     0.042 C 
ENDROOT
BRANCH   1   2
ATOM      2  C   UNL A   1      32.236  31.879  26.898  1.00  0.00     0.118 C 
BRANCH   2   3
ATOM      3  N   UNL A   1      32.151  33.300  27.219  1.00  0.00    -0.352 N 
ATOM      4  O   UNL A   1      32.535  35.184  28.397  1.00  0.00    -0.269 OA
ATOM      5  C   UNL A   1      32.903  34.060  28.080  1.00  0.00     0.251 C 
ATOM      6  H   UNL A   1      31.443  33.791  26.743  1.00  0.00     0.163 HD
BRANCH   5   7
ATOM      7  C   UNL A   1      34.154  33.515  28.641  1.00  0.00     0.039 A 
ATOM      8  C   UNL A   1      34.133  32.702  29.776  1.00  0.00     0.014 A 
ATOM      9  C   UNL A   1      35.363  33.800  28.001  1.00  0.00     0.014 A 
ATOM     10  C   UNL A   1      35.325  32.304  30.362  1.00  0.00     0.010 A 
ATOM     11  C   UNL A   1      36.554  33.310  28.531  1.00  0.00     0.010 A 
ATOM     12  C   UNL A   1      36.546  32.582  29.732  1.00  0.00    -0.014 A 
BRANCH  12  13
ATOM     13  C   UNL A   1      37.807  32.050  30.298  1.00  0.00     0.031 A 
ATOM     14  C   UNL A   1      38.439  30.816  29.732  1.00  0.00     0.074 A 
ATOM     15  C   UNL A   1      38.358  32.680  31.353  1.00  0.00     0.049 A 
ATOM     16  N   UNL A   1      39.484  30.155  30.160  1.00  0.00    -0.248 NA
ATOM     17  C   UNL A   1      37.810  30.238  28.533  1.00  0.00     0.031 C 
ATOM     18  C   UNL A   1      37.834  33.897  31.979  1.00  0.00     0.029 A 
ATOM     19  N   UNL A   1      39.474  32.381  32.088  1.00  0.00    -0.354 N 
ATOM     20  C   UNL A   1      39.620  29.068  29.307  1.00  0.00     0.074 A 
ATOM     21  C   UNL A   1      38.537  29.145  28.349  1.00  0.00     0.031 C 
ATOM     22  C   UNL A   1      38.639  34.251  32.990  1.00  0.00     0.029 A 
ATOM     23  C   UNL A   1      39.685  33.246  33.132  1.00  0.00     0.049 A 
ATOM     24  H   UNL A   1      40.067  31.620  31.887  1.00  0.00     0.167 HD
ATOM     25  C   UNL A   1      40.561  28.093  29.326  1.00  0.00     0.031 A 
ATOM     26  C   UNL A   1      40.591  33.215  34.125  1.00  0.00     0.031 A 
ATOM     27  C   UNL A   1      41.623  28.023  30.296  1.00  0.00     0.049 A 
ATOM     28  C   UNL A   1      41.587  32.096  34.162  1.00  0.00     0.074 A 
ATOM     29  C   UNL A   1      42.645  27.094  30.390  1.00  0.00     0.029 A 
ATOM     30  N   UNL A   1      41.791  28.910  31.350  1.00  0.00    -0.354 N 
ATOM     31  N   UNL A   1      41.721  31.086  33.335  1.00  0.00    -0.248 NA
ATOM     32  C   UNL A   1      42.558  32.109  35.263  1.00  0.00     0.031 C 
ATOM     33  C   UNL A   1      43.390  27.381  31.538  1.00  0.00     0.029 A 
ATOM     34  C   UNL A   1      42.881  28.534  32.116  1.00  0.00     0.049 A 
ATOM     35  H   UNL A   1      41.219  29.692  31.526  1.00  0.00     0.167 HD
ATOM     36  C   UNL A   1      42.810  30.361  33.797  1.00  0.00     0.074 A 
ATOM     37  C   UNL A   1      43.302  31.050  34.973  1.00  0.00     0.031 C 
ATOM     38  C   UNL A   1      43.358  29.232  33.284  1.00  0.00     0.031 A 
BRANCH  25  39
ATOM     39  C   UNL A   1      40.445  26.999  28.299  1.00  0.00    -0.014 A 
ATOM     40  C   UNL A   1      41.114  27.068  27.067  1.00  0.00     0.009 A 
ATOM     41  C   UNL A   1      39.653  25.873  28.575  1.00  0.00     0.009 A 
ATOM     42  C   UNL A   1      40.951  26.059  26.114  1.00  0.00     0.001 A 
ATOM     43  C   UNL A   1      39.520  24.848  27.635  1.00  0.00     0.001 A 
ATOM     44  C   UNL A   1      40.156  24.949  26.400  1.00  0.00     0.000 A 
ENDBRANCH  25  39
BRANCH  26  45
ATOM     45  C   UNL A   1      40.565  34.274  35.166  1.00  0.00    -0.014 A 
ATOM     46  C   UNL A   1      41.315  35.447  35.009  1.00  0.00     0.009 A 
ATOM     47  C   UNL A   1      39.742  34.138  36.296  1.00  0.00     0.009 A 
ATOM     48  C   UNL A   1      41.248  36.460  35.969  1.00  0.00     0.001 A 
ATOM     49  C   UNL A   1      39.653  35.164  37.238  1.00  0.00     0.001 A 
ATOM     50  C   UNL A   1      40.412  36.321  37.077  1.00  0.00     0.000 A 
ENDBRANCH  26  45
BRANCH  38  51
ATOM     51  C   UNL A   1      44.590  28.697  33.957  1.00  0.00    -0.014 A 
ATOM     52  C   UNL A   1      44.515  27.718  34.959  1.00  0.00     0.009 A 
ATOM     53  C   UNL A   1      45.852  29.135  33.526  1.00  0.00     0.009 A 
ATOM     54  C   UNL A   1      45.681  27.205  35.530  1.00  0.00     0.001 A 
ATOM     55  C   UNL A   1      47.016  28.598  34.076  1.00  0.00     0.001 A 
ATOM     56  C   UNL A   1      46.929  27.638  35.082  1.00  0.00     0.000 A 
ENDBRANCH  38  51
ENDBRANCH  12  13
ENDBRANCH   5   7
ENDBRANCH   2   3
ENDBRANCH   1   2
BRANCH   1  57
ATOM     57  C   UNL A   1      31.390  30.120  25.314  1.00  0.00     0.117 C 
BRANCH  57  58
ATOM     58  N   UNL A   1      30.662  30.005  24.073  1.00  0.00    -0.354 N 
ATOM     59  C   UNL A   1      30.740  29.103  23.061  1.00  0.00     0.249 C 
ATOM     60  H   UNL A   1      29.988  30.709  23.934  1.00  0.00     0.163 HD
ATOM     61  O   UNL A   1      29.968  29.284  22.111  1.00  0.00    -0.272 OA
BRANCH  59  62
ATOM     62  C   UNL A   1      31.655  27.865  23.090  1.00  0.00     0.207 C 
ATOM     63  C   UNL A   1      33.161  28.042  23.186  1.00  0.00     0.045 C 
ATOM     64  O   UNL A   1      31.241  26.998  24.145  1.00  0.00    -0.363 OA
ATOM     65  C   UNL A   1      33.569  27.351  24.475  1.00  0.00     0.037 C 
ATOM     66  C   UNL A   1      32.375  26.484  24.841  1.00  0.00     0.138 C 
BRANCH  66  67
ATOM     67  C   UNL A   1      32.027  26.380  26.338  1.00  0.00     0.147 C 
BRANCH  67  68
ATOM     68  N   UNL A   1      31.405  25.114  26.709  1.00  0.00    -0.353 N 
ATOM     69  C   UNL A   1      31.916  23.864  26.876  1.00  0.00     0.228 C 
ATOM     70  H   UNL A   1      30.435  25.174  26.868  1.00  0.00     0.163 HD
ATOM     71  O   UNL A   1      31.104  22.978  27.161  1.00  0.00    -0.275 OA
BRANCH  69  72
ATOM     72  C   UNL A   1      33.408  23.568  26.709  1.00  0.00     0.133 C 
ATOM     73  C   UNL A   1      33.797  23.252  25.262  1.00  0.00     0.025 C 
ATOM     74  C   UNL A   1      33.820  22.384  27.606  1.00  0.00     0.274 C 
ATOM     75  C   UNL A   1      33.279  21.885  24.814  1.00  0.00     0.062 C 
ATOM     76  N   UNL A   1      33.277  21.089  27.173  1.00  0.00    -0.346 N 
ATOM     77  C   UNL A   1      33.656  20.778  25.795  1.00  0.00     0.260 C 
ATOM     78  H   UNL A   1      33.635  20.358  27.787  1.00  0.00     0.346 HD
ATOM     79  H   UNL A   1      32.259  21.138  27.219  1.00  0.00     0.346 HD
ENDBRANCH  69  72
ENDBRANCH  67  68
ENDBRANCH  66  67
ENDBRANCH  59  62
ENDBRANCH  57  58
ENDBRANCH   1  57
TORSDOF 13
ENDMDL
MODEL 3
REMARK VINA RESULT:     -11.0      1.439      6.166
REMARK SMILES O=C(NCCCNC(=O)[C@H]1CC[C@@H](CNC(=O)[C@@H]2CCC[NH2+]C2)O1)c1ccc(-c2c3nc(c(-c4ccccc4)c4ccc([nH]4)c(-c4ccccc4)c4nc(c(-c5ccccc5)c5ccc2[nH]5)C=C4)C=C3)cc1
REMARK SMILES IDX 5 1 4 2 3 3 1 4 2 5 25 7 26 8 72 9 27 10 71 11 28 12 29 13
REMARK SMILES IDX 30 14 65 15 31 16 70 17 64 18 66 19 32 20 69 21 63 22 62 23
REMARK SMILES IDX 33 25 55 26 40 27 54 28 41 29 44 30 53 31 67 32 42 33 43 34
REMARK SMILES IDX 52 36 68 37 45 38 34 39 35 40 39 41 36 42 38 43 37 44 56 45
REMARK SMILES IDX 57 46 61 47 58 48 60 49 59 50 46 51 47 52 51 53 48 54 50 55
REMARK SMILES IDX 49 56 6 57 7 58 8 59 9 61 10 62 11 63 24 64 12 65 13 66
REMARK SMILES IDX 14 67 15 68 16 69 17 71 18 72 19 73 23 74 20 75 22 76 21 77
REMARK H PARENT 3 6 66 24 44 35 7 60 15 70 22 78 22 79
REMARK Flexibility Score: inf
ROOT
ATOM      1  C   UNL A   1      37.435  19.742  25.071  1.00  0.00     0.042 C 
ENDROOT
BRANCH   1   2
ATOM      2  C   UNL A   1      38.826  20.359  25.102  1.00  0.00     0.118 C 
BRANCH   2   3
ATOM      3  N   UNL A   1      39.832  19.410  25.571  1.00  0.00    -0.352 N 
ATOM      4  O   UNL A   1      41.862  18.718  26.264  1.00  0.00    -0.269 OA
ATOM      5  C   UNL A   1      41.054  19.632  26.154  1.00  0.00     0.251 C 
ATOM      6  H   UNL A   1      39.595  18.462  25.449  1.00  0.00     0.163 HD
BRANCH   5   7
ATOM      7  C   UNL A   1      41.405  20.980  26.638  1.00  0.00     0.039 A 
ATOM      8  C   UNL A   1      41.932  21.936  25.767  1.00  0.00     0.014 A 
ATOM      9  C   UNL A   1      41.175  21.299  27.978  1.00  0.00     0.014 A 
ATOM     10  C   UNL A   1      42.374  23.154  26.263  1.00  0.00     0.010 A 
ATOM     11  C   UNL A   1      41.521  22.563  28.454  1.00  0.00     0.010 A 
ATOM     12  C   UNL A   1      42.150  23.489  27.605  1.00  0.00    -0.014 A 
BRANCH  12  13
ATOM     13  C   UNL A   1      42.513  24.836  28.100  1.00  0.00     0.031 A 
ATOM     14  C   UNL A   1      43.920  25.146  28.511  1.00  0.00     0.074 A 
ATOM     15  C   UNL A   1      41.548  25.769  28.204  1.00  0.00     0.049 A 
ATOM     16  N   UNL A   1      44.398  26.235  29.057  1.00  0.00    -0.248 NA
ATOM     17  C   UNL A   1      44.923  24.092  28.293  1.00  0.00     0.031 C 
ATOM     18  C   UNL A   1      40.146  25.580  27.821  1.00  0.00     0.029 A 
ATOM     19  N   UNL A   1      41.597  27.057  28.666  1.00  0.00    -0.354 N 
ATOM     20  C   UNL A   1      45.746  25.988  29.277  1.00  0.00     0.074 A 
ATOM     21  C   UNL A   1      46.007  24.637  28.828  1.00  0.00     0.031 C 
ATOM     22  C   UNL A   1      39.474  26.717  28.046  1.00  0.00     0.029 A 
ATOM     23  C   UNL A   1      40.376  27.684  28.660  1.00  0.00     0.049 A 
ATOM     24  H   UNL A   1      42.427  27.491  28.973  1.00  0.00     0.167 HD
ATOM     25  C   UNL A   1      46.679  26.813  29.812  1.00  0.00     0.031 A 
ATOM     26  C   UNL A   1      40.007  28.886  29.136  1.00  0.00     0.031 A 
ATOM     27  C   UNL A   1      46.399  28.150  30.269  1.00  0.00     0.049 A 
ATOM     28  C   UNL A   1      41.042  29.760  29.776  1.00  0.00     0.074 A 
ATOM     29  C   UNL A   1      47.275  29.081  30.801  1.00  0.00     0.029 A 
ATOM     30  N   UNL A   1      45.143  28.741  30.262  1.00  0.00    -0.354 N 
ATOM     31  N   UNL A   1      42.319  29.526  29.957  1.00  0.00    -0.248 NA
ATOM     32  C   UNL A   1      40.589  31.064  30.275  1.00  0.00     0.031 C 
ATOM     33  C   UNL A   1      46.537  30.208  31.176  1.00  0.00     0.029 A 
ATOM     34  C   UNL A   1      45.215  30.011  30.807  1.00  0.00     0.049 A 
ATOM     35  H   UNL A   1      44.322  28.319  29.920  1.00  0.00     0.167 HD
ATOM     36  C   UNL A   1      42.831  30.664  30.563  1.00  0.00     0.074 A 
ATOM     37  C   UNL A   1      41.726  31.589  30.714  1.00  0.00     0.031 C 
ATOM     38  C   UNL A   1      44.105  30.921  30.948  1.00  0.00     0.031 A 
BRANCH  25  39
ATOM     39  C   UNL A   1      48.072  26.268  29.978  1.00  0.00    -0.014 A 
ATOM     40  C   UNL A   1      48.504  25.699  31.186  1.00  0.00     0.009 A 
ATOM     41  C   UNL A   1      48.968  26.321  28.899  1.00  0.00     0.009 A 
ATOM     42  C   UNL A   1      49.818  25.243  31.326  1.00  0.00     0.001 A 
ATOM     43  C   UNL A   1      50.270  25.833  29.029  1.00  0.00     0.001 A 
ATOM     44  C   UNL A   1      50.698  25.308  30.247  1.00  0.00     0.000 A 
ENDBRANCH  25  39
BRANCH  26  45
ATOM     45  C   UNL A   1      38.585  29.302  29.034  1.00  0.00    -0.014 A 
ATOM     46  C   UNL A   1      37.720  29.161  30.127  1.00  0.00     0.009 A 
ATOM     47  C   UNL A   1      38.103  29.897  27.856  1.00  0.00     0.009 A 
ATOM     48  C   UNL A   1      36.396  29.599  30.039  1.00  0.00     0.001 A 
ATOM     49  C   UNL A   1      36.789  30.361  27.782  1.00  0.00     0.001 A 
ATOM     50  C   UNL A   1      35.935  30.206  28.871  1.00  0.00     0.000 A 
ENDBRANCH  26  45
BRANCH  38  51
ATOM     51  C   UNL A   1      44.391  32.280  31.521  1.00  0.00    -0.014 A 
ATOM     52  C   UNL A   1      44.720  33.370  30.700  1.00  0.00     0.009 A 
ATOM     53  C   UNL A   1      44.259  32.484  32.903  1.00  0.00     0.009 A 
ATOM     54  C   UNL A   1      44.931  34.632  31.259  1.00  0.00     0.001 A 
ATOM     55  C   UNL A   1      44.440  33.753  33.455  1.00  0.00     0.001 A 
ATOM     56  C   UNL A   1      44.782  34.824  32.632  1.00  0.00     0.000 A 
ENDBRANCH  38  51
ENDBRANCH  12  13
ENDBRANCH   5   7
ENDBRANCH   2   3
ENDBRANCH   1   2
BRANCH   1  57
ATOM     57  C   UNL A   1      36.358  20.787  25.310  1.00  0.00     0.117 C 
BRANCH  57  58
ATOM     58  N   UNL A   1      36.906  21.986  25.898  1.00  0.00    -0.354 N 
ATOM     59  C   UNL A   1      36.567  23.294  25.764  1.00  0.00     0.249 C 
ATOM     60  H   UNL A   1      37.665  21.827  26.506  1.00  0.00     0.163 HD
ATOM     61  O   UNL A   1      37.247  24.101  26.409  1.00  0.00    -0.272 OA
BRANCH  59  62
ATOM     62  C   UNL A   1      35.361  23.782  24.939  1.00  0.00     0.207 C 
ATOM     63  C   UNL A   1      35.307  23.507  23.446  1.00  0.00     0.045 C 
ATOM     64  O   UNL A   1      34.158  23.288  25.526  1.00  0.00    -0.363 OA
ATOM     65  C   UNL A   1      34.062  22.665  23.233  1.00  0.00     0.037 C 
ATOM     66  C   UNL A   1      33.261  22.833  24.515  1.00  0.00     0.138 C 
BRANCH  66  67
ATOM     67  C   UNL A   1      32.520  21.588  25.038  1.00  0.00     0.147 C 
BRANCH  67  68
ATOM     68  N   UNL A   1      32.228  20.602  24.004  1.00  0.00    -0.353 N 
ATOM     69  C   UNL A   1      32.621  19.309  23.844  1.00  0.00     0.228 C 
ATOM     70  H   UNL A   1      31.637  20.932  23.289  1.00  0.00     0.163 HD
ATOM     71  O   UNL A   1      32.223  18.742  22.821  1.00  0.00    -0.275 OA
BRANCH  69  72
ATOM     72  C   UNL A   1      33.513  18.599  24.864  1.00  0.00     0.133 C 
ATOM     73  C   UNL A   1      34.597  17.735  24.213  1.00  0.00     0.025 C 
ATOM     74  C   UNL A   1      32.659  17.712  25.793  1.00  0.00     0.274 C 
ATOM     75  C   UNL A   1      34.017  16.481  23.561  1.00  0.00     0.062 C 
ATOM     76  N   UNL A   1      32.083  16.533  25.129  1.00  0.00    -0.346 N 
ATOM     77  C   UNL A   1      33.117  15.701  24.516  1.00  0.00     0.260 C 
ATOM     78  H   UNL A   1      31.578  15.979  25.820  1.00  0.00     0.346 HD
ATOM     79  H   UNL A   1      31.457  16.857  24.391  1.00  0.00     0.346 HD
ENDBRANCH  69  72
ENDBRANCH  67  68
ENDBRANCH  66  67
ENDBRANCH  59  62
ENDBRANCH  57  58
ENDBRANCH   1  57
TORSDOF 13
ENDMDL
