MODEL 1
REMARK VINA RESULT:     -10.5      0.000      0.000
REMARK SMILES CC[C@H](NS(=O)(=O)Cc1ccccc1)C(=O)NCCCNC(=O)c1ccc(-c2c3nc(c(-c4ccccc4)c4ccc([nH]4)c(-c4ccccc4)c4nc(c(-c5ccccc5)c5ccc2[nH]5)C=C4)C=C3)cc1
REMARK SMILES IDX 18 1 17 2 15 3 16 4 3 6 2 7 1 8 4 9 5 11 6 12 7 13 8 14 9 15
REMARK SMILES IDX 10 16 14 17 11 18 13 19 12 20 19 21 20 22 21 23 22 24 23 26
REMARK SMILES IDX 24 27 25 28 71 29 26 30 70 31 27 32 28 33 29 34 64 35 30 36
REMARK SMILES IDX 69 37 63 38 65 39 31 40 68 41 62 42 61 43 32 45 54 46 39 47
REMARK SMILES IDX 53 48 40 49 43 50 52 51 66 52 41 53 42 54 51 56 67 57 44 58
REMARK SMILES IDX 33 59 34 60 38 61 35 62 37 63 36 64 55 65 56 66 60 67 57 68
REMARK SMILES IDX 59 69 58 70 45 71 46 72 50 73 47 74 49 75 48 76
REMARK H PARENT 17 5 4 10 21 25 65 44 43 55
REMARK Flexibility Score: inf
ROOT
ATOM      1  C   UNL A   1      36.018  20.729  25.321  1.00  0.00     0.117 C 
ENDROOT
BRANCH   1   2
ATOM      2  N   UNL A   1      34.904  19.853  25.101  1.00  0.00    -0.355 N 
ATOM      3  C   UNL A   1      33.575  20.101  25.132  1.00  0.00     0.238 C 
ATOM      4  O   UNL A   1      32.882  19.068  25.166  1.00  0.00    -0.273 OA
ATOM      5  H   UNL A   1      35.145  18.921  24.892  1.00  0.00     0.163 HD
BRANCH   3   6
ATOM      6  C   UNL A   1      32.864  21.441  24.959  1.00  0.00     0.158 C 
BRANCH   6   7
ATOM      7  C   UNL A   1      33.141  21.861  23.470  1.00  0.00     0.027 C 
ATOM      8  C   UNL A   1      32.066  21.411  22.485  1.00  0.00     0.006 C 
ENDBRANCH   6   7
BRANCH   6   9
ATOM      9  N   UNL A   1      32.798  22.732  25.679  1.00  0.00    -0.202 NA
ATOM     10  H   UNL A   1      33.265  23.394  25.061  1.00  0.00     0.141 HD
BRANCH   9  11
ATOM     11  S   UNL A   1      31.467  23.544  26.221  1.00  0.00     0.216 S 
ATOM     12  O   UNL A   1      30.361  22.721  25.793  1.00  0.00    -0.212 OA
ATOM     13  O   UNL A   1      31.627  23.840  27.629  1.00  0.00    -0.212 OA
BRANCH  11  14
ATOM     14  C   UNL A   1      31.386  25.087  25.251  1.00  0.00     0.189 C 
BRANCH  14  15
ATOM     15  C   UNL A   1      31.972  26.331  25.888  1.00  0.00    -0.032 A 
ATOM     16  C   UNL A   1      33.338  26.634  25.786  1.00  0.00     0.005 A 
ATOM     17  C   UNL A   1      31.188  27.155  26.713  1.00  0.00     0.005 A 
ATOM     18  C   UNL A   1      33.879  27.784  26.375  1.00  0.00     0.000 A 
ATOM     19  C   UNL A   1      31.737  28.279  27.347  1.00  0.00     0.000 A 
ATOM     20  C   UNL A   1      33.075  28.609  27.155  1.00  0.00     0.000 A 
ENDBRANCH  14  15
ENDBRANCH  11  14
ENDBRANCH   9  11
ENDBRANCH   6   9
ENDBRANCH   3   6
ENDBRANCH   1   2
BRANCH   1  21
ATOM     21  C   UNL A   1      37.318  20.120  24.798  1.00  0.00     0.042 C 
BRANCH  21  22
ATOM     22  C   UNL A   1      38.552  20.645  25.511  1.00  0.00     0.118 C 
BRANCH  22  23
ATOM     23  N   UNL A   1      39.583  19.618  25.633  1.00  0.00    -0.352 N 
ATOM     24  C   UNL A   1      40.917  19.731  25.958  1.00  0.00     0.251 C 
ATOM     25  H   UNL A   1      39.275  18.700  25.457  1.00  0.00     0.163 HD
ATOM     26  O   UNL A   1      41.672  18.786  25.745  1.00  0.00    -0.269 OA
BRANCH  24  27
ATOM     27  C   UNL A   1      41.453  20.981  26.542  1.00  0.00     0.039 A 
ATOM     28  C   UNL A   1      41.913  22.001  25.701  1.00  0.00     0.014 A 
ATOM     29  C   UNL A   1      41.534  21.145  27.925  1.00  0.00     0.014 A 
ATOM     30  C   UNL A   1      42.371  23.207  26.246  1.00  0.00     0.010 A 
ATOM     31  C   UNL A   1      41.871  22.380  28.459  1.00  0.00     0.010 A 
ATOM     32  C   UNL A   1      42.309  23.424  27.632  1.00  0.00    -0.014 A 
BRANCH  32  33
ATOM     33  C   UNL A   1      42.721  24.703  28.269  1.00  0.00     0.031 A 
ATOM     34  C   UNL A   1      41.684  25.765  28.534  1.00  0.00     0.074 A 
ATOM     35  C   UNL A   1      44.024  24.974  28.482  1.00  0.00     0.049 A 
ATOM     36  N   UNL A   1      41.846  27.024  28.852  1.00  0.00    -0.248 NA
ATOM     37  C   UNL A   1      40.277  25.366  28.361  1.00  0.00     0.031 C 
ATOM     38  C   UNL A   1      45.137  24.060  28.224  1.00  0.00     0.029 A 
ATOM     39  N   UNL A   1      44.632  26.118  28.937  1.00  0.00    -0.354 N 
ATOM     40  C   UNL A   1      40.571  27.578  28.846  1.00  0.00     0.074 A 
ATOM     41  C   UNL A   1      39.655  26.529  28.456  1.00  0.00     0.031 C 
ATOM     42  C   UNL A   1      46.291  24.674  28.535  1.00  0.00     0.029 A 
ATOM     43  C   UNL A   1      46.002  26.039  28.964  1.00  0.00     0.049 A 
ATOM     44  H   UNL A   1      44.132  26.919  29.216  1.00  0.00     0.167 HD
ATOM     45  C   UNL A   1      40.193  28.841  29.153  1.00  0.00     0.031 A 
ATOM     46  C   UNL A   1      46.928  26.966  29.274  1.00  0.00     0.031 A 
ATOM     47  C   UNL A   1      41.097  29.866  29.599  1.00  0.00     0.049 A 
ATOM     48  C   UNL A   1      46.486  28.347  29.669  1.00  0.00     0.074 A 
ATOM     49  C   UNL A   1      40.804  31.148  30.027  1.00  0.00     0.029 A 
ATOM     50  N   UNL A   1      42.472  29.715  29.686  1.00  0.00    -0.354 N 
ATOM     51  N   UNL A   1      45.273  28.841  29.716  1.00  0.00    -0.248 NA
ATOM     52  C   UNL A   1      47.539  29.295  30.060  1.00  0.00     0.031 C 
ATOM     53  C   UNL A   1      42.008  31.787  30.342  1.00  0.00     0.029 A 
ATOM     54  C   UNL A   1      43.045  30.886  30.150  1.00  0.00     0.049 A 
ATOM     55  H   UNL A   1      42.967  28.897  29.451  1.00  0.00     0.167 HD
ATOM     56  C   UNL A   1      45.413  30.149  30.162  1.00  0.00     0.074 A 
ATOM     57  C   UNL A   1      46.827  30.368  30.382  1.00  0.00     0.031 C 
ATOM     58  C   UNL A   1      44.453  31.082  30.373  1.00  0.00     0.031 A 
BRANCH  45  59
ATOM     59  C   UNL A   1      38.733  29.178  29.009  1.00  0.00    -0.014 A 
ATOM     60  C   UNL A   1      38.199  29.611  27.784  1.00  0.00     0.009 A 
ATOM     61  C   UNL A   1      37.880  29.060  30.117  1.00  0.00     0.009 A 
ATOM     62  C   UNL A   1      36.854  29.976  27.689  1.00  0.00     0.001 A 
ATOM     63  C   UNL A   1      36.529  29.393  30.009  1.00  0.00     0.001 A 
ATOM     64  C   UNL A   1      36.020  29.866  28.801  1.00  0.00     0.000 A 
ENDBRANCH  45  59
BRANCH  46  65
ATOM     65  C   UNL A   1      48.369  26.607  29.234  1.00  0.00    -0.014 A 
ATOM     66  C   UNL A   1      49.124  26.837  28.074  1.00  0.00     0.009 A 
ATOM     67  C   UNL A   1      49.005  26.065  30.362  1.00  0.00     0.009 A 
ATOM     68  C   UNL A   1      50.484  26.519  28.039  1.00  0.00     0.001 A 
ATOM     69  C   UNL A   1      50.369  25.770  30.332  1.00  0.00     0.001 A 
ATOM     70  C   UNL A   1      51.107  25.991  29.170  1.00  0.00     0.000 A 
ENDBRANCH  46  65
BRANCH  58  71
ATOM     71  C   UNL A   1      44.890  32.416  30.903  1.00  0.00    -0.014 A 
ATOM     72  C   UNL A   1      45.013  32.644  32.282  1.00  0.00     0.009 A 
ATOM     73  C   UNL A   1      45.260  33.430  30.006  1.00  0.00     0.009 A 
ATOM     74  C   UNL A   1      45.484  33.872  32.752  1.00  0.00     0.001 A 
ATOM     75  C   UNL A   1      45.751  34.646  30.478  1.00  0.00     0.001 A 
ATOM     76  C   UNL A   1      45.859  34.869  31.850  1.00  0.00     0.000 A 
ENDBRANCH  58  71
ENDBRANCH  32  33
ENDBRANCH  24  27
ENDBRANCH  22  23
ENDBRANCH  21  22
ENDBRANCH   1  21
TORSDOF 15
ENDMDL
MODEL 2
REMARK VINA RESULT:     -10.5      3.968      8.835
REMARK SMILES CC[C@H](NS(=O)(=O)Cc1ccccc1)C(=O)NCCCNC(=O)c1ccc(-c2c3nc(c(-c4ccccc4)c4ccc([nH]4)c(-c4ccccc4)c4nc(c(-c5ccccc5)c5ccc2[nH]5)C=C4)C=C3)cc1
REMARK SMILES IDX 18 1 17 2 15 3 16 4 3 6 2 7 1 8 4 9 5 11 6 12 7 13 8 14 9 15
REMARK SMILES IDX 10 16 14 17 11 18 13 19 12 20 19 21 20 22 21 23 22 24 23 26
REMARK SMILES IDX 24 27 25 28 71 29 26 30 70 31 27 32 28 33 29 34 64 35 30 36
REMARK SMILES IDX 69 37 63 38 65 39 31 40 68 41 62 42 61 43 32 45 54 46 39 47
REMARK SMILES IDX 53 48 40 49 43 50 52 51 66 52 41 53 42 54 51 56 67 57 44 58
REMARK SMILES IDX 33 59 34 60 38 61 35 62 37 63 36 64 55 65 56 66 60 67 57 68
REMARK SMILES IDX 59 69 58 70 45 71 46 72 50 73 47 74 49 75 48 76
REMARK H PARENT 17 5 4 10 21 25 65 44 43 55
REMARK Flexibility Score: inf
ROOT
ATOM      1  C   UNL A   1      31.683  29.795  25.181  1.00  0.00     0.117 C 
ENDROOT
BRANCH   1   2
ATOM      2  N   UNL A   1      30.799  29.992  24.068  1.00  0.00    -0.355 N 
ATOM      3  C   UNL A   1      30.546  29.202  23.000  1.00  0.00     0.238 C 
ATOM      4  O   UNL A   1      29.936  29.788  22.089  1.00  0.00    -0.273 OA
ATOM      5  H   UNL A   1      30.296  30.838  24.086  1.00  0.00     0.163 HD
BRANCH   3   6
ATOM      6  C   UNL A   1      30.759  27.695  22.874  1.00  0.00     0.158 C 
BRANCH   6   7
ATOM      7  C   UNL A   1      29.578  27.045  23.681  1.00  0.00     0.027 C 
ATOM      8  C   UNL A   1      30.022  26.259  24.911  1.00  0.00     0.006 C 
ENDBRANCH   6   7
BRANCH   6   9
ATOM      9  N   UNL A   1      31.875  26.741  23.059  1.00  0.00    -0.202 NA
ATOM     10  H   UNL A   1      31.485  26.002  23.644  1.00  0.00     0.141 HD
BRANCH   9  11
ATOM     11  S   UNL A   1      32.748  25.939  21.910  1.00  0.00     0.216 S 
ATOM     12  O   UNL A   1      31.821  25.786  20.814  1.00  0.00    -0.212 OA
ATOM     13  O   UNL A   1      33.999  26.631  21.689  1.00  0.00    -0.212 OA
BRANCH  11  14
ATOM     14  C   UNL A   1      33.053  24.270  22.581  1.00  0.00     0.189 C 
BRANCH  14  15
ATOM     15  C   UNL A   1      34.267  24.099  23.473  1.00  0.00    -0.032 A 
ATOM     16  C   UNL A   1      35.317  23.235  23.127  1.00  0.00     0.005 A 
ATOM     17  C   UNL A   1      34.320  24.704  24.740  1.00  0.00     0.005 A 
ATOM     18  C   UNL A   1      36.437  23.078  23.953  1.00  0.00     0.000 A 
ATOM     19  C   UNL A   1      35.417  24.509  25.591  1.00  0.00     0.000 A 
ATOM     20  C   UNL A   1      36.489  23.719  25.185  1.00  0.00     0.000 A 
ENDBRANCH  14  15
ENDBRANCH  11  14
ENDBRANCH   9  11
ENDBRANCH   6   9
ENDBRANCH   3   6
ENDBRANCH   1   2
BRANCH   1  21
ATOM     21  C   UNL A   1      31.355  30.747  26.330  1.00  0.00     0.042 C 
BRANCH  21  22
ATOM     22  C   UNL A   1      32.583  31.417  26.920  1.00  0.00     0.118 C 
BRANCH  22  23
ATOM     23  N   UNL A   1      32.329  32.817  27.247  1.00  0.00    -0.352 N 
ATOM     24  C   UNL A   1      33.003  33.669  28.094  1.00  0.00     0.251 C 
ATOM     25  H   UNL A   1      31.555  33.215  26.789  1.00  0.00     0.163 HD
ATOM     26  O   UNL A   1      32.474  34.723  28.436  1.00  0.00    -0.269 OA
BRANCH  24  27
ATOM     27  C   UNL A   1      34.346  33.320  28.611  1.00  0.00     0.039 A 
ATOM     28  C   UNL A   1      34.467  32.617  29.815  1.00  0.00     0.014 A 
ATOM     29  C   UNL A   1      35.497  33.711  27.927  1.00  0.00     0.014 A 
ATOM     30  C   UNL A   1      35.733  32.236  30.281  1.00  0.00     0.010 A 
ATOM     31  C   UNL A   1      36.737  33.231  28.323  1.00  0.00     0.010 A 
ATOM     32  C   UNL A   1      36.877  32.502  29.513  1.00  0.00    -0.014 A 
BRANCH  32  33
ATOM     33  C   UNL A   1      38.242  32.072  29.919  1.00  0.00     0.031 A 
ATOM     34  C   UNL A   1      38.798  30.776  29.386  1.00  0.00     0.074 A 
ATOM     35  C   UNL A   1      38.923  32.754  30.860  1.00  0.00     0.049 A 
ATOM     36  N   UNL A   1      39.844  30.095  29.782  1.00  0.00    -0.248 NA
ATOM     37  C   UNL A   1      38.041  30.134  28.298  1.00  0.00     0.031 C 
ATOM     38  C   UNL A   1      38.482  33.994  31.500  1.00  0.00     0.029 A 
ATOM     39  N   UNL A   1      40.123  32.476  31.467  1.00  0.00    -0.354 N 
ATOM     40  C   UNL A   1      39.826  28.919  29.041  1.00  0.00     0.074 A 
ATOM     41  C   UNL A   1      38.647  28.962  28.205  1.00  0.00     0.031 C 
ATOM     42  C   UNL A   1      39.403  34.377  32.400  1.00  0.00     0.029 A 
ATOM     43  C   UNL A   1      40.471  33.384  32.437  1.00  0.00     0.049 A 
ATOM     44  H   UNL A   1      40.680  31.700  31.229  1.00  0.00     0.167 HD
ATOM     45  C   UNL A   1      40.717  27.900  29.045  1.00  0.00     0.031 A 
ATOM     46  C   UNL A   1      41.520  33.404  33.282  1.00  0.00     0.031 A 
ATOM     47  C   UNL A   1      41.919  27.885  29.832  1.00  0.00     0.049 A 
ATOM     48  C   UNL A   1      42.530  32.293  33.232  1.00  0.00     0.074 A 
ATOM     49  C   UNL A   1      42.937  26.947  29.837  1.00  0.00     0.029 A 
ATOM     50  N   UNL A   1      42.270  28.866  30.747  1.00  0.00    -0.354 N 
ATOM     51  N   UNL A   1      42.532  31.215  32.486  1.00  0.00    -0.248 NA
ATOM     52  C   UNL A   1      43.686  32.405  34.132  1.00  0.00     0.031 C 
ATOM     53  C   UNL A   1      43.889  27.345  30.781  1.00  0.00     0.029 A 
ATOM     54  C   UNL A   1      43.484  28.552  31.331  1.00  0.00     0.049 A 
ATOM     55  H   UNL A   1      41.735  29.667  30.950  1.00  0.00     0.167 HD
ATOM     56  C   UNL A   1      43.696  30.532  32.810  1.00  0.00     0.074 A 
ATOM     57  C   UNL A   1      44.382  31.321  33.811  1.00  0.00     0.031 C 
ATOM     58  C   UNL A   1      44.156  29.355  32.318  1.00  0.00     0.031 A 
BRANCH  45  59
ATOM     59  C   UNL A   1      40.413  26.715  28.168  1.00  0.00    -0.014 A 
ATOM     60  C   UNL A   1      40.962  26.597  26.881  1.00  0.00     0.009 A 
ATOM     61  C   UNL A   1      39.561  25.703  28.637  1.00  0.00     0.009 A 
ATOM     62  C   UNL A   1      40.617  25.519  26.061  1.00  0.00     0.001 A 
ATOM     63  C   UNL A   1      39.246  24.610  27.828  1.00  0.00     0.001 A 
ATOM     64  C   UNL A   1      39.760  24.527  26.535  1.00  0.00     0.000 A 
ENDBRANCH  45  59
BRANCH  46  65
ATOM     65  C   UNL A   1      41.667  34.529  34.241  1.00  0.00    -0.014 A 
ATOM     66  C   UNL A   1      41.162  34.418  35.546  1.00  0.00     0.009 A 
ATOM     67  C   UNL A   1      42.341  35.703  33.872  1.00  0.00     0.009 A 
ATOM     68  C   UNL A   1      41.317  35.466  36.457  1.00  0.00     0.001 A 
ATOM     69  C   UNL A   1      42.515  36.739  34.791  1.00  0.00     0.001 A 
ATOM     70  C   UNL A   1      41.998  36.623  36.080  1.00  0.00     0.000 A 
ENDBRANCH  46  65
BRANCH  58  71
ATOM     71  C   UNL A   1      45.481  28.865  32.824  1.00  0.00    -0.014 A 
ATOM     72  C   UNL A   1      45.567  28.060  33.970  1.00  0.00     0.009 A 
ATOM     73  C   UNL A   1      46.647  29.147  32.097  1.00  0.00     0.009 A 
ATOM     74  C   UNL A   1      46.804  27.560  34.386  1.00  0.00     0.001 A 
ATOM     75  C   UNL A   1      47.876  28.628  32.501  1.00  0.00     0.001 A 
ATOM     76  C   UNL A   1      47.955  27.839  33.648  1.00  0.00     0.000 A 
ENDBRANCH  58  71
ENDBRANCH  32  33
ENDBRANCH  24  27
ENDBRANCH  22  23
ENDBRANCH  21  22
ENDBRANCH   1  21
TORSDOF 15
ENDMDL
MODEL 3
REMARK VINA RESULT:     -10.4      1.916      3.735
REMARK SMILES CC[C@H](NS(=O)(=O)Cc1ccccc1)C(=O)NCCCNC(=O)c1ccc(-c2c3nc(c(-c4ccccc4)c4ccc([nH]4)c(-c4ccccc4)c4nc(c(-c5ccccc5)c5ccc2[nH]5)C=C4)C=C3)cc1
REMARK SMILES IDX 18 1 17 2 15 3 16 4 3 6 2 7 1 8 4 9 5 11 6 12 7 13 8 14 9 15
REMARK SMILES IDX 10 16 14 17 11 18 13 19 12 20 19 21 20 22 21 23 22 24 23 26
REMARK SMILES IDX 24 27 25 28 71 29 26 30 70 31 27 32 28 33 29 34 64 35 30 36
REMARK SMILES IDX 69 37 63 38 65 39 31 40 68 41 62 42 61 43 32 45 54 46 39 47
REMARK SMILES IDX 53 48 40 49 43 50 52 51 66 52 41 53 42 54 51 56 67 57 44 58
REMARK SMILES IDX 33 59 34 60 38 61 35 62 37 63 36 64 55 65 56 66 60 67 57 68
REMARK SMILES IDX 59 69 58 70 45 71 46 72 50 73 47 74 49 75 48 76
REMARK H PARENT 17 5 4 10 21 25 65 44 43 55
REMARK Flexibility Score: inf
ROOT
ATOM      1  C   UNL A   1      36.751  20.696  25.076  1.00  0.00     0.117 C 
ENDROOT
BRANCH   1   2
ATOM      2  N   UNL A   1      36.905  21.857  24.248  1.00  0.00    -0.355 N 
ATOM      3  C   UNL A   1      35.988  22.558  23.543  1.00  0.00     0.238 C 
ATOM      4  O   UNL A   1      36.494  23.341  22.719  1.00  0.00    -0.273 OA
ATOM      5  H   UNL A   1      37.826  22.200  24.183  1.00  0.00     0.163 HD
BRANCH   3   6
ATOM      6  C   UNL A   1      34.478  22.617  23.762  1.00  0.00     0.158 C 
BRANCH   6   7
ATOM      7  C   UNL A   1      34.021  23.966  23.097  1.00  0.00     0.027 C 
ATOM      8  C   UNL A   1      32.659  23.894  22.414  1.00  0.00     0.006 C 
ENDBRANCH   6   7
BRANCH   6   9
ATOM      9  N   UNL A   1      33.542  22.453  24.895  1.00  0.00    -0.202 NA
ATOM     10  H   UNL A   1      32.803  23.134  24.718  1.00  0.00     0.141 HD
BRANCH   9  11
ATOM     11  S   UNL A   1      32.741  21.095  25.383  1.00  0.00     0.216 S 
ATOM     12  O   UNL A   1      33.515  20.620  26.506  1.00  0.00    -0.212 OA
ATOM     13  O   UNL A   1      31.340  21.405  25.570  1.00  0.00    -0.212 OA
BRANCH  11  14
ATOM     14  C   UNL A   1      32.950  19.875  24.042  1.00  0.00     0.189 C 
BRANCH  14  15
ATOM     15  C   UNL A   1      33.254  18.448  24.452  1.00  0.00    -0.032 A 
ATOM     16  C   UNL A   1      32.300  17.652  25.106  1.00  0.00     0.005 A 
ATOM     17  C   UNL A   1      34.546  17.917  24.307  1.00  0.00     0.005 A 
ATOM     18  C   UNL A   1      32.583  16.334  25.484  1.00  0.00     0.000 A 
ATOM     19  C   UNL A   1      34.848  16.615  24.731  1.00  0.00     0.000 A 
ATOM     20  C   UNL A   1      33.859  15.814  25.293  1.00  0.00     0.000 A 
ENDBRANCH  14  15
ENDBRANCH  11  14
ENDBRANCH   9  11
ENDBRANCH   6   9
ENDBRANCH   3   6
ENDBRANCH   1   2
BRANCH   1  21
ATOM     21  C   UNL A   1      37.965  19.774  24.975  1.00  0.00     0.042 C 
BRANCH  21  22
ATOM     22  C   UNL A   1      39.154  20.263  25.784  1.00  0.00     0.118 C 
BRANCH  22  23
ATOM     23  N   UNL A   1      40.190  19.239  25.892  1.00  0.00    -0.352 N 
ATOM     24  C   UNL A   1      41.548  19.365  26.084  1.00  0.00     0.251 C 
ATOM     25  H   UNL A   1      39.866  18.313  25.817  1.00  0.00     0.163 HD
ATOM     26  O   UNL A   1      42.279  18.399  25.877  1.00  0.00    -0.269 OA
BRANCH  24  27
ATOM     27  C   UNL A   1      42.138  20.652  26.517  1.00  0.00     0.039 A 
ATOM     28  C   UNL A   1      42.614  21.556  25.560  1.00  0.00     0.014 A 
ATOM     29  C   UNL A   1      42.253  20.964  27.871  1.00  0.00     0.014 A 
ATOM     30  C   UNL A   1      43.123  22.798  25.960  1.00  0.00     0.010 A 
ATOM     31  C   UNL A   1      42.642  22.238  28.260  1.00  0.00     0.010 A 
ATOM     32  C   UNL A   1      43.098  23.168  27.314  1.00  0.00    -0.014 A 
BRANCH  32  33
ATOM     33  C   UNL A   1      43.565  24.495  27.799  1.00  0.00     0.031 A 
ATOM     34  C   UNL A   1      42.550  25.539  28.187  1.00  0.00     0.074 A 
ATOM     35  C   UNL A   1      44.873  24.815  27.762  1.00  0.00     0.049 A 
ATOM     36  N   UNL A   1      42.716  26.820  28.403  1.00  0.00    -0.248 NA
ATOM     37  C   UNL A   1      41.151  25.090  28.289  1.00  0.00     0.031 C 
ATOM     38  C   UNL A   1      45.958  23.921  27.359  1.00  0.00     0.029 A 
ATOM     39  N   UNL A   1      45.506  26.002  28.039  1.00  0.00    -0.354 N 
ATOM     40  C   UNL A   1      41.439  27.335  28.596  1.00  0.00     0.074 A 
ATOM     41  C   UNL A   1      40.511  26.239  28.432  1.00  0.00     0.031 C 
ATOM     42  C   UNL A   1      47.124  24.585  27.426  1.00  0.00     0.029 A 
ATOM     43  C   UNL A   1      46.862  25.964  27.826  1.00  0.00     0.049 A 
ATOM     44  H   UNL A   1      45.032  26.803  28.359  1.00  0.00     0.167 HD
ATOM     45  C   UNL A   1      41.072  28.603  28.897  1.00  0.00     0.031 A 
ATOM     46  C   UNL A   1      47.791  26.935  27.916  1.00  0.00     0.031 A 
ATOM     47  C   UNL A   1      41.999  29.678  29.119  1.00  0.00     0.049 A 
ATOM     48  C   UNL A   1      47.372  28.323  28.309  1.00  0.00     0.074 A 
ATOM     49  C   UNL A   1      41.736  30.974  29.524  1.00  0.00     0.029 A 
ATOM     50  N   UNL A   1      43.373  29.573  28.968  1.00  0.00    -0.354 N 
ATOM     51  N   UNL A   1      46.167  28.784  28.545  1.00  0.00    -0.248 NA
ATOM     52  C   UNL A   1      48.439  29.323  28.455  1.00  0.00     0.031 C 
ATOM     53  C   UNL A   1      42.952  31.665  29.585  1.00  0.00     0.029 A 
ATOM     54  C   UNL A   1      43.972  30.785  29.260  1.00  0.00     0.049 A 
ATOM     55  H   UNL A   1      43.851  28.757  28.693  1.00  0.00     0.167 HD
ATOM     56  C   UNL A   1      46.333  30.119  28.889  1.00  0.00     0.074 A 
ATOM     57  C   UNL A   1      47.754  30.392  28.841  1.00  0.00     0.031 C 
ATOM     58  C   UNL A   1      45.389  31.034  29.217  1.00  0.00     0.031 A 
BRANCH  45  59
ATOM     59  C   UNL A   1      39.597  28.887  28.998  1.00  0.00    -0.014 A 
ATOM     60  C   UNL A   1      38.901  28.727  30.207  1.00  0.00     0.009 A 
ATOM     61  C   UNL A   1      38.894  29.320  27.863  1.00  0.00     0.009 A 
ATOM     62  C   UNL A   1      37.521  28.937  30.263  1.00  0.00     0.001 A 
ATOM     63  C   UNL A   1      37.521  29.563  27.931  1.00  0.00     0.001 A 
ATOM     64  C   UNL A   1      36.833  29.356  29.125  1.00  0.00     0.000 A 
ENDBRANCH  45  59
BRANCH  46  65
ATOM     65  C   UNL A   1      49.215  26.616  27.639  1.00  0.00    -0.014 A 
ATOM     66  C   UNL A   1      50.056  26.171  28.672  1.00  0.00     0.009 A 
ATOM     67  C   UNL A   1      49.734  26.719  26.339  1.00  0.00     0.009 A 
ATOM     68  C   UNL A   1      51.390  25.851  28.411  1.00  0.00     0.001 A 
ATOM     69  C   UNL A   1      51.062  26.376  26.077  1.00  0.00     0.001 A 
ATOM     70  C   UNL A   1      51.890  25.948  27.113  1.00  0.00     0.000 A 
ENDBRANCH  46  65
BRANCH  58  71
ATOM     71  C   UNL A   1      45.860  32.410  29.589  1.00  0.00    -0.014 A 
ATOM     72  C   UNL A   1      46.068  32.768  30.929  1.00  0.00     0.009 A 
ATOM     73  C   UNL A   1      46.175  33.331  28.578  1.00  0.00     0.009 A 
ATOM     74  C   UNL A   1      46.569  34.032  31.249  1.00  0.00     0.001 A 
ATOM     75  C   UNL A   1      46.697  34.583  28.900  1.00  0.00     0.001 A 
ATOM     76  C   UNL A   1      46.889  34.935  30.235  1.00  0.00     0.000 A 
ENDBRANCH  58  71
ENDBRANCH  32  33
ENDBRANCH  24  27
ENDBRANCH  22  23
ENDBRANCH  21  22
ENDBRANCH   1  21
TORSDOF 15
ENDMDL
