MODEL 1
REMARK VINA RESULT:     -11.3      0.000      0.000
REMARK SMILES CN(C)Nc1ncnc(Nc2ccc(C(=O)NCCCNC(=O)c3ccc(-c4c5nc(c(-c6ccccc6)c6ccc([nH]6)c(-c6ccccc6)c6nc(c(-c7ccccc7)c7ccc4[nH]7)C=C6)C=C5)cc3)cc2)c1[N+](=O)[O-]
REMARK SMILES IDX 18 1 17 2 15 3 16 4 14 6 11 7 12 8 73 9 13 10 72 11 10 12
REMARK SMILES IDX 9 14 5 15 6 16 74 17 7 18 8 19 4 20 2 22 1 23 3 24 75 25
REMARK SMILES IDX 76 26 77 27 19 28 20 29 21 30 22 31 23 33 24 34 25 35 71 36
REMARK SMILES IDX 26 37 70 38 27 39 28 40 29 41 64 42 30 43 69 44 63 45 65 46
REMARK SMILES IDX 31 47 68 48 62 49 61 50 32 52 54 53 39 54 53 55 40 56 43 57
REMARK SMILES IDX 52 58 66 59 41 60 42 61 51 63 67 64 44 65 33 66 34 67 38 68
REMARK SMILES IDX 35 69 37 70 36 71 55 72 56 73 60 74 57 75 59 76 58 77 45 78
REMARK SMILES IDX 46 79 50 80 47 81 49 82 48 83
REMARK H PARENT 17 5 10 13 4 21 21 32 65 51 43 62
REMARK Flexibility Score: inf
ROOT
ATOM      1  C   UNL A   1      36.048  21.030  25.127  1.00  0.00     0.118 C 
ENDROOT
BRANCH   1   2
ATOM      2  N   UNL A   1      35.074  19.957  25.067  1.00  0.00    -0.352 N 
ATOM      3  C   UNL A   1      33.721  19.942  24.846  1.00  0.00     0.251 C 
ATOM      4  O   UNL A   1      33.156  18.849  24.876  1.00  0.00    -0.269 OA
ATOM      5  H   UNL A   1      35.459  19.064  25.214  1.00  0.00     0.163 HD
BRANCH   3   6
ATOM      6  C   UNL A   1      32.933  21.158  24.506  1.00  0.00     0.039 A 
ATOM      7  C   UNL A   1      31.195  23.315  23.967  1.00  0.00     0.040 A 
ATOM      8  C   UNL A   1      31.175  22.690  25.213  1.00  0.00     0.027 A 
ATOM      9  C   UNL A   1      32.172  22.931  23.041  1.00  0.00     0.027 A 
ATOM     10  C   UNL A   1      32.018  21.606  25.471  1.00  0.00     0.016 A 
ATOM     11  C   UNL A   1      33.051  21.878  23.317  1.00  0.00     0.016 A 
BRANCH   7  12
ATOM     12  N   UNL A   1      30.314  24.380  23.708  1.00  0.00    -0.334 N 
ATOM     13  H   UNL A   1      29.380  24.147  23.496  1.00  0.00     0.168 HD
BRANCH  12  14
ATOM     14  C   UNL A   1      30.645  25.750  23.725  1.00  0.00     0.215 A 
ATOM     15  C   UNL A   1      31.195  27.793  24.806  1.00  0.00     0.225 A 
ATOM     16  N   UNL A   1      31.250  28.419  23.611  1.00  0.00    -0.212 NA
ATOM     17  C   UNL A   1      30.799  26.474  24.897  1.00  0.00     0.354 A 
ATOM     18  C   UNL A   1      31.011  27.681  22.527  1.00  0.00     0.227 A 
ATOM     19  N   UNL A   1      30.753  26.371  22.529  1.00  0.00    -0.212 NA
BRANCH  15  20
ATOM     20  N   UNL A   1      31.690  28.593  25.838  1.00  0.00    -0.298 N 
ATOM     21  H   UNL A   1      31.106  28.726  26.619  1.00  0.00     0.184 HD
BRANCH  20  22
ATOM     22  N   UNL A   1      32.961  29.234  25.866  1.00  0.00    -0.228 NA
ATOM     23  C   UNL A   1      33.005  30.376  26.795  1.00  0.00     0.130 C 
ATOM     24  C   UNL A   1      33.927  28.230  26.363  1.00  0.00     0.130 C 
ENDBRANCH  20  22
ENDBRANCH  15  20
BRANCH  17  25
ATOM     25  N   UNL A   1      30.492  25.875  26.162  1.00  0.00     0.070 N 
ATOM     26  O   UNL A   1      29.308  25.558  26.362  1.00  0.00    -0.258 OA
ATOM     27  O   UNL A   1      31.394  25.815  27.008  1.00  0.00    -0.258 OA
ENDBRANCH  17  25
ENDBRANCH  12  14
ENDBRANCH   7  12
ENDBRANCH   3   6
ENDBRANCH   1   2
BRANCH   1  28
ATOM     28  C   UNL A   1      37.417  20.530  24.672  1.00  0.00     0.042 C 
BRANCH  28  29
ATOM     29  C   UNL A   1      38.516  20.822  25.690  1.00  0.00     0.118 C 
BRANCH  29  30
ATOM     30  N   UNL A   1      39.522  19.766  25.721  1.00  0.00    -0.352 N 
ATOM     31  C   UNL A   1      40.865  19.846  25.993  1.00  0.00     0.251 C 
ATOM     32  H   UNL A   1      39.189  18.863  25.515  1.00  0.00     0.163 HD
ATOM     33  O   UNL A   1      41.602  18.901  25.746  1.00  0.00    -0.269 OA
BRANCH  31  34
ATOM     34  C   UNL A   1      41.418  21.086  26.578  1.00  0.00     0.039 A 
ATOM     35  C   UNL A   1      41.954  22.057  25.729  1.00  0.00     0.014 A 
ATOM     36  C   UNL A   1      41.410  21.281  27.960  1.00  0.00     0.014 A 
ATOM     37  C   UNL A   1      42.420  23.259  26.264  1.00  0.00     0.010 A 
ATOM     38  C   UNL A   1      41.802  22.506  28.484  1.00  0.00     0.010 A 
ATOM     39  C   UNL A   1      42.310  23.508  27.642  1.00  0.00    -0.014 A 
BRANCH  39  40
ATOM     40  C   UNL A   1      42.711  24.807  28.235  1.00  0.00     0.031 A 
ATOM     41  C   UNL A   1      41.684  25.881  28.453  1.00  0.00     0.074 A 
ATOM     42  C   UNL A   1      44.011  25.050  28.489  1.00  0.00     0.049 A 
ATOM     43  N   UNL A   1      41.852  27.120  28.839  1.00  0.00    -0.248 NA
ATOM     44  C   UNL A   1      40.283  25.522  28.173  1.00  0.00     0.031 C 
ATOM     45  C   UNL A   1      45.107  24.096  28.298  1.00  0.00     0.029 A 
ATOM     46  N   UNL A   1      44.633  26.183  28.948  1.00  0.00    -0.354 N 
ATOM     47  C   UNL A   1      40.586  27.692  28.829  1.00  0.00     0.074 A 
ATOM     48  C   UNL A   1      39.668  26.682  28.349  1.00  0.00     0.031 C 
ATOM     49  C   UNL A   1      46.262  24.677  28.659  1.00  0.00     0.029 A 
ATOM     50  C   UNL A   1      45.997  26.057  29.054  1.00  0.00     0.049 A 
ATOM     51  H   UNL A   1      44.148  27.008  29.180  1.00  0.00     0.167 HD
ATOM     52  C   UNL A   1      40.217  28.941  29.201  1.00  0.00     0.031 A 
ATOM     53  C   UNL A   1      46.932  26.958  29.410  1.00  0.00     0.031 A 
ATOM     54  C   UNL A   1      41.134  29.943  29.674  1.00  0.00     0.049 A 
ATOM     55  C   UNL A   1      46.503  28.353  29.773  1.00  0.00     0.074 A 
ATOM     56  C   UNL A   1      40.857  31.226  30.113  1.00  0.00     0.029 A 
ATOM     57  N   UNL A   1      42.508  29.776  29.763  1.00  0.00    -0.354 N 
ATOM     58  N   UNL A   1      45.297  28.864  29.809  1.00  0.00    -0.248 NA
ATOM     59  C   UNL A   1      47.568  29.293  30.151  1.00  0.00     0.031 C 
ATOM     60  C   UNL A   1      42.071  31.855  30.412  1.00  0.00     0.029 A 
ATOM     61  C   UNL A   1      43.095  30.941  30.228  1.00  0.00     0.049 A 
ATOM     62  H   UNL A   1      42.993  28.952  29.531  1.00  0.00     0.167 HD
ATOM     63  C   UNL A   1      45.453  30.173  30.251  1.00  0.00     0.074 A 
ATOM     64  C   UNL A   1      46.870  30.371  30.477  1.00  0.00     0.031 C 
ATOM     65  C   UNL A   1      44.506  31.121  30.455  1.00  0.00     0.031 A 
BRANCH  52  66
ATOM     66  C   UNL A   1      38.759  29.292  29.094  1.00  0.00    -0.014 A 
ATOM     67  C   UNL A   1      38.211  29.781  27.896  1.00  0.00     0.009 A 
ATOM     68  C   UNL A   1      37.912  29.110  30.198  1.00  0.00     0.009 A 
ATOM     69  C   UNL A   1      36.860  30.124  27.821  1.00  0.00     0.001 A 
ATOM     70  C   UNL A   1      36.553  29.420  30.111  1.00  0.00     0.001 A 
ATOM     71  C   UNL A   1      36.031  29.938  28.927  1.00  0.00     0.000 A 
ENDBRANCH  52  66
BRANCH  53  72
ATOM     72  C   UNL A   1      48.367  26.568  29.456  1.00  0.00    -0.014 A 
ATOM     73  C   UNL A   1      48.909  25.992  30.614  1.00  0.00     0.009 A 
ATOM     74  C   UNL A   1      49.202  26.775  28.346  1.00  0.00     0.009 A 
ATOM     75  C   UNL A   1      50.265  25.660  30.673  1.00  0.00     0.001 A 
ATOM     76  C   UNL A   1      50.550  26.411  28.397  1.00  0.00     0.001 A 
ATOM     77  C   UNL A   1      51.082  25.865  29.563  1.00  0.00     0.000 A 
ENDBRANCH  53  72
BRANCH  65  78
ATOM     78  C   UNL A   1      44.963  32.445  31.002  1.00  0.00    -0.014 A 
ATOM     79  C   UNL A   1      45.271  33.523  30.159  1.00  0.00     0.009 A 
ATOM     80  C   UNL A   1      45.035  32.626  32.393  1.00  0.00     0.009 A 
ATOM     81  C   UNL A   1      45.673  34.747  30.700  1.00  0.00     0.001 A 
ATOM     82  C   UNL A   1      45.404  33.860  32.930  1.00  0.00     0.001 A 
ATOM     83  C   UNL A   1      45.732  34.916  32.084  1.00  0.00     0.000 A 
ENDBRANCH  65  78
ENDBRANCH  39  40
ENDBRANCH  31  34
ENDBRANCH  29  30
ENDBRANCH  28  29
ENDBRANCH   1  28
TORSDOF 15
ENDMDL
MODEL 2
REMARK VINA RESULT:     -11.1      3.353      8.852
REMARK SMILES CN(C)Nc1ncnc(Nc2ccc(C(=O)NCCCNC(=O)c3ccc(-c4c5nc(c(-c6ccccc6)c6ccc([nH]6)c(-c6ccccc6)c6nc(c(-c7ccccc7)c7ccc4[nH]7)C=C6)C=C5)cc3)cc2)c1[N+](=O)[O-]
REMARK SMILES IDX 18 1 17 2 15 3 16 4 14 6 11 7 12 8 73 9 13 10 72 11 10 12
REMARK SMILES IDX 9 14 5 15 6 16 74 17 7 18 8 19 4 20 2 22 1 23 3 24 75 25
REMARK SMILES IDX 76 26 77 27 19 28 20 29 21 30 22 31 23 33 24 34 25 35 71 36
REMARK SMILES IDX 26 37 70 38 27 39 28 40 29 41 64 42 30 43 69 44 63 45 65 46
REMARK SMILES IDX 31 47 68 48 62 49 61 50 32 52 54 53 39 54 53 55 40 56 43 57
REMARK SMILES IDX 52 58 66 59 41 60 42 61 51 63 67 64 44 65 33 66 34 67 38 68
REMARK SMILES IDX 35 69 37 70 36 71 55 72 56 73 60 74 57 75 59 76 58 77 45 78
REMARK SMILES IDX 46 79 50 80 47 81 49 82 48 83
REMARK H PARENT 17 5 10 13 4 21 21 32 65 51 43 62
REMARK Flexibility Score: inf
ROOT
ATOM      1  C   UNL A   1      31.247  30.141  25.055  1.00  0.00     0.118 C 
ENDROOT
BRANCH   1   2
ATOM      2  N   UNL A   1      30.575  30.259  23.774  1.00  0.00    -0.352 N 
ATOM      3  C   UNL A   1      30.211  29.337  22.828  1.00  0.00     0.251 C 
ATOM      4  O   UNL A   1      29.658  29.758  21.812  1.00  0.00    -0.269 OA
ATOM      5  H   UNL A   1      30.333  31.183  23.539  1.00  0.00     0.163 HD
BRANCH   3   6
ATOM      6  C   UNL A   1      30.387  27.869  23.004  1.00  0.00     0.039 A 
ATOM      7  C   UNL A   1      30.652  25.131  23.631  1.00  0.00     0.040 A 
ATOM      8  C   UNL A   1      29.527  25.841  24.046  1.00  0.00     0.027 A 
ATOM      9  C   UNL A   1      31.579  25.770  22.800  1.00  0.00     0.027 A 
ATOM     10  C   UNL A   1      29.408  27.204  23.757  1.00  0.00     0.016 A 
ATOM     11  C   UNL A   1      31.435  27.122  22.468  1.00  0.00     0.016 A 
BRANCH   7  12
ATOM     12  N   UNL A   1      30.777  23.770  23.962  1.00  0.00    -0.334 N 
ATOM     13  H   UNL A   1      30.111  23.153  23.578  1.00  0.00     0.168 HD
BRANCH  12  14
ATOM     14  C   UNL A   1      31.766  23.209  24.794  1.00  0.00     0.215 A 
ATOM     15  C   UNL A   1      33.882  22.209  25.208  1.00  0.00     0.225 A 
ATOM     16  N   UNL A   1      33.588  22.112  26.523  1.00  0.00    -0.212 NA
ATOM     17  C   UNL A   1      32.945  22.668  24.304  1.00  0.00     0.354 A 
ATOM     18  C   UNL A   1      32.401  22.578  26.915  1.00  0.00     0.227 A 
ATOM     19  N   UNL A   1      31.500  23.157  26.119  1.00  0.00    -0.212 NA
BRANCH  15  20
ATOM     20  N   UNL A   1      35.223  21.917  24.951  1.00  0.00    -0.298 N 
ATOM     21  H   UNL A   1      35.409  21.285  24.220  1.00  0.00     0.184 HD
BRANCH  20  22
ATOM     22  N   UNL A   1      36.346  22.448  25.647  1.00  0.00    -0.228 NA
ATOM     23  C   UNL A   1      37.617  21.823  25.242  1.00  0.00     0.130 C 
ATOM     24  C   UNL A   1      36.427  23.879  25.282  1.00  0.00     0.130 C 
ENDBRANCH  20  22
ENDBRANCH  15  20
BRANCH  17  25
ATOM     25  N   UNL A   1      33.148  22.539  22.893  1.00  0.00     0.070 N 
ATOM     26  O   UNL A   1      34.066  23.211  22.392  1.00  0.00    -0.258 OA
ATOM     27  O   UNL A   1      32.336  21.861  22.249  1.00  0.00    -0.258 OA
ENDBRANCH  17  25
ENDBRANCH  12  14
ENDBRANCH   7  12
ENDBRANCH   3   6
ENDBRANCH   1   2
BRANCH   1  28
ATOM     28  C   UNL A   1      30.971  31.372  25.914  1.00  0.00     0.042 C 
BRANCH  28  29
ATOM     29  C   UNL A   1      32.185  31.800  26.734  1.00  0.00     0.118 C 
BRANCH  29  30
ATOM     30  N   UNL A   1      32.100  33.198  27.141  1.00  0.00    -0.352 N 
ATOM     31  C   UNL A   1      32.903  33.909  27.999  1.00  0.00     0.251 C 
ATOM     32  H   UNL A   1      31.358  33.707  26.742  1.00  0.00     0.163 HD
ATOM     33  O   UNL A   1      32.550  35.007  28.406  1.00  0.00    -0.269 OA
BRANCH  31  34
ATOM     34  C   UNL A   1      34.192  33.334  28.436  1.00  0.00     0.039 A 
ATOM     35  C   UNL A   1      35.370  33.760  27.818  1.00  0.00     0.014 A 
ATOM     36  C   UNL A   1      34.231  32.375  29.450  1.00  0.00     0.014 A 
ATOM     37  C   UNL A   1      36.599  33.272  28.267  1.00  0.00     0.010 A 
ATOM     38  C   UNL A   1      35.457  31.949  29.947  1.00  0.00     0.010 A 
ATOM     39  C   UNL A   1      36.653  32.394  29.361  1.00  0.00    -0.014 A 
BRANCH  39  40
ATOM     40  C   UNL A   1      37.943  31.925  29.923  1.00  0.00     0.031 A 
ATOM     41  C   UNL A   1      38.549  30.639  29.437  1.00  0.00     0.074 A 
ATOM     42  C   UNL A   1      38.517  32.606  30.932  1.00  0.00     0.049 A 
ATOM     43  N   UNL A   1      39.597  29.997  29.886  1.00  0.00    -0.248 NA
ATOM     44  C   UNL A   1      37.869  29.971  28.314  1.00  0.00     0.031 C 
ATOM     45  C   UNL A   1      38.014  33.856  31.508  1.00  0.00     0.029 A 
ATOM     46  N   UNL A   1      39.644  32.333  31.665  1.00  0.00    -0.354 N 
ATOM     47  C   UNL A   1      39.691  28.845  29.116  1.00  0.00     0.074 A 
ATOM     48  C   UNL A   1      38.565  28.849  28.208  1.00  0.00     0.031 C 
ATOM     49  C   UNL A   1      38.842  34.252  32.488  1.00  0.00     0.029 A 
ATOM     50  C   UNL A   1      39.901  33.260  32.647  1.00  0.00     0.049 A 
ATOM     51  H   UNL A   1      40.216  31.548  31.502  1.00  0.00     0.167 HD
ATOM     52  C   UNL A   1      40.638  27.877  29.149  1.00  0.00     0.031 A 
ATOM     53  C   UNL A   1      40.868  33.297  33.582  1.00  0.00     0.031 A 
ATOM     54  C   UNL A   1      41.754  27.875  30.057  1.00  0.00     0.049 A 
ATOM     55  C   UNL A   1      41.880  32.186  33.631  1.00  0.00     0.074 A 
ATOM     56  C   UNL A   1      42.790  26.963  30.147  1.00  0.00     0.029 A 
ATOM     57  N   UNL A   1      41.975  28.831  31.037  1.00  0.00    -0.354 N 
ATOM     58  N   UNL A   1      41.987  31.129  32.862  1.00  0.00    -0.248 NA
ATOM     59  C   UNL A   1      42.911  32.278  34.674  1.00  0.00     0.031 C 
ATOM     60  C   UNL A   1      43.607  27.335  31.220  1.00  0.00     0.029 A 
ATOM     61  C   UNL A   1      43.119  28.517  31.753  1.00  0.00     0.049 A 
ATOM     62  H   UNL A   1      41.404  29.616  31.201  1.00  0.00     0.167 HD
ATOM     63  C   UNL A   1      43.117  30.452  33.303  1.00  0.00     0.074 A 
ATOM     64  C   UNL A   1      43.665  31.223  34.400  1.00  0.00     0.031 C 
ATOM     65  C   UNL A   1      43.655  29.298  32.837  1.00  0.00     0.031 A 
BRANCH  52  66
ATOM     66  C   UNL A   1      40.493  26.733  28.184  1.00  0.00    -0.014 A 
ATOM     67  C   UNL A   1      39.732  25.597  28.506  1.00  0.00     0.009 A 
ATOM     68  C   UNL A   1      41.106  26.800  26.923  1.00  0.00     0.009 A 
ATOM     69  C   UNL A   1      39.627  24.535  27.606  1.00  0.00     0.001 A 
ATOM     70  C   UNL A   1      40.970  25.752  26.010  1.00  0.00     0.001 A 
ATOM     71  C   UNL A   1      40.242  24.615  26.358  1.00  0.00     0.000 A 
ENDBRANCH  52  66
BRANCH  53  72
ATOM     72  C   UNL A   1      40.937  34.430  34.542  1.00  0.00    -0.014 A 
ATOM     73  C   UNL A   1      41.708  35.565  34.246  1.00  0.00     0.009 A 
ATOM     74  C   UNL A   1      40.240  34.384  35.760  1.00  0.00     0.009 A 
ATOM     75  C   UNL A   1      41.805  36.614  35.162  1.00  0.00     0.001 A 
ATOM     76  C   UNL A   1      40.314  35.449  36.660  1.00  0.00     0.001 A 
ATOM     77  C   UNL A   1      41.104  36.558  36.365  1.00  0.00     0.000 A 
ENDBRANCH  53  72
BRANCH  65  78
ATOM     78  C   UNL A   1      44.933  28.826  33.474  1.00  0.00    -0.014 A 
ATOM     79  C   UNL A   1      44.931  27.896  34.525  1.00  0.00     0.009 A 
ATOM     80  C   UNL A   1      46.162  29.286  32.973  1.00  0.00     0.009 A 
ATOM     81  C   UNL A   1      46.137  27.462  35.082  1.00  0.00     0.001 A 
ATOM     82  C   UNL A   1      47.364  28.824  33.510  1.00  0.00     0.001 A 
ATOM     83  C   UNL A   1      47.351  27.920  34.569  1.00  0.00     0.000 A 
ENDBRANCH  65  78
ENDBRANCH  39  40
ENDBRANCH  31  34
ENDBRANCH  29  30
ENDBRANCH  28  29
ENDBRANCH   1  28
TORSDOF 15
ENDMDL
MODEL 3
REMARK VINA RESULT:     -11.1      4.111      9.668
REMARK SMILES CN(C)Nc1ncnc(Nc2ccc(C(=O)NCCCNC(=O)c3ccc(-c4c5nc(c(-c6ccccc6)c6ccc([nH]6)c(-c6ccccc6)c6nc(c(-c7ccccc7)c7ccc4[nH]7)C=C6)C=C5)cc3)cc2)c1[N+](=O)[O-]
REMARK SMILES IDX 18 1 17 2 15 3 16 4 14 6 11 7 12 8 73 9 13 10 72 11 10 12
REMARK SMILES IDX 9 14 5 15 6 16 74 17 7 18 8 19 4 20 2 22 1 23 3 24 75 25
REMARK SMILES IDX 76 26 77 27 19 28 20 29 21 30 22 31 23 33 24 34 25 35 71 36
REMARK SMILES IDX 26 37 70 38 27 39 28 40 29 41 64 42 30 43 69 44 63 45 65 46
REMARK SMILES IDX 31 47 68 48 62 49 61 50 32 52 54 53 39 54 53 55 40 56 43 57
REMARK SMILES IDX 52 58 66 59 41 60 42 61 51 63 67 64 44 65 33 66 34 67 38 68
REMARK SMILES IDX 35 69 37 70 36 71 55 72 56 73 60 74 57 75 59 76 58 77 45 78
REMARK SMILES IDX 46 79 50 80 47 81 49 82 48 83
REMARK H PARENT 17 5 10 13 4 21 21 32 65 51 43 62
REMARK Flexibility Score: inf
ROOT
ATOM      1  C   UNL A   1      31.781  30.571  26.226  1.00  0.00     0.118 C 
ENDROOT
BRANCH   1   2
ATOM      2  N   UNL A   1      31.125  30.198  24.987  1.00  0.00    -0.352 N 
ATOM      3  C   UNL A   1      31.058  29.020  24.290  1.00  0.00     0.251 C 
ATOM      4  O   UNL A   1      30.423  29.023  23.235  1.00  0.00    -0.269 OA
ATOM      5  H   UNL A   1      30.630  30.936  24.564  1.00  0.00     0.163 HD
BRANCH   3   6
ATOM      6  C   UNL A   1      31.647  27.744  24.780  1.00  0.00     0.039 A 
ATOM      7  C   UNL A   1      32.843  25.270  25.420  1.00  0.00     0.040 A 
ATOM      8  C   UNL A   1      33.527  26.200  24.638  1.00  0.00     0.027 A 
ATOM      9  C   UNL A   1      31.613  25.637  25.976  1.00  0.00     0.027 A 
ATOM     10  C   UNL A   1      32.925  27.415  24.300  1.00  0.00     0.016 A 
ATOM     11  C   UNL A   1      31.030  26.874  25.678  1.00  0.00     0.016 A 
BRANCH   7  12
ATOM     12  N   UNL A   1      33.447  24.036  25.719  1.00  0.00    -0.334 N 
ATOM     13  H   UNL A   1      34.091  24.021  26.465  1.00  0.00     0.168 HD
BRANCH  12  14
ATOM     14  C   UNL A   1      33.216  22.818  25.049  1.00  0.00     0.215 A 
ATOM     15  C   UNL A   1      33.443  20.470  24.763  1.00  0.00     0.225 A 
ATOM     16  N   UNL A   1      32.711  20.529  23.629  1.00  0.00    -0.212 NA
ATOM     17  C   UNL A   1      33.791  21.619  25.442  1.00  0.00     0.354 A 
ATOM     18  C   UNL A   1      32.257  21.728  23.262  1.00  0.00     0.227 A 
ATOM     19  N   UNL A   1      32.441  22.862  23.941  1.00  0.00    -0.212 NA
BRANCH  15  20
ATOM     20  N   UNL A   1      33.660  19.153  25.174  1.00  0.00    -0.298 N 
ATOM     21  H   UNL A   1      34.180  19.024  26.000  1.00  0.00     0.184 HD
BRANCH  20  22
ATOM     22  N   UNL A   1      33.200  17.980  24.512  1.00  0.00    -0.228 NA
ATOM     23  C   UNL A   1      34.290  17.206  23.894  1.00  0.00     0.130 C 
ATOM     24  C   UNL A   1      32.590  17.123  25.552  1.00  0.00     0.130 C 
ENDBRANCH  20  22
ENDBRANCH  15  20
BRANCH  17  25
ATOM     25  N   UNL A   1      34.767  21.597  26.490  1.00  0.00     0.070 N 
ATOM     26  O   UNL A   1      34.346  21.434  27.648  1.00  0.00    -0.258 OA
ATOM     27  O   UNL A   1      35.942  21.850  26.194  1.00  0.00    -0.258 OA
ENDBRANCH  17  25
ENDBRANCH  12  14
ENDBRANCH   7  12
ENDBRANCH   3   6
ENDBRANCH   1   2
BRANCH   1  28
ATOM     28  C   UNL A   1      31.551  32.051  26.524  1.00  0.00     0.042 C 
BRANCH  28  29
ATOM     29  C   UNL A   1      32.681  32.667  27.345  1.00  0.00     0.118 C 
BRANCH  29  30
ATOM     30  N   UNL A   1      32.430  34.072  27.645  1.00  0.00    -0.352 N 
ATOM     31  C   UNL A   1      33.009  34.880  28.593  1.00  0.00     0.251 C 
ATOM     32  H   UNL A   1      31.745  34.504  27.086  1.00  0.00     0.163 HD
ATOM     33  O   UNL A   1      32.515  35.967  28.861  1.00  0.00    -0.269 OA
BRANCH  31  34
ATOM     34  C   UNL A   1      34.226  34.424  29.295  1.00  0.00     0.039 A 
ATOM     35  C   UNL A   1      34.098  33.770  30.522  1.00  0.00     0.014 A 
ATOM     36  C   UNL A   1      35.488  34.651  28.742  1.00  0.00     0.014 A 
ATOM     37  C   UNL A   1      35.236  33.278  31.163  1.00  0.00     0.010 A 
ATOM     38  C   UNL A   1      36.612  34.094  29.341  1.00  0.00     0.010 A 
ATOM     39  C   UNL A   1      36.497  33.402  30.557  1.00  0.00    -0.014 A 
BRANCH  39  40
ATOM     40  C   UNL A   1      37.716  32.814  31.164  1.00  0.00     0.031 A 
ATOM     41  C   UNL A   1      38.353  31.603  30.544  1.00  0.00     0.074 A 
ATOM     42  C   UNL A   1      38.192  33.313  32.320  1.00  0.00     0.049 A 
ATOM     43  N   UNL A   1      39.342  30.869  30.988  1.00  0.00    -0.248 NA
ATOM     44  C   UNL A   1      37.785  31.137  29.267  1.00  0.00     0.031 C 
ATOM     45  C   UNL A   1      37.647  34.472  33.033  1.00  0.00     0.029 A 
ATOM     46  N   UNL A   1      39.234  32.897  33.110  1.00  0.00    -0.354 N 
ATOM     47  C   UNL A   1      39.500  29.849  30.059  1.00  0.00     0.074 A 
ATOM     48  C   UNL A   1      38.474  30.026  29.055  1.00  0.00     0.031 C 
ATOM     49  C   UNL A   1      38.374  34.686  34.141  1.00  0.00     0.029 A 
ATOM     50  C   UNL A   1      39.399  33.652  34.246  1.00  0.00     0.049 A 
ATOM     51  H   UNL A   1      39.809  32.131  32.883  1.00  0.00     0.167 HD
ATOM     52  C   UNL A   1      40.426  28.861  30.034  1.00  0.00     0.031 A 
ATOM     53  C   UNL A   1      40.265  33.515  35.267  1.00  0.00     0.031 A 
ATOM     54  C   UNL A   1      41.443  28.686  31.037  1.00  0.00     0.049 A 
ATOM     55  C   UNL A   1      41.253  32.382  35.241  1.00  0.00     0.074 A 
ATOM     56  C   UNL A   1      42.453  27.741  31.085  1.00  0.00     0.029 A 
ATOM     57  N   UNL A   1      41.573  29.471  32.173  1.00  0.00    -0.354 N 
ATOM     58  N   UNL A   1      41.425  31.455  34.329  1.00  0.00    -0.248 NA
ATOM     59  C   UNL A   1      42.171  32.281  36.384  1.00  0.00     0.031 C 
ATOM     60  C   UNL A   1      43.158  27.918  32.280  1.00  0.00     0.029 A 
ATOM     61  C   UNL A   1      42.633  29.016  32.941  1.00  0.00     0.049 A 
ATOM     62  H   UNL A   1      40.998  30.236  32.400  1.00  0.00     0.167 HD
ATOM     63  C   UNL A   1      42.495  30.686  34.769  1.00  0.00     0.074 A 
ATOM     64  C   UNL A   1      42.936  31.261  36.023  1.00  0.00     0.031 C 
ATOM     65  C   UNL A   1      43.064  29.604  34.183  1.00  0.00     0.031 A 
BRANCH  52  66
ATOM     66  C   UNL A   1      40.368  27.886  28.890  1.00  0.00    -0.014 A 
ATOM     67  C   UNL A   1      41.040  28.138  27.682  1.00  0.00     0.009 A 
ATOM     68  C   UNL A   1      39.651  26.687  29.028  1.00  0.00     0.009 A 
ATOM     69  C   UNL A   1      40.956  27.232  26.622  1.00  0.00     0.001 A 
ATOM     70  C   UNL A   1      39.599  25.767  27.979  1.00  0.00     0.001 A 
ATOM     71  C   UNL A   1      40.240  26.046  26.774  1.00  0.00     0.000 A 
ENDBRANCH  52  66
BRANCH  53  72
ATOM     72  C   UNL A   1      40.249  34.483  36.396  1.00  0.00    -0.014 A 
ATOM     73  C   UNL A   1      41.051  35.633  36.356  1.00  0.00     0.009 A 
ATOM     74  C   UNL A   1      39.438  34.261  37.521  1.00  0.00     0.009 A 
ATOM     75  C   UNL A   1      41.066  36.525  37.432  1.00  0.00     0.001 A 
ATOM     76  C   UNL A   1      39.432  35.170  38.580  1.00  0.00     0.001 A 
ATOM     77  C   UNL A   1      40.253  36.295  38.540  1.00  0.00     0.000 A 
ENDBRANCH  53  72
BRANCH  65  78
ATOM     78  C   UNL A   1      44.263  29.002  34.862  1.00  0.00    -0.014 A 
ATOM     79  C   UNL A   1      44.131  28.008  35.843  1.00  0.00     0.009 A 
ATOM     80  C   UNL A   1      45.550  29.405  34.470  1.00  0.00     0.009 A 
ATOM     81  C   UNL A   1      45.266  27.453  36.441  1.00  0.00     0.001 A 
ATOM     82  C   UNL A   1      46.681  28.825  35.045  1.00  0.00     0.001 A 
ATOM     83  C   UNL A   1      46.539  27.857  36.036  1.00  0.00     0.000 A 
ENDBRANCH  65  78
ENDBRANCH  39  40
ENDBRANCH  31  34
ENDBRANCH  29  30
ENDBRANCH  28  29
ENDBRANCH   1  28
TORSDOF 15
ENDMDL
