MODEL 1
REMARK VINA RESULT:     -10.2      0.000      0.000
REMARK SMILES C[C@H](C(=O)NCCCNC(=O)c1ccc(-c2c3nc(c(-c4ccccc4)c4ccc([nH]4)c(-c4ccccc4)c4nc(c(-c5ccccc5)c5ccc2[nH]5)C=C4)C=C3)cc1)c1ccc2c(c1)[nH]c1ccc(Cl)cc12
REMARK SMILES IDX 7 1 6 2 5 3 3 4 4 5 2 7 1 8 60 9 61 10 65 11 62 12 64 13
REMARK SMILES IDX 63 14 66 15 73 16 67 17 72 19 68 20 70 21 69 22 71 23 8 24
REMARK SMILES IDX 9 25 10 26 11 28 12 29 13 30 59 31 14 32 58 33 15 34 16 35
REMARK SMILES IDX 17 36 52 37 18 38 57 39 51 40 53 41 19 42 56 43 50 44 49 45
REMARK SMILES IDX 20 47 42 48 27 49 41 50 28 51 31 52 40 53 54 54 29 55 30 56
REMARK SMILES IDX 39 58 55 59 32 60 21 61 22 62 26 63 23 64 25 65 24 66 43 67
REMARK SMILES IDX 44 68 48 69 45 70 47 71 46 72 33 73 34 74 38 75 35 76 37 77
REMARK SMILES IDX 36 78
REMARK H PARENT 5 6 66 18 9 27 53 46 31 57
REMARK Flexibility Score: inf
ROOT
ATOM      1  C   UNL A   1      32.473  36.504  31.462  1.00  0.00     0.042 C 
ENDROOT
BRANCH   1   2
ATOM      2  C   UNL A   1      33.223  36.532  32.779  1.00  0.00     0.117 C 
BRANCH   2   3
ATOM      3  N   UNL A   1      34.662  36.427  32.671  1.00  0.00    -0.356 N 
ATOM      4  C   UNL A   1      35.481  35.368  32.904  1.00  0.00     0.227 C 
ATOM      5  O   UNL A   1      36.581  35.427  32.335  1.00  0.00    -0.274 OA
ATOM      6  H   UNL A   1      35.119  37.250  32.383  1.00  0.00     0.163 HD
BRANCH   4   7
ATOM      7  C   UNL A   1      35.244  34.263  33.942  1.00  0.00     0.105 C 
ATOM      8  C   UNL A   1      34.007  33.504  33.409  1.00  0.00     0.023 C 
BRANCH   7   9
ATOM      9  C   UNL A   1      36.381  33.344  34.396  1.00  0.00    -0.034 A 
ATOM     10  C   UNL A   1      37.202  33.630  35.498  1.00  0.00     0.005 A 
ATOM     11  C   UNL A   1      36.598  32.130  33.721  1.00  0.00     0.031 A 
ATOM     12  C   UNL A   1      38.348  32.854  35.791  1.00  0.00     0.011 A 
ATOM     13  C   UNL A   1      37.727  31.367  34.024  1.00  0.00     0.047 A 
ATOM     14  C   UNL A   1      38.640  31.714  35.011  1.00  0.00     0.007 A 
ATOM     15  N   UNL A   1      38.163  30.208  33.438  1.00  0.00    -0.355 N 
ATOM     16  C   UNL A   1      39.716  30.762  34.932  1.00  0.00     0.009 A 
ATOM     17  C   UNL A   1      39.405  29.868  33.904  1.00  0.00     0.047 A 
ATOM     18  H   UNL A   1      37.653  29.691  32.774  1.00  0.00     0.167 HD
ATOM     19  C   UNL A   1      40.945  30.588  35.605  1.00  0.00     0.031 A 
ATOM     20  C   UNL A   1      40.255  28.840  33.483  1.00  0.00     0.028 A 
ATOM     21  C   UNL A   1      41.804  29.558  35.198  1.00  0.00     0.041 A 
ATOM     22  C   UNL A   1      41.473  28.706  34.146  1.00  0.00     0.022 A 
ATOM     23  Cl  UNL A   1      43.311  29.340  36.005  1.00  0.00    -0.084 Cl
ENDBRANCH   7   9
ENDBRANCH   4   7
ENDBRANCH   2   3
ENDBRANCH   1   2
BRANCH   1  24
ATOM     24  C   UNL A   1      33.317  36.317  30.216  1.00  0.00     0.118 C 
BRANCH  24  25
ATOM     25  N   UNL A   1      32.728  35.434  29.218  1.00  0.00    -0.352 N 
ATOM     26  C   UNL A   1      33.216  34.294  28.623  1.00  0.00     0.251 C 
ATOM     27  H   UNL A   1      31.827  35.697  28.920  1.00  0.00     0.163 HD
ATOM     28  O   UNL A   1      32.574  33.763  27.718  1.00  0.00    -0.269 OA
BRANCH  26  29
ATOM     29  C   UNL A   1      34.519  33.715  29.026  1.00  0.00     0.039 A 
ATOM     30  C   UNL A   1      34.547  32.710  29.999  1.00  0.00     0.014 A 
ATOM     31  C   UNL A   1      35.717  34.157  28.467  1.00  0.00     0.014 A 
ATOM     32  C   UNL A   1      35.762  32.115  30.353  1.00  0.00     0.010 A 
ATOM     33  C   UNL A   1      36.898  33.465  28.706  1.00  0.00     0.010 A 
ATOM     34  C   UNL A   1      36.946  32.461  29.681  1.00  0.00    -0.014 A 
BRANCH  34  35
ATOM     35  C   UNL A   1      38.252  31.843  30.028  1.00  0.00     0.031 A 
ATOM     36  C   UNL A   1      39.202  32.566  30.952  1.00  0.00     0.074 A 
ATOM     37  C   UNL A   1      38.612  30.666  29.482  1.00  0.00     0.049 A 
ATOM     38  N   UNL A   1      40.402  32.216  31.344  1.00  0.00    -0.248 NA
ATOM     39  C   UNL A   1      38.763  33.871  31.477  1.00  0.00     0.031 C 
ATOM     40  C   UNL A   1      37.815  29.891  28.528  1.00  0.00     0.029 A 
ATOM     41  N   UNL A   1      39.747  29.914  29.653  1.00  0.00    -0.354 N 
ATOM     42  C   UNL A   1      40.859  33.264  32.136  1.00  0.00     0.074 A 
ATOM     43  C   UNL A   1      39.849  34.294  32.101  1.00  0.00     0.031 C 
ATOM     44  C   UNL A   1      38.466  28.755  28.232  1.00  0.00     0.029 A 
ATOM     45  C   UNL A   1      39.742  28.739  28.940  1.00  0.00     0.049 A 
ATOM     46  H   UNL A   1      40.494  30.189  30.233  1.00  0.00     0.167 HD
ATOM     47  C   UNL A   1      41.998  33.351  32.862  1.00  0.00     0.031 A 
ATOM     48  C   UNL A   1      40.661  27.757  28.867  1.00  0.00     0.031 A 
ATOM     49  C   UNL A   1      42.998  32.320  32.913  1.00  0.00     0.049 A 
ATOM     50  C   UNL A   1      41.918  27.870  29.684  1.00  0.00     0.074 A 
ATOM     51  C   UNL A   1      44.167  32.286  33.652  1.00  0.00     0.029 A 
ATOM     52  N   UNL A   1      42.943  31.137  32.192  1.00  0.00    -0.354 N 
ATOM     53  N   UNL A   1      42.303  28.837  30.482  1.00  0.00    -0.248 NA
ATOM     54  C   UNL A   1      42.857  26.742  29.608  1.00  0.00     0.031 C 
ATOM     55  C   UNL A   1      44.845  31.103  33.339  1.00  0.00     0.029 A 
ATOM     56  C   UNL A   1      44.065  30.371  32.457  1.00  0.00     0.049 A 
ATOM     57  H   UNL A   1      42.214  30.879  31.583  1.00  0.00     0.167 HD
ATOM     58  C   UNL A   1      43.511  28.421  31.027  1.00  0.00     0.074 A 
ATOM     59  C   UNL A   1      43.784  27.107  30.482  1.00  0.00     0.031 C 
ATOM     60  C   UNL A   1      44.321  29.066  31.904  1.00  0.00     0.031 A 
BRANCH  47  61
ATOM     61  C   UNL A   1      42.210  34.609  33.661  1.00  0.00    -0.014 A 
ATOM     62  C   UNL A   1      41.746  34.721  34.984  1.00  0.00     0.009 A 
ATOM     63  C   UNL A   1      42.885  35.699  33.089  1.00  0.00     0.009 A 
ATOM     64  C   UNL A   1      41.907  35.911  35.696  1.00  0.00     0.001 A 
ATOM     65  C   UNL A   1      43.077  36.875  33.817  1.00  0.00     0.001 A 
ATOM     66  C   UNL A   1      42.575  36.986  35.113  1.00  0.00     0.000 A 
ENDBRANCH  47  61
BRANCH  48  67
ATOM     67  C   UNL A   1      40.412  26.568  28.009  1.00  0.00    -0.014 A 
ATOM     68  C   UNL A   1      40.932  26.501  26.706  1.00  0.00     0.009 A 
ATOM     69  C   UNL A   1      39.653  25.489  28.490  1.00  0.00     0.009 A 
ATOM     70  C   UNL A   1      40.671  25.394  25.895  1.00  0.00     0.001 A 
ATOM     71  C   UNL A   1      39.421  24.370  27.688  1.00  0.00     0.001 A 
ATOM     72  C   UNL A   1      39.921  24.328  26.387  1.00  0.00     0.000 A 
ENDBRANCH  48  67
BRANCH  60  73
ATOM     73  C   UNL A   1      45.554  28.338  32.363  1.00  0.00    -0.014 A 
ATOM     74  C   UNL A   1      45.534  27.484  33.477  1.00  0.00     0.009 A 
ATOM     75  C   UNL A   1      46.752  28.490  31.647  1.00  0.00     0.009 A 
ATOM     76  C   UNL A   1      46.698  26.834  33.890  1.00  0.00     0.001 A 
ATOM     77  C   UNL A   1      47.906  27.811  32.040  1.00  0.00     0.001 A 
ATOM     78  C   UNL A   1      47.881  26.994  33.168  1.00  0.00     0.000 A 
ENDBRANCH  60  73
ENDBRANCH  34  35
ENDBRANCH  26  29
ENDBRANCH  24  25
ENDBRANCH   1  24
TORSDOF 11
ENDMDL
MODEL 2
REMARK VINA RESULT:      -9.7      0.424      6.003
REMARK SMILES C[C@H](C(=O)NCCCNC(=O)c1ccc(-c2c3nc(c(-c4ccccc4)c4ccc([nH]4)c(-c4ccccc4)c4nc(c(-c5ccccc5)c5ccc2[nH]5)C=C4)C=C3)cc1)c1ccc2c(c1)[nH]c1ccc(Cl)cc12
REMARK SMILES IDX 7 1 6 2 5 3 3 4 4 5 2 7 1 8 60 9 61 10 65 11 62 12 64 13
REMARK SMILES IDX 63 14 66 15 73 16 67 17 72 19 68 20 70 21 69 22 71 23 8 24
REMARK SMILES IDX 9 25 10 26 11 28 12 29 13 30 59 31 14 32 58 33 15 34 16 35
REMARK SMILES IDX 17 36 52 37 18 38 57 39 51 40 53 41 19 42 56 43 50 44 49 45
REMARK SMILES IDX 20 47 42 48 27 49 41 50 28 51 31 52 40 53 54 54 29 55 30 56
REMARK SMILES IDX 39 58 55 59 32 60 21 61 22 62 26 63 23 64 25 65 24 66 43 67
REMARK SMILES IDX 44 68 48 69 45 70 47 71 46 72 33 73 34 74 38 75 35 76 37 77
REMARK SMILES IDX 36 78
REMARK H PARENT 5 6 66 18 9 27 53 46 31 57
REMARK Flexibility Score: inf
ROOT
ATOM      1  C   UNL A   1      32.522  35.666  31.562  1.00  0.00     0.042 C 
ENDROOT
BRANCH   1   2
ATOM      2  C   UNL A   1      33.138  36.342  32.770  1.00  0.00     0.117 C 
BRANCH   2   3
ATOM      3  N   UNL A   1      34.585  36.358  32.796  1.00  0.00    -0.356 N 
ATOM      4  C   UNL A   1      35.466  35.348  33.021  1.00  0.00     0.227 C 
ATOM      5  O   UNL A   1      36.605  35.543  32.570  1.00  0.00    -0.274 OA
ATOM      6  H   UNL A   1      34.994  37.236  32.623  1.00  0.00     0.163 HD
BRANCH   4   7
ATOM      7  C   UNL A   1      35.230  34.140  33.936  1.00  0.00     0.105 C 
ATOM      8  C   UNL A   1      34.044  33.395  33.278  1.00  0.00     0.023 C 
BRANCH   7   9
ATOM      9  C   UNL A   1      36.382  33.219  34.346  1.00  0.00    -0.034 A 
ATOM     10  C   UNL A   1      37.234  33.496  35.427  1.00  0.00     0.005 A 
ATOM     11  C   UNL A   1      36.583  32.012  33.653  1.00  0.00     0.031 A 
ATOM     12  C   UNL A   1      38.390  32.721  35.679  1.00  0.00     0.011 A 
ATOM     13  C   UNL A   1      37.722  31.250  33.915  1.00  0.00     0.047 A 
ATOM     14  C   UNL A   1      38.662  31.589  34.878  1.00  0.00     0.007 A 
ATOM     15  N   UNL A   1      38.143  30.099  33.305  1.00  0.00    -0.355 N 
ATOM     16  C   UNL A   1      39.738  30.641  34.758  1.00  0.00     0.009 A 
ATOM     17  C   UNL A   1      39.400  29.757  33.731  1.00  0.00     0.047 A 
ATOM     18  H   UNL A   1      37.616  29.587  32.650  1.00  0.00     0.167 HD
ATOM     19  C   UNL A   1      40.986  30.463  35.394  1.00  0.00     0.031 A 
ATOM     20  C   UNL A   1      40.240  28.736  33.275  1.00  0.00     0.028 A 
ATOM     21  C   UNL A   1      41.836  29.440  34.952  1.00  0.00     0.041 A 
ATOM     22  C   UNL A   1      41.477  28.599  33.901  1.00  0.00     0.022 A 
ATOM     23  Cl  UNL A   1      43.366  29.218  35.713  1.00  0.00    -0.084 Cl
ENDBRANCH   7   9
ENDBRANCH   4   7
ENDBRANCH   2   3
ENDBRANCH   1   2
BRANCH   1  24
ATOM     24  C   UNL A   1      33.045  36.107  30.208  1.00  0.00     0.118 C 
BRANCH  24  25
ATOM     25  N   UNL A   1      32.623  35.266  29.097  1.00  0.00    -0.352 N 
ATOM     26  C   UNL A   1      33.259  34.222  28.464  1.00  0.00     0.251 C 
ATOM     27  H   UNL A   1      31.732  35.480  28.738  1.00  0.00     0.163 HD
ATOM     28  O   UNL A   1      32.745  33.719  27.466  1.00  0.00    -0.269 OA
BRANCH  26  29
ATOM     29  C   UNL A   1      34.568  33.718  28.940  1.00  0.00     0.039 A 
ATOM     30  C   UNL A   1      34.601  32.639  29.829  1.00  0.00     0.014 A 
ATOM     31  C   UNL A   1      35.766  34.304  28.532  1.00  0.00     0.014 A 
ATOM     32  C   UNL A   1      35.829  32.116  30.247  1.00  0.00     0.010 A 
ATOM     33  C   UNL A   1      36.978  33.692  28.825  1.00  0.00     0.010 A 
ATOM     34  C   UNL A   1      37.031  32.614  29.718  1.00  0.00    -0.014 A 
BRANCH  34  35
ATOM     35  C   UNL A   1      38.352  32.077  30.136  1.00  0.00     0.031 A 
ATOM     36  C   UNL A   1      38.826  30.748  29.601  1.00  0.00     0.074 A 
ATOM     37  C   UNL A   1      39.105  32.748  31.029  1.00  0.00     0.049 A 
ATOM     38  N   UNL A   1      39.925  30.090  29.873  1.00  0.00    -0.248 NA
ATOM     39  C   UNL A   1      37.931  30.048  28.663  1.00  0.00     0.031 C 
ATOM     40  C   UNL A   1      38.739  34.013  31.671  1.00  0.00     0.029 A 
ATOM     41  N   UNL A   1      40.339  32.456  31.553  1.00  0.00    -0.354 N 
ATOM     42  C   UNL A   1      39.837  28.899  29.160  1.00  0.00     0.074 A 
ATOM     43  C   UNL A   1      38.546  28.887  28.513  1.00  0.00     0.031 C 
ATOM     44  C   UNL A   1      39.745  34.408  32.469  1.00  0.00     0.029 A 
ATOM     45  C   UNL A   1      40.806  33.407  32.427  1.00  0.00     0.049 A 
ATOM     46  H   UNL A   1      40.843  31.641  31.324  1.00  0.00     0.167 HD
ATOM     47  C   UNL A   1      40.759  27.918  29.020  1.00  0.00     0.031 A 
ATOM     48  C   UNL A   1      41.961  33.468  33.117  1.00  0.00     0.031 A 
ATOM     49  C   UNL A   1      42.051  27.936  29.649  1.00  0.00     0.049 A 
ATOM     50  C   UNL A   1      42.975  32.371  32.945  1.00  0.00     0.074 A 
ATOM     51  C   UNL A   1      43.078  27.016  29.537  1.00  0.00     0.029 A 
ATOM     52  N   UNL A   1      42.491  28.929  30.510  1.00  0.00    -0.354 N 
ATOM     53  N   UNL A   1      42.903  31.286  32.212  1.00  0.00    -0.248 NA
ATOM     54  C   UNL A   1      44.240  32.521  33.678  1.00  0.00     0.031 C 
ATOM     55  C   UNL A   1      44.123  27.428  30.372  1.00  0.00     0.029 A 
ATOM     56  C   UNL A   1      43.771  28.639  30.949  1.00  0.00     0.049 A 
ATOM     57  H   UNL A   1      41.972  29.724  30.769  1.00  0.00     0.167 HD
ATOM     58  C   UNL A   1      44.124  30.640  32.370  1.00  0.00     0.074 A 
ATOM     59  C   UNL A   1      44.921  31.467  33.253  1.00  0.00     0.031 C 
ATOM     60  C   UNL A   1      44.548  29.471  31.830  1.00  0.00     0.031 A 
BRANCH  47  61
ATOM     61  C   UNL A   1      40.392  26.749  28.145  1.00  0.00    -0.014 A 
ATOM     62  C   UNL A   1      39.579  25.706  28.624  1.00  0.00     0.009 A 
ATOM     63  C   UNL A   1      40.859  26.688  26.824  1.00  0.00     0.009 A 
ATOM     64  C   UNL A   1      39.287  24.604  27.816  1.00  0.00     0.001 A 
ATOM     65  C   UNL A   1      40.535  25.602  26.006  1.00  0.00     0.001 A 
ATOM     66  C   UNL A   1      39.762  24.556  26.507  1.00  0.00     0.000 A 
ENDBRANCH  47  61
BRANCH  48  67
ATOM     67  C   UNL A   1      42.233  34.626  34.011  1.00  0.00    -0.014 A 
ATOM     68  C   UNL A   1      41.898  34.574  35.374  1.00  0.00     0.009 A 
ATOM     69  C   UNL A   1      42.833  35.791  33.507  1.00  0.00     0.009 A 
ATOM     70  C   UNL A   1      42.130  35.675  36.202  1.00  0.00     0.001 A 
ATOM     71  C   UNL A   1      43.093  36.876  34.345  1.00  0.00     0.001 A 
ATOM     72  C   UNL A   1      42.731  36.822  35.690  1.00  0.00     0.000 A 
ENDBRANCH  48  67
BRANCH  60  73
ATOM     73  C   UNL A   1      45.956  29.042  32.142  1.00  0.00    -0.014 A 
ATOM     74  C   UNL A   1      46.243  28.180  33.212  1.00  0.00     0.009 A 
ATOM     75  C   UNL A   1      47.010  29.488  31.329  1.00  0.00     0.009 A 
ATOM     76  C   UNL A   1      47.561  27.811  33.487  1.00  0.00     0.001 A 
ATOM     77  C   UNL A   1      48.322  29.090  31.585  1.00  0.00     0.001 A 
ATOM     78  C   UNL A   1      48.598  28.262  32.670  1.00  0.00     0.000 A 
ENDBRANCH  60  73
ENDBRANCH  34  35
ENDBRANCH  26  29
ENDBRANCH  24  25
ENDBRANCH   1  24
TORSDOF 11
ENDMDL
MODEL 3
REMARK VINA RESULT:      -9.1      1.943      3.030
REMARK SMILES C[C@H](C(=O)NCCCNC(=O)c1ccc(-c2c3nc(c(-c4ccccc4)c4ccc([nH]4)c(-c4ccccc4)c4nc(c(-c5ccccc5)c5ccc2[nH]5)C=C4)C=C3)cc1)c1ccc2c(c1)[nH]c1ccc(Cl)cc12
REMARK SMILES IDX 7 1 6 2 5 3 3 4 4 5 2 7 1 8 60 9 61 10 65 11 62 12 64 13
REMARK SMILES IDX 63 14 66 15 73 16 67 17 72 19 68 20 70 21 69 22 71 23 8 24
REMARK SMILES IDX 9 25 10 26 11 28 12 29 13 30 59 31 14 32 58 33 15 34 16 35
REMARK SMILES IDX 17 36 52 37 18 38 57 39 51 40 53 41 19 42 56 43 50 44 49 45
REMARK SMILES IDX 20 47 42 48 27 49 41 50 28 51 31 52 40 53 54 54 29 55 30 56
REMARK SMILES IDX 39 58 55 59 32 60 21 61 22 62 26 63 23 64 25 65 24 66 43 67
REMARK SMILES IDX 44 68 48 69 45 70 47 71 46 72 33 73 34 74 38 75 35 76 37 77
REMARK SMILES IDX 36 78
REMARK H PARENT 5 6 66 18 9 27 53 46 31 57
REMARK Flexibility Score: inf
ROOT
ATOM      1  C   UNL A   1      33.981  34.223  28.795  1.00  0.00     0.042 C 
ENDROOT
BRANCH   1   2
ATOM      2  C   UNL A   1      34.489  34.529  30.189  1.00  0.00     0.117 C 
BRANCH   2   3
ATOM      3  N   UNL A   1      34.032  33.625  31.223  1.00  0.00    -0.356 N 
ATOM      4  C   UNL A   1      34.288  33.623  32.558  1.00  0.00     0.227 C 
ATOM      5  O   UNL A   1      33.451  33.019  33.245  1.00  0.00    -0.274 OA
ATOM      6  H   UNL A   1      33.445  32.899  30.911  1.00  0.00     0.163 HD
BRANCH   4   7
ATOM      7  C   UNL A   1      35.585  34.100  33.223  1.00  0.00     0.105 C 
ATOM      8  C   UNL A   1      35.104  35.006  34.380  1.00  0.00     0.023 C 
BRANCH   7   9
ATOM      9  C   UNL A   1      36.678  33.109  33.631  1.00  0.00    -0.034 A 
ATOM     10  C   UNL A   1      37.718  33.439  34.515  1.00  0.00     0.005 A 
ATOM     11  C   UNL A   1      36.629  31.789  33.150  1.00  0.00     0.031 A 
ATOM     12  C   UNL A   1      38.805  32.563  34.742  1.00  0.00     0.011 A 
ATOM     13  C   UNL A   1      37.703  30.930  33.387  1.00  0.00     0.047 A 
ATOM     14  C   UNL A   1      38.817  31.289  34.132  1.00  0.00     0.007 A 
ATOM     15  N   UNL A   1      37.889  29.647  32.945  1.00  0.00    -0.355 N 
ATOM     16  C   UNL A   1      39.747  30.194  34.040  1.00  0.00     0.009 A 
ATOM     17  C   UNL A   1      39.152  29.209  33.248  1.00  0.00     0.047 A 
ATOM     18  H   UNL A   1      37.210  29.112  32.474  1.00  0.00     0.167 HD
ATOM     19  C   UNL A   1      41.053  29.952  34.519  1.00  0.00     0.031 A 
ATOM     20  C   UNL A   1      39.788  28.021  32.875  1.00  0.00     0.028 A 
ATOM     21  C   UNL A   1      41.701  28.763  34.157  1.00  0.00     0.041 A 
ATOM     22  C   UNL A   1      41.086  27.818  33.338  1.00  0.00     0.022 A 
ATOM     23  Cl  UNL A   1      43.298  28.459  34.727  1.00  0.00    -0.084 Cl
ENDBRANCH   7   9
ENDBRANCH   4   7
ENDBRANCH   2   3
ENDBRANCH   1   2
BRANCH   1  24
ATOM     24  C   UNL A   1      34.700  33.117  28.048  1.00  0.00     0.118 C 
BRANCH  24  25
ATOM     25  N   UNL A   1      33.868  31.963  27.735  1.00  0.00    -0.352 N 
ATOM     26  C   UNL A   1      34.172  30.623  27.671  1.00  0.00     0.251 C 
ATOM     27  H   UNL A   1      32.927  32.178  27.538  1.00  0.00     0.163 HD
ATOM     28  O   UNL A   1      33.318  29.828  27.280  1.00  0.00    -0.269 OA
BRANCH  26  29
ATOM     29  C   UNL A   1      35.520  30.123  28.027  1.00  0.00     0.039 A 
ATOM     30  C   UNL A   1      36.518  30.091  27.047  1.00  0.00     0.014 A 
ATOM     31  C   UNL A   1      35.814  29.673  29.314  1.00  0.00     0.014 A 
ATOM     32  C   UNL A   1      37.810  29.673  27.379  1.00  0.00     0.010 A 
ATOM     33  C   UNL A   1      37.127  29.404  29.678  1.00  0.00     0.010 A 
ATOM     34  C   UNL A   1      38.137  29.361  28.708  1.00  0.00    -0.014 A 
BRANCH  34  35
ATOM     35  C   UNL A   1      39.502  28.920  29.095  1.00  0.00     0.031 A 
ATOM     36  C   UNL A   1      40.392  29.843  29.892  1.00  0.00     0.074 A 
ATOM     37  C   UNL A   1      39.966  27.720  28.696  1.00  0.00     0.049 A 
ATOM     38  N   UNL A   1      41.626  29.662  30.292  1.00  0.00    -0.248 NA
ATOM     39  C   UNL A   1      39.837  31.158  30.256  1.00  0.00     0.031 C 
ATOM     40  C   UNL A   1      39.232  26.756  27.872  1.00  0.00     0.029 A 
ATOM     41  N   UNL A   1      41.170  27.106  28.931  1.00  0.00    -0.354 N 
ATOM     42  C   UNL A   1      41.992  30.842  30.930  1.00  0.00     0.074 A 
ATOM     43  C   UNL A   1      40.886  31.760  30.790  1.00  0.00     0.031 C 
ATOM     44  C   UNL A   1      39.986  25.657  27.707  1.00  0.00     0.029 A 
ATOM     45  C   UNL A   1      41.268  25.853  28.376  1.00  0.00     0.049 A 
ATOM     46  H   UNL A   1      41.896  27.524  29.449  1.00  0.00     0.167 HD
ATOM     47  C   UNL A   1      43.129  31.130  31.606  1.00  0.00     0.031 A 
ATOM     48  C   UNL A   1      42.276  24.961  28.404  1.00  0.00     0.031 A 
ATOM     49  C   UNL A   1      44.224  30.212  31.761  1.00  0.00     0.049 A 
ATOM     50  C   UNL A   1      43.529  25.297  29.165  1.00  0.00     0.074 A 
ATOM     51  C   UNL A   1      45.402  30.386  32.466  1.00  0.00     0.029 A 
ATOM     52  N   UNL A   1      44.272  28.945  31.201  1.00  0.00    -0.354 N 
ATOM     53  N   UNL A   1      43.831  26.392  29.820  1.00  0.00    -0.248 NA
ATOM     54  C   UNL A   1      44.571  24.262  29.208  1.00  0.00     0.031 C 
ATOM     55  C   UNL A   1      46.186  29.241  32.289  1.00  0.00     0.029 A 
ATOM     56  C   UNL A   1      45.467  28.329  31.531  1.00  0.00     0.049 A 
ATOM     57  H   UNL A   1      43.562  28.543  30.650  1.00  0.00     0.167 HD
ATOM     58  C   UNL A   1      45.082  26.166  30.381  1.00  0.00     0.074 A 
ATOM     59  C   UNL A   1      45.472  24.823  30.002  1.00  0.00     0.031 C 
ATOM     60  C   UNL A   1      45.839  26.993  31.144  1.00  0.00     0.031 A 
BRANCH  47  61
ATOM     61  C   UNL A   1      43.230  32.497  32.230  1.00  0.00    -0.014 A 
ATOM     62  C   UNL A   1      43.797  33.577  31.532  1.00  0.00     0.009 A 
ATOM     63  C   UNL A   1      42.752  32.711  33.532  1.00  0.00     0.009 A 
ATOM     64  C   UNL A   1      43.928  34.827  32.141  1.00  0.00     0.001 A 
ATOM     65  C   UNL A   1      42.852  33.971  34.125  1.00  0.00     0.001 A 
ATOM     66  C   UNL A   1      43.452  35.023  33.436  1.00  0.00     0.000 A 
ENDBRANCH  47  61
BRANCH  48  67
ATOM     67  C   UNL A   1      42.130  23.651  27.714  1.00  0.00    -0.014 A 
ATOM     68  C   UNL A   1      41.561  22.551  28.376  1.00  0.00     0.009 A 
ATOM     69  C   UNL A   1      42.558  23.493  26.386  1.00  0.00     0.009 A 
ATOM     70  C   UNL A   1      41.452  21.316  27.733  1.00  0.00     0.001 A 
ATOM     71  C   UNL A   1      42.418  22.266  25.736  1.00  0.00     0.001 A 
ATOM     72  C   UNL A   1      41.875  21.175  26.413  1.00  0.00     0.000 A 
ENDBRANCH  48  67
BRANCH  60  73
ATOM     73  C   UNL A   1      47.144  26.450  31.659  1.00  0.00    -0.014 A 
ATOM     74  C   UNL A   1      47.227  25.772  32.885  1.00  0.00     0.009 A 
ATOM     75  C   UNL A   1      48.306  26.598  30.885  1.00  0.00     0.009 A 
ATOM     76  C   UNL A   1      48.455  25.293  33.345  1.00  0.00     0.001 A 
ATOM     77  C   UNL A   1      49.525  26.087  31.330  1.00  0.00     0.001 A 
ATOM     78  C   UNL A   1      49.601  25.447  32.565  1.00  0.00     0.000 A 
ENDBRANCH  60  73
ENDBRANCH  34  35
ENDBRANCH  26  29
ENDBRANCH  24  25
ENDBRANCH   1  24
TORSDOF 11
ENDMDL
