MODEL 1
REMARK VINA RESULT:      -9.8      0.000      0.000
REMARK SMILES C#CCN(CC(=O)NCCCNC(=O)c1ccc(-c2c3nc(c(-c4ccccc4)c4ccc([nH]4)c(-c4ccccc4)c4nc(c(-c5ccccc5)c5ccc2[nH]5)C=C4)C=C3)cc1)C(=O)NCCc1ccco1
REMARK SMILES IDX 6 1 7 2 8 3 5 5 4 6 3 7 2 8 1 9 63 10 64 11 65 12 66 14
REMARK SMILES IDX 67 15 68 16 69 17 72 18 70 19 71 20 9 21 10 22 11 23 12 24
REMARK SMILES IDX 13 25 14 27 15 28 16 29 62 30 17 31 61 32 18 33 19 34 20 35
REMARK SMILES IDX 55 36 21 37 60 38 54 39 56 40 22 41 59 42 53 43 52 44 23 46
REMARK SMILES IDX 45 47 30 48 44 49 31 50 34 51 43 52 57 53 32 54 33 55 42 57
REMARK SMILES IDX 58 58 35 59 24 60 25 61 29 62 26 63 28 64 27 65 46 66 47 67
REMARK SMILES IDX 51 68 48 69 50 70 49 71 36 72 37 73 41 74 38 75 40 76 39 77
REMARK H PARENT 8 4 65 13 12 26 56 45 34 56
REMARK Flexibility Score: inf
ROOT
ATOM      1  C   UNL A   1      34.734  22.246  26.540  1.00  0.00     0.239 C 
ATOM      2  O   UNL A   1      34.027  22.095  27.541  1.00  0.00    -0.273 OA
ATOM      3  N   UNL A   1      35.433  21.159  26.107  1.00  0.00    -0.354 N 
ATOM      4  H   UNL A   1      35.526  20.434  26.767  1.00  0.00     0.163 HD
ENDROOT
BRANCH   1   5
ATOM      5  C   UNL A   1      34.700  23.566  25.751  1.00  0.00     0.222 C 
BRANCH   5   6
ATOM      6  N   UNL A   1      33.735  23.603  24.656  1.00  0.00    -0.304 N 
BRANCH   6   7
ATOM      7  C   UNL A   1      34.240  24.083  23.375  1.00  0.00     0.211 C 
BRANCH   7   8
ATOM      8  C   UNL A   1      33.720  25.461  22.999  1.00  0.00    -0.085 C 
ATOM      9  C   UNL A   1      33.273  26.643  22.676  1.00  0.00     0.006 C 
ENDBRANCH   7   8
ENDBRANCH   6   7
BRANCH   6  10
ATOM     10  C   UNL A   1      32.418  23.242  24.692  1.00  0.00     0.318 C 
ATOM     11  O   UNL A   1      31.556  24.016  25.124  1.00  0.00    -0.249 OA
ATOM     12  N   UNL A   1      31.951  22.048  24.299  1.00  0.00    -0.337 N 
ATOM     13  H   UNL A   1      30.980  21.988  24.453  1.00  0.00     0.165 HD
BRANCH  12  14
ATOM     14  C   UNL A   1      32.457  20.815  23.711  1.00  0.00     0.125 C 
BRANCH  14  15
ATOM     15  C   UNL A   1      32.454  19.659  24.717  1.00  0.00     0.096 C 
BRANCH  15  16
ATOM     16  C   UNL A   1      33.147  18.458  24.178  1.00  0.00     0.105 A 
ATOM     17  C   UNL A   1      33.009  17.747  23.003  1.00  0.00     0.045 A 
ATOM     18  O   UNL A   1      34.127  17.908  24.947  1.00  0.00    -0.469 OA
ATOM     19  C   UNL A   1      33.960  16.701  23.059  1.00  0.00     0.042 A 
ATOM     20  C   UNL A   1      34.617  16.845  24.258  1.00  0.00     0.195 A 
ENDBRANCH  15  16
ENDBRANCH  14  15
ENDBRANCH  12  14
ENDBRANCH   6  10
ENDBRANCH   5   6
ENDBRANCH   1   5
BRANCH   3  21
ATOM     21  C   UNL A   1      36.059  20.906  24.825  1.00  0.00     0.117 C 
BRANCH  21  22
ATOM     22  C   UNL A   1      37.245  19.951  24.901  1.00  0.00     0.042 C 
BRANCH  22  23
ATOM     23  C   UNL A   1      38.521  20.560  25.474  1.00  0.00     0.118 C 
BRANCH  23  24
ATOM     24  N   UNL A   1      39.593  19.585  25.633  1.00  0.00    -0.352 N 
ATOM     25  C   UNL A   1      40.897  19.732  26.020  1.00  0.00     0.251 C 
ATOM     26  H   UNL A   1      39.333  18.658  25.425  1.00  0.00     0.163 HD
ATOM     27  O   UNL A   1      41.673  18.780  25.879  1.00  0.00    -0.269 OA
BRANCH  25  28
ATOM     28  C   UNL A   1      41.405  20.999  26.587  1.00  0.00     0.039 A 
ATOM     29  C   UNL A   1      41.941  21.956  25.719  1.00  0.00     0.014 A 
ATOM     30  C   UNL A   1      41.415  21.231  27.965  1.00  0.00     0.014 A 
ATOM     31  C   UNL A   1      42.419  23.169  26.221  1.00  0.00     0.010 A 
ATOM     32  C   UNL A   1      41.828  22.468  28.460  1.00  0.00     0.010 A 
ATOM     33  C   UNL A   1      42.330  23.450  27.593  1.00  0.00    -0.014 A 
BRANCH  33  34
ATOM     34  C   UNL A   1      42.722  24.776  28.134  1.00  0.00     0.031 A 
ATOM     35  C   UNL A   1      41.690  25.842  28.377  1.00  0.00     0.074 A 
ATOM     36  C   UNL A   1      44.026  25.048  28.331  1.00  0.00     0.049 A 
ATOM     37  N   UNL A   1      41.858  27.080  28.767  1.00  0.00    -0.248 NA
ATOM     38  C   UNL A   1      40.287  25.474  28.131  1.00  0.00     0.031 C 
ATOM     39  C   UNL A   1      45.131  24.116  28.097  1.00  0.00     0.029 A 
ATOM     40  N   UNL A   1      44.645  26.195  28.761  1.00  0.00    -0.354 N 
ATOM     41  C   UNL A   1      40.590  27.645  28.792  1.00  0.00     0.074 A 
ATOM     42  C   UNL A   1      39.665  26.626  28.346  1.00  0.00     0.031 C 
ATOM     43  C   UNL A   1      46.289  24.721  28.402  1.00  0.00     0.029 A 
ATOM     44  C   UNL A   1      46.014  26.094  28.811  1.00  0.00     0.049 A 
ATOM     45  H   UNL A   1      44.156  27.012  29.011  1.00  0.00     0.167 HD
ATOM     46  C   UNL A   1      40.226  28.896  29.165  1.00  0.00     0.031 A 
ATOM     47  C   UNL A   1      46.949  27.007  29.135  1.00  0.00     0.031 A 
ATOM     48  C   UNL A   1      41.144  29.909  29.617  1.00  0.00     0.049 A 
ATOM     49  C   UNL A   1      46.520  28.392  29.529  1.00  0.00     0.074 A 
ATOM     50  C   UNL A   1      40.862  31.184  30.078  1.00  0.00     0.029 A 
ATOM     51  N   UNL A   1      42.521  29.766  29.657  1.00  0.00    -0.354 N 
ATOM     52  N   UNL A   1      45.310  28.889  29.613  1.00  0.00    -0.248 NA
ATOM     53  C   UNL A   1      47.589  29.339  29.877  1.00  0.00     0.031 C 
ATOM     54  C   UNL A   1      42.073  31.829  30.350  1.00  0.00     0.029 A 
ATOM     55  C   UNL A   1      43.105  30.938  30.108  1.00  0.00     0.049 A 
ATOM     56  H   UNL A   1      43.012  28.950  29.403  1.00  0.00     0.167 HD
ATOM     57  C   UNL A   1      45.469  30.199  30.041  1.00  0.00     0.074 A 
ATOM     58  C   UNL A   1      46.892  30.415  30.217  1.00  0.00     0.031 C 
ATOM     59  C   UNL A   1      44.521  31.141  30.268  1.00  0.00     0.031 A 
BRANCH  46  60
ATOM     60  C   UNL A   1      38.765  29.244  29.088  1.00  0.00    -0.014 A 
ATOM     61  C   UNL A   1      37.915  29.064  30.189  1.00  0.00     0.009 A 
ATOM     62  C   UNL A   1      38.241  29.793  27.907  1.00  0.00     0.009 A 
ATOM     63  C   UNL A   1      36.561  29.394  30.100  1.00  0.00     0.001 A 
ATOM     64  C   UNL A   1      36.892  30.148  27.829  1.00  0.00     0.001 A 
ATOM     65  C   UNL A   1      36.051  29.938  28.921  1.00  0.00     0.000 A 
ENDBRANCH  46  60
BRANCH  47  66
ATOM     66  C   UNL A   1      48.387  26.637  29.105  1.00  0.00    -0.014 A 
ATOM     67  C   UNL A   1      49.002  26.087  30.238  1.00  0.00     0.009 A 
ATOM     68  C   UNL A   1      49.148  26.827  27.940  1.00  0.00     0.009 A 
ATOM     69  C   UNL A   1      50.357  25.752  30.214  1.00  0.00     0.001 A 
ATOM     70  C   UNL A   1      50.496  26.465  27.911  1.00  0.00     0.001 A 
ATOM     71  C   UNL A   1      51.102  25.936  29.050  1.00  0.00     0.000 A 
ENDBRANCH  47  66
BRANCH  59  72
ATOM     72  C   UNL A   1      44.994  32.483  30.750  1.00  0.00    -0.014 A 
ATOM     73  C   UNL A   1      45.159  32.744  32.119  1.00  0.00     0.009 A 
ATOM     74  C   UNL A   1      45.309  33.486  29.821  1.00  0.00     0.009 A 
ATOM     75  C   UNL A   1      45.600  33.999  32.548  1.00  0.00     0.001 A 
ATOM     76  C   UNL A   1      45.774  34.729  30.253  1.00  0.00     0.001 A 
ATOM     77  C   UNL A   1      45.910  34.986  31.616  1.00  0.00     0.000 A 
ENDBRANCH  59  72
ENDBRANCH  33  34
ENDBRANCH  25  28
ENDBRANCH  23  24
ENDBRANCH  22  23
ENDBRANCH  21  22
ENDBRANCH   3  21
TORSDOF 17
ENDMDL
MODEL 2
REMARK VINA RESULT:      -9.7      0.953      6.150
REMARK SMILES C#CCN(CC(=O)NCCCNC(=O)c1ccc(-c2c3nc(c(-c4ccccc4)c4ccc([nH]4)c(-c4ccccc4)c4nc(c(-c5ccccc5)c5ccc2[nH]5)C=C4)C=C3)cc1)C(=O)NCCc1ccco1
REMARK SMILES IDX 6 1 7 2 8 3 5 5 4 6 3 7 2 8 1 9 63 10 64 11 65 12 66 14
REMARK SMILES IDX 67 15 68 16 69 17 72 18 70 19 71 20 9 21 10 22 11 23 12 24
REMARK SMILES IDX 13 25 14 27 15 28 16 29 62 30 17 31 61 32 18 33 19 34 20 35
REMARK SMILES IDX 55 36 21 37 60 38 54 39 56 40 22 41 59 42 53 43 52 44 23 46
REMARK SMILES IDX 45 47 30 48 44 49 31 50 34 51 43 52 57 53 32 54 33 55 42 57
REMARK SMILES IDX 58 58 35 59 24 60 25 61 29 62 26 63 28 64 27 65 46 66 47 67
REMARK SMILES IDX 51 68 48 69 50 70 49 71 36 72 37 73 41 74 38 75 40 76 39 77
REMARK H PARENT 8 4 65 13 12 26 56 45 34 56
REMARK Flexibility Score: inf
ROOT
ATOM      1  C   UNL A   1      35.291  22.445  26.102  1.00  0.00     0.239 C 
ATOM      2  O   UNL A   1      34.727  22.682  27.175  1.00  0.00    -0.273 OA
ATOM      3  N   UNL A   1      35.809  21.195  25.938  1.00  0.00    -0.354 N 
ATOM      4  H   UNL A   1      35.928  20.682  26.770  1.00  0.00     0.163 HD
ENDROOT
BRANCH   1   5
ATOM      5  C   UNL A   1      35.269  23.479  24.963  1.00  0.00     0.222 C 
BRANCH   5   6
ATOM      6  N   UNL A   1      33.987  23.614  24.279  1.00  0.00    -0.304 N 
BRANCH   6   7
ATOM      7  C   UNL A   1      33.053  24.574  24.857  1.00  0.00     0.211 C 
BRANCH   7   8
ATOM      8  C   UNL A   1      31.866  23.921  25.546  1.00  0.00    -0.085 C 
ATOM      9  C   UNL A   1      30.847  23.361  26.136  1.00  0.00     0.006 C 
ENDBRANCH   7   8
ENDBRANCH   6   7
BRANCH   6  10
ATOM     10  C   UNL A   1      33.561  22.950  23.164  1.00  0.00     0.318 C 
ATOM     11  O   UNL A   1      33.678  23.450  22.040  1.00  0.00    -0.249 OA
ATOM     12  N   UNL A   1      32.977  21.743  23.180  1.00  0.00    -0.337 N 
ATOM     13  H   UNL A   1      32.711  21.474  22.271  1.00  0.00     0.165 HD
BRANCH  12  14
ATOM     14  C   UNL A   1      32.618  20.714  24.148  1.00  0.00     0.125 C 
BRANCH  14  15
ATOM     15  C   UNL A   1      32.176  19.416  23.464  1.00  0.00     0.096 C 
BRANCH  15  16
ATOM     16  C   UNL A   1      32.810  18.223  24.086  1.00  0.00     0.105 A 
ATOM     17  C   UNL A   1      34.033  17.611  23.902  1.00  0.00     0.045 A 
ATOM     18  O   UNL A   1      32.094  17.563  25.038  1.00  0.00    -0.469 OA
ATOM     19  C   UNL A   1      34.066  16.513  24.793  1.00  0.00     0.042 A 
ATOM     20  C   UNL A   1      32.866  16.529  25.464  1.00  0.00     0.195 A 
ENDBRANCH  15  16
ENDBRANCH  14  15
ENDBRANCH  12  14
ENDBRANCH   6  10
ENDBRANCH   5   6
ENDBRANCH   1   5
BRANCH   3  21
ATOM     21  C   UNL A   1      36.212  20.507  24.729  1.00  0.00     0.117 C 
BRANCH  21  22
ATOM     22  C   UNL A   1      37.427  19.605  24.914  1.00  0.00     0.042 C 
BRANCH  22  23
ATOM     23  C   UNL A   1      38.608  20.260  25.625  1.00  0.00     0.118 C 
BRANCH  23  24
ATOM     24  N   UNL A   1      39.755  19.369  25.757  1.00  0.00    -0.352 N 
ATOM     25  C   UNL A   1      41.059  19.620  26.088  1.00  0.00     0.251 C 
ATOM     26  H   UNL A   1      39.557  18.422  25.574  1.00  0.00     0.163 HD
ATOM     27  O   UNL A   1      41.897  18.725  25.931  1.00  0.00    -0.269 OA
BRANCH  25  28
ATOM     28  C   UNL A   1      41.492  20.931  26.614  1.00  0.00     0.039 A 
ATOM     29  C   UNL A   1      42.013  21.874  25.720  1.00  0.00     0.014 A 
ATOM     30  C   UNL A   1      41.448  21.223  27.980  1.00  0.00     0.014 A 
ATOM     31  C   UNL A   1      42.421  23.128  26.182  1.00  0.00     0.010 A 
ATOM     32  C   UNL A   1      41.792  22.497  28.431  1.00  0.00     0.010 A 
ATOM     33  C   UNL A   1      42.276  23.463  27.538  1.00  0.00    -0.014 A 
BRANCH  33  34
ATOM     34  C   UNL A   1      42.592  24.827  28.031  1.00  0.00     0.031 A 
ATOM     35  C   UNL A   1      43.986  25.182  28.468  1.00  0.00     0.074 A 
ATOM     36  C   UNL A   1      41.598  25.727  28.160  1.00  0.00     0.049 A 
ATOM     37  N   UNL A   1      44.425  26.295  29.000  1.00  0.00    -0.248 NA
ATOM     38  C   UNL A   1      45.016  24.145  28.305  1.00  0.00     0.031 C 
ATOM     39  C   UNL A   1      40.195  25.497  27.809  1.00  0.00     0.029 A 
ATOM     40  N   UNL A   1      41.615  27.015  28.636  1.00  0.00    -0.354 N 
ATOM     41  C   UNL A   1      45.774  26.086  29.256  1.00  0.00     0.074 A 
ATOM     42  C   UNL A   1      46.075  24.729  28.852  1.00  0.00     0.031 C 
ATOM     43  C   UNL A   1      39.490  26.610  28.065  1.00  0.00     0.029 A 
ATOM     44  C   UNL A   1      40.379  27.615  28.637  1.00  0.00     0.049 A 
ATOM     45  H   UNL A   1      42.433  27.465  28.947  1.00  0.00     0.167 HD
ATOM     46  C   UNL A   1      46.684  26.948  29.768  1.00  0.00     0.031 A 
ATOM     47  C   UNL A   1      39.998  28.834  29.064  1.00  0.00     0.031 A 
ATOM     48  C   UNL A   1      46.390  28.301  30.163  1.00  0.00     0.049 A 
ATOM     49  C   UNL A   1      41.023  29.766  29.643  1.00  0.00     0.074 A 
ATOM     50  C   UNL A   1      47.260  29.271  30.632  1.00  0.00     0.029 A 
ATOM     51  N   UNL A   1      45.127  28.872  30.143  1.00  0.00    -0.354 N 
ATOM     52  N   UNL A   1      42.309  29.575  29.814  1.00  0.00    -0.248 NA
ATOM     53  C   UNL A   1      40.543  31.082  30.084  1.00  0.00     0.031 C 
ATOM     54  C   UNL A   1      46.515  30.414  30.942  1.00  0.00     0.029 A 
ATOM     55  C   UNL A   1      45.190  30.172  30.618  1.00  0.00     0.049 A 
ATOM     56  H   UNL A   1      44.308  28.421  29.837  1.00  0.00     0.167 HD
ATOM     57  C   UNL A   1      42.795  30.753  30.364  1.00  0.00     0.074 A 
ATOM     58  C   UNL A   1      41.669  31.659  30.481  1.00  0.00     0.031 C 
ATOM     59  C   UNL A   1      44.061  31.057  30.739  1.00  0.00     0.031 A 
BRANCH  46  60
ATOM     60  C   UNL A   1      48.091  26.448  29.943  1.00  0.00    -0.014 A 
ATOM     61  C   UNL A   1      48.496  25.813  31.127  1.00  0.00     0.009 A 
ATOM     62  C   UNL A   1      49.015  26.580  28.894  1.00  0.00     0.009 A 
ATOM     63  C   UNL A   1      49.806  25.353  31.272  1.00  0.00     0.001 A 
ATOM     64  C   UNL A   1      50.317  26.095  29.031  1.00  0.00     0.001 A 
ATOM     65  C   UNL A   1      50.715  25.491  30.223  1.00  0.00     0.000 A 
ENDBRANCH  46  60
BRANCH  47  66
ATOM     66  C   UNL A   1      38.574  29.244  28.954  1.00  0.00    -0.014 A 
ATOM     67  C   UNL A   1      38.080  29.773  27.753  1.00  0.00     0.009 A 
ATOM     68  C   UNL A   1      37.704  29.102  30.046  1.00  0.00     0.009 A 
ATOM     69  C   UNL A   1      36.745  30.172  27.654  1.00  0.00     0.001 A 
ATOM     70  C   UNL A   1      36.364  29.477  29.934  1.00  0.00     0.001 A 
ATOM     71  C   UNL A   1      35.887  30.019  28.741  1.00  0.00     0.000 A 
ENDBRANCH  47  66
BRANCH  59  72
ATOM     72  C   UNL A   1      44.297  32.433  31.293  1.00  0.00    -0.014 A 
ATOM     73  C   UNL A   1      44.600  33.512  30.448  1.00  0.00     0.009 A 
ATOM     74  C   UNL A   1      44.182  32.659  32.673  1.00  0.00     0.009 A 
ATOM     75  C   UNL A   1      44.816  34.785  30.982  1.00  0.00     0.001 A 
ATOM     76  C   UNL A   1      44.373  33.937  33.199  1.00  0.00     0.001 A 
ATOM     77  C   UNL A   1      44.698  34.997  32.354  1.00  0.00     0.000 A 
ENDBRANCH  59  72
ENDBRANCH  33  34
ENDBRANCH  25  28
ENDBRANCH  23  24
ENDBRANCH  22  23
ENDBRANCH  21  22
ENDBRANCH   3  21
TORSDOF 17
ENDMDL
MODEL 3
REMARK VINA RESULT:      -9.5      4.062      9.237
REMARK SMILES C#CCN(CC(=O)NCCCNC(=O)c1ccc(-c2c3nc(c(-c4ccccc4)c4ccc([nH]4)c(-c4ccccc4)c4nc(c(-c5ccccc5)c5ccc2[nH]5)C=C4)C=C3)cc1)C(=O)NCCc1ccco1
REMARK SMILES IDX 6 1 7 2 8 3 5 5 4 6 3 7 2 8 1 9 63 10 64 11 65 12 66 14
REMARK SMILES IDX 67 15 68 16 69 17 72 18 70 19 71 20 9 21 10 22 11 23 12 24
REMARK SMILES IDX 13 25 14 27 15 28 16 29 62 30 17 31 61 32 18 33 19 34 20 35
REMARK SMILES IDX 55 36 21 37 60 38 54 39 56 40 22 41 59 42 53 43 52 44 23 46
REMARK SMILES IDX 45 47 30 48 44 49 31 50 34 51 43 52 57 53 32 54 33 55 42 57
REMARK SMILES IDX 58 58 35 59 24 60 25 61 29 62 26 63 28 64 27 65 46 66 47 67
REMARK SMILES IDX 51 68 48 69 50 70 49 71 36 72 37 73 41 74 38 75 40 76 39 77
REMARK H PARENT 8 4 65 13 12 26 56 45 34 56
REMARK Flexibility Score: inf
ROOT
ATOM      1  C   UNL A   1      33.180  28.333  25.677  1.00  0.00     0.239 C 
ATOM      2  O   UNL A   1      33.980  27.894  26.509  1.00  0.00    -0.273 OA
ATOM      3  N   UNL A   1      32.250  29.225  26.123  1.00  0.00    -0.354 N 
ATOM      4  H   UNL A   1      32.123  29.240  27.099  1.00  0.00     0.163 HD
ENDROOT
BRANCH   1   5
ATOM      5  C   UNL A   1      33.335  27.988  24.186  1.00  0.00     0.222 C 
BRANCH   5   6
ATOM      6  N   UNL A   1      32.507  26.878  23.723  1.00  0.00    -0.304 N 
BRANCH   6   7
ATOM      7  C   UNL A   1      32.628  25.634  24.473  1.00  0.00     0.211 C 
BRANCH   7   8
ATOM      8  C   UNL A   1      33.681  24.691  23.912  1.00  0.00    -0.085 C 
ATOM      9  C   UNL A   1      34.584  23.883  23.431  1.00  0.00     0.006 C 
ENDBRANCH   7   8
ENDBRANCH   6   7
BRANCH   6  10
ATOM     10  C   UNL A   1      31.634  26.871  22.672  1.00  0.00     0.318 C 
ATOM     11  O   UNL A   1      32.013  26.586  21.530  1.00  0.00    -0.249 OA
ATOM     12  N   UNL A   1      30.333  27.182  22.766  1.00  0.00    -0.337 N 
ATOM     13  H   UNL A   1      29.904  27.154  21.881  1.00  0.00     0.165 HD
BRANCH  12  14
ATOM     14  C   UNL A   1      29.369  27.550  23.795  1.00  0.00     0.125 C 
BRANCH  14  15
ATOM     15  C   UNL A   1      28.047  28.035  23.191  1.00  0.00     0.096 C 
BRANCH  15  16
ATOM     16  C   UNL A   1      28.135  29.449  22.737  1.00  0.00     0.105 A 
ATOM     17  C   UNL A   1      27.716  30.639  23.295  1.00  0.00     0.045 A 
ATOM     18  O   UNL A   1      28.746  29.681  21.542  1.00  0.00    -0.469 OA
ATOM     19  C   UNL A   1      28.092  31.657  22.388  1.00  0.00     0.042 A 
ATOM     20  C   UNL A   1      28.719  31.025  21.341  1.00  0.00     0.195 A 
ENDBRANCH  15  16
ENDBRANCH  14  15
ENDBRANCH  12  14
ENDBRANCH   6  10
ENDBRANCH   5   6
ENDBRANCH   1   5
BRANCH   3  21
ATOM     21  C   UNL A   1      31.421  30.152  25.380  1.00  0.00     0.117 C 
BRANCH  21  22
ATOM     22  C   UNL A   1      31.220  31.491  26.083  1.00  0.00     0.042 C 
BRANCH  22  23
ATOM     23  C   UNL A   1      32.371  31.915  26.991  1.00  0.00     0.118 C 
BRANCH  23  24
ATOM     24  N   UNL A   1      32.280  33.311  27.404  1.00  0.00    -0.352 N 
ATOM     25  C   UNL A   1      33.070  34.059  28.234  1.00  0.00     0.251 C 
ATOM     26  H   UNL A   1      31.516  33.799  27.021  1.00  0.00     0.163 HD
ATOM     27  O   UNL A   1      32.671  35.171  28.596  1.00  0.00    -0.269 OA
BRANCH  25  28
ATOM     28  C   UNL A   1      34.379  33.569  28.717  1.00  0.00     0.039 A 
ATOM     29  C   UNL A   1      34.434  32.908  29.949  1.00  0.00     0.014 A 
ATOM     30  C   UNL A   1      35.557  33.804  28.003  1.00  0.00     0.014 A 
ATOM     31  C   UNL A   1      35.653  32.422  30.429  1.00  0.00     0.010 A 
ATOM     32  C   UNL A   1      36.762  33.260  28.449  1.00  0.00     0.010 A 
ATOM     33  C   UNL A   1      36.821  32.561  29.663  1.00  0.00    -0.014 A 
BRANCH  33  34
ATOM     34  C   UNL A   1      38.103  31.950  30.097  1.00  0.00     0.031 A 
ATOM     35  C   UNL A   1      39.036  32.692  31.012  1.00  0.00     0.074 A 
ATOM     36  C   UNL A   1      38.464  30.752  29.598  1.00  0.00     0.049 A 
ATOM     37  N   UNL A   1      40.229  32.350  31.428  1.00  0.00    -0.248 NA
ATOM     38  C   UNL A   1      38.577  33.999  31.509  1.00  0.00     0.031 C 
ATOM     39  C   UNL A   1      37.668  29.945  28.670  1.00  0.00     0.029 A 
ATOM     40  N   UNL A   1      39.602  30.010  29.791  1.00  0.00    -0.354 N 
ATOM     41  C   UNL A   1      40.673  33.404  32.216  1.00  0.00     0.074 A 
ATOM     42  C   UNL A   1      39.636  34.414  32.193  1.00  0.00     0.031 C 
ATOM     43  C   UNL A   1      38.334  28.814  28.390  1.00  0.00     0.029 A 
ATOM     44  C   UNL A   1      39.618  28.834  29.080  1.00  0.00     0.049 A 
ATOM     45  H   UNL A   1      40.337  30.292  30.382  1.00  0.00     0.167 HD
ATOM     46  C   UNL A   1      41.833  33.518  32.906  1.00  0.00     0.031 A 
ATOM     47  C   UNL A   1      40.566  27.884  28.981  1.00  0.00     0.031 A 
ATOM     48  C   UNL A   1      42.863  32.513  32.937  1.00  0.00     0.049 A 
ATOM     49  C   UNL A   1      41.851  28.041  29.743  1.00  0.00     0.074 A 
ATOM     50  C   UNL A   1      44.044  32.510  33.659  1.00  0.00     0.029 A 
ATOM     51  N   UNL A   1      42.838  31.335  32.207  1.00  0.00    -0.354 N 
ATOM     52  N   UNL A   1      42.224  29.014  30.538  1.00  0.00    -0.248 NA
ATOM     53  C   UNL A   1      42.840  26.965  29.597  1.00  0.00     0.031 C 
ATOM     54  C   UNL A   1      44.757  31.352  33.329  1.00  0.00     0.029 A 
ATOM     55  C   UNL A   1      43.996  30.611  32.440  1.00  0.00     0.049 A 
ATOM     56  H   UNL A   1      42.106  31.055  31.611  1.00  0.00     0.167 HD
ATOM     57  C   UNL A   1      43.483  28.660  31.002  1.00  0.00     0.074 A 
ATOM     58  C   UNL A   1      43.802  27.374  30.414  1.00  0.00     0.031 C 
ATOM     59  C   UNL A   1      44.304  29.339  31.840  1.00  0.00     0.031 A 
BRANCH  46  60
ATOM     60  C   UNL A   1      42.056  34.788  33.680  1.00  0.00    -0.014 A 
ATOM     61  C   UNL A   1      41.583  34.932  34.993  1.00  0.00     0.009 A 
ATOM     62  C   UNL A   1      42.781  35.840  33.100  1.00  0.00     0.009 A 
ATOM     63  C   UNL A   1      41.801  36.118  35.698  1.00  0.00     0.001 A 
ATOM     64  C   UNL A   1      43.022  37.015  33.816  1.00  0.00     0.001 A 
ATOM     65  C   UNL A   1      42.523  37.157  35.110  1.00  0.00     0.000 A 
ENDBRANCH  46  60
BRANCH  47  66
ATOM     66  C   UNL A   1      40.331  26.692  28.126  1.00  0.00    -0.014 A 
ATOM     67  C   UNL A   1      40.818  26.655  26.812  1.00  0.00     0.009 A 
ATOM     68  C   UNL A   1      39.626  25.585  28.623  1.00  0.00     0.009 A 
ATOM     69  C   UNL A   1      40.585  25.540  26.003  1.00  0.00     0.001 A 
ATOM     70  C   UNL A   1      39.418  24.461  27.821  1.00  0.00     0.001 A 
ATOM     71  C   UNL A   1      39.891  24.442  26.510  1.00  0.00     0.000 A 
ENDBRANCH  47  66
BRANCH  59  72
ATOM     72  C   UNL A   1      45.615  28.694  32.184  1.00  0.00    -0.014 A 
ATOM     73  C   UNL A   1      45.721  27.793  33.255  1.00  0.00     0.009 A 
ATOM     74  C   UNL A   1      46.752  28.965  31.406  1.00  0.00     0.009 A 
ATOM     75  C   UNL A   1      46.949  27.201  33.559  1.00  0.00     0.001 A 
ATOM     76  C   UNL A   1      47.971  28.352  31.698  1.00  0.00     0.001 A 
ATOM     77  C   UNL A   1      48.070  27.478  32.779  1.00  0.00     0.000 A 
ENDBRANCH  59  72
ENDBRANCH  33  34
ENDBRANCH  25  28
ENDBRANCH  23  24
ENDBRANCH  22  23
ENDBRANCH  21  22
ENDBRANCH   3  21
TORSDOF 17
ENDMDL
