MODEL 1
REMARK VINA RESULT:     -11.8      0.000      0.000
REMARK SMILES N#CCOc1ccc2[nH]cc([C@H](C(=O)NCCCNC(=O)c3ccc(-c4c5nc(c(-c6ccccc6)c6ccc([nH]6)c(-c6ccccc6)c6nc(c(-c7ccccc7)c7ccc4[nH]7)C=C6)C=C5)cc3)[NH+]3CC[NH+]([C@@H]4CCS(=O)(=O)C4)CC3)c2c1
REMARK SMILES IDX 16 1 15 2 13 3 14 4 12 6 11 7 5 8 6 9 84 10 7 11 83 12 8 13
REMARK SMILES IDX 9 14 10 15 4 17 3 18 2 19 1 20 70 21 71 22 82 23 72 25 81 26
REMARK SMILES IDX 73 27 74 29 75 30 80 31 76 32 77 33 78 34 79 35 17 36 18 37
REMARK SMILES IDX 19 38 20 39 21 41 22 42 23 43 69 44 24 45 68 46 25 47 26 48
REMARK SMILES IDX 27 49 62 50 28 51 67 52 61 53 63 54 29 55 66 56 60 57 59 58
REMARK SMILES IDX 30 60 52 61 37 62 51 63 38 64 41 65 50 66 64 67 39 68 40 69
REMARK SMILES IDX 49 71 65 72 42 73 31 74 32 75 36 76 33 77 35 78 34 79 53 80
REMARK SMILES IDX 54 81 58 82 55 83 57 84 56 85 43 86 44 87 48 88 45 89 47 90
REMARK SMILES IDX 46 91
REMARK H PARENT 15 5 9 16 70 24 73 28 19 40 63 59 41 70
REMARK Flexibility Score: inf
ROOT
ATOM      1  C   UNL A   1      33.339  29.366  24.818  1.00  0.00     0.118 C 
ENDROOT
BRANCH   1   2
ATOM      2  N   UNL A   1      33.104  28.782  23.508  1.00  0.00    -0.351 N 
ATOM      3  C   UNL A   1      32.584  27.579  23.115  1.00  0.00     0.283 C 
ATOM      4  O   UNL A   1      32.907  27.240  21.972  1.00  0.00    -0.268 OA
ATOM      5  H   UNL A   1      33.369  29.365  22.759  1.00  0.00     0.163 HD
BRANCH   3   6
ATOM      6  C   UNL A   1      31.768  26.693  24.084  1.00  0.00     0.308 C 
BRANCH   6   7
ATOM      7  C   UNL A   1      30.264  26.884  24.093  1.00  0.00     0.045 A 
ATOM      8  C   UNL A   1      28.856  30.303  23.136  1.00  0.00     0.121 A 
ATOM      9  C   UNL A   1      27.610  29.800  22.760  1.00  0.00     0.048 A 
ATOM     10  C   UNL A   1      29.786  29.435  23.686  1.00  0.00     0.057 A 
ATOM     11  C   UNL A   1      27.211  28.495  23.070  1.00  0.00     0.030 A 
ATOM     12  C   UNL A   1      29.489  28.066  23.848  1.00  0.00     0.013 A 
ATOM     13  C   UNL A   1      28.182  27.648  23.600  1.00  0.00     0.046 A 
ATOM     14  N   UNL A   1      28.106  26.314  23.906  1.00  0.00    -0.361 N 
ATOM     15  C   UNL A   1      29.354  25.836  24.182  1.00  0.00     0.094 A 
ATOM     16  H   UNL A   1      27.278  25.781  23.923  1.00  0.00     0.166 HD
BRANCH   8  17
ATOM     17  O   UNL A   1      29.336  31.565  22.849  1.00  0.00    -0.479 OA
BRANCH  17  18
ATOM     18  C   UNL A   1      28.333  32.568  22.562  1.00  0.00     0.349 C 
BRANCH  18  19
ATOM     19  C   UNL A   1      27.944  32.417  21.100  1.00  0.00     0.104 C 
ATOM     20  N   UNL A   1      27.621  32.292  19.888  1.00  0.00    -0.195 NA
ENDBRANCH  18  19
ENDBRANCH  17  18
ENDBRANCH   8  17
ENDBRANCH   6   7
BRANCH   6  21
ATOM     21  N   UNL A   1      32.049  25.240  23.933  1.00  0.00    -0.312 N 
ATOM     22  C   UNL A   1      32.594  24.740  22.657  1.00  0.00     0.325 C 
ATOM     23  C   UNL A   1      32.778  24.689  25.061  1.00  0.00     0.325 C 
ATOM     24  H   UNL A   1      31.095  24.881  23.912  1.00  0.00     0.349 HD
ATOM     25  C   UNL A   1      34.126  24.489  22.542  1.00  0.00     0.324 C 
ATOM     26  C   UNL A   1      34.311  24.760  24.924  1.00  0.00     0.324 C 
ATOM     27  N   UNL A   1      34.835  24.059  23.763  1.00  0.00    -0.322 N 
ATOM     28  H   UNL A   1      35.803  24.366  23.673  1.00  0.00     0.348 HD
BRANCH  27  29
ATOM     29  C   UNL A   1      35.151  22.634  23.890  1.00  0.00     0.200 C 
ATOM     30  C   UNL A   1      34.728  21.876  25.159  1.00  0.00     0.082 C 
ATOM     31  C   UNL A   1      36.654  22.355  23.687  1.00  0.00     0.201 C 
ATOM     32  C   UNL A   1      35.842  21.933  26.199  1.00  0.00     0.143 C 
ATOM     33  S   UNL A   1      37.366  22.073  25.298  1.00  0.00     0.156 S 
ATOM     34  O   UNL A   1      38.054  23.265  25.747  1.00  0.00    -0.229 OA
ATOM     35  O   UNL A   1      38.018  20.777  25.301  1.00  0.00    -0.229 OA
ENDBRANCH  27  29
ENDBRANCH   6  21
ENDBRANCH   3   6
ENDBRANCH   1   2
BRANCH   1  36
ATOM     36  C   UNL A   1      34.052  28.412  25.788  1.00  0.00     0.042 C 
BRANCH  36  37
ATOM     37  C   UNL A   1      33.713  28.590  27.267  1.00  0.00     0.118 C 
BRANCH  37  38
ATOM     38  N   UNL A   1      33.613  29.991  27.628  1.00  0.00    -0.352 N 
ATOM     39  C   UNL A   1      34.499  30.764  28.334  1.00  0.00     0.251 C 
ATOM     40  H   UNL A   1      32.797  30.450  27.324  1.00  0.00     0.163 HD
ATOM     41  O   UNL A   1      34.133  31.847  28.782  1.00  0.00    -0.269 OA
BRANCH  39  42
ATOM     42  C   UNL A   1      35.890  30.307  28.565  1.00  0.00     0.039 A 
ATOM     43  C   UNL A   1      36.813  30.417  27.521  1.00  0.00     0.014 A 
ATOM     44  C   UNL A   1      36.271  29.708  29.770  1.00  0.00     0.014 A 
ATOM     45  C   UNL A   1      38.120  29.954  27.692  1.00  0.00     0.010 A 
ATOM     46  C   UNL A   1      37.592  29.299  29.960  1.00  0.00     0.010 A 
ATOM     47  C   UNL A   1      38.528  29.404  28.919  1.00  0.00    -0.014 A 
BRANCH  47  48
ATOM     48  C   UNL A   1      39.918  28.915  29.115  1.00  0.00     0.031 A 
ATOM     49  C   UNL A   1      40.971  29.827  29.690  1.00  0.00     0.074 A 
ATOM     50  C   UNL A   1      40.249  27.660  28.751  1.00  0.00     0.049 A 
ATOM     51  N   UNL A   1      42.246  29.599  29.885  1.00  0.00    -0.248 NA
ATOM     52  C   UNL A   1      40.536  31.175  30.087  1.00  0.00     0.031 C 
ATOM     53  C   UNL A   1      39.333  26.676  28.173  1.00  0.00     0.029 A 
ATOM     54  N   UNL A   1      41.451  27.000  28.811  1.00  0.00    -0.354 N 
ATOM     55  C   UNL A   1      42.764  30.773  30.417  1.00  0.00     0.074 A 
ATOM     56  C   UNL A   1      41.678  31.727  30.472  1.00  0.00     0.031 C 
ATOM     57  C   UNL A   1      40.000  25.532  27.951  1.00  0.00     0.029 A 
ATOM     58  C   UNL A   1      41.399  25.714  28.326  1.00  0.00     0.049 A 
ATOM     59  H   UNL A   1      42.274  27.408  29.167  1.00  0.00     0.167 HD
ATOM     60  C   UNL A   1      44.026  31.031  30.840  1.00  0.00     0.031 A 
ATOM     61  C   UNL A   1      42.370  24.792  28.185  1.00  0.00     0.031 A 
ATOM     62  C   UNL A   1      45.111  30.088  30.786  1.00  0.00     0.049 A 
ATOM     63  C   UNL A   1      43.775  25.128  28.608  1.00  0.00     0.074 A 
ATOM     64  C   UNL A   1      46.418  30.253  31.213  1.00  0.00     0.029 A 
ATOM     65  N   UNL A   1      45.017  28.803  30.275  1.00  0.00    -0.354 N 
ATOM     66  N   UNL A   1      44.237  26.226  29.152  1.00  0.00    -0.248 NA
ATOM     67  C   UNL A   1      44.793  24.084  28.404  1.00  0.00     0.031 C 
ATOM     68  C   UNL A   1      47.127  29.085  30.915  1.00  0.00     0.029 A 
ATOM     69  C   UNL A   1      46.247  28.172  30.359  1.00  0.00     0.049 A 
ATOM     70  H   UNL A   1      44.198  28.399  29.906  1.00  0.00     0.167 HD
ATOM     71  C   UNL A   1      45.586  25.994  29.389  1.00  0.00     0.074 A 
ATOM     72  C   UNL A   1      45.866  24.645  28.944  1.00  0.00     0.031 C 
ATOM     73  C   UNL A   1      46.510  26.824  29.931  1.00  0.00     0.031 A 
BRANCH  60  74
ATOM     74  C   UNL A   1      44.305  32.399  31.400  1.00  0.00    -0.014 A 
ATOM     75  C   UNL A   1      44.719  33.451  30.566  1.00  0.00     0.009 A 
ATOM     76  C   UNL A   1      44.099  32.655  32.765  1.00  0.00     0.009 A 
ATOM     77  C   UNL A   1      44.949  34.723  31.095  1.00  0.00     0.001 A 
ATOM     78  C   UNL A   1      44.302  33.935  33.284  1.00  0.00     0.001 A 
ATOM     79  C   UNL A   1      44.734  34.966  32.451  1.00  0.00     0.000 A 
ENDBRANCH  60  74
BRANCH  61  80
ATOM     80  C   UNL A   1      42.060  23.453  27.616  1.00  0.00    -0.014 A 
ATOM     81  C   UNL A   1      42.231  23.204  26.246  1.00  0.00     0.009 A 
ATOM     82  C   UNL A   1      41.554  22.429  28.433  1.00  0.00     0.009 A 
ATOM     83  C   UNL A   1      41.866  21.972  25.698  1.00  0.00     0.001 A 
ATOM     84  C   UNL A   1      41.220  21.188  27.888  1.00  0.00     0.001 A 
ATOM     85  C   UNL A   1      41.363  20.965  26.520  1.00  0.00     0.000 A 
ENDBRANCH  61  80
BRANCH  73  86
ATOM     86  C   UNL A   1      47.897  26.279  30.131  1.00  0.00    -0.014 A 
ATOM     87  C   UNL A   1      48.298  25.720  31.354  1.00  0.00     0.009 A 
ATOM     88  C   UNL A   1      48.803  26.287  29.058  1.00  0.00     0.009 A 
ATOM     89  C   UNL A   1      49.589  25.210  31.507  1.00  0.00     0.001 A 
ATOM     90  C   UNL A   1      50.082  25.749  29.205  1.00  0.00     0.001 A 
ATOM     91  C   UNL A   1      50.478  25.220  30.431  1.00  0.00     0.000 A 
ENDBRANCH  73  86
ENDBRANCH  47  48
ENDBRANCH  39  42
ENDBRANCH  37  38
ENDBRANCH  36  37
ENDBRANCH   1  36
TORSDOF 16
ENDMDL
MODEL 2
REMARK VINA RESULT:     -11.7      2.389      5.803
REMARK SMILES N#CCOc1ccc2[nH]cc([C@H](C(=O)NCCCNC(=O)c3ccc(-c4c5nc(c(-c6ccccc6)c6ccc([nH]6)c(-c6ccccc6)c6nc(c(-c7ccccc7)c7ccc4[nH]7)C=C6)C=C5)cc3)[NH+]3CC[NH+]([C@@H]4CCS(=O)(=O)C4)CC3)c2c1
REMARK SMILES IDX 16 1 15 2 13 3 14 4 12 6 11 7 5 8 6 9 84 10 7 11 83 12 8 13
REMARK SMILES IDX 9 14 10 15 4 17 3 18 2 19 1 20 70 21 71 22 82 23 72 25 81 26
REMARK SMILES IDX 73 27 74 29 75 30 80 31 76 32 77 33 78 34 79 35 17 36 18 37
REMARK SMILES IDX 19 38 20 39 21 41 22 42 23 43 69 44 24 45 68 46 25 47 26 48
REMARK SMILES IDX 27 49 62 50 28 51 67 52 61 53 63 54 29 55 66 56 60 57 59 58
REMARK SMILES IDX 30 60 52 61 37 62 51 63 38 64 41 65 50 66 64 67 39 68 40 69
REMARK SMILES IDX 49 71 65 72 42 73 31 74 32 75 36 76 33 77 35 78 34 79 53 80
REMARK SMILES IDX 54 81 58 82 55 83 57 84 56 85 43 86 44 87 48 88 45 89 47 90
REMARK SMILES IDX 46 91
REMARK H PARENT 15 5 9 16 70 24 73 28 19 40 63 59 41 70
REMARK Flexibility Score: inf
ROOT
ATOM      1  C   UNL A   1      31.666  28.192  27.023  1.00  0.00     0.118 C 
ENDROOT
BRANCH   1   2
ATOM      2  N   UNL A   1      31.123  26.905  26.622  1.00  0.00    -0.351 N 
ATOM      3  C   UNL A   1      30.938  26.325  25.397  1.00  0.00     0.283 C 
ATOM      4  O   UNL A   1      30.088  25.429  25.387  1.00  0.00    -0.268 OA
ATOM      5  H   UNL A   1      30.833  26.343  27.377  1.00  0.00     0.163 HD
BRANCH   3   6
ATOM      6  C   UNL A   1      31.657  26.851  24.133  1.00  0.00     0.308 C 
BRANCH   6   7
ATOM      7  C   UNL A   1      32.641  25.915  23.460  1.00  0.00     0.045 A 
ATOM      8  C   UNL A   1      34.608  23.467  25.634  1.00  0.00     0.121 A 
ATOM      9  C   UNL A   1      34.844  22.570  24.591  1.00  0.00     0.048 A 
ATOM     10  C   UNL A   1      33.967  24.663  25.351  1.00  0.00     0.057 A 
ATOM     11  C   UNL A   1      34.606  22.906  23.254  1.00  0.00     0.030 A 
ATOM     12  C   UNL A   1      33.544  24.963  24.040  1.00  0.00     0.013 A 
ATOM     13  C   UNL A   1      33.940  24.104  23.013  1.00  0.00     0.046 A 
ATOM     14  N   UNL A   1      33.496  24.637  21.831  1.00  0.00    -0.361 N 
ATOM     15  C   UNL A   1      32.694  25.712  22.085  1.00  0.00     0.094 A 
ATOM     16  H   UNL A   1      33.719  24.295  20.935  1.00  0.00     0.166 HD
BRANCH   8  17
ATOM     17  O   UNL A   1      34.790  23.208  26.977  1.00  0.00    -0.479 OA
BRANCH  17  18
ATOM     18  C   UNL A   1      33.934  22.187  27.542  1.00  0.00     0.349 C 
BRANCH  18  19
ATOM     19  C   UNL A   1      32.517  22.737  27.550  1.00  0.00     0.104 C 
ATOM     20  N   UNL A   1      31.341  23.191  27.557  1.00  0.00    -0.195 NA
ENDBRANCH  18  19
ENDBRANCH  17  18
ENDBRANCH   8  17
ENDBRANCH   6   7
BRANCH   6  21
ATOM     21  N   UNL A   1      30.724  27.367  23.096  1.00  0.00    -0.312 N 
ATOM     22  C   UNL A   1      29.313  26.938  23.117  1.00  0.00     0.325 C 
ATOM     23  C   UNL A   1      30.828  28.803  22.911  1.00  0.00     0.325 C 
ATOM     24  H   UNL A   1      31.084  26.873  22.279  1.00  0.00     0.349 HD
ATOM     25  C   UNL A   1      28.252  27.881  23.757  1.00  0.00     0.324 C 
ATOM     26  C   UNL A   1      29.900  29.630  23.821  1.00  0.00     0.324 C 
ATOM     27  N   UNL A   1      28.486  29.334  23.651  1.00  0.00    -0.322 N 
ATOM     28  H   UNL A   1      28.019  29.772  24.444  1.00  0.00     0.348 HD
BRANCH  27  29
ATOM     29  C   UNL A   1      27.737  30.063  22.626  1.00  0.00     0.200 C 
ATOM     30  C   UNL A   1      28.315  30.179  21.206  1.00  0.00     0.082 C 
ATOM     31  C   UNL A   1      27.383  31.495  23.077  1.00  0.00     0.201 C 
ATOM     32  C   UNL A   1      29.166  31.438  21.087  1.00  0.00     0.143 C 
ATOM     33  S   UNL A   1      28.500  32.609  22.244  1.00  0.00     0.156 S 
ATOM     34  O   UNL A   1      29.556  33.012  23.146  1.00  0.00    -0.229 OA
ATOM     35  O   UNL A   1      27.721  33.586  21.506  1.00  0.00    -0.229 OA
ENDBRANCH  27  29
ENDBRANCH   6  21
ENDBRANCH   3   6
ENDBRANCH   1   2
BRANCH   1  36
ATOM     36  C   UNL A   1      33.199  28.200  27.120  1.00  0.00     0.042 C 
BRANCH  36  37
ATOM     37  C   UNL A   1      33.916  29.234  26.253  1.00  0.00     0.118 C 
BRANCH  37  38
ATOM     38  N   UNL A   1      33.797  30.569  26.805  1.00  0.00    -0.352 N 
ATOM     39  C   UNL A   1      34.535  31.160  27.800  1.00  0.00     0.251 C 
ATOM     40  H   UNL A   1      33.089  31.129  26.412  1.00  0.00     0.163 HD
ATOM     41  O   UNL A   1      34.123  32.189  28.327  1.00  0.00    -0.269 OA
BRANCH  39  42
ATOM     42  C   UNL A   1      35.818  30.569  28.246  1.00  0.00     0.039 A 
ATOM     43  C   UNL A   1      35.838  29.826  29.429  1.00  0.00     0.014 A 
ATOM     44  C   UNL A   1      37.010  30.801  27.551  1.00  0.00     0.014 A 
ATOM     45  C   UNL A   1      37.041  29.293  29.901  1.00  0.00     0.010 A 
ATOM     46  C   UNL A   1      38.200  30.220  27.990  1.00  0.00     0.010 A 
ATOM     47  C   UNL A   1      38.232  29.472  29.177  1.00  0.00    -0.014 A 
BRANCH  47  48
ATOM     48  C   UNL A   1      39.517  28.904  29.665  1.00  0.00     0.031 A 
ATOM     49  C   UNL A   1      40.317  29.626  30.718  1.00  0.00     0.074 A 
ATOM     50  C   UNL A   1      39.986  27.753  29.144  1.00  0.00     0.049 A 
ATOM     51  N   UNL A   1      41.483  29.316  31.230  1.00  0.00    -0.248 NA
ATOM     52  C   UNL A   1      39.736  30.865  31.259  1.00  0.00     0.031 C 
ATOM     53  C   UNL A   1      39.321  26.956  28.113  1.00  0.00     0.029 A 
ATOM     54  N   UNL A   1      41.138  27.055  29.411  1.00  0.00    -0.354 N 
ATOM     55  C   UNL A   1      41.776  30.322  32.142  1.00  0.00     0.074 A 
ATOM     56  C   UNL A   1      40.690  31.276  32.082  1.00  0.00     0.031 C 
ATOM     57  C   UNL A   1      40.064  25.869  27.849  1.00  0.00     0.029 A 
ATOM     58  C   UNL A   1      41.279  25.914  28.657  1.00  0.00     0.049 A 
ATOM     59  H   UNL A   1      41.801  27.344  30.079  1.00  0.00     0.167 HD
ATOM     60  C   UNL A   1      42.843  30.436  32.969  1.00  0.00     0.031 A 
ATOM     61  C   UNL A   1      42.280  25.015  28.609  1.00  0.00     0.031 A 
ATOM     62  C   UNL A   1      43.928  29.492  33.032  1.00  0.00     0.049 A 
ATOM     63  C   UNL A   1      43.482  25.198  29.497  1.00  0.00     0.074 A 
ATOM     64  C   UNL A   1      45.041  29.512  33.856  1.00  0.00     0.029 A 
ATOM     65  N   UNL A   1      44.037  28.360  32.241  1.00  0.00    -0.354 N 
ATOM     66  N   UNL A   1      43.721  26.130  30.386  1.00  0.00    -0.248 NA
ATOM     67  C   UNL A   1      44.550  24.194  29.377  1.00  0.00     0.031 C 
ATOM     68  C   UNL A   1      45.848  28.418  33.529  1.00  0.00     0.029 A 
ATOM     69  C   UNL A   1      45.207  27.684  32.545  1.00  0.00     0.049 A 
ATOM     70  H   UNL A   1      43.381  28.077  31.563  1.00  0.00     0.167 HD
ATOM     71  C   UNL A   1      44.944  25.804  30.958  1.00  0.00     0.074 A 
ATOM     72  C   UNL A   1      45.392  24.581  30.325  1.00  0.00     0.031 C 
ATOM     73  C   UNL A   1      45.633  26.458  31.923  1.00  0.00     0.031 A 
BRANCH  60  74
ATOM     74  C   UNL A   1      42.894  31.632  33.880  1.00  0.00    -0.014 A 
ATOM     75  C   UNL A   1      42.346  31.581  35.172  1.00  0.00     0.009 A 
ATOM     76  C   UNL A   1      43.545  32.804  33.464  1.00  0.00     0.009 A 
ATOM     77  C   UNL A   1      42.423  32.690  36.017  1.00  0.00     0.001 A 
ATOM     78  C   UNL A   1      43.646  33.901  34.323  1.00  0.00     0.001 A 
ATOM     79  C   UNL A   1      43.079  33.845  35.595  1.00  0.00     0.000 A 
ENDBRANCH  60  74
BRANCH  61  80
ATOM     80  C   UNL A   1      42.202  23.849  27.687  1.00  0.00    -0.014 A 
ATOM     81  C   UNL A   1      41.680  22.625  28.131  1.00  0.00     0.009 A 
ATOM     82  C   UNL A   1      42.685  23.943  26.373  1.00  0.00     0.009 A 
ATOM     83  C   UNL A   1      41.679  21.508  27.291  1.00  0.00     0.001 A 
ATOM     84  C   UNL A   1      42.654  22.835  25.525  1.00  0.00     0.001 A 
ATOM     85  C   UNL A   1      42.164  21.615  25.988  1.00  0.00     0.000 A 
ENDBRANCH  61  80
BRANCH  73  86
ATOM     86  C   UNL A   1      46.916  25.836  32.401  1.00  0.00    -0.014 A 
ATOM     87  C   UNL A   1      48.144  26.117  31.784  1.00  0.00     0.009 A 
ATOM     88  C   UNL A   1      46.896  24.986  33.519  1.00  0.00     0.009 A 
ATOM     89  C   UNL A   1      49.322  25.533  32.256  1.00  0.00     0.001 A 
ATOM     90  C   UNL A   1      48.078  24.428  34.008  1.00  0.00     0.001 A 
ATOM     91  C   UNL A   1      49.288  24.694  33.371  1.00  0.00     0.000 A 
ENDBRANCH  73  86
ENDBRANCH  47  48
ENDBRANCH  39  42
ENDBRANCH  37  38
ENDBRANCH  36  37
ENDBRANCH   1  36
TORSDOF 16
ENDMDL
MODEL 3
REMARK VINA RESULT:     -10.8      2.467      3.219
REMARK SMILES N#CCOc1ccc2[nH]cc([C@H](C(=O)NCCCNC(=O)c3ccc(-c4c5nc(c(-c6ccccc6)c6ccc([nH]6)c(-c6ccccc6)c6nc(c(-c7ccccc7)c7ccc4[nH]7)C=C6)C=C5)cc3)[NH+]3CC[NH+]([C@@H]4CCS(=O)(=O)C4)CC3)c2c1
REMARK SMILES IDX 16 1 15 2 13 3 14 4 12 6 11 7 5 8 6 9 84 10 7 11 83 12 8 13
REMARK SMILES IDX 9 14 10 15 4 17 3 18 2 19 1 20 70 21 71 22 82 23 72 25 81 26
REMARK SMILES IDX 73 27 74 29 75 30 80 31 76 32 77 33 78 34 79 35 17 36 18 37
REMARK SMILES IDX 19 38 20 39 21 41 22 42 23 43 69 44 24 45 68 46 25 47 26 48
REMARK SMILES IDX 27 49 62 50 28 51 67 52 61 53 63 54 29 55 66 56 60 57 59 58
REMARK SMILES IDX 30 60 52 61 37 62 51 63 38 64 41 65 50 66 64 67 39 68 40 69
REMARK SMILES IDX 49 71 65 72 42 73 31 74 32 75 36 76 33 77 35 78 34 79 53 80
REMARK SMILES IDX 54 81 58 82 55 83 57 84 56 85 43 86 44 87 48 88 45 89 47 90
REMARK SMILES IDX 46 91
REMARK H PARENT 15 5 9 16 70 24 73 28 19 40 63 59 41 70
REMARK Flexibility Score: inf
ROOT
ATOM      1  C   UNL A   1      31.790  27.988  26.254  1.00  0.00     0.118 C 
ENDROOT
BRANCH   1   2
ATOM      2  N   UNL A   1      30.902  26.902  26.633  1.00  0.00    -0.351 N 
ATOM      3  C   UNL A   1      30.511  25.763  25.984  1.00  0.00     0.283 C 
ATOM      4  O   UNL A   1      29.452  25.283  26.402  1.00  0.00    -0.268 OA
ATOM      5  H   UNL A   1      30.507  27.004  27.529  1.00  0.00     0.163 HD
BRANCH   3   6
ATOM      6  C   UNL A   1      31.285  25.218  24.761  1.00  0.00     0.308 C 
BRANCH   6   7
ATOM      7  C   UNL A   1      31.733  26.228  23.723  1.00  0.00     0.045 A 
ATOM      8  C   UNL A   1      29.254  28.904  22.593  1.00  0.00     0.121 A 
ATOM      9  C   UNL A   1      30.246  29.794  22.178  1.00  0.00     0.048 A 
ATOM     10  C   UNL A   1      29.632  27.646  23.035  1.00  0.00     0.057 A 
ATOM     11  C   UNL A   1      31.582  29.406  22.038  1.00  0.00     0.030 A 
ATOM     12  C   UNL A   1      30.991  27.275  23.083  1.00  0.00     0.013 A 
ATOM     13  C   UNL A   1      31.925  28.143  22.515  1.00  0.00     0.046 A 
ATOM     14  N   UNL A   1      33.155  27.542  22.596  1.00  0.00    -0.361 N 
ATOM     15  C   UNL A   1      33.059  26.402  23.339  1.00  0.00     0.094 A 
ATOM     16  H   UNL A   1      33.981  27.882  22.182  1.00  0.00     0.166 HD
BRANCH   8  17
ATOM     17  O   UNL A   1      27.922  29.212  22.782  1.00  0.00    -0.479 OA
BRANCH  17  18
ATOM     18  C   UNL A   1      27.656  30.442  23.496  1.00  0.00     0.349 C 
BRANCH  18  19
ATOM     19  C   UNL A   1      27.744  31.579  22.491  1.00  0.00     0.104 C 
ATOM     20  N   UNL A   1      27.818  32.523  21.659  1.00  0.00    -0.195 NA
ENDBRANCH  18  19
ENDBRANCH  17  18
ENDBRANCH   8  17
ENDBRANCH   6   7
BRANCH   6  21
ATOM     21  N   UNL A   1      32.458  24.381  25.131  1.00  0.00    -0.312 N 
ATOM     22  C   UNL A   1      32.621  23.945  26.530  1.00  0.00     0.325 C 
ATOM     23  C   UNL A   1      32.671  23.276  24.213  1.00  0.00     0.325 C 
ATOM     24  H   UNL A   1      33.201  25.074  25.036  1.00  0.00     0.349 HD
ATOM     25  C   UNL A   1      32.164  22.510  26.926  1.00  0.00     0.324 C 
ATOM     26  C   UNL A   1      31.925  21.983  24.592  1.00  0.00     0.324 C 
ATOM     27  N   UNL A   1      32.281  21.455  25.900  1.00  0.00    -0.322 N 
ATOM     28  H   UNL A   1      31.575  20.751  26.111  1.00  0.00     0.348 HD
BRANCH  27  29
ATOM     29  C   UNL A   1      33.423  20.544  25.999  1.00  0.00     0.200 C 
ATOM     30  C   UNL A   1      34.282  20.269  24.754  1.00  0.00     0.082 C 
ATOM     31  C   UNL A   1      33.018  19.169  26.568  1.00  0.00     0.201 C 
ATOM     32  C   UNL A   1      33.738  19.063  23.997  1.00  0.00     0.143 C 
ATOM     33  S   UNL A   1      32.950  18.024  25.203  1.00  0.00     0.156 S 
ATOM     34  O   UNL A   1      31.575  17.819  24.801  1.00  0.00    -0.229 OA
ATOM     35  O   UNL A   1      33.831  16.906  25.485  1.00  0.00    -0.229 OA
ENDBRANCH  27  29
ENDBRANCH   6  21
ENDBRANCH   3   6
ENDBRANCH   1   2
BRANCH   1  36
ATOM     36  C   UNL A   1      32.492  28.645  27.452  1.00  0.00     0.042 C 
BRANCH  36  37
ATOM     37  C   UNL A   1      33.783  29.397  27.136  1.00  0.00     0.118 C 
BRANCH  37  38
ATOM     38  N   UNL A   1      33.736  30.765  27.612  1.00  0.00    -0.352 N 
ATOM     39  C   UNL A   1      34.558  31.394  28.512  1.00  0.00     0.251 C 
ATOM     40  H   UNL A   1      33.014  31.319  27.237  1.00  0.00     0.163 HD
ATOM     41  O   UNL A   1      34.210  32.464  29.004  1.00  0.00    -0.269 OA
BRANCH  39  42
ATOM     42  C   UNL A   1      35.858  30.796  28.899  1.00  0.00     0.039 A 
ATOM     43  C   UNL A   1      35.866  29.767  29.845  1.00  0.00     0.014 A 
ATOM     44  C   UNL A   1      37.067  31.288  28.397  1.00  0.00     0.014 A 
ATOM     45  C   UNL A   1      37.079  29.212  30.264  1.00  0.00     0.010 A 
ATOM     46  C   UNL A   1      38.273  30.695  28.772  1.00  0.00     0.010 A 
ATOM     47  C   UNL A   1      38.294  29.661  29.721  1.00  0.00    -0.014 A 
BRANCH  47  48
ATOM     48  C   UNL A   1      39.590  29.074  30.154  1.00  0.00     0.031 A 
ATOM     49  C   UNL A   1      40.330  29.651  31.333  1.00  0.00     0.074 A 
ATOM     50  C   UNL A   1      40.122  28.039  29.474  1.00  0.00     0.049 A 
ATOM     51  N   UNL A   1      41.495  29.311  31.826  1.00  0.00    -0.248 NA
ATOM     52  C   UNL A   1      39.681  30.764  32.043  1.00  0.00     0.031 C 
ATOM     53  C   UNL A   1      39.519  27.390  28.309  1.00  0.00     0.029 A 
ATOM     54  N   UNL A   1      41.297  27.354  29.664  1.00  0.00    -0.354 N 
ATOM     55  C   UNL A   1      41.720  30.170  32.894  1.00  0.00     0.074 A 
ATOM     56  C   UNL A   1      40.594  31.077  32.950  1.00  0.00     0.031 C 
ATOM     57  C   UNL A   1      40.316  26.389  27.902  1.00  0.00     0.029 A 
ATOM     58  C   UNL A   1      41.507  26.354  28.745  1.00  0.00     0.049 A 
ATOM     59  H   UNL A   1      41.929  27.560  30.391  1.00  0.00     0.167 HD
ATOM     60  C   UNL A   1      42.760  30.193  33.763  1.00  0.00     0.031 A 
ATOM     61  C   UNL A   1      42.548  25.513  28.588  1.00  0.00     0.031 A 
ATOM     62  C   UNL A   1      43.883  29.295  33.711  1.00  0.00     0.049 A 
ATOM     63  C   UNL A   1      43.717  25.601  29.532  1.00  0.00     0.074 A 
ATOM     64  C   UNL A   1      44.973  29.228  34.564  1.00  0.00     0.029 A 
ATOM     65  N   UNL A   1      44.062  28.308  32.756  1.00  0.00    -0.354 N 
ATOM     66  N   UNL A   1      43.892  26.389  30.565  1.00  0.00    -0.248 NA
ATOM     67  C   UNL A   1      44.832  24.671  29.291  1.00  0.00     0.031 C 
ATOM     68  C   UNL A   1      45.835  28.232  34.095  1.00  0.00     0.029 A 
ATOM     69  C   UNL A   1      45.252  27.639  32.988  1.00  0.00     0.049 A 
ATOM     70  H   UNL A   1      43.436  28.110  32.022  1.00  0.00     0.167 HD
ATOM     71  C   UNL A   1      45.113  26.025  31.117  1.00  0.00     0.074 A 
ATOM     72  C   UNL A   1      45.631  24.937  30.315  1.00  0.00     0.031 C 
ATOM     73  C   UNL A   1      45.749  26.545  32.195  1.00  0.00     0.031 A 
BRANCH  60  74
ATOM     74  C   UNL A   1      42.734  31.231  34.852  1.00  0.00    -0.014 A 
ATOM     75  C   UNL A   1      43.277  32.510  34.645  1.00  0.00     0.009 A 
ATOM     76  C   UNL A   1      42.110  30.948  36.077  1.00  0.00     0.009 A 
ATOM     77  C   UNL A   1      43.223  33.472  35.655  1.00  0.00     0.001 A 
ATOM     78  C   UNL A   1      42.031  31.923  37.074  1.00  0.00     0.001 A 
ATOM     79  C   UNL A   1      42.594  33.181  36.864  1.00  0.00     0.000 A 
ENDBRANCH  60  74
BRANCH  61  80
ATOM     80  C   UNL A   1      42.545  24.507  27.493  1.00  0.00    -0.014 A 
ATOM     81  C   UNL A   1      42.119  23.192  27.736  1.00  0.00     0.009 A 
ATOM     82  C   UNL A   1      43.005  24.844  26.211  1.00  0.00     0.009 A 
ATOM     83  C   UNL A   1      42.191  22.226  26.729  1.00  0.00     0.001 A 
ATOM     84  C   UNL A   1      43.045  23.885  25.197  1.00  0.00     0.001 A 
ATOM     85  C   UNL A   1      42.652  22.574  25.460  1.00  0.00     0.000 A 
ENDBRANCH  61  80
BRANCH  73  86
ATOM     86  C   UNL A   1      47.044  25.906  32.610  1.00  0.00    -0.014 A 
ATOM     87  C   UNL A   1      48.266  26.274  32.026  1.00  0.00     0.009 A 
ATOM     88  C   UNL A   1      47.044  24.948  33.636  1.00  0.00     0.009 A 
ATOM     89  C   UNL A   1      49.456  25.672  32.440  1.00  0.00     0.001 A 
ATOM     90  C   UNL A   1      48.238  24.370  34.069  1.00  0.00     0.001 A 
ATOM     91  C   UNL A   1      49.442  24.725  33.465  1.00  0.00     0.000 A 
ENDBRANCH  73  86
ENDBRANCH  47  48
ENDBRANCH  39  42
ENDBRANCH  37  38
ENDBRANCH  36  37
ENDBRANCH   1  36
TORSDOF 16
ENDMDL
