MODEL 1
REMARK VINA RESULT:     -11.6      0.000      0.000
REMARK SMILES Cn1nc(N2CCC(CC(=O)NCCCNC(=O)c3ccc(-c4c5nc(c(-c6ccccc6)c6ccc([nH]6)c(-c6ccccc6)c6nc(c(-c7ccccc7)c7ccc4[nH]7)C=C6)C=C5)cc3)CC2)c(=O)n(C)c1=O
REMARK SMILES IDX 14 1 13 2 12 3 10 4 11 5 9 7 8 8 5 9 6 10 68 11 7 12 67 13
REMARK SMILES IDX 4 14 1 15 2 16 3 17 73 18 71 19 74 20 69 21 72 22 70 23
REMARK SMILES IDX 15 24 16 25 17 26 18 28 19 29 20 30 66 31 21 32 65 33 22 34
REMARK SMILES IDX 23 35 24 36 59 37 25 38 64 39 58 40 60 41 26 42 63 43 57 44
REMARK SMILES IDX 56 45 27 47 49 48 34 49 48 50 35 51 38 52 47 53 61 54 36 55
REMARK SMILES IDX 37 56 46 58 62 59 39 60 28 61 29 62 33 63 30 64 32 65 31 66
REMARK SMILES IDX 50 67 51 68 55 69 52 70 54 71 53 72 40 73 41 74 45 75 42 76
REMARK SMILES IDX 44 77 43 78
REMARK H PARENT 12 6 16 27 60 46 38 57
REMARK Flexibility Score: inf
ROOT
ATOM      1  C   UNL A   1      37.386  19.539  24.995  1.00  0.00     0.042 C 
ENDROOT
BRANCH   1   2
ATOM      2  C   UNL A   1      36.140  20.430  24.935  1.00  0.00     0.117 C 
BRANCH   2   3
ATOM      3  N   UNL A   1      34.896  19.671  24.998  1.00  0.00    -0.356 N 
ATOM      4  C   UNL A   1      33.607  20.058  25.220  1.00  0.00     0.220 C 
ATOM      5  O   UNL A   1      32.735  19.186  25.224  1.00  0.00    -0.275 OA
ATOM      6  H   UNL A   1      35.007  18.703  24.856  1.00  0.00     0.163 HD
BRANCH   4   7
ATOM      7  C   UNL A   1      33.247  21.512  25.477  1.00  0.00     0.103 C 
BRANCH   7   8
ATOM      8  C   UNL A   1      32.737  22.251  24.220  1.00  0.00     0.002 C 
ATOM      9  N   UNL A   1      31.868  24.824  23.246  1.00  0.00    -0.351 N 
ATOM     10  C   UNL A   1      30.850  23.820  23.448  1.00  0.00     0.118 C 
ATOM     11  C   UNL A   1      33.145  24.322  22.764  1.00  0.00     0.118 C 
ATOM     12  C   UNL A   1      31.339  22.819  24.473  1.00  0.00     0.025 C 
ATOM     13  C   UNL A   1      33.727  23.363  23.810  1.00  0.00     0.025 C 
BRANCH   9  14
ATOM     14  C   UNL A   1      31.706  26.126  23.688  1.00  0.00     0.215 A 
ATOM     15  C   UNL A   1      32.042  28.088  26.686  1.00  0.00     0.180 C 
ATOM     16  N   UNL A   1      31.720  27.761  25.308  1.00  0.00    -0.216 N 
ATOM     17  N   UNL A   1      31.902  26.455  24.933  1.00  0.00    -0.145 NA
ATOM     18  C   UNL A   1      31.215  28.769  24.490  1.00  0.00     0.346 A 
ATOM     19  N   UNL A   1      30.957  28.420  23.181  1.00  0.00    -0.259 N 
ATOM     20  O   UNL A   1      31.017  29.910  24.917  1.00  0.00    -0.246 OA
ATOM     21  C   UNL A   1      31.236  27.172  22.674  1.00  0.00     0.299 A 
ATOM     22  C   UNL A   1      30.387  29.392  22.274  1.00  0.00     0.159 C 
ATOM     23  O   UNL A   1      31.100  26.846  21.497  1.00  0.00    -0.265 OA
ENDBRANCH   9  14
ENDBRANCH   7   8
ENDBRANCH   4   7
ENDBRANCH   2   3
ENDBRANCH   1   2
BRANCH   1  24
ATOM     24  C   UNL A   1      38.649  20.256  25.455  1.00  0.00     0.118 C 
BRANCH  24  25
ATOM     25  N   UNL A   1      39.735  19.321  25.676  1.00  0.00    -0.352 N 
ATOM     26  C   UNL A   1      41.045  19.560  26.017  1.00  0.00     0.251 C 
ATOM     27  H   UNL A   1      39.499  18.371  25.567  1.00  0.00     0.163 HD
ATOM     28  O   UNL A   1      41.873  18.665  25.866  1.00  0.00    -0.269 OA
BRANCH  26  29
ATOM     29  C   UNL A   1      41.481  20.871  26.560  1.00  0.00     0.039 A 
ATOM     30  C   UNL A   1      41.302  21.123  27.925  1.00  0.00     0.014 A 
ATOM     31  C   UNL A   1      41.965  21.890  25.733  1.00  0.00     0.014 A 
ATOM     32  C   UNL A   1      41.622  22.376  28.458  1.00  0.00     0.010 A 
ATOM     33  C   UNL A   1      42.357  23.114  26.279  1.00  0.00     0.010 A 
ATOM     34  C   UNL A   1      42.161  23.383  27.642  1.00  0.00    -0.014 A 
BRANCH  34  35
ATOM     35  C   UNL A   1      42.460  24.733  28.191  1.00  0.00     0.031 A 
ATOM     36  C   UNL A   1      43.864  25.084  28.616  1.00  0.00     0.074 A 
ATOM     37  C   UNL A   1      41.475  25.644  28.322  1.00  0.00     0.049 A 
ATOM     38  N   UNL A   1      44.317  26.202  29.125  1.00  0.00    -0.248 NA
ATOM     39  C   UNL A   1      44.890  24.038  28.467  1.00  0.00     0.031 C 
ATOM     40  C   UNL A   1      40.069  25.430  27.975  1.00  0.00     0.029 A 
ATOM     41  N   UNL A   1      41.508  26.939  28.782  1.00  0.00    -0.354 N 
ATOM     42  C   UNL A   1      45.669  25.989  29.365  1.00  0.00     0.074 A 
ATOM     43  C   UNL A   1      45.956  24.622  28.995  1.00  0.00     0.031 C 
ATOM     44  C   UNL A   1      39.382  26.561  28.204  1.00  0.00     0.029 A 
ATOM     45  C   UNL A   1      40.287  27.570  28.746  1.00  0.00     0.049 A 
ATOM     46  H   UNL A   1      42.330  27.374  29.105  1.00  0.00     0.167 HD
ATOM     47  C   UNL A   1      46.596  26.859  29.829  1.00  0.00     0.031 A 
ATOM     48  C   UNL A   1      39.934  28.819  29.109  1.00  0.00     0.031 A 
ATOM     49  C   UNL A   1      46.326  28.230  30.167  1.00  0.00     0.049 A 
ATOM     50  C   UNL A   1      40.984  29.761  29.636  1.00  0.00     0.074 A 
ATOM     51  C   UNL A   1      47.218  29.203  30.583  1.00  0.00     0.029 A 
ATOM     52  N   UNL A   1      45.075  28.821  30.126  1.00  0.00    -0.354 N 
ATOM     53  N   UNL A   1      42.270  29.560  29.791  1.00  0.00    -0.248 NA
ATOM     54  C   UNL A   1      40.533  31.104  30.031  1.00  0.00     0.031 C 
ATOM     55  C   UNL A   1      46.499  30.371  30.842  1.00  0.00     0.029 A 
ATOM     56  C   UNL A   1      45.166  30.139  30.538  1.00  0.00     0.049 A 
ATOM     57  H   UNL A   1      44.245  28.372  29.846  1.00  0.00     0.167 HD
ATOM     58  C   UNL A   1      42.783  30.753  30.284  1.00  0.00     0.074 A 
ATOM     59  C   UNL A   1      41.676  31.680  30.381  1.00  0.00     0.031 C 
ATOM     60  C   UNL A   1      44.058  31.050  30.629  1.00  0.00     0.031 A 
BRANCH  47  61
ATOM     61  C   UNL A   1      48.007  26.369  29.988  1.00  0.00    -0.014 A 
ATOM     62  C   UNL A   1      48.451  25.830  31.206  1.00  0.00     0.009 A 
ATOM     63  C   UNL A   1      48.872  26.356  28.883  1.00  0.00     0.009 A 
ATOM     64  C   UNL A   1      49.739  25.304  31.318  1.00  0.00     0.001 A 
ATOM     65  C   UNL A   1      50.152  25.806  28.991  1.00  0.00     0.001 A 
ATOM     66  C   UNL A   1      50.584  25.284  30.209  1.00  0.00     0.000 A 
ENDBRANCH  47  61
BRANCH  48  67
ATOM     67  C   UNL A   1      38.521  29.261  28.981  1.00  0.00    -0.014 A 
ATOM     68  C   UNL A   1      38.035  29.753  27.759  1.00  0.00     0.009 A 
ATOM     69  C   UNL A   1      37.653  29.205  30.082  1.00  0.00     0.009 A 
ATOM     70  C   UNL A   1      36.715  30.201  27.651  1.00  0.00     0.001 A 
ATOM     71  C   UNL A   1      36.326  29.626  29.963  1.00  0.00     0.001 A 
ATOM     72  C   UNL A   1      35.862  30.133  28.751  1.00  0.00     0.000 A 
ENDBRANCH  48  67
BRANCH  60  73
ATOM     73  C   UNL A   1      44.339  32.436  31.138  1.00  0.00    -0.014 A 
ATOM     74  C   UNL A   1      44.318  32.716  32.512  1.00  0.00     0.009 A 
ATOM     75  C   UNL A   1      44.719  33.446  30.240  1.00  0.00     0.009 A 
ATOM     76  C   UNL A   1      44.655  33.988  32.977  1.00  0.00     0.001 A 
ATOM     77  C   UNL A   1      45.082  34.709  30.710  1.00  0.00     0.001 A 
ATOM     78  C   UNL A   1      45.046  34.979  32.077  1.00  0.00     0.000 A 
ENDBRANCH  60  73
ENDBRANCH  34  35
ENDBRANCH  26  29
ENDBRANCH  24  25
ENDBRANCH   1  24
TORSDOF 12
ENDMDL
MODEL 2
REMARK VINA RESULT:     -11.4      0.886      5.980
REMARK SMILES Cn1nc(N2CCC(CC(=O)NCCCNC(=O)c3ccc(-c4c5nc(c(-c6ccccc6)c6ccc([nH]6)c(-c6ccccc6)c6nc(c(-c7ccccc7)c7ccc4[nH]7)C=C6)C=C5)cc3)CC2)c(=O)n(C)c1=O
REMARK SMILES IDX 14 1 13 2 12 3 10 4 11 5 9 7 8 8 5 9 6 10 68 11 7 12 67 13
REMARK SMILES IDX 4 14 1 15 2 16 3 17 73 18 71 19 74 20 69 21 72 22 70 23
REMARK SMILES IDX 15 24 16 25 17 26 18 28 19 29 20 30 66 31 21 32 65 33 22 34
REMARK SMILES IDX 23 35 24 36 59 37 25 38 64 39 58 40 60 41 26 42 63 43 57 44
REMARK SMILES IDX 56 45 27 47 49 48 34 49 48 50 35 51 38 52 47 53 61 54 36 55
REMARK SMILES IDX 37 56 46 58 62 59 39 60 28 61 29 62 33 63 30 64 32 65 31 66
REMARK SMILES IDX 50 67 51 68 55 69 52 70 54 71 53 72 40 73 41 74 45 75 42 76
REMARK SMILES IDX 44 77 43 78
REMARK H PARENT 12 6 16 27 60 46 38 57
REMARK Flexibility Score: inf
ROOT
ATOM      1  C   UNL A   1      37.761  19.726  24.892  1.00  0.00     0.042 C 
ENDROOT
BRANCH   1   2
ATOM      2  C   UNL A   1      36.476  20.559  24.959  1.00  0.00     0.117 C 
BRANCH   2   3
ATOM      3  N   UNL A   1      35.269  19.742  24.920  1.00  0.00    -0.356 N 
ATOM      4  C   UNL A   1      33.952  20.061  25.081  1.00  0.00     0.220 C 
ATOM      5  O   UNL A   1      33.124  19.151  25.000  1.00  0.00    -0.275 OA
ATOM      6  H   UNL A   1      35.433  18.788  24.745  1.00  0.00     0.163 HD
BRANCH   4   7
ATOM      7  C   UNL A   1      33.509  21.485  25.376  1.00  0.00     0.103 C 
BRANCH   7   8
ATOM      8  C   UNL A   1      32.980  22.233  24.133  1.00  0.00     0.002 C 
ATOM      9  N   UNL A   1      32.058  24.804  23.203  1.00  0.00    -0.351 N 
ATOM     10  C   UNL A   1      31.059  23.778  23.394  1.00  0.00     0.118 C 
ATOM     11  C   UNL A   1      33.342  24.334  22.707  1.00  0.00     0.118 C 
ATOM     12  C   UNL A   1      31.572  22.771  24.402  1.00  0.00     0.025 C 
ATOM     13  C   UNL A   1      33.947  23.370  23.736  1.00  0.00     0.025 C 
BRANCH   9  14
ATOM     14  C   UNL A   1      31.873  26.097  23.666  1.00  0.00     0.215 A 
ATOM     15  C   UNL A   1      32.277  28.039  26.669  1.00  0.00     0.180 C 
ATOM     16  N   UNL A   1      31.906  27.715  25.302  1.00  0.00    -0.216 N 
ATOM     17  N   UNL A   1      32.113  26.419  24.905  1.00  0.00    -0.145 NA
ATOM     18  C   UNL A   1      31.334  28.714  24.518  1.00  0.00     0.346 A 
ATOM     19  N   UNL A   1      31.030  28.370  23.218  1.00  0.00    -0.259 N 
ATOM     20  O   UNL A   1      31.119  29.844  24.965  1.00  0.00    -0.246 OA
ATOM     21  C   UNL A   1      31.328  27.136  22.685  1.00  0.00     0.299 A 
ATOM     22  C   UNL A   1      30.392  29.332  22.347  1.00  0.00     0.159 C 
ATOM     23  O   UNL A   1      31.151  26.817  21.511  1.00  0.00    -0.265 OA
ENDBRANCH   9  14
ENDBRANCH   7   8
ENDBRANCH   4   7
ENDBRANCH   2   3
ENDBRANCH   1   2
BRANCH   1  24
ATOM     24  C   UNL A   1      38.921  20.293  25.701  1.00  0.00     0.118 C 
BRANCH  24  25
ATOM     25  N   UNL A   1      39.980  19.316  25.862  1.00  0.00    -0.352 N 
ATOM     26  C   UNL A   1      41.328  19.504  26.050  1.00  0.00     0.251 C 
ATOM     27  H   UNL A   1      39.689  18.376  25.834  1.00  0.00     0.163 HD
ATOM     28  O   UNL A   1      42.093  18.561  25.865  1.00  0.00    -0.269 OA
BRANCH  26  29
ATOM     29  C   UNL A   1      41.881  20.818  26.465  1.00  0.00     0.039 A 
ATOM     30  C   UNL A   1      41.864  21.150  27.825  1.00  0.00     0.014 A 
ATOM     31  C   UNL A   1      42.317  21.765  25.534  1.00  0.00     0.014 A 
ATOM     32  C   UNL A   1      42.297  22.411  28.247  1.00  0.00     0.010 A 
ATOM     33  C   UNL A   1      42.822  22.995  25.963  1.00  0.00     0.010 A 
ATOM     34  C   UNL A   1      42.789  23.345  27.320  1.00  0.00    -0.014 A 
BRANCH  34  35
ATOM     35  C   UNL A   1      43.207  24.705  27.755  1.00  0.00     0.031 A 
ATOM     36  C   UNL A   1      42.169  25.760  28.044  1.00  0.00     0.074 A 
ATOM     37  C   UNL A   1      44.516  25.004  27.881  1.00  0.00     0.049 A 
ATOM     38  N   UNL A   1      42.337  27.002  28.424  1.00  0.00    -0.248 NA
ATOM     39  C   UNL A   1      40.757  25.377  27.869  1.00  0.00     0.031 C 
ATOM     40  C   UNL A   1      45.625  24.088  27.608  1.00  0.00     0.029 A 
ATOM     41  N   UNL A   1      45.135  26.166  28.273  1.00  0.00    -0.354 N 
ATOM     42  C   UNL A   1      41.062  27.545  28.519  1.00  0.00     0.074 A 
ATOM     43  C   UNL A   1      40.131  26.519  28.111  1.00  0.00     0.031 C 
ATOM     44  C   UNL A   1      46.785  24.712  27.872  1.00  0.00     0.029 A 
ATOM     45  C   UNL A   1      46.507  26.080  28.298  1.00  0.00     0.049 A 
ATOM     46  H   UNL A   1      44.642  26.983  28.516  1.00  0.00     0.167 HD
ATOM     47  C   UNL A   1      40.695  28.781  28.933  1.00  0.00     0.031 A 
ATOM     48  C   UNL A   1      47.438  26.998  28.625  1.00  0.00     0.031 A 
ATOM     49  C   UNL A   1      41.613  29.796  29.373  1.00  0.00     0.049 A 
ATOM     50  C   UNL A   1      47.001  28.369  29.067  1.00  0.00     0.074 A 
ATOM     51  C   UNL A   1      41.325  31.055  29.871  1.00  0.00     0.029 A 
ATOM     52  N   UNL A   1      42.991  29.669  29.370  1.00  0.00    -0.354 N 
ATOM     53  N   UNL A   1      45.787  28.841  29.215  1.00  0.00    -0.248 NA
ATOM     54  C   UNL A   1      48.064  29.332  29.394  1.00  0.00     0.031 C 
ATOM     55  C   UNL A   1      42.532  31.710  30.123  1.00  0.00     0.029 A 
ATOM     56  C   UNL A   1      43.570  30.839  29.830  1.00  0.00     0.049 A 
ATOM     57  H   UNL A   1      43.486  28.867  29.083  1.00  0.00     0.167 HD
ATOM     58  C   UNL A   1      45.940  30.145  29.667  1.00  0.00     0.074 A 
ATOM     59  C   UNL A   1      47.362  30.385  29.792  1.00  0.00     0.031 C 
ATOM     60  C   UNL A   1      44.985  31.063  29.950  1.00  0.00     0.031 A 
BRANCH  47  61
ATOM     61  C   UNL A   1      39.230  29.113  28.950  1.00  0.00    -0.014 A 
ATOM     62  C   UNL A   1      38.592  29.623  27.809  1.00  0.00     0.009 A 
ATOM     63  C   UNL A   1      38.460  28.824  30.087  1.00  0.00     0.009 A 
ATOM     64  C   UNL A   1      37.215  29.852  27.811  1.00  0.00     0.001 A 
ATOM     65  C   UNL A   1      37.078  29.029  30.079  1.00  0.00     0.001 A 
ATOM     66  C   UNL A   1      36.459  29.546  28.943  1.00  0.00     0.000 A 
ENDBRANCH  47  61
BRANCH  48  67
ATOM     67  C   UNL A   1      48.882  26.653  28.556  1.00  0.00    -0.014 A 
ATOM     68  C   UNL A   1      49.591  26.789  27.352  1.00  0.00     0.009 A 
ATOM     69  C   UNL A   1      49.557  26.174  29.689  1.00  0.00     0.009 A 
ATOM     70  C   UNL A   1      50.940  26.431  27.280  1.00  0.00     0.001 A 
ATOM     71  C   UNL A   1      50.912  25.844  29.622  1.00  0.00     0.001 A 
ATOM     72  C   UNL A   1      51.600  25.963  28.415  1.00  0.00     0.000 A 
ENDBRANCH  48  67
BRANCH  60  73
ATOM     73  C   UNL A   1      45.434  32.414  30.430  1.00  0.00    -0.014 A 
ATOM     74  C   UNL A   1      45.695  32.646  31.788  1.00  0.00     0.009 A 
ATOM     75  C   UNL A   1      45.687  33.437  29.501  1.00  0.00     0.009 A 
ATOM     76  C   UNL A   1      46.185  33.882  32.210  1.00  0.00     0.001 A 
ATOM     77  C   UNL A   1      46.203  34.663  29.923  1.00  0.00     0.001 A 
ATOM     78  C   UNL A   1      46.447  34.886  31.278  1.00  0.00     0.000 A 
ENDBRANCH  60  73
ENDBRANCH  34  35
ENDBRANCH  26  29
ENDBRANCH  24  25
ENDBRANCH   1  24
TORSDOF 12
ENDMDL
MODEL 3
REMARK VINA RESULT:     -11.4      2.827      8.846
REMARK SMILES Cn1nc(N2CCC(CC(=O)NCCCNC(=O)c3ccc(-c4c5nc(c(-c6ccccc6)c6ccc([nH]6)c(-c6ccccc6)c6nc(c(-c7ccccc7)c7ccc4[nH]7)C=C6)C=C5)cc3)CC2)c(=O)n(C)c1=O
REMARK SMILES IDX 14 1 13 2 12 3 10 4 11 5 9 7 8 8 5 9 6 10 68 11 7 12 67 13
REMARK SMILES IDX 4 14 1 15 2 16 3 17 73 18 71 19 74 20 69 21 72 22 70 23
REMARK SMILES IDX 15 24 16 25 17 26 18 28 19 29 20 30 66 31 21 32 65 33 22 34
REMARK SMILES IDX 23 35 24 36 59 37 25 38 64 39 58 40 60 41 26 42 63 43 57 44
REMARK SMILES IDX 56 45 27 47 49 48 34 49 48 50 35 51 38 52 47 53 61 54 36 55
REMARK SMILES IDX 37 56 46 58 62 59 39 60 28 61 29 62 33 63 30 64 32 65 31 66
REMARK SMILES IDX 50 67 51 68 55 69 52 70 54 71 53 72 40 73 41 74 45 75 42 76
REMARK SMILES IDX 44 77 43 78
REMARK H PARENT 12 6 16 27 60 46 38 57
REMARK Flexibility Score: inf
ROOT
ATOM      1  C   UNL A   1      31.449  31.094  26.061  1.00  0.00     0.042 C 
ENDROOT
BRANCH   1   2
ATOM      2  C   UNL A   1      31.773  29.669  25.596  1.00  0.00     0.117 C 
BRANCH   2   3
ATOM      3  N   UNL A   1      32.339  29.627  24.252  1.00  0.00    -0.356 N 
ATOM      4  C   UNL A   1      33.253  28.792  23.679  1.00  0.00     0.220 C 
ATOM      5  O   UNL A   1      33.559  28.993  22.501  1.00  0.00    -0.275 OA
ATOM      6  H   UNL A   1      32.000  30.328  23.649  1.00  0.00     0.163 HD
BRANCH   4   7
ATOM      7  C   UNL A   1      33.898  27.661  24.463  1.00  0.00     0.103 C 
BRANCH   7   8
ATOM      8  C   UNL A   1      33.012  26.400  24.563  1.00  0.00     0.002 C 
ATOM      9  N   UNL A   1      33.103  23.525  24.788  1.00  0.00    -0.351 N 
ATOM     10  C   UNL A   1      32.717  24.072  23.509  1.00  0.00     0.118 C 
ATOM     11  C   UNL A   1      32.639  24.273  25.946  1.00  0.00     0.118 C 
ATOM     12  C   UNL A   1      33.282  25.470  23.378  1.00  0.00     0.025 C 
ATOM     13  C   UNL A   1      33.253  25.678  25.907  1.00  0.00     0.025 C 
BRANCH   9  14
ATOM     14  C   UNL A   1      34.025  22.497  24.895  1.00  0.00     0.215 A 
ATOM     15  C   UNL A   1      37.566  21.995  25.301  1.00  0.00     0.180 C 
ATOM     16  N   UNL A   1      36.165  21.672  25.095  1.00  0.00    -0.216 N 
ATOM     17  N   UNL A   1      35.302  22.733  24.998  1.00  0.00    -0.145 NA
ATOM     18  C   UNL A   1      35.806  20.331  24.967  1.00  0.00     0.346 A 
ATOM     19  N   UNL A   1      34.462  20.072  24.808  1.00  0.00    -0.259 N 
ATOM     20  O   UNL A   1      36.650  19.431  25.002  1.00  0.00    -0.246 OA
ATOM     21  C   UNL A   1      33.504  21.060  24.837  1.00  0.00     0.299 A 
ATOM     22  C   UNL A   1      34.006  18.712  24.622  1.00  0.00     0.159 C 
ATOM     23  O   UNL A   1      32.292  20.864  24.783  1.00  0.00    -0.265 OA
ENDBRANCH   9  14
ENDBRANCH   7   8
ENDBRANCH   4   7
ENDBRANCH   2   3
ENDBRANCH   1   2
BRANCH   1  24
ATOM     24  C   UNL A   1      32.283  31.573  27.243  1.00  0.00     0.118 C 
BRANCH  24  25
ATOM     25  N   UNL A   1      32.222  33.015  27.380  1.00  0.00    -0.352 N 
ATOM     26  C   UNL A   1      32.991  33.857  28.147  1.00  0.00     0.251 C 
ATOM     27  H   UNL A   1      31.527  33.458  26.842  1.00  0.00     0.163 HD
ATOM     28  O   UNL A   1      32.594  35.001  28.356  1.00  0.00    -0.269 OA
BRANCH  26  29
ATOM     29  C   UNL A   1      34.283  33.418  28.731  1.00  0.00     0.039 A 
ATOM     30  C   UNL A   1      35.456  33.641  28.000  1.00  0.00     0.014 A 
ATOM     31  C   UNL A   1      34.349  32.702  29.930  1.00  0.00     0.014 A 
ATOM     32  C   UNL A   1      36.683  33.166  28.476  1.00  0.00     0.010 A 
ATOM     33  C   UNL A   1      35.583  32.296  30.443  1.00  0.00     0.010 A 
ATOM     34  C   UNL A   1      36.761  32.496  29.708  1.00  0.00    -0.014 A 
BRANCH  34  35
ATOM     35  C   UNL A   1      38.053  31.946  30.198  1.00  0.00     0.031 A 
ATOM     36  C   UNL A   1      38.582  30.647  29.645  1.00  0.00     0.074 A 
ATOM     37  C   UNL A   1      38.752  32.602  31.147  1.00  0.00     0.049 A 
ATOM     38  N   UNL A   1      39.681  30.005  29.954  1.00  0.00    -0.248 NA
ATOM     39  C   UNL A   1      37.762  29.969  28.627  1.00  0.00     0.031 C 
ATOM     40  C   UNL A   1      38.345  33.854  31.786  1.00  0.00     0.029 A 
ATOM     41  N   UNL A   1      39.956  32.305  31.738  1.00  0.00    -0.354 N 
ATOM     42  C   UNL A   1      39.676  28.851  29.180  1.00  0.00     0.074 A 
ATOM     43  C   UNL A   1      38.445  28.851  28.424  1.00  0.00     0.031 C 
ATOM     44  C   UNL A   1      39.296  34.233  32.656  1.00  0.00     0.029 A 
ATOM     45  C   UNL A   1      40.363  33.237  32.663  1.00  0.00     0.049 A 
ATOM     46  H   UNL A   1      40.480  31.500  31.518  1.00  0.00     0.167 HD
ATOM     47  C   UNL A   1      40.623  27.888  29.086  1.00  0.00     0.031 A 
ATOM     48  C   UNL A   1      41.469  33.286  33.431  1.00  0.00     0.031 A 
ATOM     49  C   UNL A   1      41.866  27.898  29.809  1.00  0.00     0.049 A 
ATOM     50  C   UNL A   1      42.498  32.193  33.317  1.00  0.00     0.074 A 
ATOM     51  C   UNL A   1      42.912  26.995  29.726  1.00  0.00     0.029 A 
ATOM     52  N   UNL A   1      42.229  28.854  30.740  1.00  0.00    -0.354 N 
ATOM     53  N   UNL A   1      42.506  31.146  32.528  1.00  0.00    -0.248 NA
ATOM     54  C   UNL A   1      43.675  32.294  34.194  1.00  0.00     0.031 C 
ATOM     55  C   UNL A   1      43.890  27.379  30.647  1.00  0.00     0.029 A 
ATOM     56  C   UNL A   1      43.473  28.548  31.264  1.00  0.00     0.049 A 
ATOM     57  H   UNL A   1      41.685  29.634  30.994  1.00  0.00     0.167 HD
ATOM     58  C   UNL A   1      43.691  30.475  32.802  1.00  0.00     0.074 A 
ATOM     59  C   UNL A   1      44.388  31.243  33.811  1.00  0.00     0.031 C 
ATOM     60  C   UNL A   1      44.156  29.321  32.266  1.00  0.00     0.031 A 
BRANCH  47  61
ATOM     61  C   UNL A   1      40.369  26.737  28.154  1.00  0.00    -0.014 A 
ATOM     62  C   UNL A   1      40.927  26.715  26.866  1.00  0.00     0.009 A 
ATOM     63  C   UNL A   1      39.645  25.621  28.601  1.00  0.00     0.009 A 
ATOM     64  C   UNL A   1      40.750  25.605  26.038  1.00  0.00     0.001 A 
ATOM     65  C   UNL A   1      39.491  24.501  27.780  1.00  0.00     0.001 A 
ATOM     66  C   UNL A   1      40.041  24.496  26.499  1.00  0.00     0.000 A 
ENDBRANCH  47  61
BRANCH  48  67
ATOM     67  C   UNL A   1      41.671  34.415  34.376  1.00  0.00    -0.014 A 
ATOM     68  C   UNL A   1      41.193  34.337  35.694  1.00  0.00     0.009 A 
ATOM     69  C   UNL A   1      42.332  35.583  33.964  1.00  0.00     0.009 A 
ATOM     70  C   UNL A   1      41.353  35.413  36.571  1.00  0.00     0.001 A 
ATOM     71  C   UNL A   1      42.516  36.646  34.851  1.00  0.00     0.001 A 
ATOM     72  C   UNL A   1      42.017  36.565  36.150  1.00  0.00     0.000 A 
ENDBRANCH  48  67
BRANCH  60  73
ATOM     73  C   UNL A   1      45.485  28.813  32.747  1.00  0.00    -0.014 A 
ATOM     74  C   UNL A   1      45.566  27.902  33.810  1.00  0.00     0.009 A 
ATOM     75  C   UNL A   1      46.659  29.180  32.071  1.00  0.00     0.009 A 
ATOM     76  C   UNL A   1      46.800  27.379  34.198  1.00  0.00     0.001 A 
ATOM     77  C   UNL A   1      47.889  28.634  32.443  1.00  0.00     0.001 A 
ATOM     78  C   UNL A   1      47.958  27.738  33.509  1.00  0.00     0.000 A 
ENDBRANCH  60  73
ENDBRANCH  34  35
ENDBRANCH  26  29
ENDBRANCH  24  25
ENDBRANCH   1  24
TORSDOF 12
ENDMDL
