MODEL 1
REMARK VINA RESULT:     -11.0      0.000      0.000
REMARK SMILES CCC(CC)(NC(=O)Nc1cc(Cl)cc(Cl)c1)C(=O)NCCCNC(=O)c1ccc(-c2c3nc(c(-c4ccccc4)c4ccc([nH]4)c(-c4ccccc4)c4nc(c(-c5ccccc5)c5ccc2[nH]5)C=C4)C=C3)cc1
REMARK SMILES IDX 22 1 21 2 20 3 18 4 19 5 3 7 2 8 1 9 4 10 5 11 6 12 7 13
REMARK SMILES IDX 8 15 9 16 10 18 11 19 17 20 12 21 15 22 13 23 14 24 16 25
REMARK SMILES IDX 23 26 24 27 25 28 26 30 27 31 28 32 74 33 29 34 73 35 30 36
REMARK SMILES IDX 31 37 32 38 67 39 33 40 72 41 66 42 68 43 34 44 71 45 65 46
REMARK SMILES IDX 64 47 35 49 57 50 42 51 56 52 43 53 46 54 55 55 69 56 44 57
REMARK SMILES IDX 45 58 54 60 70 61 47 62 36 63 37 64 41 65 38 66 40 67 39 68
REMARK SMILES IDX 58 69 59 70 63 71 60 72 62 73 61 74 48 75 49 76 53 77 50 78
REMARK SMILES IDX 52 79 51 80
REMARK H PARENT 20 6 6 14 9 17 24 29 68 48 46 59
REMARK Flexibility Score: inf
ROOT
ATOM      1  C   UNL A   1      37.502  19.765  24.643  1.00  0.00     0.042 C 
ENDROOT
BRANCH   1   2
ATOM      2  C   UNL A   1      36.024  19.954  25.016  1.00  0.00     0.117 C 
BRANCH   2   3
ATOM      3  N   UNL A   1      35.830  21.070  25.932  1.00  0.00    -0.354 N 
ATOM      4  C   UNL A   1      34.666  21.780  26.215  1.00  0.00     0.245 C 
ATOM      5  O   UNL A   1      34.097  21.678  27.296  1.00  0.00    -0.272 OA
ATOM      6  H   UNL A   1      36.633  21.363  26.419  1.00  0.00     0.163 HD
BRANCH   4   7
ATOM      7  C   UNL A   1      34.108  22.618  25.029  1.00  0.00     0.120 C 
BRANCH   7   8
ATOM      8  C   UNL A   1      35.004  23.535  24.173  1.00  0.00     0.035 C 
ATOM      9  C   UNL A   1      35.863  22.908  23.098  1.00  0.00     0.007 C 
ENDBRANCH   7   8
BRANCH   7  10
ATOM     10  C   UNL A   1      33.070  23.476  25.858  1.00  0.00     0.035 C 
ATOM     11  C   UNL A   1      33.255  24.960  26.093  1.00  0.00     0.007 C 
ENDBRANCH   7  10
BRANCH   7  12
ATOM     12  N   UNL A   1      33.523  21.635  24.078  1.00  0.00    -0.323 N 
ATOM     13  C   UNL A   1      32.562  21.693  23.135  1.00  0.00     0.320 C 
ATOM     14  H   UNL A   1      33.928  20.741  24.155  1.00  0.00     0.166 HD
ATOM     15  O   UNL A   1      32.207  20.607  22.660  1.00  0.00    -0.248 OA
ATOM     16  N   UNL A   1      31.973  22.788  22.590  1.00  0.00    -0.308 N 
ATOM     17  H   UNL A   1      31.485  22.542  21.771  1.00  0.00     0.171 HD
BRANCH  16  18
ATOM     18  C   UNL A   1      31.847  24.178  22.838  1.00  0.00     0.045 A 
ATOM     19  C   UNL A   1      32.702  25.170  22.343  1.00  0.00     0.046 A 
ATOM     20  C   UNL A   1      30.627  24.619  23.355  1.00  0.00     0.046 A 
ATOM     21  C   UNL A   1      32.497  26.527  22.622  1.00  0.00     0.044 A 
ATOM     22  C   UNL A   1      30.385  25.984  23.571  1.00  0.00     0.044 A 
ATOM     23  Cl  UNL A   1      33.665  27.691  22.125  1.00  0.00    -0.084 Cl
ATOM     24  C   UNL A   1      31.344  26.941  23.263  1.00  0.00     0.041 A 
ATOM     25  Cl  UNL A   1      28.864  26.489  24.197  1.00  0.00    -0.084 Cl
ENDBRANCH  16  18
ENDBRANCH   7  12
ENDBRANCH   4   7
ENDBRANCH   2   3
ENDBRANCH   1   2
BRANCH   1  26
ATOM     26  C   UNL A   1      38.526  20.151  25.707  1.00  0.00     0.118 C 
BRANCH  26  27
ATOM     27  N   UNL A   1      39.683  19.283  25.714  1.00  0.00    -0.352 N 
ATOM     28  C   UNL A   1      40.994  19.571  25.995  1.00  0.00     0.251 C 
ATOM     29  H   UNL A   1      39.501  18.344  25.481  1.00  0.00     0.163 HD
ATOM     30  O   UNL A   1      41.862  18.735  25.776  1.00  0.00    -0.269 OA
BRANCH  28  31
ATOM     31  C   UNL A   1      41.376  20.895  26.538  1.00  0.00     0.039 A 
ATOM     32  C   UNL A   1      41.217  21.113  27.909  1.00  0.00     0.014 A 
ATOM     33  C   UNL A   1      41.828  21.933  25.716  1.00  0.00     0.014 A 
ATOM     34  C   UNL A   1      41.538  22.356  28.457  1.00  0.00     0.010 A 
ATOM     35  C   UNL A   1      42.221  23.150  26.279  1.00  0.00     0.010 A 
ATOM     36  C   UNL A   1      42.058  23.384  27.653  1.00  0.00    -0.014 A 
BRANCH  36  37
ATOM     37  C   UNL A   1      42.395  24.704  28.250  1.00  0.00     0.031 A 
ATOM     38  C   UNL A   1      43.810  25.023  28.659  1.00  0.00     0.074 A 
ATOM     39  C   UNL A   1      41.431  25.629  28.422  1.00  0.00     0.049 A 
ATOM     40  N   UNL A   1      44.300  26.140  29.138  1.00  0.00    -0.248 NA
ATOM     41  C   UNL A   1      44.801  23.943  28.532  1.00  0.00     0.031 C 
ATOM     42  C   UNL A   1      40.013  25.443  28.105  1.00  0.00     0.029 A 
ATOM     43  N   UNL A   1      41.499  26.918  28.892  1.00  0.00    -0.354 N 
ATOM     44  C   UNL A   1      45.648  25.894  29.372  1.00  0.00     0.074 A 
ATOM     45  C   UNL A   1      45.886  24.507  29.041  1.00  0.00     0.031 C 
ATOM     46  C   UNL A   1      39.355  26.588  28.349  1.00  0.00     0.029 A 
ATOM     47  C   UNL A   1      40.294  27.577  28.871  1.00  0.00     0.049 A 
ATOM     48  H   UNL A   1      42.334  27.329  29.215  1.00  0.00     0.167 HD
ATOM     49  C   UNL A   1      46.610  26.748  29.800  1.00  0.00     0.031 A 
ATOM     50  C   UNL A   1      39.979  28.838  29.222  1.00  0.00     0.031 A 
ATOM     51  C   UNL A   1      46.381  28.131  30.130  1.00  0.00     0.049 A 
ATOM     52  C   UNL A   1      41.061  29.764  29.705  1.00  0.00     0.074 A 
ATOM     53  C   UNL A   1      47.300  29.085  30.532  1.00  0.00     0.029 A 
ATOM     54  N   UNL A   1      45.144  28.755  30.102  1.00  0.00    -0.354 N 
ATOM     55  N   UNL A   1      42.343  29.534  29.852  1.00  0.00    -0.248 NA
ATOM     56  C   UNL A   1      40.651  31.133  30.049  1.00  0.00     0.031 C 
ATOM     57  C   UNL A   1      46.610  30.272  30.800  1.00  0.00     0.029 A 
ATOM     58  C   UNL A   1      45.273  30.077  30.497  1.00  0.00     0.049 A 
ATOM     59  H   UNL A   1      44.299  28.323  29.839  1.00  0.00     0.167 HD
ATOM     60  C   UNL A   1      42.898  30.739  30.266  1.00  0.00     0.074 A 
ATOM     61  C   UNL A   1      41.816  31.699  30.331  1.00  0.00     0.031 C 
ATOM     62  C   UNL A   1      44.191  31.025  30.560  1.00  0.00     0.031 A 
BRANCH  49  63
ATOM     63  C   UNL A   1      48.005  26.202  29.945  1.00  0.00    -0.014 A 
ATOM     64  C   UNL A   1      48.870  26.108  28.842  1.00  0.00     0.009 A 
ATOM     65  C   UNL A   1      48.474  25.806  31.207  1.00  0.00     0.009 A 
ATOM     66  C   UNL A   1      50.159  25.590  28.993  1.00  0.00     0.001 A 
ATOM     67  C   UNL A   1      49.774  25.320  31.362  1.00  0.00     0.001 A 
ATOM     68  C   UNL A   1      50.611  25.201  30.253  1.00  0.00     0.000 A 
ENDBRANCH  49  63
BRANCH  50  69
ATOM     69  C   UNL A   1      38.575  29.318  29.103  1.00  0.00    -0.014 A 
ATOM     70  C   UNL A   1      37.708  29.278  30.207  1.00  0.00     0.009 A 
ATOM     71  C   UNL A   1      38.088  29.799  27.878  1.00  0.00     0.009 A 
ATOM     72  C   UNL A   1      36.376  29.674  30.077  1.00  0.00     0.001 A 
ATOM     73  C   UNL A   1      36.764  30.226  27.759  1.00  0.00     0.001 A 
ATOM     74  C   UNL A   1      35.905  30.152  28.855  1.00  0.00     0.000 A 
ENDBRANCH  50  69
BRANCH  62  75
ATOM     75  C   UNL A   1      44.515  32.450  30.923  1.00  0.00    -0.014 A 
ATOM     76  C   UNL A   1      44.502  32.895  32.255  1.00  0.00     0.009 A 
ATOM     77  C   UNL A   1      44.853  33.361  29.909  1.00  0.00     0.009 A 
ATOM     78  C   UNL A   1      44.770  34.232  32.557  1.00  0.00     0.001 A 
ATOM     79  C   UNL A   1      45.157  34.687  30.217  1.00  0.00     0.001 A 
ATOM     80  C   UNL A   1      45.100  35.125  31.538  1.00  0.00     0.000 A 
ENDBRANCH  62  75
ENDBRANCH  36  37
ENDBRANCH  28  31
ENDBRANCH  26  27
ENDBRANCH   1  26
TORSDOF 14
ENDMDL
MODEL 2
REMARK VINA RESULT:     -11.0      1.310      1.908
REMARK SMILES CCC(CC)(NC(=O)Nc1cc(Cl)cc(Cl)c1)C(=O)NCCCNC(=O)c1ccc(-c2c3nc(c(-c4ccccc4)c4ccc([nH]4)c(-c4ccccc4)c4nc(c(-c5ccccc5)c5ccc2[nH]5)C=C4)C=C3)cc1
REMARK SMILES IDX 22 1 21 2 20 3 18 4 19 5 3 7 2 8 1 9 4 10 5 11 6 12 7 13
REMARK SMILES IDX 8 15 9 16 10 18 11 19 17 20 12 21 15 22 13 23 14 24 16 25
REMARK SMILES IDX 23 26 24 27 25 28 26 30 27 31 28 32 74 33 29 34 73 35 30 36
REMARK SMILES IDX 31 37 32 38 67 39 33 40 72 41 66 42 68 43 34 44 71 45 65 46
REMARK SMILES IDX 64 47 35 49 57 50 42 51 56 52 43 53 46 54 55 55 69 56 44 57
REMARK SMILES IDX 45 58 54 60 70 61 47 62 36 63 37 64 41 65 38 66 40 67 39 68
REMARK SMILES IDX 58 69 59 70 63 71 60 72 62 73 61 74 48 75 49 76 53 77 50 78
REMARK SMILES IDX 52 79 51 80
REMARK H PARENT 20 6 6 14 9 17 24 29 68 48 46 59
REMARK Flexibility Score: inf
ROOT
ATOM      1  C   UNL A   1      37.101  19.694  24.977  1.00  0.00     0.042 C 
ENDROOT
BRANCH   1   2
ATOM      2  C   UNL A   1      35.863  20.596  24.857  1.00  0.00     0.117 C 
BRANCH   2   3
ATOM      3  N   UNL A   1      35.473  21.162  26.141  1.00  0.00    -0.354 N 
ATOM      4  C   UNL A   1      34.198  21.455  26.619  1.00  0.00     0.245 C 
ATOM      5  O   UNL A   1      33.681  20.801  27.518  1.00  0.00    -0.272 OA
ATOM      6  H   UNL A   1      36.213  21.365  26.758  1.00  0.00     0.163 HD
BRANCH   4   7
ATOM      7  C   UNL A   1      33.462  22.596  25.860  1.00  0.00     0.120 C 
BRANCH   7   8
ATOM      8  C   UNL A   1      33.227  22.555  24.336  1.00  0.00     0.035 C 
ATOM      9  C   UNL A   1      32.374  21.444  23.765  1.00  0.00     0.007 C 
ENDBRANCH   7   8
BRANCH   7  10
ATOM     10  C   UNL A   1      34.459  23.765  26.235  1.00  0.00     0.035 C 
ATOM     11  C   UNL A   1      35.399  24.380  25.220  1.00  0.00     0.007 C 
ENDBRANCH   7  10
BRANCH   7  12
ATOM     12  N   UNL A   1      32.107  22.680  26.469  1.00  0.00    -0.323 N 
ATOM     13  C   UNL A   1      31.227  23.679  26.673  1.00  0.00     0.320 C 
ATOM     14  H   UNL A   1      31.781  21.810  26.795  1.00  0.00     0.166 HD
ATOM     15  O   UNL A   1      30.257  23.404  27.393  1.00  0.00    -0.248 OA
ATOM     16  N   UNL A   1      31.225  24.930  26.146  1.00  0.00    -0.308 N 
ATOM     17  H   UNL A   1      30.349  25.357  26.283  1.00  0.00     0.171 HD
BRANCH  16  18
ATOM     18  C   UNL A   1      32.099  25.809  25.459  1.00  0.00     0.045 A 
ATOM     19  C   UNL A   1      32.207  25.920  24.067  1.00  0.00     0.046 A 
ATOM     20  C   UNL A   1      32.670  26.843  26.205  1.00  0.00     0.046 A 
ATOM     21  C   UNL A   1      33.086  26.830  23.466  1.00  0.00     0.044 A 
ATOM     22  C   UNL A   1      33.495  27.802  25.597  1.00  0.00     0.044 A 
ATOM     23  Cl  UNL A   1      33.299  26.815  21.757  1.00  0.00    -0.084 Cl
ATOM     24  C   UNL A   1      33.757  27.763  24.234  1.00  0.00     0.041 A 
ATOM     25  Cl  UNL A   1      34.168  29.068  26.547  1.00  0.00    -0.084 Cl
ENDBRANCH  16  18
ENDBRANCH   7  12
ENDBRANCH   4   7
ENDBRANCH   2   3
ENDBRANCH   1   2
BRANCH   1  26
ATOM     26  C   UNL A   1      38.405  20.379  25.379  1.00  0.00     0.118 C 
BRANCH  26  27
ATOM     27  N   UNL A   1      39.500  19.448  25.542  1.00  0.00    -0.352 N 
ATOM     28  C   UNL A   1      40.777  19.667  25.994  1.00  0.00     0.251 C 
ATOM     29  H   UNL A   1      39.299  18.519  25.290  1.00  0.00     0.163 HD
ATOM     30  O   UNL A   1      41.618  18.783  25.894  1.00  0.00    -0.269 OA
BRANCH  28  31
ATOM     31  C   UNL A   1      41.157  20.974  26.578  1.00  0.00     0.039 A 
ATOM     32  C   UNL A   1      41.613  21.971  25.712  1.00  0.00     0.014 A 
ATOM     33  C   UNL A   1      41.125  21.210  27.956  1.00  0.00     0.014 A 
ATOM     34  C   UNL A   1      42.008  23.209  26.224  1.00  0.00     0.010 A 
ATOM     35  C   UNL A   1      41.447  22.474  28.457  1.00  0.00     0.010 A 
ATOM     36  C   UNL A   1      41.915  23.481  27.599  1.00  0.00    -0.014 A 
BRANCH  36  37
ATOM     37  C   UNL A   1      42.340  24.803  28.131  1.00  0.00     0.031 A 
ATOM     38  C   UNL A   1      43.798  25.106  28.361  1.00  0.00     0.074 A 
ATOM     39  C   UNL A   1      41.415  25.745  28.405  1.00  0.00     0.049 A 
ATOM     40  N   UNL A   1      44.357  26.222  28.760  1.00  0.00    -0.248 NA
ATOM     41  C   UNL A   1      44.752  24.010  28.130  1.00  0.00     0.031 C 
ATOM     42  C   UNL A   1      39.968  25.576  28.266  1.00  0.00     0.029 A 
ATOM     43  N   UNL A   1      41.557  27.038  28.845  1.00  0.00    -0.354 N 
ATOM     44  C   UNL A   1      45.721  25.960  28.833  1.00  0.00     0.074 A 
ATOM     45  C   UNL A   1      45.898  24.565  28.495  1.00  0.00     0.031 C 
ATOM     46  C   UNL A   1      39.359  26.733  28.571  1.00  0.00     0.029 A 
ATOM     47  C   UNL A   1      40.367  27.715  28.960  1.00  0.00     0.049 A 
ATOM     48  H   UNL A   1      42.430  27.442  29.058  1.00  0.00     0.167 HD
ATOM     49  C   UNL A   1      46.738  26.804  29.128  1.00  0.00     0.031 A 
ATOM     50  C   UNL A   1      40.114  28.985  29.329  1.00  0.00     0.031 A 
ATOM     51  C   UNL A   1      46.569  28.195  29.463  1.00  0.00     0.049 A 
ATOM     52  C   UNL A   1      41.259  29.901  29.663  1.00  0.00     0.074 A 
ATOM     53  C   UNL A   1      47.543  29.141  29.737  1.00  0.00     0.029 A 
ATOM     54  N   UNL A   1      45.346  28.837  29.576  1.00  0.00    -0.354 N 
ATOM     55  N   UNL A   1      42.546  29.653  29.656  1.00  0.00    -0.248 NA
ATOM     56  C   UNL A   1      40.912  31.280  30.034  1.00  0.00     0.031 C 
ATOM     57  C   UNL A   1      46.906  30.341  30.069  1.00  0.00     0.029 A 
ATOM     58  C   UNL A   1      45.539  30.162  29.934  1.00  0.00     0.049 A 
ATOM     59  H   UNL A   1      44.470  28.415  29.424  1.00  0.00     0.167 HD
ATOM     60  C   UNL A   1      43.163  30.856  29.982  1.00  0.00     0.074 A 
ATOM     61  C   UNL A   1      42.109  31.832  30.164  1.00  0.00     0.031 C 
ATOM     62  C   UNL A   1      44.486  31.127  30.113  1.00  0.00     0.031 A 
BRANCH  49  63
ATOM     63  C   UNL A   1      48.133  26.240  29.111  1.00  0.00    -0.014 A 
ATOM     64  C   UNL A   1      48.907  26.243  27.938  1.00  0.00     0.009 A 
ATOM     65  C   UNL A   1      48.696  25.727  30.290  1.00  0.00     0.009 A 
ATOM     66  C   UNL A   1      50.197  25.706  27.938  1.00  0.00     0.001 A 
ATOM     67  C   UNL A   1      49.998  25.222  30.296  1.00  0.00     0.001 A 
ATOM     68  C   UNL A   1      50.743  25.201  29.117  1.00  0.00     0.000 A 
ENDBRANCH  49  63
BRANCH  50  69
ATOM     69  C   UNL A   1      38.713  29.484  29.374  1.00  0.00    -0.014 A 
ATOM     70  C   UNL A   1      37.915  29.277  30.510  1.00  0.00     0.009 A 
ATOM     71  C   UNL A   1      38.158  30.152  28.271  1.00  0.00     0.009 A 
ATOM     72  C   UNL A   1      36.582  29.695  30.527  1.00  0.00     0.001 A 
ATOM     73  C   UNL A   1      36.836  30.598  28.303  1.00  0.00     0.001 A 
ATOM     74  C   UNL A   1      36.045  30.359  29.426  1.00  0.00     0.000 A 
ENDBRANCH  50  69
BRANCH  62  75
ATOM     75  C   UNL A   1      44.870  32.551  30.414  1.00  0.00    -0.014 A 
ATOM     76  C   UNL A   1      45.087  33.490  29.393  1.00  0.00     0.009 A 
ATOM     77  C   UNL A   1      45.002  32.962  31.750  1.00  0.00     0.009 A 
ATOM     78  C   UNL A   1      45.478  34.795  29.704  1.00  0.00     0.001 A 
ATOM     79  C   UNL A   1      45.357  34.275  32.059  1.00  0.00     0.001 A 
ATOM     80  C   UNL A   1      45.609  35.187  31.035  1.00  0.00     0.000 A 
ENDBRANCH  62  75
ENDBRANCH  36  37
ENDBRANCH  28  31
ENDBRANCH  26  27
ENDBRANCH   1  26
TORSDOF 14
ENDMDL
MODEL 3
REMARK VINA RESULT:     -10.9      2.458      6.999
REMARK SMILES CCC(CC)(NC(=O)Nc1cc(Cl)cc(Cl)c1)C(=O)NCCCNC(=O)c1ccc(-c2c3nc(c(-c4ccccc4)c4ccc([nH]4)c(-c4ccccc4)c4nc(c(-c5ccccc5)c5ccc2[nH]5)C=C4)C=C3)cc1
REMARK SMILES IDX 22 1 21 2 20 3 18 4 19 5 3 7 2 8 1 9 4 10 5 11 6 12 7 13
REMARK SMILES IDX 8 15 9 16 10 18 11 19 17 20 12 21 15 22 13 23 14 24 16 25
REMARK SMILES IDX 23 26 24 27 25 28 26 30 27 31 28 32 74 33 29 34 73 35 30 36
REMARK SMILES IDX 31 37 32 38 67 39 33 40 72 41 66 42 68 43 34 44 71 45 65 46
REMARK SMILES IDX 64 47 35 49 57 50 42 51 56 52 43 53 46 54 55 55 69 56 44 57
REMARK SMILES IDX 45 58 54 60 70 61 47 62 36 63 37 64 41 65 38 66 40 67 39 68
REMARK SMILES IDX 58 69 59 70 63 71 60 72 62 73 61 74 48 75 49 76 53 77 50 78
REMARK SMILES IDX 52 79 51 80
REMARK H PARENT 20 6 6 14 9 17 24 29 68 48 46 59
REMARK Flexibility Score: inf
ROOT
ATOM      1  C   UNL A   1      36.425  23.285  23.945  1.00  0.00     0.042 C 
ENDROOT
BRANCH   1   2
ATOM      2  C   UNL A   1      35.354  22.214  24.203  1.00  0.00     0.117 C 
BRANCH   2   3
ATOM      3  N   UNL A   1      34.897  22.221  25.587  1.00  0.00    -0.354 N 
ATOM      4  C   UNL A   1      33.612  22.032  26.086  1.00  0.00     0.245 C 
ATOM      5  O   UNL A   1      33.304  21.017  26.703  1.00  0.00    -0.272 OA
ATOM      6  H   UNL A   1      35.594  22.382  26.263  1.00  0.00     0.163 HD
BRANCH   4   7
ATOM      7  C   UNL A   1      32.595  23.148  25.714  1.00  0.00     0.120 C 
BRANCH   7   8
ATOM      8  C   UNL A   1      32.161  23.417  24.259  1.00  0.00     0.035 C 
ATOM      9  C   UNL A   1      31.780  22.241  23.388  1.00  0.00     0.007 C 
ENDBRANCH   7   8
BRANCH   7  10
ATOM     10  C   UNL A   1      33.420  24.372  26.281  1.00  0.00     0.035 C 
ATOM     11  C   UNL A   1      33.953  25.470  25.385  1.00  0.00     0.007 C 
ENDBRANCH   7  10
BRANCH   7  12
ATOM     12  N   UNL A   1      31.342  22.817  26.446  1.00  0.00    -0.323 N 
ATOM     13  C   UNL A   1      30.279  23.531  26.864  1.00  0.00     0.320 C 
ATOM     14  H   UNL A   1      31.277  21.862  26.677  1.00  0.00     0.166 HD
ATOM     15  O   UNL A   1      29.498  22.940  27.622  1.00  0.00    -0.248 OA
ATOM     16  N   UNL A   1      29.913  24.791  26.518  1.00  0.00    -0.308 N 
ATOM     17  H   UNL A   1      28.983  24.964  26.789  1.00  0.00     0.171 HD
BRANCH  16  18
ATOM     18  C   UNL A   1      30.461  25.935  25.884  1.00  0.00     0.045 A 
ATOM     19  C   UNL A   1      30.224  26.317  24.558  1.00  0.00     0.046 A 
ATOM     20  C   UNL A   1      31.029  26.905  26.712  1.00  0.00     0.046 A 
ATOM     21  C   UNL A   1      30.792  27.475  24.012  1.00  0.00     0.044 A 
ATOM     22  C   UNL A   1      31.536  28.101  26.182  1.00  0.00     0.044 A 
ATOM     23  Cl  UNL A   1      30.601  27.815  22.334  1.00  0.00    -0.084 Cl
ATOM     24  C   UNL A   1      31.476  28.364  24.819  1.00  0.00     0.041 A 
ATOM     25  Cl  UNL A   1      32.215  29.278  27.237  1.00  0.00    -0.084 Cl
ENDBRANCH  16  18
ENDBRANCH   7  12
ENDBRANCH   4   7
ENDBRANCH   2   3
ENDBRANCH   1   2
BRANCH   1  26
ATOM     26  C   UNL A   1      37.268  23.707  25.146  1.00  0.00     0.118 C 
BRANCH  26  27
ATOM     27  N   UNL A   1      38.215  22.691  25.551  1.00  0.00    -0.352 N 
ATOM     28  C   UNL A   1      39.396  22.817  26.238  1.00  0.00     0.251 C 
ATOM     29  H   UNL A   1      37.978  21.772  25.293  1.00  0.00     0.163 HD
ATOM     30  O   UNL A   1      40.151  21.858  26.332  1.00  0.00    -0.269 OA
BRANCH  28  31
ATOM     31  C   UNL A   1      39.781  24.113  26.845  1.00  0.00     0.039 A 
ATOM     32  C   UNL A   1      39.364  24.375  28.152  1.00  0.00     0.014 A 
ATOM     33  C   UNL A   1      40.489  25.086  26.132  1.00  0.00     0.014 A 
ATOM     34  C   UNL A   1      39.680  25.595  28.752  1.00  0.00     0.010 A 
ATOM     35  C   UNL A   1      40.871  26.274  26.761  1.00  0.00     0.010 A 
ATOM     36  C   UNL A   1      40.450  26.552  28.071  1.00  0.00    -0.014 A 
BRANCH  36  37
ATOM     37  C   UNL A   1      40.780  27.848  28.721  1.00  0.00     0.031 A 
ATOM     38  C   UNL A   1      39.746  28.938  28.830  1.00  0.00     0.074 A 
ATOM     39  C   UNL A   1      42.013  28.051  29.226  1.00  0.00     0.049 A 
ATOM     40  N   UNL A   1      39.835  30.107  29.417  1.00  0.00    -0.248 NA
ATOM     41  C   UNL A   1      38.448  28.694  28.181  1.00  0.00     0.031 C 
ATOM     42  C   UNL A   1      43.123  27.098  29.159  1.00  0.00     0.029 A 
ATOM     43  N   UNL A   1      42.536  29.121  29.910  1.00  0.00    -0.354 N 
ATOM     44  C   UNL A   1      38.613  30.734  29.202  1.00  0.00     0.074 A 
ATOM     45  C   UNL A   1      37.822  29.844  28.382  1.00  0.00     0.031 C 
ATOM     46  C   UNL A   1      44.180  27.608  29.813  1.00  0.00     0.029 A 
ATOM     47  C   UNL A   1      43.836  28.935  30.315  1.00  0.00     0.049 A 
ATOM     48  H   UNL A   1      42.027  29.945  30.091  1.00  0.00     0.167 HD
ATOM     49  C   UNL A   1      38.175  31.930  29.664  1.00  0.00     0.031 A 
ATOM     50  C   UNL A   1      44.658  29.736  31.019  1.00  0.00     0.031 A 
ATOM     51  C   UNL A   1      38.956  32.821  30.482  1.00  0.00     0.049 A 
ATOM     52  C   UNL A   1      44.152  31.064  31.511  1.00  0.00     0.074 A 
ATOM     53  C   UNL A   1      38.583  34.036  31.034  1.00  0.00     0.029 A 
ATOM     54  N   UNL A   1      40.270  32.597  30.862  1.00  0.00    -0.354 N 
ATOM     55  N   UNL A   1      42.970  31.609  31.359  1.00  0.00    -0.248 NA
ATOM     56  C   UNL A   1      45.094  31.878  32.294  1.00  0.00     0.031 C 
ATOM     57  C   UNL A   1      39.689  34.572  31.701  1.00  0.00     0.029 A 
ATOM     58  C   UNL A   1      40.729  33.659  31.625  1.00  0.00     0.049 A 
ATOM     59  H   UNL A   1      40.798  31.801  30.626  1.00  0.00     0.167 HD
ATOM     60  C   UNL A   1      43.013  32.809  32.060  1.00  0.00     0.074 A 
ATOM     61  C   UNL A   1      44.332  32.902  32.649  1.00  0.00     0.031 C 
ATOM     62  C   UNL A   1      42.043  33.745  32.207  1.00  0.00     0.031 A 
BRANCH  49  63
ATOM     63  C   UNL A   1      36.781  32.350  29.283  1.00  0.00    -0.014 A 
ATOM     64  C   UNL A   1      35.665  31.946  30.036  1.00  0.00     0.009 A 
ATOM     65  C   UNL A   1      36.580  33.189  28.175  1.00  0.00     0.009 A 
ATOM     66  C   UNL A   1      34.377  32.338  29.662  1.00  0.00     0.001 A 
ATOM     67  C   UNL A   1      35.295  33.607  27.824  1.00  0.00     0.001 A 
ATOM     68  C   UNL A   1      34.193  33.171  28.560  1.00  0.00     0.000 A 
ENDBRANCH  49  63
BRANCH  50  69
ATOM     69  C   UNL A   1      46.043  29.295  31.332  1.00  0.00    -0.014 A 
ATOM     70  C   UNL A   1      47.124  29.710  30.538  1.00  0.00     0.009 A 
ATOM     71  C   UNL A   1      46.291  28.437  32.415  1.00  0.00     0.009 A 
ATOM     72  C   UNL A   1      48.416  29.247  30.800  1.00  0.00     0.001 A 
ATOM     73  C   UNL A   1      47.587  28.003  32.695  1.00  0.00     0.001 A 
ATOM     74  C   UNL A   1      48.647  28.398  31.880  1.00  0.00     0.000 A 
ENDBRANCH  50  69
BRANCH  62  75
ATOM     75  C   UNL A   1      42.355  34.927  33.086  1.00  0.00    -0.014 A 
ATOM     76  C   UNL A   1      43.040  36.051  32.598  1.00  0.00     0.009 A 
ATOM     77  C   UNL A   1      41.941  34.917  34.428  1.00  0.00     0.009 A 
ATOM     78  C   UNL A   1      43.347  37.117  33.449  1.00  0.00     0.001 A 
ATOM     79  C   UNL A   1      42.217  35.998  35.266  1.00  0.00     0.001 A 
ATOM     80  C   UNL A   1      42.933  37.090  34.779  1.00  0.00     0.000 A 
ENDBRANCH  62  75
ENDBRANCH  36  37
ENDBRANCH  28  31
ENDBRANCH  26  27
ENDBRANCH   1  26
TORSDOF 14
ENDMDL
