MODEL 1
REMARK VINA RESULT:     -10.5      0.000      0.000
REMARK SMILES CC(C)(C[N@H+]1C[C@@H]2C[NH2+]C[C@H]2C1(C)C)C(=O)NCCCNC(=O)c1ccc(-c2c3nc(c(-c4ccccc4)c4ccc([nH]4)c(-c4ccccc4)c4nc(c(-c5ccccc5)c5ccc2[nH]5)C=C4)C=C3)cc1
REMARK SMILES IDX 19 1 18 2 17 3 15 4 16 5 2 7 1 8 3 9 4 10 5 11 6 12 12 13
REMARK SMILES IDX 7 15 11 16 13 17 14 18 8 19 10 20 9 21 20 24 21 25 22 26
REMARK SMILES IDX 23 28 24 29 25 30 71 31 26 32 70 33 27 34 28 35 29 36 64 37
REMARK SMILES IDX 30 38 69 39 63 40 65 41 31 42 68 43 62 44 61 45 32 47 54 48
REMARK SMILES IDX 39 49 53 50 40 51 43 52 52 53 66 54 41 55 42 56 51 58 67 59
REMARK SMILES IDX 44 60 33 61 34 62 38 63 35 64 37 65 36 66 55 67 56 68 60 69
REMARK SMILES IDX 57 70 59 71 58 72 45 73 46 74 50 75 47 76 49 77 48 78
REMARK H PARENT 17 6 5 14 9 22 9 23 21 27 65 46 43 57
REMARK Flexibility Score: inf
ROOT
ATOM      1  C   UNL A   1      33.759  28.207  25.841  1.00  0.00     0.042 C 
ENDROOT
BRANCH   1   2
ATOM      2  C   UNL A   1      32.808  27.332  25.012  1.00  0.00     0.117 C 
BRANCH   2   3
ATOM      3  N   UNL A   1      31.564  26.962  25.661  1.00  0.00    -0.355 N 
ATOM      4  C   UNL A   1      30.993  25.803  26.070  1.00  0.00     0.231 C 
ATOM      5  O   UNL A   1      29.960  25.969  26.734  1.00  0.00    -0.274 OA
ATOM      6  H   UNL A   1      30.996  27.744  25.849  1.00  0.00     0.163 HD
BRANCH   4   7
ATOM      7  C   UNL A   1      31.517  24.384  25.768  1.00  0.00     0.092 C 
ATOM      8  C   UNL A   1      31.355  24.149  24.242  1.00  0.00     0.027 C 
ATOM      9  C   UNL A   1      30.609  23.303  26.402  1.00  0.00     0.027 C 
BRANCH   7  10
ATOM     10  C   UNL A   1      32.993  24.145  26.249  1.00  0.00     0.279 C 
BRANCH  10  11
ATOM     11  N   UNL A   1      34.091  23.653  25.418  1.00  0.00    -0.329 N 
ATOM     12  C   UNL A   1      35.248  24.497  25.085  1.00  0.00     0.272 C 
ATOM     13  C   UNL A   1      34.492  22.216  25.385  1.00  0.00     0.101 C 
ATOM     14  H   UNL A   1      33.394  23.772  24.684  1.00  0.00     0.348 HD
ATOM     15  C   UNL A   1      36.347  23.661  25.674  1.00  0.00     0.114 C 
ATOM     16  C   UNL A   1      35.993  22.309  25.100  1.00  0.00     0.119 C 
ATOM     17  C   UNL A   1      34.209  21.399  26.637  1.00  0.00     0.079 C 
ATOM     18  C   UNL A   1      33.763  21.548  24.206  1.00  0.00     0.079 C 
ATOM     19  C   UNL A   1      37.804  23.744  25.319  1.00  0.00     0.270 C 
ATOM     20  C   UNL A   1      37.095  21.474  25.706  1.00  0.00     0.271 C 
ATOM     21  N   UNL A   1      38.287  22.362  25.607  1.00  0.00    -0.345 N 
ATOM     22  H   UNL A   1      38.801  22.351  26.488  1.00  0.00     0.346 HD
ATOM     23  H   UNL A   1      38.909  22.042  24.866  1.00  0.00     0.346 HD
ENDBRANCH  10  11
ENDBRANCH   7  10
ENDBRANCH   4   7
ENDBRANCH   2   3
ENDBRANCH   1   2
BRANCH   1  24
ATOM     24  C   UNL A   1      33.380  28.498  27.293  1.00  0.00     0.118 C 
BRANCH  24  25
ATOM     25  N   UNL A   1      33.402  29.917  27.597  1.00  0.00    -0.352 N 
ATOM     26  C   UNL A   1      34.399  30.672  28.165  1.00  0.00     0.251 C 
ATOM     27  H   UNL A   1      32.583  30.411  27.362  1.00  0.00     0.163 HD
ATOM     28  O   UNL A   1      34.149  31.817  28.543  1.00  0.00    -0.269 OA
BRANCH  26  29
ATOM     29  C   UNL A   1      35.768  30.134  28.346  1.00  0.00     0.039 A 
ATOM     30  C   UNL A   1      36.125  29.626  29.600  1.00  0.00     0.014 A 
ATOM     31  C   UNL A   1      36.730  30.208  27.333  1.00  0.00     0.014 A 
ATOM     32  C   UNL A   1      37.427  29.169  29.830  1.00  0.00     0.010 A 
ATOM     33  C   UNL A   1      38.017  29.705  27.548  1.00  0.00     0.010 A 
ATOM     34  C   UNL A   1      38.384  29.197  28.803  1.00  0.00    -0.014 A 
BRANCH  34  35
ATOM     35  C   UNL A   1      39.778  28.741  29.050  1.00  0.00     0.031 A 
ATOM     36  C   UNL A   1      40.766  29.651  29.733  1.00  0.00     0.074 A 
ATOM     37  C   UNL A   1      40.172  27.517  28.650  1.00  0.00     0.049 A 
ATOM     38  N   UNL A   1      42.027  29.438  30.017  1.00  0.00    -0.248 NA
ATOM     39  C   UNL A   1      40.274  30.977  30.136  1.00  0.00     0.031 C 
ATOM     40  C   UNL A   1      39.330  26.533  27.971  1.00  0.00     0.029 A 
ATOM     41  N   UNL A   1      41.391  26.892  28.764  1.00  0.00    -0.354 N 
ATOM     42  C   UNL A   1      42.481  30.604  30.619  1.00  0.00     0.074 A 
ATOM     43  C   UNL A   1      41.373  31.535  30.626  1.00  0.00     0.031 C 
ATOM     44  C   UNL A   1      40.048  25.420  27.749  1.00  0.00     0.029 A 
ATOM     45  C   UNL A   1      41.409  25.622  28.243  1.00  0.00     0.049 A 
ATOM     46  H   UNL A   1      42.177  27.315  29.178  1.00  0.00     0.167 HD
ATOM     47  C   UNL A   1      43.703  30.877  31.137  1.00  0.00     0.031 A 
ATOM     48  C   UNL A   1      42.404  24.719  28.169  1.00  0.00     0.031 A 
ATOM     49  C   UNL A   1      44.811  29.958  31.149  1.00  0.00     0.049 A 
ATOM     50  C   UNL A   1      43.760  25.053  28.724  1.00  0.00     0.074 A 
ATOM     51  C   UNL A   1      46.072  30.135  31.692  1.00  0.00     0.029 A 
ATOM     52  N   UNL A   1      44.789  28.690  30.595  1.00  0.00    -0.354 N 
ATOM     53  N   UNL A   1      44.158  26.146  29.326  1.00  0.00    -0.248 NA
ATOM     54  C   UNL A   1      44.800  24.022  28.593  1.00  0.00     0.031 C 
ATOM     55  C   UNL A   1      46.827  28.986  31.433  1.00  0.00     0.029 A 
ATOM     56  C   UNL A   1      46.021  28.079  30.764  1.00  0.00     0.049 A 
ATOM     57  H   UNL A   1      44.013  28.282  30.146  1.00  0.00     0.167 HD
ATOM     58  C   UNL A   1      45.486  25.926  29.670  1.00  0.00     0.074 A 
ATOM     59  C   UNL A   1      45.823  24.592  29.216  1.00  0.00     0.031 C 
ATOM     60  C   UNL A   1      46.347  26.754  30.308  1.00  0.00     0.031 A 
BRANCH  47  61
ATOM     61  C   UNL A   1      43.908  32.242  31.729  1.00  0.00    -0.014 A 
ATOM     62  C   UNL A   1      43.656  32.485  33.089  1.00  0.00     0.009 A 
ATOM     63  C   UNL A   1      44.385  33.288  30.926  1.00  0.00     0.009 A 
ATOM     64  C   UNL A   1      43.844  33.762  33.624  1.00  0.00     0.001 A 
ATOM     65  C   UNL A   1      44.594  34.558  31.469  1.00  0.00     0.001 A 
ATOM     66  C   UNL A   1      44.315  34.795  32.814  1.00  0.00     0.000 A 
ENDBRANCH  47  61
BRANCH  48  67
ATOM     67  C   UNL A   1      42.154  23.389  27.556  1.00  0.00    -0.014 A 
ATOM     68  C   UNL A   1      41.573  22.361  28.312  1.00  0.00     0.009 A 
ATOM     69  C   UNL A   1      42.502  23.141  26.220  1.00  0.00     0.009 A 
ATOM     70  C   UNL A   1      41.362  21.102  27.746  1.00  0.00     0.001 A 
ATOM     71  C   UNL A   1      42.271  21.887  25.651  1.00  0.00     0.001 A 
ATOM     72  C   UNL A   1      41.707  20.867  26.416  1.00  0.00     0.000 A 
ENDBRANCH  48  67
BRANCH  60  73
ATOM     73  C   UNL A   1      47.728  26.232  30.580  1.00  0.00    -0.014 A 
ATOM     74  C   UNL A   1      48.719  26.250  29.589  1.00  0.00     0.009 A 
ATOM     75  C   UNL A   1      48.049  25.746  31.858  1.00  0.00     0.009 A 
ATOM     76  C   UNL A   1      50.000  25.765  29.862  1.00  0.00     0.001 A 
ATOM     77  C   UNL A   1      49.336  25.282  32.135  1.00  0.00     0.001 A 
ATOM     78  C   UNL A   1      50.308  25.285  31.136  1.00  0.00     0.000 A 
ENDBRANCH  60  73
ENDBRANCH  34  35
ENDBRANCH  26  29
ENDBRANCH  24  25
ENDBRANCH   1  24
TORSDOF 12
ENDMDL
MODEL 2
REMARK VINA RESULT:     -10.5      1.424      2.203
REMARK SMILES CC(C)(C[N@H+]1C[C@@H]2C[NH2+]C[C@H]2C1(C)C)C(=O)NCCCNC(=O)c1ccc(-c2c3nc(c(-c4ccccc4)c4ccc([nH]4)c(-c4ccccc4)c4nc(c(-c5ccccc5)c5ccc2[nH]5)C=C4)C=C3)cc1
REMARK SMILES IDX 19 1 18 2 17 3 15 4 16 5 2 7 1 8 3 9 4 10 5 11 6 12 12 13
REMARK SMILES IDX 7 15 11 16 13 17 14 18 8 19 10 20 9 21 20 24 21 25 22 26
REMARK SMILES IDX 23 28 24 29 25 30 71 31 26 32 70 33 27 34 28 35 29 36 64 37
REMARK SMILES IDX 30 38 69 39 63 40 65 41 31 42 68 43 62 44 61 45 32 47 54 48
REMARK SMILES IDX 39 49 53 50 40 51 43 52 52 53 66 54 41 55 42 56 51 58 67 59
REMARK SMILES IDX 44 60 33 61 34 62 38 63 35 64 37 65 36 66 55 67 56 68 60 69
REMARK SMILES IDX 57 70 59 71 58 72 45 73 46 74 50 75 47 76 49 77 48 78
REMARK H PARENT 17 6 5 14 9 22 9 23 21 27 65 46 43 57
REMARK Flexibility Score: inf
ROOT
ATOM      1  C   UNL A   1      33.978  28.147  26.090  1.00  0.00     0.042 C 
ENDROOT
BRANCH   1   2
ATOM      2  C   UNL A   1      33.005  27.899  24.928  1.00  0.00     0.117 C 
BRANCH   2   3
ATOM      3  N   UNL A   1      33.584  27.945  23.599  1.00  0.00    -0.355 N 
ATOM      4  C   UNL A   1      33.479  27.201  22.471  1.00  0.00     0.231 C 
ATOM      5  O   UNL A   1      34.051  27.703  21.494  1.00  0.00    -0.274 OA
ATOM      6  H   UNL A   1      34.206  28.700  23.490  1.00  0.00     0.163 HD
BRANCH   4   7
ATOM      7  C   UNL A   1      32.744  25.851  22.347  1.00  0.00     0.092 C 
ATOM      8  C   UNL A   1      32.625  25.528  20.832  1.00  0.00     0.027 C 
ATOM      9  C   UNL A   1      31.272  25.968  22.810  1.00  0.00     0.027 C 
BRANCH   7  10
ATOM     10  C   UNL A   1      33.430  24.686  23.147  1.00  0.00     0.279 C 
BRANCH  10  11
ATOM     11  N   UNL A   1      32.768  23.811  24.114  1.00  0.00    -0.329 N 
ATOM     12  C   UNL A   1      32.244  22.492  23.730  1.00  0.00     0.272 C 
ATOM     13  C   UNL A   1      33.113  23.812  25.565  1.00  0.00     0.101 C 
ATOM     14  H   UNL A   1      32.019  24.492  23.997  1.00  0.00     0.348 HD
ATOM     15  C   UNL A   1      33.043  21.624  24.659  1.00  0.00     0.114 C 
ATOM     16  C   UNL A   1      32.832  22.360  25.962  1.00  0.00     0.119 C 
ATOM     17  C   UNL A   1      34.530  24.230  25.931  1.00  0.00     0.079 C 
ATOM     18  C   UNL A   1      32.136  24.761  26.283  1.00  0.00     0.079 C 
ATOM     19  C   UNL A   1      32.697  20.221  25.070  1.00  0.00     0.270 C 
ATOM     20  C   UNL A   1      33.648  21.488  26.886  1.00  0.00     0.271 C 
ATOM     21  N   UNL A   1      33.338  20.110  26.413  1.00  0.00    -0.345 N 
ATOM     22  H   UNL A   1      34.199  19.567  26.342  1.00  0.00     0.346 HD
ATOM     23  H   UNL A   1      32.714  19.641  27.067  1.00  0.00     0.346 HD
ENDBRANCH  10  11
ENDBRANCH   7  10
ENDBRANCH   4   7
ENDBRANCH   2   3
ENDBRANCH   1   2
BRANCH   1  24
ATOM     24  C   UNL A   1      33.388  28.535  27.446  1.00  0.00     0.118 C 
BRANCH  24  25
ATOM     25  N   UNL A   1      33.428  29.968  27.677  1.00  0.00    -0.352 N 
ATOM     26  C   UNL A   1      34.438  30.738  28.197  1.00  0.00     0.251 C 
ATOM     27  H   UNL A   1      32.612  30.458  27.425  1.00  0.00     0.163 HD
ATOM     28  O   UNL A   1      34.204  31.904  28.519  1.00  0.00    -0.269 OA
BRANCH  26  29
ATOM     29  C   UNL A   1      35.804  30.195  28.392  1.00  0.00     0.039 A 
ATOM     30  C   UNL A   1      36.143  29.677  29.647  1.00  0.00     0.014 A 
ATOM     31  C   UNL A   1      36.778  30.273  27.392  1.00  0.00     0.014 A 
ATOM     32  C   UNL A   1      37.440  29.214  29.890  1.00  0.00     0.010 A 
ATOM     33  C   UNL A   1      38.061  29.764  27.620  1.00  0.00     0.010 A 
ATOM     34  C   UNL A   1      38.410  29.246  28.877  1.00  0.00    -0.014 A 
BRANCH  34  35
ATOM     35  C   UNL A   1      39.799  28.784  29.139  1.00  0.00     0.031 A 
ATOM     36  C   UNL A   1      40.778  29.682  29.848  1.00  0.00     0.074 A 
ATOM     37  C   UNL A   1      40.197  27.564  28.729  1.00  0.00     0.049 A 
ATOM     38  N   UNL A   1      42.035  29.463  30.148  1.00  0.00    -0.248 NA
ATOM     39  C   UNL A   1      40.284  31.005  30.261  1.00  0.00     0.031 C 
ATOM     40  C   UNL A   1      39.363  26.591  28.024  1.00  0.00     0.029 A 
ATOM     41  N   UNL A   1      41.413  26.935  28.852  1.00  0.00    -0.354 N 
ATOM     42  C   UNL A   1      42.482  30.620  30.772  1.00  0.00     0.074 A 
ATOM     43  C   UNL A   1      41.376  31.553  30.774  1.00  0.00     0.031 C 
ATOM     44  C   UNL A   1      40.083  25.479  27.798  1.00  0.00     0.029 A 
ATOM     45  C   UNL A   1      41.436  25.672  28.315  1.00  0.00     0.049 A 
ATOM     46  H   UNL A   1      42.194  27.351  29.284  1.00  0.00     0.167 HD
ATOM     47  C   UNL A   1      43.697  30.883  31.312  1.00  0.00     0.031 A 
ATOM     48  C   UNL A   1      42.431  24.768  28.244  1.00  0.00     0.031 A 
ATOM     49  C   UNL A   1      44.802  29.962  31.329  1.00  0.00     0.049 A 
ATOM     50  C   UNL A   1      43.778  25.092  28.823  1.00  0.00     0.074 A 
ATOM     51  C   UNL A   1      46.056  30.130  31.892  1.00  0.00     0.029 A 
ATOM     52  N   UNL A   1      44.787  28.701  30.757  1.00  0.00    -0.354 N 
ATOM     53  N   UNL A   1      44.170  26.176  29.446  1.00  0.00    -0.248 NA
ATOM     54  C   UNL A   1      44.819  24.060  28.695  1.00  0.00     0.031 C 
ATOM     55  C   UNL A   1      46.813  28.982  31.629  1.00  0.00     0.029 A 
ATOM     56  C   UNL A   1      46.015  28.086  30.937  1.00  0.00     0.049 A 
ATOM     57  H   UNL A   1      44.017  28.301  30.292  1.00  0.00     0.167 HD
ATOM     58  C   UNL A   1      45.492  25.948  29.807  1.00  0.00     0.074 A 
ATOM     59  C   UNL A   1      45.833  24.620  29.340  1.00  0.00     0.031 C 
ATOM     60  C   UNL A   1      46.345  26.766  30.468  1.00  0.00     0.031 A 
BRANCH  47  61
ATOM     61  C   UNL A   1      43.896  32.240  31.925  1.00  0.00    -0.014 A 
ATOM     62  C   UNL A   1      43.626  32.466  33.285  1.00  0.00     0.009 A 
ATOM     63  C   UNL A   1      44.385  33.297  31.142  1.00  0.00     0.009 A 
ATOM     64  C   UNL A   1      43.809  33.735  33.839  1.00  0.00     0.001 A 
ATOM     65  C   UNL A   1      44.588  34.558  31.705  1.00  0.00     0.001 A 
ATOM     66  C   UNL A   1      44.291  34.778  33.050  1.00  0.00     0.000 A 
ENDBRANCH  47  61
BRANCH  48  67
ATOM     67  C   UNL A   1      42.187  23.447  27.610  1.00  0.00    -0.014 A 
ATOM     68  C   UNL A   1      42.507  23.241  26.260  1.00  0.00     0.009 A 
ATOM     69  C   UNL A   1      41.627  22.393  28.346  1.00  0.00     0.009 A 
ATOM     70  C   UNL A   1      42.254  22.010  25.654  1.00  0.00     0.001 A 
ATOM     71  C   UNL A   1      41.394  21.155  27.743  1.00  0.00     0.001 A 
ATOM     72  C   UNL A   1      41.702  20.967  26.397  1.00  0.00     0.000 A 
ENDBRANCH  48  67
BRANCH  60  73
ATOM     73  C   UNL A   1      47.720  26.237  30.755  1.00  0.00    -0.014 A 
ATOM     74  C   UNL A   1      48.052  25.725  32.018  1.00  0.00     0.009 A 
ATOM     75  C   UNL A   1      48.686  26.221  29.737  1.00  0.00     0.009 A 
ATOM     76  C   UNL A   1      49.335  25.232  32.264  1.00  0.00     0.001 A 
ATOM     77  C   UNL A   1      49.961  25.707  29.979  1.00  0.00     0.001 A 
ATOM     78  C   UNL A   1      50.287  25.220  31.244  1.00  0.00     0.000 A 
ENDBRANCH  60  73
ENDBRANCH  34  35
ENDBRANCH  26  29
ENDBRANCH  24  25
ENDBRANCH   1  24
TORSDOF 12
ENDMDL
MODEL 3
REMARK VINA RESULT:     -10.4      2.145      7.305
REMARK SMILES CC(C)(C[N@H+]1C[C@@H]2C[NH2+]C[C@H]2C1(C)C)C(=O)NCCCNC(=O)c1ccc(-c2c3nc(c(-c4ccccc4)c4ccc([nH]4)c(-c4ccccc4)c4nc(c(-c5ccccc5)c5ccc2[nH]5)C=C4)C=C3)cc1
REMARK SMILES IDX 19 1 18 2 17 3 15 4 16 5 2 7 1 8 3 9 4 10 5 11 6 12 12 13
REMARK SMILES IDX 7 15 11 16 13 17 14 18 8 19 10 20 9 21 20 24 21 25 22 26
REMARK SMILES IDX 23 28 24 29 25 30 71 31 26 32 70 33 27 34 28 35 29 36 64 37
REMARK SMILES IDX 30 38 69 39 63 40 65 41 31 42 68 43 62 44 61 45 32 47 54 48
REMARK SMILES IDX 39 49 53 50 40 51 43 52 52 53 66 54 41 55 42 56 51 58 67 59
REMARK SMILES IDX 44 60 33 61 34 62 38 63 35 64 37 65 36 66 55 67 56 68 60 69
REMARK SMILES IDX 57 70 59 71 58 72 45 73 46 74 50 75 47 76 49 77 48 78
REMARK H PARENT 17 6 5 14 9 22 9 23 21 27 65 46 43 57
REMARK Flexibility Score: inf
ROOT
ATOM      1  C   UNL A   1      37.277  19.896  24.982  1.00  0.00     0.042 C 
ENDROOT
BRANCH   1   2
ATOM      2  C   UNL A   1      36.059  20.822  24.850  1.00  0.00     0.117 C 
BRANCH   2   3
ATOM      3  N   UNL A   1      35.321  21.073  26.074  1.00  0.00    -0.355 N 
ATOM      4  C   UNL A   1      34.154  21.681  26.394  1.00  0.00     0.231 C 
ATOM      5  O   UNL A   1      33.823  21.526  27.577  1.00  0.00    -0.274 OA
ATOM      6  H   UNL A   1      35.782  20.713  26.866  1.00  0.00     0.163 HD
BRANCH   4   7
ATOM      7  C   UNL A   1      33.276  22.508  25.431  1.00  0.00     0.092 C 
ATOM      8  C   UNL A   1      31.859  22.596  26.061  1.00  0.00     0.027 C 
ATOM      9  C   UNL A   1      33.037  21.753  24.101  1.00  0.00     0.027 C 
BRANCH   7  10
ATOM     10  C   UNL A   1      33.866  23.926  25.105  1.00  0.00     0.279 C 
BRANCH  10  11
ATOM     11  N   UNL A   1      33.102  25.171  25.029  1.00  0.00    -0.329 N 
ATOM     12  C   UNL A   1      33.229  26.221  26.049  1.00  0.00     0.272 C 
ATOM     13  C   UNL A   1      32.684  25.778  23.731  1.00  0.00     0.101 C 
ATOM     14  H   UNL A   1      32.343  24.550  25.311  1.00  0.00     0.348 HD
ATOM     15  C   UNL A   1      33.690  27.358  25.183  1.00  0.00     0.114 C 
ATOM     16  C   UNL A   1      32.676  27.273  24.066  1.00  0.00     0.119 C 
ATOM     17  C   UNL A   1      33.560  25.480  22.523  1.00  0.00     0.079 C 
ATOM     18  C   UNL A   1      31.258  25.292  23.417  1.00  0.00     0.079 C 
ATOM     19  C   UNL A   1      33.606  28.818  25.527  1.00  0.00     0.270 C 
ATOM     20  C   UNL A   1      33.153  28.410  23.196  1.00  0.00     0.271 C 
ATOM     21  N   UNL A   1      33.519  29.462  24.185  1.00  0.00    -0.345 N 
ATOM     22  H   UNL A   1      34.421  29.871  23.937  1.00  0.00     0.346 HD
ATOM     23  H   UNL A   1      32.820  30.204  24.191  1.00  0.00     0.346 HD
ENDBRANCH  10  11
ENDBRANCH   7  10
ENDBRANCH   4   7
ENDBRANCH   2   3
ENDBRANCH   1   2
BRANCH   1  24
ATOM     24  C   UNL A   1      38.598  20.514  25.439  1.00  0.00     0.118 C 
BRANCH  24  25
ATOM     25  N   UNL A   1      39.636  19.518  25.636  1.00  0.00    -0.352 N 
ATOM     26  C   UNL A   1      40.943  19.685  26.022  1.00  0.00     0.251 C 
ATOM     27  H   UNL A   1      39.363  18.587  25.468  1.00  0.00     0.163 HD
ATOM     28  O   UNL A   1      41.728  18.741  25.923  1.00  0.00    -0.269 OA
BRANCH  26  29
ATOM     29  C   UNL A   1      41.435  20.982  26.545  1.00  0.00     0.039 A 
ATOM     30  C   UNL A   1      41.280  21.253  27.909  1.00  0.00     0.014 A 
ATOM     31  C   UNL A   1      41.959  21.967  25.701  1.00  0.00     0.014 A 
ATOM     32  C   UNL A   1      41.674  22.490  28.430  1.00  0.00     0.010 A 
ATOM     33  C   UNL A   1      42.397  23.185  26.230  1.00  0.00     0.010 A 
ATOM     34  C   UNL A   1      42.243  23.466  27.597  1.00  0.00    -0.014 A 
BRANCH  34  35
ATOM     35  C   UNL A   1      42.634  24.795  28.139  1.00  0.00     0.031 A 
ATOM     36  C   UNL A   1      41.597  25.868  28.343  1.00  0.00     0.074 A 
ATOM     37  C   UNL A   1      43.922  25.054  28.436  1.00  0.00     0.049 A 
ATOM     38  N   UNL A   1      41.749  27.091  28.786  1.00  0.00    -0.248 NA
ATOM     39  C   UNL A   1      40.211  25.524  27.991  1.00  0.00     0.031 C 
ATOM     40  C   UNL A   1      45.034  24.116  28.282  1.00  0.00     0.029 A 
ATOM     41  N   UNL A   1      44.510  26.191  28.934  1.00  0.00    -0.354 N 
ATOM     42  C   UNL A   1      40.485  27.665  28.754  1.00  0.00     0.074 A 
ATOM     43  C   UNL A   1      39.583  26.670  28.213  1.00  0.00     0.031 C 
ATOM     44  C   UNL A   1      46.166  24.707  28.699  1.00  0.00     0.029 A 
ATOM     45  C   UNL A   1      45.865  26.073  29.122  1.00  0.00     0.049 A 
ATOM     46  H   UNL A   1      44.008  27.013  29.137  1.00  0.00     0.167 HD
ATOM     47  C   UNL A   1      40.099  28.902  29.152  1.00  0.00     0.031 A 
ATOM     48  C   UNL A   1      46.767  26.961  29.583  1.00  0.00     0.031 A 
ATOM     49  C   UNL A   1      40.980  29.897  29.702  1.00  0.00     0.049 A 
ATOM     50  C   UNL A   1      46.321  28.336  29.992  1.00  0.00     0.074 A 
ATOM     51  C   UNL A   1      40.666  31.161  30.173  1.00  0.00     0.029 A 
ATOM     52  N   UNL A   1      42.346  29.741  29.858  1.00  0.00    -0.354 N 
ATOM     53  N   UNL A   1      45.114  28.846  29.993  1.00  0.00    -0.248 NA
ATOM     54  C   UNL A   1      47.364  29.254  30.471  1.00  0.00     0.031 C 
ATOM     55  C   UNL A   1      41.851  31.785  30.579  1.00  0.00     0.029 A 
ATOM     56  C   UNL A   1      42.895  30.892  30.399  1.00  0.00     0.049 A 
ATOM     57  H   UNL A   1      42.854  28.931  29.619  1.00  0.00     0.167 HD
ATOM     58  C   UNL A   1      45.248  30.134  30.495  1.00  0.00     0.074 A 
ATOM     59  C   UNL A   1      46.652  30.324  30.796  1.00  0.00     0.031 C 
ATOM     60  C   UNL A   1      44.292  31.073  30.693  1.00  0.00     0.031 A 
BRANCH  47  61
ATOM     61  C   UNL A   1      38.646  29.251  28.994  1.00  0.00    -0.014 A 
ATOM     62  C   UNL A   1      37.754  29.142  30.073  1.00  0.00     0.009 A 
ATOM     63  C   UNL A   1      38.170  29.719  27.760  1.00  0.00     0.009 A 
ATOM     64  C   UNL A   1      36.405  29.463  29.909  1.00  0.00     0.001 A 
ATOM     65  C   UNL A   1      36.825  30.061  27.605  1.00  0.00     0.001 A 
ATOM     66  C   UNL A   1      35.943  29.924  28.677  1.00  0.00     0.000 A 
ENDBRANCH  47  61
BRANCH  48  67
ATOM     67  C   UNL A   1      48.195  26.571  29.702  1.00  0.00    -0.014 A 
ATOM     68  C   UNL A   1      49.094  26.855  28.664  1.00  0.00     0.009 A 
ATOM     69  C   UNL A   1      48.662  25.909  30.847  1.00  0.00     0.009 A 
ATOM     70  C   UNL A   1      50.431  26.465  28.761  1.00  0.00     0.001 A 
ATOM     71  C   UNL A   1      50.004  25.538  30.951  1.00  0.00     0.001 A 
ATOM     72  C   UNL A   1      50.886  25.812  29.906  1.00  0.00     0.000 A 
ENDBRANCH  48  67
BRANCH  60  73
ATOM     73  C   UNL A   1      44.726  32.380  31.289  1.00  0.00    -0.014 A 
ATOM     74  C   UNL A   1      44.767  32.565  32.679  1.00  0.00     0.009 A 
ATOM     75  C   UNL A   1      45.131  33.428  30.449  1.00  0.00     0.009 A 
ATOM     76  C   UNL A   1      45.179  33.787  33.216  1.00  0.00     0.001 A 
ATOM     77  C   UNL A   1      45.563  34.641  30.988  1.00  0.00     0.001 A 
ATOM     78  C   UNL A   1      45.580  34.822  32.370  1.00  0.00     0.000 A 
ENDBRANCH  60  73
ENDBRANCH  34  35
ENDBRANCH  26  29
ENDBRANCH  24  25
ENDBRANCH   1  24
TORSDOF 12
ENDMDL
