MODEL 1
REMARK VINA RESULT:      -8.5      0.000      0.000
REMARK SMILES COCCOc1ccc([C@H]([NH3+])C(=O)NCCCNC(=O)c2ccc(-c3c4nc(c(-c5ccccc5)c5ccc([nH]5)c(-c5ccccc5)c5nc(c(-c6ccccc6)c6ccc3[nH]6)C=C5)C=C4)cc2)cc1OC
REMARK SMILES IDX 12 1 13 2 14 3 10 5 9 6 6 7 7 8 70 9 8 10 69 11 5 12 4 13
REMARK SMILES IDX 3 14 2 15 1 16 71 17 72 18 11 19 15 23 16 24 17 25 18 26
REMARK SMILES IDX 19 27 20 29 21 30 22 31 68 32 23 33 67 34 24 35 25 36 26 37
REMARK SMILES IDX 61 38 27 39 66 40 60 41 62 42 28 43 65 44 59 45 58 46 29 48
REMARK SMILES IDX 51 49 36 50 50 51 37 52 40 53 49 54 63 55 38 56 39 57 48 59
REMARK SMILES IDX 64 60 41 61 30 62 31 63 35 64 32 65 34 66 33 67 52 68 53 69
REMARK SMILES IDX 57 70 54 71 56 72 55 73 42 74 43 75 47 76 44 77 46 78 45 79
REMARK H PARENT 14 4 11 20 11 21 11 22 18 28 62 47 40 58
REMARK Flexibility Score: inf
ROOT
ATOM      1  C   UNL A   1      45.889  21.890  25.543  1.00  0.00     0.283 C 
ATOM      2  O   UNL A   1      46.089  22.322  26.683  1.00  0.00    -0.268 OA
ATOM      3  N   UNL A   1      45.739  20.539  25.408  1.00  0.00    -0.351 N 
ATOM      4  H   UNL A   1      45.813  20.024  26.244  1.00  0.00     0.163 HD
ENDROOT
BRANCH   1   5
ATOM      5  C   UNL A   1      45.774  22.842  24.324  1.00  0.00     0.302 C 
BRANCH   5   6
ATOM      6  C   UNL A   1      46.011  24.322  24.642  1.00  0.00     0.023 A 
ATOM      7  C   UNL A   1      46.447  26.909  25.709  1.00  0.00     0.161 A 
ATOM      8  C   UNL A   1      47.523  26.152  25.249  1.00  0.00     0.051 A 
ATOM      9  C   UNL A   1      45.148  26.424  25.549  1.00  0.00     0.161 A 
ATOM     10  C   UNL A   1      47.305  24.873  24.709  1.00  0.00     0.014 A 
ATOM     11  C   UNL A   1      44.936  25.134  25.050  1.00  0.00     0.061 A 
BRANCH   7  12
ATOM     12  O   UNL A   1      46.646  27.998  26.512  1.00  0.00    -0.487 OA
BRANCH  12  13
ATOM     13  C   UNL A   1      46.444  29.279  25.907  1.00  0.00     0.258 C 
BRANCH  13  14
ATOM     14  C   UNL A   1      45.782  30.257  26.884  1.00  0.00     0.201 C 
BRANCH  14  15
ATOM     15  O   UNL A   1      46.656  30.917  27.805  1.00  0.00    -0.381 OA
ATOM     16  C   UNL A   1      46.821  32.312  27.619  1.00  0.00     0.195 C 
ENDBRANCH  14  15
ENDBRANCH  13  14
ENDBRANCH  12  13
ENDBRANCH   7  12
BRANCH   9  17
ATOM     17  O   UNL A   1      44.088  27.163  26.005  1.00  0.00    -0.493 OA
ATOM     18  C   UNL A   1      42.898  26.955  25.241  1.00  0.00     0.278 C 
ENDBRANCH   9  17
ENDBRANCH   5   6
BRANCH   5  19
ATOM     19  N   UNL A   1      44.525  22.550  23.590  1.00  0.00    -0.343 N 
ATOM     20  H   UNL A   1      44.185  21.626  23.854  1.00  0.00     0.345 HD
ATOM     21  H   UNL A   1      44.708  22.573  22.587  1.00  0.00     0.345 HD
ATOM     22  H   UNL A   1      43.823  23.251  23.823  1.00  0.00     0.345 HD
ENDBRANCH   5  19
ENDBRANCH   1   5
BRANCH   3  23
ATOM     23  C   UNL A   1      45.488  19.751  24.220  1.00  0.00     0.118 C 
BRANCH  23  24
ATOM     24  C   UNL A   1      44.312  18.802  24.405  1.00  0.00     0.042 C 
BRANCH  24  25
ATOM     25  C   UNL A   1      43.575  18.986  25.726  1.00  0.00     0.118 C 
BRANCH  25  26
ATOM     26  N   UNL A   1      42.131  18.861  25.584  1.00  0.00    -0.352 N 
ATOM     27  C   UNL A   1      41.124  19.676  26.027  1.00  0.00     0.251 C 
ATOM     28  H   UNL A   1      41.831  18.063  25.093  1.00  0.00     0.163 HD
ATOM     29  O   UNL A   1      39.959  19.279  25.975  1.00  0.00    -0.269 OA
BRANCH  27  30
ATOM     30  C   UNL A   1      41.420  21.013  26.579  1.00  0.00     0.039 A 
ATOM     31  C   UNL A   1      41.388  21.189  27.965  1.00  0.00     0.014 A 
ATOM     32  C   UNL A   1      41.696  22.100  25.745  1.00  0.00     0.014 A 
ATOM     33  C   UNL A   1      41.682  22.439  28.512  1.00  0.00     0.010 A 
ATOM     34  C   UNL A   1      42.079  23.320  26.293  1.00  0.00     0.010 A 
ATOM     35  C   UNL A   1      42.063  23.507  27.683  1.00  0.00    -0.014 A 
BRANCH  35  36
ATOM     36  C   UNL A   1      42.441  24.822  28.259  1.00  0.00     0.031 A 
ATOM     37  C   UNL A   1      41.409  25.902  28.435  1.00  0.00     0.074 A 
ATOM     38  C   UNL A   1      43.726  25.057  28.588  1.00  0.00     0.049 A 
ATOM     39  N   UNL A   1      41.555  27.112  28.914  1.00  0.00    -0.248 NA
ATOM     40  C   UNL A   1      40.037  25.592  27.997  1.00  0.00     0.031 C 
ATOM     41  C   UNL A   1      44.830  24.108  28.426  1.00  0.00     0.029 A 
ATOM     42  N   UNL A   1      44.321  26.167  29.132  1.00  0.00    -0.354 N 
ATOM     43  C   UNL A   1      40.303  27.708  28.823  1.00  0.00     0.074 A 
ATOM     44  C   UNL A   1      39.423  26.750  28.191  1.00  0.00     0.031 C 
ATOM     45  C   UNL A   1      45.958  24.662  28.898  1.00  0.00     0.029 A 
ATOM     46  C   UNL A   1      45.668  26.018  29.352  1.00  0.00     0.049 A 
ATOM     47  H   UNL A   1      43.829  26.993  29.344  1.00  0.00     0.167 HD
ATOM     48  C   UNL A   1      39.914  28.935  29.247  1.00  0.00     0.031 A 
ATOM     49  C   UNL A   1      46.571  26.875  29.862  1.00  0.00     0.031 A 
ATOM     50  C   UNL A   1      40.789  29.887  29.877  1.00  0.00     0.049 A 
ATOM     51  C   UNL A   1      46.118  28.240  30.304  1.00  0.00     0.074 A 
ATOM     52  C   UNL A   1      40.479  31.135  30.389  1.00  0.00     0.029 A 
ATOM     53  N   UNL A   1      42.148  29.699  30.074  1.00  0.00    -0.354 N 
ATOM     54  N   UNL A   1      44.914  28.759  30.281  1.00  0.00    -0.248 NA
ATOM     55  C   UNL A   1      47.148  29.129  30.857  1.00  0.00     0.031 C 
ATOM     56  C   UNL A   1      41.662  31.728  30.840  1.00  0.00     0.029 A 
ATOM     57  C   UNL A   1      42.697  30.821  30.674  1.00  0.00     0.049 A 
ATOM     58  H   UNL A   1      42.649  28.889  29.826  1.00  0.00     0.167 HD
ATOM     59  C   UNL A   1      45.037  30.023  30.842  1.00  0.00     0.074 A 
ATOM     60  C   UNL A   1      46.428  30.183  31.215  1.00  0.00     0.031 C 
ATOM     61  C   UNL A   1      44.084  30.967  31.035  1.00  0.00     0.031 A 
BRANCH  48  62
ATOM     62  C   UNL A   1      38.474  29.318  29.032  1.00  0.00    -0.014 A 
ATOM     63  C   UNL A   1      37.532  29.231  30.069  1.00  0.00     0.009 A 
ATOM     64  C   UNL A   1      38.062  29.809  27.782  1.00  0.00     0.009 A 
ATOM     65  C   UNL A   1      36.199  29.589  29.849  1.00  0.00     0.001 A 
ATOM     66  C   UNL A   1      36.737  30.198  27.574  1.00  0.00     0.001 A 
ATOM     67  C   UNL A   1      35.805  30.077  28.604  1.00  0.00     0.000 A 
ENDBRANCH  48  62
BRANCH  49  68
ATOM     68  C   UNL A   1      47.996  26.468  29.996  1.00  0.00    -0.014 A 
ATOM     69  C   UNL A   1      48.900  26.675  28.944  1.00  0.00     0.009 A 
ATOM     70  C   UNL A   1      48.456  25.862  31.176  1.00  0.00     0.009 A 
ATOM     71  C   UNL A   1      50.227  26.254  29.056  1.00  0.00     0.001 A 
ATOM     72  C   UNL A   1      49.791  25.472  31.298  1.00  0.00     0.001 A 
ATOM     73  C   UNL A   1      50.672  25.657  30.234  1.00  0.00     0.000 A 
ENDBRANCH  49  68
BRANCH  61  74
ATOM     74  C   UNL A   1      44.506  32.242  31.711  1.00  0.00    -0.014 A 
ATOM     75  C   UNL A   1      44.486  32.375  33.108  1.00  0.00     0.009 A 
ATOM     76  C   UNL A   1      44.963  33.320  30.933  1.00  0.00     0.009 A 
ATOM     77  C   UNL A   1      44.871  33.575  33.709  1.00  0.00     0.001 A 
ATOM     78  C   UNL A   1      45.381  34.505  31.539  1.00  0.00     0.001 A 
ATOM     79  C   UNL A   1      45.324  34.636  32.925  1.00  0.00     0.000 A 
ENDBRANCH  61  74
ENDBRANCH  35  36
ENDBRANCH  27  30
ENDBRANCH  25  26
ENDBRANCH  24  25
ENDBRANCH  23  24
ENDBRANCH   3  23
TORSDOF 17
ENDMDL
MODEL 2
REMARK VINA RESULT:      -8.5      0.394      6.062
REMARK SMILES COCCOc1ccc([C@H]([NH3+])C(=O)NCCCNC(=O)c2ccc(-c3c4nc(c(-c5ccccc5)c5ccc([nH]5)c(-c5ccccc5)c5nc(c(-c6ccccc6)c6ccc3[nH]6)C=C5)C=C4)cc2)cc1OC
REMARK SMILES IDX 12 1 13 2 14 3 10 5 9 6 6 7 7 8 70 9 8 10 69 11 5 12 4 13
REMARK SMILES IDX 3 14 2 15 1 16 71 17 72 18 11 19 15 23 16 24 17 25 18 26
REMARK SMILES IDX 19 27 20 29 21 30 22 31 68 32 23 33 67 34 24 35 25 36 26 37
REMARK SMILES IDX 61 38 27 39 66 40 60 41 62 42 28 43 65 44 59 45 58 46 29 48
REMARK SMILES IDX 51 49 36 50 50 51 37 52 40 53 49 54 63 55 38 56 39 57 48 59
REMARK SMILES IDX 64 60 41 61 30 62 31 63 35 64 32 65 34 66 33 67 52 68 53 69
REMARK SMILES IDX 57 70 54 71 56 72 55 73 42 74 43 75 47 76 44 77 46 78 45 79
REMARK H PARENT 14 4 11 20 11 21 11 22 18 28 62 47 40 58
REMARK Flexibility Score: inf
ROOT
ATOM      1  C   UNL A   1      45.875  21.945  25.610  1.00  0.00     0.283 C 
ATOM      2  O   UNL A   1      46.102  22.345  26.757  1.00  0.00    -0.268 OA
ATOM      3  N   UNL A   1      45.781  20.593  25.432  1.00  0.00    -0.351 N 
ATOM      4  H   UNL A   1      45.914  20.053  26.245  1.00  0.00     0.163 HD
ENDROOT
BRANCH   1   5
ATOM      5  C   UNL A   1      45.666  22.932  24.433  1.00  0.00     0.302 C 
BRANCH   5   6
ATOM      6  C   UNL A   1      45.828  24.411  24.800  1.00  0.00     0.023 A 
ATOM      7  C   UNL A   1      46.062  26.988  25.952  1.00  0.00     0.161 A 
ATOM      8  C   UNL A   1      47.206  26.257  25.634  1.00  0.00     0.051 A 
ATOM      9  C   UNL A   1      44.807  26.482  25.608  1.00  0.00     0.161 A 
ATOM     10  C   UNL A   1      47.089  24.984  25.052  1.00  0.00     0.014 A 
ATOM     11  C   UNL A   1      44.691  25.197  25.068  1.00  0.00     0.061 A 
BRANCH   7  12
ATOM     12  O   UNL A   1      46.128  28.068  26.789  1.00  0.00    -0.487 OA
BRANCH  12  13
ATOM     13  C   UNL A   1      47.357  28.801  26.786  1.00  0.00     0.258 C 
BRANCH  13  14
ATOM     14  C   UNL A   1      47.106  30.306  26.642  1.00  0.00     0.201 C 
BRANCH  14  15
ATOM     15  O   UNL A   1      46.832  31.018  27.852  1.00  0.00    -0.381 OA
ATOM     16  C   UNL A   1      46.514  32.392  27.710  1.00  0.00     0.195 C 
ENDBRANCH  14  15
ENDBRANCH  13  14
ENDBRANCH  12  13
ENDBRANCH   7  12
BRANCH   9  17
ATOM     17  O   UNL A   1      43.680  27.195  25.924  1.00  0.00    -0.493 OA
ATOM     18  C   UNL A   1      42.567  26.872  25.087  1.00  0.00     0.278 C 
ENDBRANCH   9  17
ENDBRANCH   5   6
BRANCH   5  19
ATOM     19  N   UNL A   1      44.414  22.595  23.726  1.00  0.00    -0.343 N 
ATOM     20  H   UNL A   1      44.120  21.653  23.987  1.00  0.00     0.345 HD
ATOM     21  H   UNL A   1      44.571  22.637  22.720  1.00  0.00     0.345 HD
ATOM     22  H   UNL A   1      43.688  23.262  23.985  1.00  0.00     0.345 HD
ENDBRANCH   5  19
ENDBRANCH   1   5
BRANCH   3  23
ATOM     23  C   UNL A   1      45.518  19.837  24.227  1.00  0.00     0.118 C 
BRANCH  23  24
ATOM     24  C   UNL A   1      44.343  18.885  24.399  1.00  0.00     0.042 C 
BRANCH  24  25
ATOM     25  C   UNL A   1      43.600  19.057  25.718  1.00  0.00     0.118 C 
BRANCH  25  26
ATOM     26  N   UNL A   1      42.161  18.885  25.577  1.00  0.00    -0.352 N 
ATOM     27  C   UNL A   1      41.128  19.667  26.023  1.00  0.00     0.251 C 
ATOM     28  H   UNL A   1      41.886  18.080  25.083  1.00  0.00     0.163 HD
ATOM     29  O   UNL A   1      39.976  19.233  25.970  1.00  0.00    -0.269 OA
BRANCH  27  30
ATOM     30  C   UNL A   1      41.382  21.011  26.579  1.00  0.00     0.039 A 
ATOM     31  C   UNL A   1      41.336  21.183  27.964  1.00  0.00     0.014 A 
ATOM     32  C   UNL A   1      41.630  22.107  25.747  1.00  0.00     0.014 A 
ATOM     33  C   UNL A   1      41.591  22.440  28.515  1.00  0.00     0.010 A 
ATOM     34  C   UNL A   1      41.973  23.337  26.300  1.00  0.00     0.010 A 
ATOM     35  C   UNL A   1      41.944  23.520  27.690  1.00  0.00    -0.014 A 
BRANCH  35  36
ATOM     36  C   UNL A   1      42.279  24.845  28.271  1.00  0.00     0.031 A 
ATOM     37  C   UNL A   1      43.679  25.143  28.732  1.00  0.00     0.074 A 
ATOM     38  C   UNL A   1      41.309  25.769  28.418  1.00  0.00     0.049 A 
ATOM     39  N   UNL A   1      44.156  26.239  29.269  1.00  0.00    -0.248 NA
ATOM     40  C   UNL A   1      44.671  24.064  28.594  1.00  0.00     0.031 C 
ATOM     41  C   UNL A   1      39.903  25.588  28.050  1.00  0.00     0.029 A 
ATOM     42  N   UNL A   1      41.360  27.047  28.914  1.00  0.00    -0.354 N 
ATOM     43  C   UNL A   1      45.492  25.976  29.542  1.00  0.00     0.074 A 
ATOM     44  C   UNL A   1      45.739  24.601  29.167  1.00  0.00     0.031 C 
ATOM     45  C   UNL A   1      39.235  26.727  28.295  1.00  0.00     0.029 A 
ATOM     46  C   UNL A   1      40.152  27.700  28.879  1.00  0.00     0.049 A 
ATOM     47  H   UNL A   1      42.184  27.458  29.263  1.00  0.00     0.167 HD
ATOM     48  C   UNL A   1      46.437  26.810  30.040  1.00  0.00     0.031 A 
ATOM     49  C   UNL A   1      39.818  28.942  29.273  1.00  0.00     0.031 A 
ATOM     50  C   UNL A   1      46.192  28.178  30.411  1.00  0.00     0.049 A 
ATOM     51  C   UNL A   1      40.880  29.841  29.844  1.00  0.00     0.074 A 
ATOM     52  C   UNL A   1      47.094  29.120  30.877  1.00  0.00     0.029 A 
ATOM     53  N   UNL A   1      44.953  28.798  30.368  1.00  0.00    -0.354 N 
ATOM     54  N   UNL A   1      42.157  29.601  30.024  1.00  0.00    -0.248 NA
ATOM     55  C   UNL A   1      40.456  31.186  30.251  1.00  0.00     0.031 C 
ATOM     56  C   UNL A   1      46.389  30.290  31.173  1.00  0.00     0.029 A 
ATOM     57  C   UNL A   1      45.061  30.101  30.826  1.00  0.00     0.049 A 
ATOM     58  H   UNL A   1      44.120  28.375  30.057  1.00  0.00     0.167 HD
ATOM     59  C   UNL A   1      42.693  30.774  30.538  1.00  0.00     0.074 A 
ATOM     60  C   UNL A   1      41.608  31.730  30.619  1.00  0.00     0.031 C 
ATOM     61  C   UNL A   1      43.971  31.039  30.906  1.00  0.00     0.031 A 
BRANCH  48  62
ATOM     62  C   UNL A   1      47.825  26.257  30.220  1.00  0.00    -0.014 A 
ATOM     63  C   UNL A   1      48.728  26.185  29.147  1.00  0.00     0.009 A 
ATOM     64  C   UNL A   1      48.249  25.834  31.490  1.00  0.00     0.009 A 
ATOM     65  C   UNL A   1      50.012  25.665  29.333  1.00  0.00     0.001 A 
ATOM     66  C   UNL A   1      49.543  25.347  31.681  1.00  0.00     0.001 A 
ATOM     67  C   UNL A   1      50.419  25.253  30.601  1.00  0.00     0.000 A 
ENDBRANCH  48  62
BRANCH  49  68
ATOM     68  C   UNL A   1      38.416  29.420  29.131  1.00  0.00    -0.014 A 
ATOM     69  C   UNL A   1      37.972  29.978  27.923  1.00  0.00     0.009 A 
ATOM     70  C   UNL A   1      37.519  29.328  30.206  1.00  0.00     0.009 A 
ATOM     71  C   UNL A   1      36.668  30.464  27.804  1.00  0.00     0.001 A 
ATOM     72  C   UNL A   1      36.205  29.784  30.074  1.00  0.00     0.001 A 
ATOM     73  C   UNL A   1      35.785  30.363  28.878  1.00  0.00     0.000 A 
ENDBRANCH  49  68
BRANCH  61  74
ATOM     74  C   UNL A   1      44.270  32.429  31.396  1.00  0.00    -0.014 A 
ATOM     75  C   UNL A   1      44.586  33.469  30.509  1.00  0.00     0.009 A 
ATOM     76  C   UNL A   1      44.204  32.707  32.772  1.00  0.00     0.009 A 
ATOM     77  C   UNL A   1      44.873  34.748  30.992  1.00  0.00     0.001 A 
ATOM     78  C   UNL A   1      44.456  33.994  33.248  1.00  0.00     0.001 A 
ATOM     79  C   UNL A   1      44.802  35.010  32.360  1.00  0.00     0.000 A 
ENDBRANCH  61  74
ENDBRANCH  35  36
ENDBRANCH  27  30
ENDBRANCH  25  26
ENDBRANCH  24  25
ENDBRANCH  23  24
ENDBRANCH   3  23
TORSDOF 17
ENDMDL
MODEL 3
REMARK VINA RESULT:      -8.3      4.355      7.017
REMARK SMILES COCCOc1ccc([C@H]([NH3+])C(=O)NCCCNC(=O)c2ccc(-c3c4nc(c(-c5ccccc5)c5ccc([nH]5)c(-c5ccccc5)c5nc(c(-c6ccccc6)c6ccc3[nH]6)C=C5)C=C4)cc2)cc1OC
REMARK SMILES IDX 12 1 13 2 14 3 10 5 9 6 6 7 7 8 70 9 8 10 69 11 5 12 4 13
REMARK SMILES IDX 3 14 2 15 1 16 71 17 72 18 11 19 15 23 16 24 17 25 18 26
REMARK SMILES IDX 19 27 20 29 21 30 22 31 68 32 23 33 67 34 24 35 25 36 26 37
REMARK SMILES IDX 61 38 27 39 66 40 60 41 62 42 28 43 65 44 59 45 58 46 29 48
REMARK SMILES IDX 51 49 36 50 50 51 37 52 40 53 49 54 63 55 38 56 39 57 48 59
REMARK SMILES IDX 64 60 41 61 30 62 31 63 35 64 32 65 34 66 33 67 52 68 53 69
REMARK SMILES IDX 57 70 54 71 56 72 55 73 42 74 43 75 47 76 44 77 46 78 45 79
REMARK H PARENT 14 4 11 20 11 21 11 22 18 28 62 47 40 58
REMARK Flexibility Score: inf
ROOT
ATOM      1  C   UNL A   1      34.701  21.882  26.508  1.00  0.00     0.283 C 
ATOM      2  O   UNL A   1      34.556  22.132  27.709  1.00  0.00    -0.268 OA
ATOM      3  N   UNL A   1      35.845  21.229  26.143  1.00  0.00    -0.351 N 
ATOM      4  H   UNL A   1      36.462  21.022  26.881  1.00  0.00     0.163 HD
ENDROOT
BRANCH   1   5
ATOM      5  C   UNL A   1      33.616  22.257  25.466  1.00  0.00     0.302 C 
BRANCH   5   6
ATOM      6  C   UNL A   1      33.606  23.732  25.053  1.00  0.00     0.023 A 
ATOM      7  C   UNL A   1      33.127  26.360  24.110  1.00  0.00     0.161 A 
ATOM      8  C   UNL A   1      32.914  26.048  25.453  1.00  0.00     0.051 A 
ATOM      9  C   UNL A   1      33.670  25.396  23.260  1.00  0.00     0.161 A 
ATOM     10  C   UNL A   1      33.162  24.747  25.921  1.00  0.00     0.014 A 
ATOM     11  C   UNL A   1      33.877  24.090  23.718  1.00  0.00     0.061 A 
BRANCH   7  12
ATOM     12  O   UNL A   1      32.607  27.500  23.562  1.00  0.00    -0.487 OA
BRANCH  12  13
ATOM     13  C   UNL A   1      31.183  27.637  23.610  1.00  0.00     0.258 C 
BRANCH  13  14
ATOM     14  C   UNL A   1      30.615  28.012  22.237  1.00  0.00     0.201 C 
BRANCH  14  15
ATOM     15  O   UNL A   1      29.393  28.756  22.242  1.00  0.00    -0.381 OA
ATOM     16  C   UNL A   1      29.515  30.159  22.090  1.00  0.00     0.195 C 
ENDBRANCH  14  15
ENDBRANCH  13  14
ENDBRANCH  12  13
ENDBRANCH   7  12
BRANCH   9  17
ATOM     17  O   UNL A   1      33.877  25.697  21.938  1.00  0.00    -0.493 OA
ATOM     18  C   UNL A   1      32.828  25.222  21.092  1.00  0.00     0.278 C 
ENDBRANCH   9  17
ENDBRANCH   5   6
BRANCH   5  19
ATOM     19  N   UNL A   1      32.311  21.718  25.901  1.00  0.00    -0.343 N 
ATOM     20  H   UNL A   1      31.610  22.458  25.867  1.00  0.00     0.345 HD
ATOM     21  H   UNL A   1      32.390  21.368  26.855  1.00  0.00     0.345 HD
ATOM     22  H   UNL A   1      32.034  20.958  25.281  1.00  0.00     0.345 HD
ENDBRANCH   5  19
ENDBRANCH   1   5
BRANCH   3  23
ATOM     23  C   UNL A   1      36.284  20.798  24.834  1.00  0.00     0.118 C 
BRANCH  23  24
ATOM     24  C   UNL A   1      37.459  19.834  24.918  1.00  0.00     0.042 C 
BRANCH  24  25
ATOM     25  C   UNL A   1      38.677  20.409  25.631  1.00  0.00     0.118 C 
BRANCH  25  26
ATOM     26  N   UNL A   1      39.773  19.454  25.726  1.00  0.00    -0.352 N 
ATOM     27  C   UNL A   1      41.088  19.647  26.056  1.00  0.00     0.251 C 
ATOM     28  H   UNL A   1      39.530  18.523  25.521  1.00  0.00     0.163 HD
ATOM     29  O   UNL A   1      41.894  18.733  25.879  1.00  0.00    -0.269 OA
BRANCH  27  30
ATOM     30  C   UNL A   1      41.550  20.938  26.604  1.00  0.00     0.039 A 
ATOM     31  C   UNL A   1      42.030  21.908  25.720  1.00  0.00     0.014 A 
ATOM     32  C   UNL A   1      41.545  21.189  27.979  1.00  0.00     0.014 A 
ATOM     33  C   UNL A   1      42.455  23.143  26.211  1.00  0.00     0.010 A 
ATOM     34  C   UNL A   1      41.882  22.451  28.458  1.00  0.00     0.010 A 
ATOM     35  C   UNL A   1      42.353  23.438  27.581  1.00  0.00    -0.014 A 
BRANCH  35  36
ATOM     36  C   UNL A   1      42.742  24.772  28.104  1.00  0.00     0.031 A 
ATOM     37  C   UNL A   1      41.704  25.839  28.319  1.00  0.00     0.074 A 
ATOM     38  C   UNL A   1      44.041  25.034  28.350  1.00  0.00     0.049 A 
ATOM     39  N   UNL A   1      41.858  27.062  28.762  1.00  0.00    -0.248 NA
ATOM     40  C   UNL A   1      40.315  25.498  27.971  1.00  0.00     0.031 C 
ATOM     41  C   UNL A   1      45.149  24.099  28.143  1.00  0.00     0.029 A 
ATOM     42  N   UNL A   1      44.648  26.166  28.833  1.00  0.00    -0.354 N 
ATOM     43  C   UNL A   1      40.594  27.636  28.733  1.00  0.00     0.074 A 
ATOM     44  C   UNL A   1      39.693  26.650  28.176  1.00  0.00     0.031 C 
ATOM     45  C   UNL A   1      46.294  24.681  28.534  1.00  0.00     0.029 A 
ATOM     46  C   UNL A   1      46.009  26.042  28.975  1.00  0.00     0.049 A 
ATOM     47  H   UNL A   1      44.156  26.989  29.056  1.00  0.00     0.167 HD
ATOM     48  C   UNL A   1      40.209  28.865  29.153  1.00  0.00     0.031 A 
ATOM     49  C   UNL A   1      46.926  26.925  29.410  1.00  0.00     0.031 A 
ATOM     50  C   UNL A   1      41.104  29.845  29.709  1.00  0.00     0.049 A 
ATOM     51  C   UNL A   1      46.477  28.292  29.850  1.00  0.00     0.074 A 
ATOM     52  C   UNL A   1      40.804  31.100  30.210  1.00  0.00     0.029 A 
ATOM     53  N   UNL A   1      42.476  29.684  29.827  1.00  0.00    -0.354 N 
ATOM     54  N   UNL A   1      45.265  28.792  29.887  1.00  0.00    -0.248 NA
ATOM     55  C   UNL A   1      47.523  29.210  30.320  1.00  0.00     0.031 C 
ATOM     56  C   UNL A   1      42.002  31.721  30.576  1.00  0.00     0.029 A 
ATOM     57  C   UNL A   1      43.040  30.828  30.368  1.00  0.00     0.049 A 
ATOM     58  H   UNL A   1      42.975  28.876  29.567  1.00  0.00     0.167 HD
ATOM     59  C   UNL A   1      45.400  30.070  30.412  1.00  0.00     0.074 A 
ATOM     60  C   UNL A   1      46.807  30.260  30.697  1.00  0.00     0.031 C 
ATOM     61  C   UNL A   1      44.444  31.004  30.642  1.00  0.00     0.031 A 
BRANCH  48  62
ATOM     62  C   UNL A   1      38.753  29.222  29.016  1.00  0.00    -0.014 A 
ATOM     63  C   UNL A   1      38.228  29.698  27.804  1.00  0.00     0.009 A 
ATOM     64  C   UNL A   1      37.886  29.043  30.106  1.00  0.00     0.009 A 
ATOM     65  C   UNL A   1      36.874  30.027  27.698  1.00  0.00     0.001 A 
ATOM     66  C   UNL A   1      36.527  29.340  29.988  1.00  0.00     0.001 A 
ATOM     67  C   UNL A   1      36.024  29.841  28.788  1.00  0.00     0.000 A 
ENDBRANCH  48  62
BRANCH  49  68
ATOM     68  C   UNL A   1      48.363  26.544  29.468  1.00  0.00    -0.014 A 
ATOM     69  C   UNL A   1      48.888  25.913  30.604  1.00  0.00     0.009 A 
ATOM     70  C   UNL A   1      49.217  26.818  28.388  1.00  0.00     0.009 A 
ATOM     71  C   UNL A   1      50.247  25.593  30.673  1.00  0.00     0.001 A 
ATOM     72  C   UNL A   1      50.567  26.467  28.446  1.00  0.00     0.001 A 
ATOM     73  C   UNL A   1      51.084  25.867  29.593  1.00  0.00     0.000 A 
ENDBRANCH  49  68
BRANCH  61  74
ATOM     74  C   UNL A   1      44.884  32.300  31.263  1.00  0.00    -0.014 A 
ATOM     75  C   UNL A   1      44.912  32.475  32.655  1.00  0.00     0.009 A 
ATOM     76  C   UNL A   1      45.309  33.355  30.438  1.00  0.00     0.009 A 
ATOM     77  C   UNL A   1      45.313  33.695  33.206  1.00  0.00     0.001 A 
ATOM     78  C   UNL A   1      45.743  34.559  30.992  1.00  0.00     0.001 A 
ATOM     79  C   UNL A   1      45.734  34.733  32.374  1.00  0.00     0.000 A 
ENDBRANCH  61  74
ENDBRANCH  35  36
ENDBRANCH  27  30
ENDBRANCH  25  26
ENDBRANCH  24  25
ENDBRANCH  23  24
ENDBRANCH   3  23
TORSDOF 17
ENDMDL
