MODEL 1
REMARK VINA RESULT:     -11.7      0.000      0.000
REMARK SMILES Cc1ccccc1-c1nc(CC(=O)NCCCNC(=O)c2ccc(-c3c4nc(c(-c5ccccc5)c5ccc([nH]5)c(-c5ccccc5)c5nc(c(-c6ccccc6)c6ccc3[nH]6)C=C5)C=C4)cc2)cs1
REMARK SMILES IDX 16 1 15 2 14 3 12 4 13 5 11 7 10 8 8 9 9 10 70 11 69 12 7 13
REMARK SMILES IDX 1 14 2 15 3 16 4 17 6 18 5 19 17 20 18 21 19 22 20 24 21 25
REMARK SMILES IDX 22 26 68 27 23 28 67 29 24 30 25 31 26 32 61 33 27 34 66 35
REMARK SMILES IDX 60 36 62 37 28 38 65 39 59 40 58 41 29 43 51 44 36 45 50 46
REMARK SMILES IDX 37 47 40 48 49 49 63 50 38 51 39 52 48 54 64 55 41 56 30 57
REMARK SMILES IDX 31 58 35 59 32 60 34 61 33 62 52 63 53 64 57 65 54 66 56 67
REMARK SMILES IDX 55 68 42 69 43 70 47 71 44 72 46 73 45 74
REMARK H PARENT 14 6 18 23 62 42 40 53
REMARK Flexibility Score: inf
ROOT
ATOM      1  C   UNL A   1      32.394  30.759  26.761  1.00  0.00     0.042 C 
ENDROOT
BRANCH   1   2
ATOM      2  C   UNL A   1      31.781  29.606  25.974  1.00  0.00     0.117 C 
BRANCH   2   3
ATOM      3  N   UNL A   1      32.123  29.656  24.558  1.00  0.00    -0.356 N 
ATOM      4  C   UNL A   1      31.612  28.912  23.528  1.00  0.00     0.226 C 
ATOM      5  O   UNL A   1      32.086  29.072  22.400  1.00  0.00    -0.275 OA
ATOM      6  H   UNL A   1      32.814  30.312  24.309  1.00  0.00     0.163 HD
BRANCH   4   7
ATOM      7  C   UNL A   1      30.485  27.924  23.773  1.00  0.00     0.157 C 
BRANCH   7   8
ATOM      8  C   UNL A   1      30.998  26.620  24.282  1.00  0.00     0.061 A 
ATOM      9  C   UNL A   1      32.614  25.112  24.538  1.00  0.00     0.123 A 
ATOM     10  N   UNL A   1      32.346  26.332  24.115  1.00  0.00    -0.241 NA
ATOM     11  S   UNL A   1      31.279  24.274  25.229  1.00  0.00    -0.122 S 
ATOM     12  C   UNL A   1      30.271  25.620  24.898  1.00  0.00     0.091 A 
BRANCH   9  13
ATOM     13  C   UNL A   1      33.930  24.470  24.440  1.00  0.00     0.013 A 
ATOM     14  C   UNL A   1      33.329  23.353  22.210  1.00  0.00     0.045 C 
ATOM     15  C   UNL A   1      34.268  23.636  23.353  1.00  0.00    -0.041 A 
ATOM     16  C   UNL A   1      35.525  23.005  23.338  1.00  0.00     0.004 A 
ATOM     17  C   UNL A   1      36.440  23.198  24.371  1.00  0.00     0.000 A 
ATOM     18  C   UNL A   1      34.864  24.649  25.479  1.00  0.00     0.011 A 
ATOM     19  C   UNL A   1      36.110  24.020  25.444  1.00  0.00     0.001 A 
ENDBRANCH   9  13
ENDBRANCH   7   8
ENDBRANCH   4   7
ENDBRANCH   2   3
ENDBRANCH   1   2
BRANCH   1  20
ATOM     20  C   UNL A   1      33.729  30.432  27.408  1.00  0.00     0.118 C 
BRANCH  20  21
ATOM     21  N   UNL A   1      34.501  31.590  27.837  1.00  0.00    -0.352 N 
ATOM     22  C   UNL A   1      35.782  31.651  28.363  1.00  0.00     0.251 C 
ATOM     23  H   UNL A   1      34.047  32.457  27.739  1.00  0.00     0.163 HD
ATOM     24  O   UNL A   1      36.243  32.726  28.712  1.00  0.00    -0.269 OA
BRANCH  22  25
ATOM     25  C   UNL A   1      36.641  30.437  28.381  1.00  0.00     0.039 A 
ATOM     26  C   UNL A   1      36.679  29.670  29.555  1.00  0.00     0.014 A 
ATOM     27  C   UNL A   1      37.529  30.160  27.349  1.00  0.00     0.014 A 
ATOM     28  C   UNL A   1      37.755  28.815  29.785  1.00  0.00     0.010 A 
ATOM     29  C   UNL A   1      38.654  29.415  27.622  1.00  0.00     0.010 A 
ATOM     30  C   UNL A   1      38.794  28.784  28.862  1.00  0.00    -0.014 A 
BRANCH  30  31
ATOM     31  C   UNL A   1      40.121  28.244  29.124  1.00  0.00     0.031 A 
ATOM     32  C   UNL A   1      40.523  26.932  28.578  1.00  0.00     0.074 A 
ATOM     33  C   UNL A   1      41.046  29.065  29.669  1.00  0.00     0.049 A 
ATOM     34  N   UNL A   1      41.583  26.289  28.937  1.00  0.00    -0.248 NA
ATOM     35  C   UNL A   1      39.718  26.204  27.602  1.00  0.00     0.031 C 
ATOM     36  C   UNL A   1      42.499  28.945  29.600  1.00  0.00     0.029 A 
ATOM     37  N   UNL A   1      40.827  30.097  30.579  1.00  0.00    -0.354 N 
ATOM     38  C   UNL A   1      41.768  25.265  28.038  1.00  0.00     0.074 A 
ATOM     39  C   UNL A   1      40.533  25.192  27.294  1.00  0.00     0.031 C 
ATOM     40  C   UNL A   1      43.045  29.689  30.576  1.00  0.00     0.029 A 
ATOM     41  C   UNL A   1      41.954  30.158  31.417  1.00  0.00     0.049 A 
ATOM     42  H   UNL A   1      40.033  30.677  30.626  1.00  0.00     0.167 HD
ATOM     43  C   UNL A   1      43.001  24.696  27.925  1.00  0.00     0.031 A 
ATOM     44  C   UNL A   1      41.848  29.888  32.752  1.00  0.00     0.031 A 
ATOM     45  C   UNL A   1      43.925  25.208  28.936  1.00  0.00     0.049 A 
ATOM     46  C   UNL A   1      42.671  28.699  33.203  1.00  0.00     0.074 A 
ATOM     47  C   UNL A   1      44.954  26.135  28.894  1.00  0.00     0.029 A 
ATOM     48  N   UNL A   1      43.657  24.976  30.280  1.00  0.00    -0.354 N 
ATOM     49  N   UNL A   1      43.108  27.768  32.403  1.00  0.00    -0.248 NA
ATOM     50  C   UNL A   1      43.035  28.450  34.596  1.00  0.00     0.031 C 
ATOM     51  C   UNL A   1      45.262  26.507  30.228  1.00  0.00     0.029 A 
ATOM     52  C   UNL A   1      44.441  25.786  31.077  1.00  0.00     0.049 A 
ATOM     53  H   UNL A   1      43.001  24.324  30.617  1.00  0.00     0.167 HD
ATOM     54  C   UNL A   1      43.784  26.820  33.124  1.00  0.00     0.074 A 
ATOM     55  C   UNL A   1      43.717  27.295  34.493  1.00  0.00     0.031 C 
ATOM     56  C   UNL A   1      44.329  25.719  32.528  1.00  0.00     0.031 A 
BRANCH  43  57
ATOM     57  C   UNL A   1      43.454  23.885  26.731  1.00  0.00    -0.014 A 
ATOM     58  C   UNL A   1      43.257  22.490  26.730  1.00  0.00     0.009 A 
ATOM     59  C   UNL A   1      44.131  24.403  25.614  1.00  0.00     0.009 A 
ATOM     60  C   UNL A   1      43.778  21.661  25.726  1.00  0.00     0.001 A 
ATOM     61  C   UNL A   1      44.680  23.580  24.620  1.00  0.00     0.001 A 
ATOM     62  C   UNL A   1      44.513  22.205  24.682  1.00  0.00     0.000 A 
ENDBRANCH  43  57
BRANCH  44  63
ATOM     63  C   UNL A   1      40.525  30.257  33.328  1.00  0.00    -0.014 A 
ATOM     64  C   UNL A   1      40.256  31.619  33.570  1.00  0.00     0.009 A 
ATOM     65  C   UNL A   1      39.447  29.360  33.268  1.00  0.00     0.009 A 
ATOM     66  C   UNL A   1      38.941  32.087  33.633  1.00  0.00     0.001 A 
ATOM     67  C   UNL A   1      38.131  29.833  33.344  1.00  0.00     0.001 A 
ATOM     68  C   UNL A   1      37.879  31.197  33.490  1.00  0.00     0.000 A 
ENDBRANCH  44  63
BRANCH  56  69
ATOM     69  C   UNL A   1      44.869  24.492  33.226  1.00  0.00    -0.014 A 
ATOM     70  C   UNL A   1      46.171  24.370  33.727  1.00  0.00     0.009 A 
ATOM     71  C   UNL A   1      43.977  23.436  33.530  1.00  0.00     0.009 A 
ATOM     72  C   UNL A   1      46.571  23.238  34.454  1.00  0.00     0.001 A 
ATOM     73  C   UNL A   1      44.357  22.331  34.293  1.00  0.00     0.001 A 
ATOM     74  C   UNL A   1      45.662  22.227  34.747  1.00  0.00     0.000 A 
ENDBRANCH  56  69
ENDBRANCH  30  31
ENDBRANCH  22  25
ENDBRANCH  20  21
ENDBRANCH   1  20
TORSDOF 12
ENDMDL
MODEL 2
REMARK VINA RESULT:     -11.5      2.207      3.527
REMARK SMILES Cc1ccccc1-c1nc(CC(=O)NCCCNC(=O)c2ccc(-c3c4nc(c(-c5ccccc5)c5ccc([nH]5)c(-c5ccccc5)c5nc(c(-c6ccccc6)c6ccc3[nH]6)C=C5)C=C4)cc2)cs1
REMARK SMILES IDX 16 1 15 2 14 3 12 4 13 5 11 7 10 8 8 9 9 10 70 11 69 12 7 13
REMARK SMILES IDX 1 14 2 15 3 16 4 17 6 18 5 19 17 20 18 21 19 22 20 24 21 25
REMARK SMILES IDX 22 26 68 27 23 28 67 29 24 30 25 31 26 32 61 33 27 34 66 35
REMARK SMILES IDX 60 36 62 37 28 38 65 39 59 40 58 41 29 43 51 44 36 45 50 46
REMARK SMILES IDX 37 47 40 48 49 49 63 50 38 51 39 52 48 54 64 55 41 56 30 57
REMARK SMILES IDX 31 58 35 59 32 60 34 61 33 62 52 63 53 64 57 65 54 66 56 67
REMARK SMILES IDX 55 68 42 69 43 70 47 71 44 72 46 73 45 74
REMARK H PARENT 14 6 18 23 62 42 40 53
REMARK Flexibility Score: inf
ROOT
ATOM      1  C   UNL A   1      33.163  30.940  27.480  1.00  0.00     0.042 C 
ENDROOT
BRANCH   1   2
ATOM      2  C   UNL A   1      33.866  29.750  26.837  1.00  0.00     0.117 C 
BRANCH   2   3
ATOM      3  N   UNL A   1      33.668  29.701  25.393  1.00  0.00    -0.356 N 
ATOM      4  C   UNL A   1      32.738  28.991  24.681  1.00  0.00     0.226 C 
ATOM      5  O   UNL A   1      32.779  29.045  23.449  1.00  0.00    -0.275 OA
ATOM      6  H   UNL A   1      34.286  30.250  24.859  1.00  0.00     0.163 HD
BRANCH   4   7
ATOM      7  C   UNL A   1      31.680  28.170  25.396  1.00  0.00     0.157 C 
BRANCH   7   8
ATOM      8  C   UNL A   1      32.125  26.762  25.606  1.00  0.00     0.061 A 
ATOM      9  C   UNL A   1      33.565  25.094  25.301  1.00  0.00     0.123 A 
ATOM     10  N   UNL A   1      33.365  26.383  25.109  1.00  0.00    -0.241 NA
ATOM     11  S   UNL A   1      32.310  24.284  26.156  1.00  0.00    -0.122 S 
ATOM     12  C   UNL A   1      31.425  25.750  26.233  1.00  0.00     0.091 A 
BRANCH   9  13
ATOM     13  C   UNL A   1      34.745  24.358  24.832  1.00  0.00     0.013 A 
ATOM     14  C   UNL A   1      33.574  23.670  22.656  1.00  0.00     0.045 C 
ATOM     15  C   UNL A   1      34.751  23.680  23.595  1.00  0.00    -0.041 A 
ATOM     16  C   UNL A   1      35.893  22.947  23.220  1.00  0.00     0.004 A 
ATOM     17  C   UNL A   1      37.013  22.890  24.046  1.00  0.00     0.000 A 
ATOM     18  C   UNL A   1      35.884  24.283  25.658  1.00  0.00     0.011 A 
ATOM     19  C   UNL A   1      37.011  23.557  25.267  1.00  0.00     0.001 A 
ENDBRANCH   9  13
ENDBRANCH   7   8
ENDBRANCH   4   7
ENDBRANCH   2   3
ENDBRANCH   1   2
BRANCH   1  20
ATOM     20  C   UNL A   1      34.061  32.142  27.716  1.00  0.00     0.118 C 
BRANCH  20  21
ATOM     21  N   UNL A   1      33.397  33.298  28.301  1.00  0.00    -0.352 N 
ATOM     22  C   UNL A   1      33.712  34.012  29.446  1.00  0.00     0.251 C 
ATOM     23  H   UNL A   1      32.607  33.620  27.811  1.00  0.00     0.163 HD
ATOM     24  O   UNL A   1      32.996  34.934  29.803  1.00  0.00    -0.269 OA
BRANCH  22  25
ATOM     25  C   UNL A   1      34.987  33.746  30.165  1.00  0.00     0.039 A 
ATOM     26  C   UNL A   1      36.160  34.339  29.673  1.00  0.00     0.014 A 
ATOM     27  C   UNL A   1      35.067  32.796  31.175  1.00  0.00     0.014 A 
ATOM     28  C   UNL A   1      37.400  33.798  30.012  1.00  0.00     0.010 A 
ATOM     29  C   UNL A   1      36.275  32.181  31.416  1.00  0.00     0.010 A 
ATOM     30  C   UNL A   1      37.436  32.648  30.792  1.00  0.00    -0.014 A 
BRANCH  30  31
ATOM     31  C   UNL A   1      38.593  31.771  30.923  1.00  0.00     0.031 A 
ATOM     32  C   UNL A   1      38.625  30.459  30.247  1.00  0.00     0.074 A 
ATOM     33  C   UNL A   1      39.717  32.280  31.473  1.00  0.00     0.049 A 
ATOM     34  N   UNL A   1      39.501  29.541  30.482  1.00  0.00    -0.248 NA
ATOM     35  C   UNL A   1      37.622  30.051  29.268  1.00  0.00     0.031 C 
ATOM     36  C   UNL A   1      41.088  31.809  31.301  1.00  0.00     0.029 A 
ATOM     37  N   UNL A   1      39.806  33.242  32.476  1.00  0.00    -0.354 N 
ATOM     38  C   UNL A   1      39.382  28.593  29.492  1.00  0.00     0.074 A 
ATOM     39  C   UNL A   1      38.139  28.902  28.826  1.00  0.00     0.031 C 
ATOM     40  C   UNL A   1      41.845  32.297  32.297  1.00  0.00     0.029 A 
ATOM     41  C   UNL A   1      40.946  32.940  33.242  1.00  0.00     0.049 A 
ATOM     42  H   UNL A   1      39.188  33.994  32.622  1.00  0.00     0.167 HD
ATOM     43  C   UNL A   1      40.424  27.749  29.254  1.00  0.00     0.031 A 
ATOM     44  C   UNL A   1      40.831  32.578  34.554  1.00  0.00     0.031 A 
ATOM     45  C   UNL A   1      41.490  27.916  30.241  1.00  0.00     0.049 A 
ATOM     46  C   UNL A   1      41.342  31.184  34.852  1.00  0.00     0.074 A 
ATOM     47  C   UNL A   1      42.717  28.557  30.209  1.00  0.00     0.029 A 
ATOM     48  N   UNL A   1      41.228  27.630  31.576  1.00  0.00    -0.354 N 
ATOM     49  N   UNL A   1      41.495  30.255  33.952  1.00  0.00    -0.248 NA
ATOM     50  C   UNL A   1      41.689  30.720  36.193  1.00  0.00     0.031 C 
ATOM     51  C   UNL A   1      43.165  28.711  31.547  1.00  0.00     0.029 A 
ATOM     52  C   UNL A   1      42.225  28.139  32.384  1.00  0.00     0.049 A 
ATOM     53  H   UNL A   1      40.442  27.133  31.900  1.00  0.00     0.167 HD
ATOM     54  C   UNL A   1      41.938  29.104  34.548  1.00  0.00     0.074 A 
ATOM     55  C   UNL A   1      42.051  29.447  35.953  1.00  0.00     0.031 C 
ATOM     56  C   UNL A   1      42.160  27.964  33.829  1.00  0.00     0.031 A 
BRANCH  43  57
ATOM     57  C   UNL A   1      40.606  26.969  27.970  1.00  0.00    -0.014 A 
ATOM     58  C   UNL A   1      40.037  25.685  27.857  1.00  0.00     0.009 A 
ATOM     59  C   UNL A   1      41.367  27.394  26.869  1.00  0.00     0.009 A 
ATOM     60  C   UNL A   1      40.285  24.850  26.758  1.00  0.00     0.001 A 
ATOM     61  C   UNL A   1      41.643  26.557  25.778  1.00  0.00     0.001 A 
ATOM     62  C   UNL A   1      41.110  25.279  25.728  1.00  0.00     0.000 A 
ENDBRANCH  43  57
BRANCH  44  63
ATOM     63  C   UNL A   1      39.670  33.209  35.243  1.00  0.00    -0.014 A 
ATOM     64  C   UNL A   1      38.489  32.455  35.391  1.00  0.00     0.009 A 
ATOM     65  C   UNL A   1      39.852  34.338  36.056  1.00  0.00     0.009 A 
ATOM     66  C   UNL A   1      37.572  32.756  36.403  1.00  0.00     0.001 A 
ATOM     67  C   UNL A   1      38.924  34.642  37.060  1.00  0.00     0.001 A 
ATOM     68  C   UNL A   1      37.806  33.832  37.255  1.00  0.00     0.000 A 
ENDBRANCH  44  63
BRANCH  56  69
ATOM     69  C   UNL A   1      42.399  26.580  34.388  1.00  0.00    -0.014 A 
ATOM     70  C   UNL A   1      43.599  25.869  34.263  1.00  0.00     0.009 A 
ATOM     71  C   UNL A   1      41.408  26.001  35.216  1.00  0.00     0.009 A 
ATOM     72  C   UNL A   1      43.782  24.629  34.896  1.00  0.00     0.001 A 
ATOM     73  C   UNL A   1      41.604  24.792  35.885  1.00  0.00     0.001 A 
ATOM     74  C   UNL A   1      42.790  24.098  35.715  1.00  0.00     0.000 A 
ENDBRANCH  56  69
ENDBRANCH  30  31
ENDBRANCH  22  25
ENDBRANCH  20  21
ENDBRANCH   1  20
TORSDOF 12
ENDMDL
MODEL 3
REMARK VINA RESULT:     -11.5      3.553      8.653
REMARK SMILES Cc1ccccc1-c1nc(CC(=O)NCCCNC(=O)c2ccc(-c3c4nc(c(-c5ccccc5)c5ccc([nH]5)c(-c5ccccc5)c5nc(c(-c6ccccc6)c6ccc3[nH]6)C=C5)C=C4)cc2)cs1
REMARK SMILES IDX 16 1 15 2 14 3 12 4 13 5 11 7 10 8 8 9 9 10 70 11 69 12 7 13
REMARK SMILES IDX 1 14 2 15 3 16 4 17 6 18 5 19 17 20 18 21 19 22 20 24 21 25
REMARK SMILES IDX 22 26 68 27 23 28 67 29 24 30 25 31 26 32 61 33 27 34 66 35
REMARK SMILES IDX 60 36 62 37 28 38 65 39 59 40 58 41 29 43 51 44 36 45 50 46
REMARK SMILES IDX 37 47 40 48 49 49 63 50 38 51 39 52 48 54 64 55 41 56 30 57
REMARK SMILES IDX 31 58 35 59 32 60 34 61 33 62 52 63 53 64 57 65 54 66 56 67
REMARK SMILES IDX 55 68 42 69 43 70 47 71 44 72 46 73 45 74
REMARK H PARENT 14 6 18 23 62 42 40 53
REMARK Flexibility Score: inf
ROOT
ATOM      1  C   UNL A   1      37.513  21.938  24.645  1.00  0.00     0.042 C 
ENDROOT
BRANCH   1   2
ATOM      2  C   UNL A   1      36.366  22.689  23.978  1.00  0.00     0.117 C 
BRANCH   2   3
ATOM      3  N   UNL A   1      35.061  22.162  24.358  1.00  0.00    -0.356 N 
ATOM      4  C   UNL A   1      33.849  22.361  23.753  1.00  0.00     0.226 C 
ATOM      5  O   UNL A   1      32.846  21.866  24.274  1.00  0.00    -0.275 OA
ATOM      6  H   UNL A   1      35.050  21.587  25.157  1.00  0.00     0.163 HD
BRANCH   4   7
ATOM      7  C   UNL A   1      33.750  23.163  22.467  1.00  0.00     0.157 C 
BRANCH   7   8
ATOM      8  C   UNL A   1      33.362  24.579  22.731  1.00  0.00     0.061 A 
ATOM      9  C   UNL A   1      32.997  26.290  24.105  1.00  0.00     0.123 A 
ATOM     10  N   UNL A   1      33.459  25.056  24.031  1.00  0.00    -0.241 NA
ATOM     11  S   UNL A   1      32.494  26.968  22.605  1.00  0.00    -0.122 S 
ATOM     12  C   UNL A   1      32.881  25.497  21.817  1.00  0.00     0.091 A 
BRANCH   9  13
ATOM     13  C   UNL A   1      32.890  27.063  25.348  1.00  0.00     0.013 A 
ATOM     14  C   UNL A   1      30.508  26.218  25.785  1.00  0.00     0.045 C 
ATOM     15  C   UNL A   1      31.720  27.039  26.136  1.00  0.00    -0.041 A 
ATOM     16  C   UNL A   1      31.655  27.841  27.290  1.00  0.00     0.004 A 
ATOM     17  C   UNL A   1      32.727  28.646  27.668  1.00  0.00     0.000 A 
ATOM     18  C   UNL A   1      33.962  27.888  25.741  1.00  0.00     0.011 A 
ATOM     19  C   UNL A   1      33.882  28.672  26.894  1.00  0.00     0.001 A 
ENDBRANCH   9  13
ENDBRANCH   7   8
ENDBRANCH   4   7
ENDBRANCH   2   3
ENDBRANCH   1   2
BRANCH   1  20
ATOM     20  C   UNL A   1      37.815  22.391  26.062  1.00  0.00     0.118 C 
BRANCH  20  21
ATOM     21  N   UNL A   1      39.189  22.174  26.495  1.00  0.00    -0.352 N 
ATOM     22  C   UNL A   1      40.132  23.090  26.935  1.00  0.00     0.251 C 
ATOM     23  H   UNL A   1      39.492  21.239  26.473  1.00  0.00     0.163 HD
ATOM     24  O   UNL A   1      41.259  22.714  27.211  1.00  0.00    -0.269 OA
BRANCH  22  25
ATOM     25  C   UNL A   1      39.737  24.500  27.197  1.00  0.00     0.039 A 
ATOM     26  C   UNL A   1      40.243  25.497  26.348  1.00  0.00     0.014 A 
ATOM     27  C   UNL A   1      39.049  24.860  28.348  1.00  0.00     0.014 A 
ATOM     28  C   UNL A   1      40.277  26.821  26.784  1.00  0.00     0.010 A 
ATOM     29  C   UNL A   1      39.191  26.140  28.835  1.00  0.00     0.010 A 
ATOM     30  C   UNL A   1      39.853  27.110  28.077  1.00  0.00    -0.014 A 
BRANCH  30  31
ATOM     31  C   UNL A   1      40.161  28.340  28.794  1.00  0.00     0.031 A 
ATOM     32  C   UNL A   1      39.138  29.392  28.961  1.00  0.00     0.074 A 
ATOM     33  C   UNL A   1      41.312  28.394  29.499  1.00  0.00     0.049 A 
ATOM     34  N   UNL A   1      39.385  30.585  29.385  1.00  0.00    -0.248 NA
ATOM     35  C   UNL A   1      37.736  29.192  28.608  1.00  0.00     0.031 C 
ATOM     36  C   UNL A   1      41.627  29.261  30.630  1.00  0.00     0.029 A 
ATOM     37  N   UNL A   1      42.522  27.776  29.190  1.00  0.00    -0.354 N 
ATOM     38  C   UNL A   1      38.178  31.182  29.665  1.00  0.00     0.074 A 
ATOM     39  C   UNL A   1      37.186  30.317  29.071  1.00  0.00     0.031 C 
ATOM     40  C   UNL A   1      42.960  29.307  30.787  1.00  0.00     0.029 A 
ATOM     41  C   UNL A   1      43.548  28.622  29.646  1.00  0.00     0.049 A 
ATOM     42  H   UNL A   1      42.637  26.909  28.738  1.00  0.00     0.167 HD
ATOM     43  C   UNL A   1      38.148  32.259  30.498  1.00  0.00     0.031 A 
ATOM     44  C   UNL A   1      44.414  29.208  28.767  1.00  0.00     0.031 A 
ATOM     45  C   UNL A   1      39.495  32.702  30.855  1.00  0.00     0.049 A 
ATOM     46  C   UNL A   1      44.365  30.721  28.775  1.00  0.00     0.074 A 
ATOM     47  C   UNL A   1      40.276  32.540  31.988  1.00  0.00     0.029 A 
ATOM     48  N   UNL A   1      40.341  33.173  29.857  1.00  0.00    -0.354 N 
ATOM     49  N   UNL A   1      43.361  31.416  29.231  1.00  0.00    -0.248 NA
ATOM     50  C   UNL A   1      45.428  31.567  28.239  1.00  0.00     0.031 C 
ATOM     51  C   UNL A   1      41.615  32.859  31.645  1.00  0.00     0.029 A 
ATOM     52  C   UNL A   1      41.641  33.240  30.316  1.00  0.00     0.049 A 
ATOM     53  H   UNL A   1      40.052  33.424  28.949  1.00  0.00     0.167 HD
ATOM     54  C   UNL A   1      43.612  32.752  29.062  1.00  0.00     0.074 A 
ATOM     55  C   UNL A   1      44.922  32.797  28.442  1.00  0.00     0.031 C 
ATOM     56  C   UNL A   1      42.707  33.704  29.438  1.00  0.00     0.031 A 
BRANCH  43  57
ATOM     57  C   UNL A   1      36.906  32.743  31.215  1.00  0.00    -0.014 A 
ATOM     58  C   UNL A   1      36.632  32.271  32.514  1.00  0.00     0.009 A 
ATOM     59  C   UNL A   1      35.938  33.598  30.664  1.00  0.00     0.009 A 
ATOM     60  C   UNL A   1      35.433  32.563  33.180  1.00  0.00     0.001 A 
ATOM     61  C   UNL A   1      34.724  33.873  31.309  1.00  0.00     0.001 A 
ATOM     62  C   UNL A   1      34.466  33.345  32.565  1.00  0.00     0.000 A 
ENDBRANCH  43  57
BRANCH  44  63
ATOM     63  C   UNL A   1      44.671  28.385  27.551  1.00  0.00    -0.014 A 
ATOM     64  C   UNL A   1      45.470  27.231  27.680  1.00  0.00     0.009 A 
ATOM     65  C   UNL A   1      43.850  28.511  26.421  1.00  0.00     0.009 A 
ATOM     66  C   UNL A   1      45.362  26.183  26.762  1.00  0.00     0.001 A 
ATOM     67  C   UNL A   1      43.755  27.462  25.498  1.00  0.00     0.001 A 
ATOM     68  C   UNL A   1      44.482  26.287  25.687  1.00  0.00     0.000 A 
ENDBRANCH  44  63
BRANCH  56  69
ATOM     69  C   UNL A   1      42.746  35.172  29.081  1.00  0.00    -0.014 A 
ATOM     70  C   UNL A   1      43.451  36.146  29.799  1.00  0.00     0.009 A 
ATOM     71  C   UNL A   1      42.152  35.593  27.868  1.00  0.00     0.009 A 
ATOM     72  C   UNL A   1      43.524  37.474  29.351  1.00  0.00     0.001 A 
ATOM     73  C   UNL A   1      42.262  36.901  27.394  1.00  0.00     0.001 A 
ATOM     74  C   UNL A   1      42.941  37.847  28.144  1.00  0.00     0.000 A 
ENDBRANCH  56  69
ENDBRANCH  30  31
ENDBRANCH  22  25
ENDBRANCH  20  21
ENDBRANCH   1  20
TORSDOF 12
ENDMDL
