MODEL 1
REMARK VINA RESULT:     -10.8      0.000      0.000
REMARK SMILES C[C@@](NC(=O)NCC(N)=O)(C(=O)NCCCNC(=O)c1ccc(-c2c3nc(c(-c4ccccc4)c4ccc([nH]4)c(-c4ccccc4)c4nc(c(-c5ccccc5)c5ccc2[nH]5)C=C4)C=C3)cc1)C(F)(F)F
REMARK SMILES IDX 14 1 13 2 11 3 12 4 2 6 1 7 3 8 4 9 5 11 6 12 7 14 8 15 9 16
REMARK SMILES IDX 10 17 68 20 69 21 70 22 71 23 15 24 16 25 17 26 18 27 19 29
REMARK SMILES IDX 20 30 21 31 67 32 22 33 66 34 23 35 24 36 25 37 60 38 26 39
REMARK SMILES IDX 65 40 59 41 61 42 27 43 64 44 58 45 57 46 28 48 50 49 35 50
REMARK SMILES IDX 49 51 36 52 39 53 48 54 62 55 37 56 38 57 47 59 63 60 40 61
REMARK SMILES IDX 29 62 30 63 34 64 31 65 33 66 32 67 51 68 52 69 56 70 53 71
REMARK SMILES IDX 55 72 54 73 41 74 42 75 46 76 43 77 45 78 44 79
REMARK H PARENT 13 5 3 10 6 13 9 18 9 19 17 28 61 47 39 58
REMARK Flexibility Score: inf
ROOT
ATOM      1  C   UNL A   1      36.948  20.789  25.121  1.00  0.00     0.117 C 
ENDROOT
BRANCH   1   2
ATOM      2  N   UNL A   1      37.066  21.779  24.059  1.00  0.00    -0.354 N 
ATOM      3  C   UNL A   1      36.206  22.774  23.683  1.00  0.00     0.255 C 
ATOM      4  O   UNL A   1      36.588  23.479  22.747  1.00  0.00    -0.272 OA
ATOM      5  H   UNL A   1      37.895  21.723  23.530  1.00  0.00     0.163 HD
BRANCH   3   6
ATOM      6  C   UNL A   1      34.802  22.883  24.292  1.00  0.00     0.213 C 
ATOM      7  C   UNL A   1      33.992  23.693  23.247  1.00  0.00     0.056 C 
BRANCH   6   8
ATOM      8  N   UNL A   1      34.123  21.563  24.478  1.00  0.00    -0.316 N 
ATOM      9  C   UNL A   1      32.859  21.131  24.397  1.00  0.00     0.316 C 
ATOM     10  H   UNL A   1      34.753  20.844  24.716  1.00  0.00     0.166 HD
ATOM     11  O   UNL A   1      32.703  19.919  24.249  1.00  0.00    -0.249 OA
ATOM     12  N   UNL A   1      31.778  21.903  24.507  1.00  0.00    -0.329 N 
ATOM     13  H   UNL A   1      30.953  21.451  24.216  1.00  0.00     0.165 HD
BRANCH  12  14
ATOM     14  C   UNL A   1      31.551  23.258  24.961  1.00  0.00     0.217 C 
BRANCH  14  15
ATOM     15  C   UNL A   1      30.952  23.364  26.358  1.00  0.00     0.236 C 
ATOM     16  N   UNL A   1      29.872  22.549  26.565  1.00  0.00    -0.368 N 
ATOM     17  O   UNL A   1      31.400  24.074  27.250  1.00  0.00    -0.273 OA
ATOM     18  H   UNL A   1      29.531  21.987  25.832  1.00  0.00     0.159 HD
ATOM     19  H   UNL A   1      29.436  22.523  27.447  1.00  0.00     0.159 HD
ENDBRANCH  14  15
ENDBRANCH  12  14
ENDBRANCH   6   8
BRANCH   6  20
ATOM     20  C   UNL A   1      34.838  23.730  25.583  1.00  0.00     0.420 C 
ATOM     21  F   UNL A   1      34.385  23.057  26.665  1.00  0.00    -0.168 F 
ATOM     22  F   UNL A   1      36.124  24.075  25.868  1.00  0.00    -0.168 F 
ATOM     23  F   UNL A   1      34.143  24.882  25.492  1.00  0.00    -0.168 F 
ENDBRANCH   6  20
ENDBRANCH   3   6
ENDBRANCH   1   2
BRANCH   1  24
ATOM     24  C   UNL A   1      38.018  19.722  25.002  1.00  0.00     0.042 C 
BRANCH  24  25
ATOM     25  C   UNL A   1      39.283  20.067  25.766  1.00  0.00     0.118 C 
BRANCH  25  26
ATOM     26  N   UNL A   1      40.265  18.993  25.751  1.00  0.00    -0.352 N 
ATOM     27  C   UNL A   1      41.622  19.079  25.950  1.00  0.00     0.251 C 
ATOM     28  H   UNL A   1      39.912  18.091  25.577  1.00  0.00     0.163 HD
ATOM     29  O   UNL A   1      42.344  18.106  25.759  1.00  0.00    -0.269 OA
BRANCH  27  30
ATOM     30  C   UNL A   1      42.208  20.373  26.357  1.00  0.00     0.039 A 
ATOM     31  C   UNL A   1      42.622  21.266  25.369  1.00  0.00     0.014 A 
ATOM     32  C   UNL A   1      42.283  20.726  27.708  1.00  0.00     0.014 A 
ATOM     33  C   UNL A   1      43.051  22.541  25.736  1.00  0.00     0.010 A 
ATOM     34  C   UNL A   1      42.608  22.030  28.062  1.00  0.00     0.010 A 
ATOM     35  C   UNL A   1      43.010  22.948  27.082  1.00  0.00    -0.014 A 
BRANCH  35  36
ATOM     36  C   UNL A   1      43.390  24.331  27.464  1.00  0.00     0.031 A 
ATOM     37  C   UNL A   1      44.820  24.785  27.362  1.00  0.00     0.074 A 
ATOM     38  C   UNL A   1      42.444  25.174  27.924  1.00  0.00     0.049 A 
ATOM     39  N   UNL A   1      45.325  25.972  27.587  1.00  0.00    -0.248 NA
ATOM     40  C   UNL A   1      45.820  23.772  26.987  1.00  0.00     0.031 C 
ATOM     41  C   UNL A   1      41.034  24.836  28.136  1.00  0.00     0.029 A 
ATOM     42  N   UNL A   1      42.523  26.497  28.278  1.00  0.00    -0.354 N 
ATOM     43  C   UNL A   1      46.694  25.843  27.386  1.00  0.00     0.074 A 
ATOM     44  C   UNL A   1      46.951  24.452  27.092  1.00  0.00     0.031 C 
ATOM     45  C   UNL A   1      40.372  25.937  28.527  1.00  0.00     0.029 A 
ATOM     46  C   UNL A   1      41.312  27.047  28.624  1.00  0.00     0.049 A 
ATOM     47  H   UNL A   1      43.367  27.005  28.284  1.00  0.00     0.167 HD
ATOM     48  C   UNL A   1      47.650  26.801  27.412  1.00  0.00     0.031 A 
ATOM     49  C   UNL A   1      40.991  28.310  28.964  1.00  0.00     0.031 A 
ATOM     50  C   UNL A   1      47.394  28.188  27.699  1.00  0.00     0.049 A 
ATOM     51  C   UNL A   1      42.068  29.358  28.971  1.00  0.00     0.074 A 
ATOM     52  C   UNL A   1      48.283  29.248  27.698  1.00  0.00     0.029 A 
ATOM     53  N   UNL A   1      46.154  28.704  28.042  1.00  0.00    -0.354 N 
ATOM     54  N   UNL A   1      43.344  29.238  28.692  1.00  0.00    -0.248 NA
ATOM     55  C   UNL A   1      41.652  30.724  29.318  1.00  0.00     0.031 C 
ATOM     56  C   UNL A   1      47.591  30.398  28.093  1.00  0.00     0.029 A 
ATOM     57  C   UNL A   1      46.258  30.065  28.277  1.00  0.00     0.049 A 
ATOM     58  H   UNL A   1      45.323  28.182  28.109  1.00  0.00     0.167 HD
ATOM     59  C   UNL A   1      43.876  30.516  28.801  1.00  0.00     0.074 A 
ATOM     60  C   UNL A   1      42.780  31.397  29.146  1.00  0.00     0.031 C 
ATOM     61  C   UNL A   1      45.159  30.925  28.632  1.00  0.00     0.031 A 
BRANCH  48  62
ATOM     62  C   UNL A   1      49.063  26.374  27.122  1.00  0.00    -0.014 A 
ATOM     63  C   UNL A   1      49.568  26.367  25.810  1.00  0.00     0.009 A 
ATOM     64  C   UNL A   1      49.911  25.997  28.175  1.00  0.00     0.009 A 
ATOM     65  C   UNL A   1      50.878  25.953  25.556  1.00  0.00     0.001 A 
ATOM     66  C   UNL A   1      51.230  25.615  27.921  1.00  0.00     0.001 A 
ATOM     67  C   UNL A   1      51.709  25.583  26.612  1.00  0.00     0.000 A 
ENDBRANCH  48  62
BRANCH  49  68
ATOM     68  C   UNL A   1      39.583  28.664  29.283  1.00  0.00    -0.014 A 
ATOM     69  C   UNL A   1      38.713  29.115  28.277  1.00  0.00     0.009 A 
ATOM     70  C   UNL A   1      39.102  28.563  30.598  1.00  0.00     0.009 A 
ATOM     71  C   UNL A   1      37.404  29.490  28.588  1.00  0.00     0.001 A 
ATOM     72  C   UNL A   1      37.783  28.907  30.899  1.00  0.00     0.001 A 
ATOM     73  C   UNL A   1      36.939  29.381  29.897  1.00  0.00     0.000 A 
ENDBRANCH  49  68
BRANCH  61  74
ATOM     74  C   UNL A   1      45.428  32.396  28.785  1.00  0.00    -0.014 A 
ATOM     75  C   UNL A   1      45.786  32.953  30.024  1.00  0.00     0.009 A 
ATOM     76  C   UNL A   1      45.323  33.240  27.668  1.00  0.00     0.009 A 
ATOM     77  C   UNL A   1      45.977  34.330  30.150  1.00  0.00     0.001 A 
ATOM     78  C   UNL A   1      45.551  34.611  27.790  1.00  0.00     0.001 A 
ATOM     79  C   UNL A   1      45.862  35.157  29.035  1.00  0.00     0.000 A 
ENDBRANCH  61  74
ENDBRANCH  35  36
ENDBRANCH  27  30
ENDBRANCH  25  26
ENDBRANCH  24  25
ENDBRANCH   1  24
TORSDOF 14
ENDMDL
MODEL 2
REMARK VINA RESULT:     -10.7      5.618     10.424
REMARK SMILES C[C@@](NC(=O)NCC(N)=O)(C(=O)NCCCNC(=O)c1ccc(-c2c3nc(c(-c4ccccc4)c4ccc([nH]4)c(-c4ccccc4)c4nc(c(-c5ccccc5)c5ccc2[nH]5)C=C4)C=C3)cc1)C(F)(F)F
REMARK SMILES IDX 14 1 13 2 11 3 12 4 2 6 1 7 3 8 4 9 5 11 6 12 7 14 8 15 9 16
REMARK SMILES IDX 10 17 68 20 69 21 70 22 71 23 15 24 16 25 17 26 18 27 19 29
REMARK SMILES IDX 20 30 21 31 67 32 22 33 66 34 23 35 24 36 25 37 60 38 26 39
REMARK SMILES IDX 65 40 59 41 61 42 27 43 64 44 58 45 57 46 28 48 50 49 35 50
REMARK SMILES IDX 49 51 36 52 39 53 48 54 62 55 37 56 38 57 47 59 63 60 40 61
REMARK SMILES IDX 29 62 30 63 34 64 31 65 33 66 32 67 51 68 52 69 56 70 53 71
REMARK SMILES IDX 55 72 54 73 41 74 42 75 46 76 43 77 45 78 44 79
REMARK H PARENT 13 5 3 10 6 13 9 18 9 19 17 28 61 47 39 58
REMARK Flexibility Score: inf
ROOT
ATOM      1  C   UNL A   1      32.041  30.639  26.284  1.00  0.00     0.117 C 
ENDROOT
BRANCH   1   2
ATOM      2  N   UNL A   1      31.689  29.551  27.186  1.00  0.00    -0.354 N 
ATOM      3  C   UNL A   1      31.656  28.202  26.967  1.00  0.00     0.255 C 
ATOM      4  O   UNL A   1      31.334  27.514  27.939  1.00  0.00    -0.272 OA
ATOM      5  H   UNL A   1      31.435  29.832  28.095  1.00  0.00     0.163 HD
BRANCH   3   6
ATOM      6  C   UNL A   1      31.856  27.620  25.562  1.00  0.00     0.213 C 
ATOM      7  C   UNL A   1      31.292  26.178  25.659  1.00  0.00     0.056 C 
BRANCH   6   8
ATOM      8  N   UNL A   1      31.092  28.342  24.497  1.00  0.00    -0.316 N 
ATOM      9  C   UNL A   1      30.432  27.973  23.393  1.00  0.00     0.316 C 
ATOM     10  H   UNL A   1      31.070  29.315  24.643  1.00  0.00     0.166 HD
ATOM     11  O   UNL A   1      29.612  28.778  22.950  1.00  0.00    -0.249 OA
ATOM     12  N   UNL A   1      30.629  26.835  22.728  1.00  0.00    -0.329 N 
ATOM     13  H   UNL A   1      29.918  26.645  22.074  1.00  0.00     0.165 HD
BRANCH  12  14
ATOM     14  C   UNL A   1      31.658  25.819  22.755  1.00  0.00     0.217 C 
BRANCH  14  15
ATOM     15  C   UNL A   1      32.634  25.876  21.586  1.00  0.00     0.236 C 
ATOM     16  N   UNL A   1      32.038  25.789  20.358  1.00  0.00    -0.368 N 
ATOM     17  O   UNL A   1      33.844  26.029  21.703  1.00  0.00    -0.273 OA
ATOM     18  H   UNL A   1      31.064  25.666  20.290  1.00  0.00     0.159 HD
ATOM     19  H   UNL A   1      32.584  25.849  19.540  1.00  0.00     0.159 HD
ENDBRANCH  14  15
ENDBRANCH  12  14
ENDBRANCH   6   8
BRANCH   6  20
ATOM     20  C   UNL A   1      33.361  27.489  25.240  1.00  0.00     0.420 C 
ATOM     21  F   UNL A   1      33.763  28.329  24.260  1.00  0.00    -0.168 F 
ATOM     22  F   UNL A   1      34.094  27.817  26.341  1.00  0.00    -0.168 F 
ATOM     23  F   UNL A   1      33.732  26.240  24.891  1.00  0.00    -0.168 F 
ENDBRANCH   6  20
ENDBRANCH   3   6
ENDBRANCH   1   2
BRANCH   1  24
ATOM     24  C   UNL A   1      31.629  31.983  26.854  1.00  0.00     0.042 C 
BRANCH  24  25
ATOM     25  C   UNL A   1      32.815  32.849  27.238  1.00  0.00     0.118 C 
BRANCH  25  26
ATOM     26  N   UNL A   1      32.424  34.176  27.688  1.00  0.00    -0.352 N 
ATOM     27  C   UNL A   1      33.002  34.946  28.669  1.00  0.00     0.251 C 
ATOM     28  H   UNL A   1      31.647  34.573  27.232  1.00  0.00     0.163 HD
ATOM     29  O   UNL A   1      32.470  35.986  29.043  1.00  0.00    -0.269 OA
BRANCH  27  30
ATOM     30  C   UNL A   1      34.255  34.482  29.301  1.00  0.00     0.039 A 
ATOM     31  C   UNL A   1      34.184  33.781  30.504  1.00  0.00     0.014 A 
ATOM     32  C   UNL A   1      35.486  34.681  28.668  1.00  0.00     0.014 A 
ATOM     33  C   UNL A   1      35.344  33.223  31.040  1.00  0.00     0.010 A 
ATOM     34  C   UNL A   1      36.619  34.034  29.147  1.00  0.00     0.010 A 
ATOM     35  C   UNL A   1      36.565  33.310  30.346  1.00  0.00    -0.014 A 
BRANCH  35  36
ATOM     36  C   UNL A   1      37.783  32.648  30.875  1.00  0.00     0.031 A 
ATOM     37  C   UNL A   1      38.421  33.130  32.149  1.00  0.00     0.074 A 
ATOM     38  C   UNL A   1      38.327  31.621  30.193  1.00  0.00     0.049 A 
ATOM     39  N   UNL A   1      39.445  32.633  32.796  1.00  0.00    -0.248 NA
ATOM     40  C   UNL A   1      37.856  34.342  32.765  1.00  0.00     0.031 C 
ATOM     41  C   UNL A   1      37.846  31.103  28.909  1.00  0.00     0.029 A 
ATOM     42  N   UNL A   1      39.396  30.815  30.494  1.00  0.00    -0.354 N 
ATOM     43  C   UNL A   1      39.647  33.473  33.884  1.00  0.00     0.074 A 
ATOM     44  C   UNL A   1      38.688  34.549  33.774  1.00  0.00     0.031 C 
ATOM     45  C   UNL A   1      38.580  30.032  28.565  1.00  0.00     0.029 A 
ATOM     46  C   UNL A   1      39.600  29.808  29.582  1.00  0.00     0.049 A 
ATOM     47  H   UNL A   1      39.963  30.945  31.289  1.00  0.00     0.167 HD
ATOM     48  C   UNL A   1      40.529  33.347  34.903  1.00  0.00     0.031 A 
ATOM     49  C   UNL A   1      40.497  28.804  29.575  1.00  0.00     0.031 A 
ATOM     50  C   UNL A   1      41.481  32.273  35.017  1.00  0.00     0.049 A 
ATOM     51  C   UNL A   1      41.457  28.677  30.725  1.00  0.00     0.074 A 
ATOM     52  C   UNL A   1      42.382  32.023  36.036  1.00  0.00     0.029 A 
ATOM     53  N   UNL A   1      41.654  31.272  34.073  1.00  0.00    -0.354 N 
ATOM     54  N   UNL A   1      41.576  29.429  31.793  1.00  0.00    -0.248 NA
ATOM     55  C   UNL A   1      42.390  27.543  30.678  1.00  0.00     0.031 C 
ATOM     56  C   UNL A   1      43.138  30.900  35.683  1.00  0.00     0.029 A 
ATOM     57  C   UNL A   1      42.663  30.414  34.475  1.00  0.00     0.049 A 
ATOM     58  H   UNL A   1      41.136  31.185  33.241  1.00  0.00     0.167 HD
ATOM     59  C   UNL A   1      42.576  28.844  32.557  1.00  0.00     0.074 A 
ATOM     60  C   UNL A   1      43.011  27.662  31.843  1.00  0.00     0.031 C 
ATOM     61  C   UNL A   1      43.091  29.249  33.746  1.00  0.00     0.031 A 
BRANCH  48  62
ATOM     62  C   UNL A   1      40.502  34.402  35.975  1.00  0.00    -0.014 A 
ATOM     63  C   UNL A   1      41.271  35.573  35.865  1.00  0.00     0.009 A 
ATOM     64  C   UNL A   1      39.678  34.238  37.099  1.00  0.00     0.009 A 
ATOM     65  C   UNL A   1      41.246  36.537  36.876  1.00  0.00     0.001 A 
ATOM     66  C   UNL A   1      39.630  35.218  38.093  1.00  0.00     0.001 A 
ATOM     67  C   UNL A   1      40.422  36.361  37.986  1.00  0.00     0.000 A 
ENDBRANCH  48  62
BRANCH  49  68
ATOM     68  C   UNL A   1      40.504  27.815  28.465  1.00  0.00    -0.014 A 
ATOM     69  C   UNL A   1      41.234  28.062  27.292  1.00  0.00     0.009 A 
ATOM     70  C   UNL A   1      39.772  26.622  28.569  1.00  0.00     0.009 A 
ATOM     71  C   UNL A   1      41.203  27.151  26.232  1.00  0.00     0.001 A 
ATOM     72  C   UNL A   1      39.769  25.699  27.521  1.00  0.00     0.001 A 
ATOM     73  C   UNL A   1      40.474  25.969  26.350  1.00  0.00     0.000 A 
ENDBRANCH  49  68
BRANCH  61  74
ATOM     74  C   UNL A   1      44.157  28.380  34.354  1.00  0.00    -0.014 A 
ATOM     75  C   UNL A   1      43.835  27.312  35.208  1.00  0.00     0.009 A 
ATOM     76  C   UNL A   1      45.507  28.634  34.066  1.00  0.00     0.009 A 
ATOM     77  C   UNL A   1      44.846  26.554  35.803  1.00  0.00     0.001 A 
ATOM     78  C   UNL A   1      46.514  27.852  34.633  1.00  0.00     0.001 A 
ATOM     79  C   UNL A   1      46.182  26.823  35.514  1.00  0.00     0.000 A 
ENDBRANCH  61  74
ENDBRANCH  35  36
ENDBRANCH  27  30
ENDBRANCH  25  26
ENDBRANCH  24  25
ENDBRANCH   1  24
TORSDOF 14
ENDMDL
MODEL 3
REMARK VINA RESULT:     -10.6      1.557      2.347
REMARK SMILES C[C@@](NC(=O)NCC(N)=O)(C(=O)NCCCNC(=O)c1ccc(-c2c3nc(c(-c4ccccc4)c4ccc([nH]4)c(-c4ccccc4)c4nc(c(-c5ccccc5)c5ccc2[nH]5)C=C4)C=C3)cc1)C(F)(F)F
REMARK SMILES IDX 14 1 13 2 11 3 12 4 2 6 1 7 3 8 4 9 5 11 6 12 7 14 8 15 9 16
REMARK SMILES IDX 10 17 68 20 69 21 70 22 71 23 15 24 16 25 17 26 18 27 19 29
REMARK SMILES IDX 20 30 21 31 67 32 22 33 66 34 23 35 24 36 25 37 60 38 26 39
REMARK SMILES IDX 65 40 59 41 61 42 27 43 64 44 58 45 57 46 28 48 50 49 35 50
REMARK SMILES IDX 49 51 36 52 39 53 48 54 62 55 37 56 38 57 47 59 63 60 40 61
REMARK SMILES IDX 29 62 30 63 34 64 31 65 33 66 32 67 51 68 52 69 56 70 53 71
REMARK SMILES IDX 55 72 54 73 41 74 42 75 46 76 43 77 45 78 44 79
REMARK H PARENT 13 5 3 10 6 13 9 18 9 19 17 28 61 47 39 58
REMARK Flexibility Score: inf
ROOT
ATOM      1  C   UNL A   1      36.715  21.275  24.933  1.00  0.00     0.117 C 
ENDROOT
BRANCH   1   2
ATOM      2  N   UNL A   1      35.894  21.333  26.135  1.00  0.00    -0.354 N 
ATOM      3  C   UNL A   1      34.736  22.018  26.378  1.00  0.00     0.255 C 
ATOM      4  O   UNL A   1      34.250  21.857  27.500  1.00  0.00    -0.272 OA
ATOM      5  H   UNL A   1      36.226  20.795  26.890  1.00  0.00     0.163 HD
BRANCH   3   6
ATOM      6  C   UNL A   1      34.185  23.032  25.367  1.00  0.00     0.213 C 
ATOM      7  C   UNL A   1      34.558  22.436  23.984  1.00  0.00     0.056 C 
BRANCH   6   8
ATOM      8  N   UNL A   1      32.698  23.185  25.417  1.00  0.00    -0.316 N 
ATOM      9  C   UNL A   1      31.670  22.356  25.633  1.00  0.00     0.316 C 
ATOM     10  H   UNL A   1      32.408  24.111  25.252  1.00  0.00     0.166 HD
ATOM     11  O   UNL A   1      30.606  22.878  25.967  1.00  0.00    -0.249 OA
ATOM     12  N   UNL A   1      31.706  21.033  25.472  1.00  0.00    -0.329 N 
ATOM     13  H   UNL A   1      30.932  20.577  25.874  1.00  0.00     0.165 HD
BRANCH  12  14
ATOM     14  C   UNL A   1      32.633  20.122  24.838  1.00  0.00     0.217 C 
BRANCH  14  15
ATOM     15  C   UNL A   1      32.534  18.680  25.324  1.00  0.00     0.236 C 
ATOM     16  N   UNL A   1      32.915  18.504  26.626  1.00  0.00    -0.368 N 
ATOM     17  O   UNL A   1      32.116  17.750  24.646  1.00  0.00    -0.273 OA
ATOM     18  H   UNL A   1      33.248  19.268  27.150  1.00  0.00     0.159 HD
ATOM     19  H   UNL A   1      32.856  17.613  27.041  1.00  0.00     0.159 HD
ENDBRANCH  14  15
ENDBRANCH  12  14
ENDBRANCH   6   8
BRANCH   6  20
ATOM     20  C   UNL A   1      34.934  24.378  25.489  1.00  0.00     0.420 C 
ATOM     21  F   UNL A   1      34.923  25.090  24.340  1.00  0.00    -0.168 F 
ATOM     22  F   UNL A   1      34.322  25.158  26.421  1.00  0.00    -0.168 F 
ATOM     23  F   UNL A   1      36.218  24.247  25.881  1.00  0.00    -0.168 F 
ENDBRANCH   6  20
ENDBRANCH   3   6
ENDBRANCH   1   2
BRANCH   1  24
ATOM     24  C   UNL A   1      37.724  20.146  25.008  1.00  0.00     0.042 C 
BRANCH  24  25
ATOM     25  C   UNL A   1      38.979  20.528  25.772  1.00  0.00     0.118 C 
BRANCH  25  26
ATOM     26  N   UNL A   1      40.002  19.492  25.734  1.00  0.00    -0.352 N 
ATOM     27  C   UNL A   1      41.338  19.606  26.035  1.00  0.00     0.251 C 
ATOM     28  H   UNL A   1      39.697  18.598  25.459  1.00  0.00     0.163 HD
ATOM     29  O   UNL A   1      42.109  18.679  25.813  1.00  0.00    -0.269 OA
BRANCH  27  30
ATOM     30  C   UNL A   1      41.844  20.878  26.591  1.00  0.00     0.039 A 
ATOM     31  C   UNL A   1      42.229  21.892  25.714  1.00  0.00     0.014 A 
ATOM     32  C   UNL A   1      41.869  21.089  27.973  1.00  0.00     0.014 A 
ATOM     33  C   UNL A   1      42.580  23.141  26.224  1.00  0.00     0.010 A 
ATOM     34  C   UNL A   1      42.115  22.364  28.470  1.00  0.00     0.010 A 
ATOM     35  C   UNL A   1      42.487  23.400  27.604  1.00  0.00    -0.014 A 
BRANCH  35  36
ATOM     36  C   UNL A   1      42.782  24.753  28.139  1.00  0.00     0.031 A 
ATOM     37  C   UNL A   1      44.197  25.155  28.457  1.00  0.00     0.074 A 
ATOM     38  C   UNL A   1      41.769  25.614  28.359  1.00  0.00     0.049 A 
ATOM     39  N   UNL A   1      44.650  26.313  28.866  1.00  0.00    -0.248 NA
ATOM     40  C   UNL A   1      45.234  24.120  28.325  1.00  0.00     0.031 C 
ATOM     41  C   UNL A   1      40.347  25.321  28.158  1.00  0.00     0.029 A 
ATOM     42  N   UNL A   1      41.781  26.918  28.782  1.00  0.00    -0.354 N 
ATOM     43  C   UNL A   1      46.018  26.140  29.045  1.00  0.00     0.074 A 
ATOM     44  C   UNL A   1      46.310  24.752  28.769  1.00  0.00     0.031 C 
ATOM     45  C   UNL A   1      39.632  26.431  28.402  1.00  0.00     0.029 A 
ATOM     46  C   UNL A   1      40.537  27.501  28.805  1.00  0.00     0.049 A 
ATOM     47  H   UNL A   1      42.604  27.393  29.044  1.00  0.00     0.167 HD
ATOM     48  C   UNL A   1      46.954  27.060  29.377  1.00  0.00     0.031 A 
ATOM     49  C   UNL A   1      40.168  28.761  29.102  1.00  0.00     0.031 A 
ATOM     50  C   UNL A   1      46.665  28.444  29.646  1.00  0.00     0.049 A 
ATOM     51  C   UNL A   1      41.228  29.767  29.454  1.00  0.00     0.074 A 
ATOM     52  C   UNL A   1      47.547  29.468  29.939  1.00  0.00     0.029 A 
ATOM     53  N   UNL A   1      45.393  28.994  29.658  1.00  0.00    -0.354 N 
ATOM     54  N   UNL A   1      42.528  29.609  29.532  1.00  0.00    -0.248 NA
ATOM     55  C   UNL A   1      40.768  31.134  29.735  1.00  0.00     0.031 C 
ATOM     56  C   UNL A   1      46.803  30.628  30.181  1.00  0.00     0.029 A 
ATOM     57  C   UNL A   1      45.463  30.340  29.974  1.00  0.00     0.049 A 
ATOM     58  H   UNL A   1      44.562  28.501  29.469  1.00  0.00     0.167 HD
ATOM     59  C   UNL A   1      43.042  30.860  29.842  1.00  0.00     0.074 A 
ATOM     60  C   UNL A   1      41.917  31.770  29.912  1.00  0.00     0.031 C 
ATOM     61  C   UNL A   1      44.332  31.227  30.052  1.00  0.00     0.031 A 
BRANCH  48  62
ATOM     62  C   UNL A   1      48.381  26.590  29.468  1.00  0.00    -0.014 A 
ATOM     63  C   UNL A   1      48.895  26.045  30.657  1.00  0.00     0.009 A 
ATOM     64  C   UNL A   1      49.217  26.670  28.344  1.00  0.00     0.009 A 
ATOM     65  C   UNL A   1      50.225  25.627  30.730  1.00  0.00     0.001 A 
ATOM     66  C   UNL A   1      50.538  26.221  28.410  1.00  0.00     0.001 A 
ATOM     67  C   UNL A   1      51.044  25.711  29.605  1.00  0.00     0.000 A 
ENDBRANCH  48  62
BRANCH  49  68
ATOM     68  C   UNL A   1      38.736  29.156  29.036  1.00  0.00    -0.014 A 
ATOM     69  C   UNL A   1      37.931  29.118  30.186  1.00  0.00     0.009 A 
ATOM     70  C   UNL A   1      38.163  29.564  27.821  1.00  0.00     0.009 A 
ATOM     71  C   UNL A   1      36.574  29.446  30.112  1.00  0.00     0.001 A 
ATOM     72  C   UNL A   1      36.816  29.923  27.759  1.00  0.00     0.001 A 
ATOM     73  C   UNL A   1      36.020  29.853  28.900  1.00  0.00     0.000 A 
ENDBRANCH  49  68
BRANCH  61  74
ATOM     74  C   UNL A   1      44.586  32.680  30.341  1.00  0.00    -0.014 A 
ATOM     75  C   UNL A   1      44.512  33.194  31.646  1.00  0.00     0.009 A 
ATOM     76  C   UNL A   1      44.908  33.550  29.288  1.00  0.00     0.009 A 
ATOM     77  C   UNL A   1      44.699  34.557  31.880  1.00  0.00     0.001 A 
ATOM     78  C   UNL A   1      45.132  34.906  29.530  1.00  0.00     0.001 A 
ATOM     79  C   UNL A   1      45.010  35.411  30.824  1.00  0.00     0.000 A 
ENDBRANCH  61  74
ENDBRANCH  35  36
ENDBRANCH  27  30
ENDBRANCH  25  26
ENDBRANCH  24  25
ENDBRANCH   1  24
TORSDOF 14
ENDMDL
