MODEL 1
REMARK VINA RESULT:     -13.4      0.000      0.000
REMARK SMILES Cc1ccccc1C(=O)Nc1ccc(OCC(=O)NCCCNC(=O)c2ccc(-c3c4nc(c(-c5ccccc5)c5ccc([nH]5)c(-c5ccccc5)c5nc(c(-c6ccccc6)c6ccc3[nH]6)C=C5)C=C4)cc2)c(-c2nc3ccccc3s2)c1
REMARK SMILES IDX 20 1 19 2 17 3 18 4 16 6 15 7 14 8 11 9 12 10 84 11 13 12
REMARK SMILES IDX 74 13 10 14 8 15 9 16 7 18 1 19 2 20 3 21 4 22 6 23 5 24
REMARK SMILES IDX 75 25 76 26 83 27 77 28 82 29 78 30 81 31 79 32 80 33 21 34
REMARK SMILES IDX 22 35 23 36 24 37 25 39 26 40 27 41 73 42 28 43 72 44 29 45
REMARK SMILES IDX 30 46 31 47 66 48 32 49 71 50 65 51 67 52 33 53 70 54 64 55
REMARK SMILES IDX 63 56 34 58 56 59 41 60 55 61 42 62 45 63 54 64 68 65 43 66
REMARK SMILES IDX 44 67 53 69 69 70 46 71 35 72 36 73 40 74 37 75 39 76 38 77
REMARK SMILES IDX 57 78 58 79 62 80 59 81 61 82 60 83 47 84 48 85 52 86 49 87
REMARK SMILES IDX 51 88 50 89
REMARK H PARENT 19 5 10 17 23 38 67 57 45 68
REMARK Flexibility Score: inf
ROOT
ATOM      1  C   UNL A   1      37.131  21.329  25.063  1.00  0.00     0.117 C 
ENDROOT
BRANCH   1   2
ATOM      2  N   UNL A   1      36.078  21.750  25.963  1.00  0.00    -0.353 N 
ATOM      3  C   UNL A   1      35.399  22.940  25.967  1.00  0.00     0.257 C 
ATOM      4  O   UNL A   1      34.694  23.172  26.946  1.00  0.00    -0.271 OA
ATOM      5  H   UNL A   1      35.819  21.103  26.659  1.00  0.00     0.163 HD
BRANCH   3   6
ATOM      6  C   UNL A   1      35.543  23.885  24.738  1.00  0.00     0.329 C 
BRANCH   6   7
ATOM      7  O   UNL A   1      35.026  23.584  23.445  1.00  0.00    -0.483 OA
BRANCH   7   8
ATOM      8  C   UNL A   1      33.887  24.278  23.136  1.00  0.00     0.130 A 
ATOM      9  C   UNL A   1      31.632  25.844  22.656  1.00  0.00     0.042 A 
ATOM     10  C   UNL A   1      32.902  26.390  22.478  1.00  0.00     0.030 A 
ATOM     11  C   UNL A   1      31.499  24.479  22.925  1.00  0.00     0.041 A 
ATOM     12  C   UNL A   1      34.029  25.618  22.753  1.00  0.00     0.049 A 
ATOM     13  C   UNL A   1      32.626  23.651  23.131  1.00  0.00     0.055 A 
BRANCH   9  14
ATOM     14  N   UNL A   1      30.544  26.724  22.598  1.00  0.00    -0.322 N 
ATOM     15  C   UNL A   1      30.051  27.611  23.532  1.00  0.00     0.255 C 
ATOM     16  O   UNL A   1      28.958  28.139  23.318  1.00  0.00    -0.269 OA
ATOM     17  H   UNL A   1      30.048  26.707  21.748  1.00  0.00     0.170 HD
BRANCH  15  18
ATOM     18  C   UNL A   1      30.818  28.037  24.741  1.00  0.00     0.043 A 
ATOM     19  C   UNL A   1      30.441  25.888  26.122  1.00  0.00     0.045 C 
ATOM     20  C   UNL A   1      30.980  27.273  25.917  1.00  0.00    -0.038 A 
ATOM     21  C   UNL A   1      31.724  27.819  26.981  1.00  0.00     0.004 A 
ATOM     22  C   UNL A   1      32.393  29.034  26.847  1.00  0.00     0.000 A 
ATOM     23  C   UNL A   1      31.528  29.245  24.609  1.00  0.00     0.014 A 
ATOM     24  C   UNL A   1      32.318  29.734  25.650  1.00  0.00     0.001 A 
ENDBRANCH  15  18
ENDBRANCH   9  14
BRANCH  13  25
ATOM     25  C   UNL A   1      32.373  22.215  23.407  1.00  0.00     0.128 A 
ATOM     26  N   UNL A   1      32.531  21.666  24.600  1.00  0.00    -0.236 NA
ATOM     27  S   UNL A   1      31.866  21.085  22.205  1.00  0.00    -0.114 S 
ATOM     28  C   UNL A   1      32.560  20.285  24.490  1.00  0.00     0.082 A 
ATOM     29  C   UNL A   1      32.326  19.786  23.212  1.00  0.00     0.055 A 
ATOM     30  C   UNL A   1      32.844  19.377  25.526  1.00  0.00     0.030 A 
ATOM     31  C   UNL A   1      32.456  18.427  22.898  1.00  0.00     0.021 A 
ATOM     32  C   UNL A   1      32.971  18.014  25.231  1.00  0.00     0.002 A 
ATOM     33  C   UNL A   1      32.804  17.551  23.929  1.00  0.00     0.002 A 
ENDBRANCH  13  25
ENDBRANCH   7   8
ENDBRANCH   6   7
ENDBRANCH   3   6
ENDBRANCH   1   2
BRANCH   1  34
ATOM     34  C   UNL A   1      38.489  21.406  25.753  1.00  0.00     0.042 C 
BRANCH  34  35
ATOM     35  C   UNL A   1      38.888  22.835  26.101  1.00  0.00     0.118 C 
BRANCH  35  36
ATOM     36  N   UNL A   1      40.256  22.955  26.586  1.00  0.00    -0.352 N 
ATOM     37  C   UNL A   1      40.937  24.053  27.083  1.00  0.00     0.251 C 
ATOM     38  H   UNL A   1      40.780  22.122  26.555  1.00  0.00     0.163 HD
ATOM     39  O   UNL A   1      42.107  23.938  27.401  1.00  0.00    -0.269 OA
BRANCH  37  40
ATOM     40  C   UNL A   1      40.209  25.319  27.364  1.00  0.00     0.039 A 
ATOM     41  C   UNL A   1      40.533  26.436  26.582  1.00  0.00     0.014 A 
ATOM     42  C   UNL A   1      39.387  25.463  28.476  1.00  0.00     0.014 A 
ATOM     43  C   UNL A   1      40.250  27.711  27.063  1.00  0.00     0.010 A 
ATOM     44  C   UNL A   1      39.192  26.722  29.005  1.00  0.00     0.010 A 
ATOM     45  C   UNL A   1      39.688  27.839  28.331  1.00  0.00    -0.014 A 
BRANCH  45  46
ATOM     46  C   UNL A   1      39.691  29.084  29.083  1.00  0.00     0.031 A 
ATOM     47  C   UNL A   1      38.658  30.106  28.840  1.00  0.00     0.074 A 
ATOM     48  C   UNL A   1      40.631  29.288  30.029  1.00  0.00     0.049 A 
ATOM     49  N   UNL A   1      38.831  31.367  29.049  1.00  0.00    -0.248 NA
ATOM     50  C   UNL A   1      37.349  29.785  28.283  1.00  0.00     0.031 C 
ATOM     51  C   UNL A   1      40.660  30.331  31.049  1.00  0.00     0.029 A 
ATOM     52  N   UNL A   1      41.871  28.687  30.147  1.00  0.00    -0.354 N 
ATOM     53  C   UNL A   1      37.600  31.970  28.948  1.00  0.00     0.074 A 
ATOM     54  C   UNL A   1      36.731  30.965  28.379  1.00  0.00     0.031 C 
ATOM     55  C   UNL A   1      41.918  30.453  31.510  1.00  0.00     0.029 A 
ATOM     56  C   UNL A   1      42.768  29.599  30.696  1.00  0.00     0.049 A 
ATOM     57  H   UNL A   1      42.085  27.762  29.884  1.00  0.00     0.167 HD
ATOM     58  C   UNL A   1      37.407  33.202  29.497  1.00  0.00     0.031 A 
ATOM     59  C   UNL A   1      43.860  30.035  29.998  1.00  0.00     0.031 A 
ATOM     60  C   UNL A   1      38.633  33.730  30.091  1.00  0.00     0.049 A 
ATOM     61  C   UNL A   1      43.840  31.525  29.715  1.00  0.00     0.074 A 
ATOM     62  C   UNL A   1      39.097  33.771  31.397  1.00  0.00     0.029 A 
ATOM     63  N   UNL A   1      39.716  34.034  29.276  1.00  0.00    -0.354 N 
ATOM     64  N   UNL A   1      42.767  32.264  29.773  1.00  0.00    -0.248 NA
ATOM     65  C   UNL A   1      45.017  32.288  29.308  1.00  0.00     0.031 C 
ATOM     66  C   UNL A   1      40.488  34.045  31.358  1.00  0.00     0.029 A 
ATOM     67  C   UNL A   1      40.859  34.200  30.035  1.00  0.00     0.049 A 
ATOM     68  H   UNL A   1      39.675  34.119  28.297  1.00  0.00     0.167 HD
ATOM     69  C   UNL A   1      43.076  33.555  29.432  1.00  0.00     0.074 A 
ATOM     70  C   UNL A   1      44.501  33.522  29.156  1.00  0.00     0.031 C 
ATOM     71  C   UNL A   1      42.126  34.535  29.398  1.00  0.00     0.031 A 
BRANCH  58  72
ATOM     72  C   UNL A   1      36.039  33.780  29.764  1.00  0.00    -0.014 A 
ATOM     73  C   UNL A   1      35.295  34.323  28.699  1.00  0.00     0.009 A 
ATOM     74  C   UNL A   1      35.449  33.871  31.036  1.00  0.00     0.009 A 
ATOM     75  C   UNL A   1      34.091  35.009  28.907  1.00  0.00     0.001 A 
ATOM     76  C   UNL A   1      34.268  34.593  31.258  1.00  0.00     0.001 A 
ATOM     77  C   UNL A   1      33.594  35.173  30.193  1.00  0.00     0.000 A 
ENDBRANCH  58  72
BRANCH  59  78
ATOM     78  C   UNL A   1      44.434  29.015  29.078  1.00  0.00    -0.014 A 
ATOM     79  C   UNL A   1      45.158  27.943  29.638  1.00  0.00     0.009 A 
ATOM     80  C   UNL A   1      43.976  28.895  27.758  1.00  0.00     0.009 A 
ATOM     81  C   UNL A   1      45.318  26.743  28.938  1.00  0.00     0.001 A 
ATOM     82  C   UNL A   1      44.146  27.693  27.058  1.00  0.00     0.001 A 
ATOM     83  C   UNL A   1      44.784  26.608  27.660  1.00  0.00     0.000 A 
ENDBRANCH  59  78
BRANCH  71  84
ATOM     84  C   UNL A   1      42.286  35.928  28.836  1.00  0.00    -0.014 A 
ATOM     85  C   UNL A   1      42.990  36.963  29.462  1.00  0.00     0.009 A 
ATOM     86  C   UNL A   1      41.814  36.190  27.528  1.00  0.00     0.009 A 
ATOM     87  C   UNL A   1      43.179  38.203  28.832  1.00  0.00     0.001 A 
ATOM     88  C   UNL A   1      42.041  37.405  26.878  1.00  0.00     0.001 A 
ATOM     89  C   UNL A   1      42.716  38.420  27.538  1.00  0.00     0.000 A 
ENDBRANCH  71  84
ENDBRANCH  45  46
ENDBRANCH  37  40
ENDBRANCH  35  36
ENDBRANCH  34  35
ENDBRANCH   1  34
TORSDOF 15
ENDMDL
MODEL 2
REMARK VINA RESULT:     -13.3      2.171      3.660
REMARK SMILES Cc1ccccc1C(=O)Nc1ccc(OCC(=O)NCCCNC(=O)c2ccc(-c3c4nc(c(-c5ccccc5)c5ccc([nH]5)c(-c5ccccc5)c5nc(c(-c6ccccc6)c6ccc3[nH]6)C=C5)C=C4)cc2)c(-c2nc3ccccc3s2)c1
REMARK SMILES IDX 20 1 19 2 17 3 18 4 16 6 15 7 14 8 11 9 12 10 84 11 13 12
REMARK SMILES IDX 74 13 10 14 8 15 9 16 7 18 1 19 2 20 3 21 4 22 6 23 5 24
REMARK SMILES IDX 75 25 76 26 83 27 77 28 82 29 78 30 81 31 79 32 80 33 21 34
REMARK SMILES IDX 22 35 23 36 24 37 25 39 26 40 27 41 73 42 28 43 72 44 29 45
REMARK SMILES IDX 30 46 31 47 66 48 32 49 71 50 65 51 67 52 33 53 70 54 64 55
REMARK SMILES IDX 63 56 34 58 56 59 41 60 55 61 42 62 45 63 54 64 68 65 43 66
REMARK SMILES IDX 44 67 53 69 69 70 46 71 35 72 36 73 40 74 37 75 39 76 38 77
REMARK SMILES IDX 57 78 58 79 62 80 59 81 61 82 60 83 47 84 48 85 52 86 49 87
REMARK SMILES IDX 51 88 50 89
REMARK H PARENT 19 5 10 17 23 38 67 57 45 68
REMARK Flexibility Score: inf
ROOT
ATOM      1  C   UNL A   1      38.147  22.770  25.919  1.00  0.00     0.117 C 
ENDROOT
BRANCH   1   2
ATOM      2  N   UNL A   1      36.798  22.629  26.427  1.00  0.00    -0.353 N 
ATOM      3  C   UNL A   1      35.660  23.245  25.976  1.00  0.00     0.257 C 
ATOM      4  O   UNL A   1      34.660  23.146  26.683  1.00  0.00    -0.271 OA
ATOM      5  H   UNL A   1      36.685  22.018  27.191  1.00  0.00     0.163 HD
BRANCH   3   6
ATOM      6  C   UNL A   1      35.706  23.987  24.609  1.00  0.00     0.329 C 
BRANCH   6   7
ATOM      7  O   UNL A   1      35.034  23.531  23.438  1.00  0.00    -0.483 OA
BRANCH   7   8
ATOM      8  C   UNL A   1      33.903  24.243  23.142  1.00  0.00     0.130 A 
ATOM      9  C   UNL A   1      31.670  25.848  22.688  1.00  0.00     0.042 A 
ATOM     10  C   UNL A   1      32.947  26.371  22.492  1.00  0.00     0.030 A 
ATOM     11  C   UNL A   1      31.517  24.486  22.961  1.00  0.00     0.041 A 
ATOM     12  C   UNL A   1      34.064  25.580  22.755  1.00  0.00     0.049 A 
ATOM     13  C   UNL A   1      32.632  23.638  23.155  1.00  0.00     0.055 A 
BRANCH   9  14
ATOM     14  N   UNL A   1      30.597  26.746  22.641  1.00  0.00    -0.322 N 
ATOM     15  C   UNL A   1      30.117  27.627  23.588  1.00  0.00     0.255 C 
ATOM     16  O   UNL A   1      29.033  28.176  23.380  1.00  0.00    -0.269 OA
ATOM     17  H   UNL A   1      30.102  26.750  21.790  1.00  0.00     0.170 HD
BRANCH  15  18
ATOM     18  C   UNL A   1      30.889  28.021  24.804  1.00  0.00     0.043 A 
ATOM     19  C   UNL A   1      30.406  25.892  26.183  1.00  0.00     0.045 C 
ATOM     20  C   UNL A   1      31.006  27.253  25.983  1.00  0.00    -0.038 A 
ATOM     21  C   UNL A   1      31.761  27.769  27.054  1.00  0.00     0.004 A 
ATOM     22  C   UNL A   1      32.483  28.954  26.926  1.00  0.00     0.000 A 
ATOM     23  C   UNL A   1      31.651  29.198  24.679  1.00  0.00     0.014 A 
ATOM     24  C   UNL A   1      32.450  29.655  25.727  1.00  0.00     0.001 A 
ENDBRANCH  15  18
ENDBRANCH   9  14
BRANCH  13  25
ATOM     25  C   UNL A   1      32.357  22.207  23.436  1.00  0.00     0.128 A 
ATOM     26  N   UNL A   1      32.430  21.679  24.647  1.00  0.00    -0.236 NA
ATOM     27  S   UNL A   1      31.933  21.057  22.221  1.00  0.00    -0.114 S 
ATOM     28  C   UNL A   1      32.464  20.297  24.564  1.00  0.00     0.082 A 
ATOM     29  C   UNL A   1      32.319  19.776  23.281  1.00  0.00     0.055 A 
ATOM     30  C   UNL A   1      32.673  19.406  25.632  1.00  0.00     0.030 A 
ATOM     31  C   UNL A   1      32.469  18.411  23.000  1.00  0.00     0.021 A 
ATOM     32  C   UNL A   1      32.817  18.038  25.370  1.00  0.00     0.002 A 
ATOM     33  C   UNL A   1      32.742  17.553  24.067  1.00  0.00     0.002 A 
ENDBRANCH  13  25
ENDBRANCH   7   8
ENDBRANCH   6   7
ENDBRANCH   3   6
ENDBRANCH   1   2
BRANCH   1  34
ATOM     34  C   UNL A   1      38.774  21.401  25.679  1.00  0.00     0.042 C 
BRANCH  34  35
ATOM     35  C   UNL A   1      39.932  21.114  26.626  1.00  0.00     0.118 C 
BRANCH  35  36
ATOM     36  N   UNL A   1      41.020  20.370  26.007  1.00  0.00    -0.352 N 
ATOM     37  C   UNL A   1      42.377  20.639  25.963  1.00  0.00     0.251 C 
ATOM     38  H   UNL A   1      40.746  19.545  25.544  1.00  0.00     0.163 HD
ATOM     39  O   UNL A   1      43.116  19.891  25.347  1.00  0.00    -0.269 OA
BRANCH  37  40
ATOM     40  C   UNL A   1      42.947  21.742  26.781  1.00  0.00     0.039 A 
ATOM     41  C   UNL A   1      42.713  21.709  28.162  1.00  0.00     0.014 A 
ATOM     42  C   UNL A   1      43.519  22.869  26.199  1.00  0.00     0.014 A 
ATOM     43  C   UNL A   1      42.807  22.885  28.900  1.00  0.00     0.010 A 
ATOM     44  C   UNL A   1      43.520  24.056  26.901  1.00  0.00     0.010 A 
ATOM     45  C   UNL A   1      43.095  24.073  28.231  1.00  0.00    -0.014 A 
BRANCH  45  46
ATOM     46  C   UNL A   1      42.858  25.389  28.804  1.00  0.00     0.031 A 
ATOM     47  C   UNL A   1      41.660  26.161  28.432  1.00  0.00     0.074 A 
ATOM     48  C   UNL A   1      43.730  25.890  29.704  1.00  0.00     0.049 A 
ATOM     49  N   UNL A   1      41.596  27.449  28.462  1.00  0.00    -0.248 NA
ATOM     50  C   UNL A   1      40.441  25.531  27.937  1.00  0.00     0.031 C 
ATOM     51  C   UNL A   1      43.552  27.052  30.569  1.00  0.00     0.029 A 
ATOM     52  N   UNL A   1      45.057  25.549  29.892  1.00  0.00    -0.354 N 
ATOM     53  C   UNL A   1      40.277  27.796  28.289  1.00  0.00     0.074 A 
ATOM     54  C   UNL A   1      39.616  26.580  27.874  1.00  0.00     0.031 C 
ATOM     55  C   UNL A   1      44.758  27.465  30.997  1.00  0.00     0.029 A 
ATOM     56  C   UNL A   1      45.763  26.678  30.301  1.00  0.00     0.049 A 
ATOM     57  H   UNL A   1      45.441  24.652  29.758  1.00  0.00     0.167 HD
ATOM     58  C   UNL A   1      39.854  29.035  28.664  1.00  0.00     0.031 A 
ATOM     59  C   UNL A   1      46.767  27.206  29.539  1.00  0.00     0.031 A 
ATOM     60  C   UNL A   1      40.953  29.857  29.168  1.00  0.00     0.049 A 
ATOM     61  C   UNL A   1      46.481  28.613  29.052  1.00  0.00     0.074 A 
ATOM     62  C   UNL A   1      41.380  30.161  30.451  1.00  0.00     0.029 A 
ATOM     63  N   UNL A   1      41.975  30.238  28.309  1.00  0.00    -0.354 N 
ATOM     64  N   UNL A   1      45.290  29.144  29.017  1.00  0.00    -0.248 NA
ATOM     65  C   UNL A   1      47.505  29.515  28.532  1.00  0.00     0.031 C 
ATOM     66  C   UNL A   1      42.698  30.678  30.362  1.00  0.00     0.029 A 
ATOM     67  C   UNL A   1      43.055  30.714  29.027  1.00  0.00     0.049 A 
ATOM     68  H   UNL A   1      41.935  30.179  27.327  1.00  0.00     0.167 HD
ATOM     69  C   UNL A   1      45.363  30.410  28.497  1.00  0.00     0.074 A 
ATOM     70  C   UNL A   1      46.774  30.600  28.216  1.00  0.00     0.031 C 
ATOM     71  C   UNL A   1      44.250  31.184  28.337  1.00  0.00     0.031 A 
BRANCH  58  72
ATOM     72  C   UNL A   1      38.398  29.384  28.862  1.00  0.00    -0.014 A 
ATOM     73  C   UNL A   1      37.618  29.759  27.752  1.00  0.00     0.009 A 
ATOM     74  C   UNL A   1      37.752  29.416  30.108  1.00  0.00     0.009 A 
ATOM     75  C   UNL A   1      36.309  30.240  27.891  1.00  0.00     0.001 A 
ATOM     76  C   UNL A   1      36.458  29.936  30.261  1.00  0.00     0.001 A 
ATOM     77  C   UNL A   1      35.741  30.360  29.153  1.00  0.00     0.000 A 
ENDBRANCH  58  72
BRANCH  59  78
ATOM     78  C   UNL A   1      47.534  26.191  28.763  1.00  0.00    -0.014 A 
ATOM     79  C   UNL A   1      47.287  26.082  27.380  1.00  0.00     0.009 A 
ATOM     80  C   UNL A   1      48.709  25.626  29.280  1.00  0.00     0.009 A 
ATOM     81  C   UNL A   1      48.243  25.526  26.523  1.00  0.00     0.001 A 
ATOM     82  C   UNL A   1      49.660  25.063  28.419  1.00  0.00     0.001 A 
ATOM     83  C   UNL A   1      49.443  25.045  27.041  1.00  0.00     0.000 A 
ENDBRANCH  59  78
BRANCH  71  84
ATOM     84  C   UNL A   1      44.162  32.492  27.586  1.00  0.00    -0.014 A 
ATOM     85  C   UNL A   1      44.295  32.624  26.198  1.00  0.00     0.009 A 
ATOM     86  C   UNL A   1      43.788  33.658  28.295  1.00  0.00     0.009 A 
ATOM     87  C   UNL A   1      44.103  33.859  25.561  1.00  0.00     0.001 A 
ATOM     88  C   UNL A   1      43.549  34.879  27.660  1.00  0.00     0.001 A 
ATOM     89  C   UNL A   1      43.719  34.982  26.288  1.00  0.00     0.000 A 
ENDBRANCH  71  84
ENDBRANCH  45  46
ENDBRANCH  37  40
ENDBRANCH  35  36
ENDBRANCH  34  35
ENDBRANCH   1  34
TORSDOF 15
ENDMDL
MODEL 3
REMARK VINA RESULT:     -13.2      3.351      8.682
REMARK SMILES Cc1ccccc1C(=O)Nc1ccc(OCC(=O)NCCCNC(=O)c2ccc(-c3c4nc(c(-c5ccccc5)c5ccc([nH]5)c(-c5ccccc5)c5nc(c(-c6ccccc6)c6ccc3[nH]6)C=C5)C=C4)cc2)c(-c2nc3ccccc3s2)c1
REMARK SMILES IDX 20 1 19 2 17 3 18 4 16 6 15 7 14 8 11 9 12 10 84 11 13 12
REMARK SMILES IDX 74 13 10 14 8 15 9 16 7 18 1 19 2 20 3 21 4 22 6 23 5 24
REMARK SMILES IDX 75 25 76 26 83 27 77 28 82 29 78 30 81 31 79 32 80 33 21 34
REMARK SMILES IDX 22 35 23 36 24 37 25 39 26 40 27 41 73 42 28 43 72 44 29 45
REMARK SMILES IDX 30 46 31 47 66 48 32 49 71 50 65 51 67 52 33 53 70 54 64 55
REMARK SMILES IDX 63 56 34 58 56 59 41 60 55 61 42 62 45 63 54 64 68 65 43 66
REMARK SMILES IDX 44 67 53 69 69 70 46 71 35 72 36 73 40 74 37 75 39 76 38 77
REMARK SMILES IDX 57 78 58 79 62 80 59 81 61 82 60 83 47 84 48 85 52 86 49 87
REMARK SMILES IDX 51 88 50 89
REMARK H PARENT 19 5 10 17 23 38 67 57 45 68
REMARK Flexibility Score: inf
ROOT
ATOM      1  C   UNL A   1      35.157  29.478  27.390  1.00  0.00     0.117 C 
ENDROOT
BRANCH   1   2
ATOM      2  N   UNL A   1      34.372  29.700  26.193  1.00  0.00    -0.353 N 
ATOM      3  C   UNL A   1      33.444  28.866  25.628  1.00  0.00     0.257 C 
ATOM      4  O   UNL A   1      33.050  29.158  24.501  1.00  0.00    -0.271 OA
ATOM      5  H   UNL A   1      34.525  30.555  25.728  1.00  0.00     0.163 HD
BRANCH   3   6
ATOM      6  C   UNL A   1      32.940  27.645  26.451  1.00  0.00     0.329 C 
BRANCH   6   7
ATOM      7  O   UNL A   1      31.589  27.192  26.448  1.00  0.00    -0.483 OA
BRANCH   7   8
ATOM      8  C   UNL A   1      31.447  25.893  26.043  1.00  0.00     0.130 A 
ATOM      9  C   UNL A   1      31.380  23.224  25.241  1.00  0.00     0.042 A 
ATOM     10  C   UNL A   1      31.903  23.557  26.490  1.00  0.00     0.030 A 
ATOM     11  C   UNL A   1      30.758  24.209  24.468  1.00  0.00     0.041 A 
ATOM     12  C   UNL A   1      31.970  24.894  26.874  1.00  0.00     0.049 A 
ATOM     13  C   UNL A   1      30.739  25.564  24.870  1.00  0.00     0.055 A 
BRANCH   9  14
ATOM     14  N   UNL A   1      31.553  21.904  24.807  1.00  0.00    -0.322 N 
ATOM     15  C   UNL A   1      32.640  21.279  24.232  1.00  0.00     0.255 C 
ATOM     16  O   UNL A   1      32.483  20.153  23.755  1.00  0.00    -0.269 OA
ATOM     17  H   UNL A   1      30.767  21.325  24.932  1.00  0.00     0.170 HD
BRANCH  15  18
ATOM     18  C   UNL A   1      34.017  21.857  24.245  1.00  0.00     0.043 A 
ATOM     19  C   UNL A   1      33.658  23.562  22.339  1.00  0.00     0.045 C 
ATOM     20  C   UNL A   1      34.487  22.871  23.382  1.00  0.00    -0.038 A 
ATOM     21  C   UNL A   1      35.821  23.303  23.508  1.00  0.00     0.004 A 
ATOM     22  C   UNL A   1      36.638  22.837  24.537  1.00  0.00     0.000 A 
ATOM     23  C   UNL A   1      34.843  21.422  25.298  1.00  0.00     0.014 A 
ATOM     24  C   UNL A   1      36.139  21.916  25.450  1.00  0.00     0.001 A 
ENDBRANCH  15  18
ENDBRANCH   9  14
BRANCH  13  25
ATOM     25  C   UNL A   1      30.048  26.528  23.978  1.00  0.00     0.128 A 
ATOM     26  N   UNL A   1      30.689  27.375  23.190  1.00  0.00    -0.236 NA
ATOM     27  S   UNL A   1      28.332  26.676  23.876  1.00  0.00    -0.114 S 
ATOM     28  C   UNL A   1      29.824  28.361  22.745  1.00  0.00     0.082 A 
ATOM     29  C   UNL A   1      28.495  28.201  23.126  1.00  0.00     0.055 A 
ATOM     30  C   UNL A   1      30.178  29.502  22.001  1.00  0.00     0.030 A 
ATOM     31  C   UNL A   1      27.518  29.174  22.880  1.00  0.00     0.021 A 
ATOM     32  C   UNL A   1      29.212  30.481  21.740  1.00  0.00     0.002 A 
ATOM     33  C   UNL A   1      27.906  30.329  22.198  1.00  0.00     0.002 A 
ENDBRANCH  13  25
ENDBRANCH   7   8
ENDBRANCH   6   7
ENDBRANCH   3   6
ENDBRANCH   1   2
BRANCH   1  34
ATOM     34  C   UNL A   1      35.016  30.654  28.350  1.00  0.00     0.042 C 
BRANCH  34  35
ATOM     35  C   UNL A   1      34.793  31.976  27.626  1.00  0.00     0.118 C 
BRANCH  35  36
ATOM     36  N   UNL A   1      34.018  32.938  28.397  1.00  0.00    -0.352 N 
ATOM     37  C   UNL A   1      34.312  33.576  29.589  1.00  0.00     0.251 C 
ATOM     38  H   UNL A   1      33.144  33.171  28.008  1.00  0.00     0.163 HD
ATOM     39  O   UNL A   1      33.490  34.325  30.086  1.00  0.00    -0.269 OA
BRANCH  37  40
ATOM     40  C   UNL A   1      35.672  33.464  30.180  1.00  0.00     0.039 A 
ATOM     41  C   UNL A   1      36.732  34.049  29.475  1.00  0.00     0.014 A 
ATOM     42  C   UNL A   1      35.933  32.649  31.277  1.00  0.00     0.014 A 
ATOM     43  C   UNL A   1      38.033  33.612  29.708  1.00  0.00     0.010 A 
ATOM     44  C   UNL A   1      37.203  32.139  31.445  1.00  0.00     0.010 A 
ATOM     45  C   UNL A   1      38.237  32.571  30.611  1.00  0.00    -0.014 A 
BRANCH  45  46
ATOM     46  C   UNL A   1      39.462  31.789  30.664  1.00  0.00     0.031 A 
ATOM     47  C   UNL A   1      39.567  30.516  29.931  1.00  0.00     0.074 A 
ATOM     48  C   UNL A   1      40.517  32.250  31.368  1.00  0.00     0.049 A 
ATOM     49  N   UNL A   1      40.343  29.546  30.280  1.00  0.00    -0.248 NA
ATOM     50  C   UNL A   1      38.753  30.213  28.760  1.00  0.00     0.031 C 
ATOM     51  C   UNL A   1      41.890  31.759  31.344  1.00  0.00     0.029 A 
ATOM     52  N   UNL A   1      40.518  33.162  32.408  1.00  0.00    -0.354 N 
ATOM     53  C   UNL A   1      40.357  28.642  29.245  1.00  0.00     0.074 A 
ATOM     54  C   UNL A   1      39.285  29.052  28.368  1.00  0.00     0.031 C 
ATOM     55  C   UNL A   1      42.523  32.183  32.452  1.00  0.00     0.029 A 
ATOM     56  C   UNL A   1      41.536  32.833  33.300  1.00  0.00     0.049 A 
ATOM     57  H   UNL A   1      39.899  33.922  32.503  1.00  0.00     0.167 HD
ATOM     58  C   UNL A   1      41.371  27.735  29.159  1.00  0.00     0.031 A 
ATOM     59  C   UNL A   1      41.266  32.469  34.589  1.00  0.00     0.031 A 
ATOM     60  C   UNL A   1      42.300  27.849  30.281  1.00  0.00     0.049 A 
ATOM     61  C   UNL A   1      41.684  31.050  34.917  1.00  0.00     0.074 A 
ATOM     62  C   UNL A   1      43.534  28.468  30.413  1.00  0.00     0.029 A 
ATOM     63  N   UNL A   1      41.866  27.552  31.566  1.00  0.00    -0.354 N 
ATOM     64  N   UNL A   1      41.922  30.133  34.020  1.00  0.00    -0.248 NA
ATOM     65  C   UNL A   1      41.829  30.541  36.279  1.00  0.00     0.031 C 
ATOM     66  C   UNL A   1      43.813  28.594  31.798  1.00  0.00     0.029 A 
ATOM     67  C   UNL A   1      42.766  28.027  32.501  1.00  0.00     0.049 A 
ATOM     68  H   UNL A   1      41.034  27.071  31.781  1.00  0.00     0.167 HD
ATOM     69  C   UNL A   1      42.245  28.954  34.638  1.00  0.00     0.074 A 
ATOM     70  C   UNL A   1      42.181  29.262  36.055  1.00  0.00     0.031 C 
ATOM     71  C   UNL A   1      42.527  27.824  33.924  1.00  0.00     0.031 A 
BRANCH  58  72
ATOM     72  C   UNL A   1      41.681  26.963  27.899  1.00  0.00    -0.014 A 
ATOM     73  C   UNL A   1      42.315  27.616  26.825  1.00  0.00     0.009 A 
ATOM     74  C   UNL A   1      41.333  25.620  27.685  1.00  0.00     0.009 A 
ATOM     75  C   UNL A   1      42.490  26.998  25.579  1.00  0.00     0.001 A 
ATOM     76  C   UNL A   1      41.465  25.009  26.429  1.00  0.00     0.001 A 
ATOM     77  C   UNL A   1      42.033  25.704  25.372  1.00  0.00     0.000 A 
ENDBRANCH  58  72
BRANCH  59  78
ATOM     78  C   UNL A   1      40.072  33.147  35.169  1.00  0.00    -0.014 A 
ATOM     79  C   UNL A   1      38.842  32.460  35.153  1.00  0.00     0.009 A 
ATOM     80  C   UNL A   1      40.214  34.245  36.028  1.00  0.00     0.009 A 
ATOM     81  C   UNL A   1      37.824  32.791  36.053  1.00  0.00     0.001 A 
ATOM     82  C   UNL A   1      39.188  34.579  36.923  1.00  0.00     0.001 A 
ATOM     83  C   UNL A   1      38.011  33.832  36.959  1.00  0.00     0.000 A 
ENDBRANCH  59  78
BRANCH  71  84
ATOM     84  C   UNL A   1      42.681  26.425  34.473  1.00  0.00    -0.014 A 
ATOM     85  C   UNL A   1      41.736  25.778  35.278  1.00  0.00     0.009 A 
ATOM     86  C   UNL A   1      43.784  25.648  34.049  1.00  0.00     0.009 A 
ATOM     87  C   UNL A   1      41.904  24.441  35.670  1.00  0.00     0.001 A 
ATOM     88  C   UNL A   1      43.932  24.303  34.397  1.00  0.00     0.001 A 
ATOM     89  C   UNL A   1      42.993  23.701  35.220  1.00  0.00     0.000 A 
ENDBRANCH  71  84
ENDBRANCH  45  46
ENDBRANCH  37  40
ENDBRANCH  35  36
ENDBRANCH  34  35
ENDBRANCH   1  34
TORSDOF 15
ENDMDL
