MODEL 1
REMARK VINA RESULT:     -11.1      0.000      0.000
REMARK SMILES O=C(NCCCNC(=O)[C@@H](Cc1ccccc1)NS(=O)(=O)c1ccccc1C(F)(F)F)c1ccc(-c2c3nc(c(-c4ccccc4)c4ccc([nH]4)c(-c4ccccc4)c4nc(c(-c5ccccc5)c5ccc2[nH]5)C=C4)C=C3)cc1
REMARK SMILES IDX 6 1 5 2 4 3 3 4 1 5 2 6 32 8 33 9 79 10 34 11 78 12 35 13
REMARK SMILES IDX 36 14 37 15 72 16 38 17 77 18 71 19 73 20 39 21 76 22 70 23
REMARK SMILES IDX 69 24 40 26 62 27 47 28 61 29 48 30 51 31 60 32 74 33 49 34
REMARK SMILES IDX 50 35 59 37 75 38 52 39 41 40 42 41 46 42 43 43 45 44 44 45
REMARK SMILES IDX 63 46 64 47 68 48 65 49 67 50 66 51 53 52 54 53 58 54 55 55
REMARK SMILES IDX 57 56 56 57 7 58 8 59 9 61 10 62 11 63 12 64 13 65 17 66
REMARK SMILES IDX 14 67 16 68 15 69 18 70 19 72 20 73 21 74 22 75 23 76 27 77
REMARK SMILES IDX 24 78 26 79 25 80 28 81 29 82 30 83 31 84
REMARK H PARENT 3 7 73 25 51 36 7 60 18 71
REMARK Flexibility Score: inf
ROOT
ATOM      1  C   UNL A   1      32.774  28.853  24.378  1.00  0.00     0.117 C 
ENDROOT
BRANCH   1   2
ATOM      2  C   UNL A   1      33.712  28.762  25.609  1.00  0.00     0.042 C 
BRANCH   2   3
ATOM      3  C   UNL A   1      33.044  28.939  26.967  1.00  0.00     0.118 C 
BRANCH   3   4
ATOM      4  N   UNL A   1      33.344  30.229  27.570  1.00  0.00    -0.352 N 
ATOM      5  O   UNL A   1      34.241  31.907  28.698  1.00  0.00    -0.269 OA
ATOM      6  C   UNL A   1      34.430  30.796  28.193  1.00  0.00     0.251 C 
ATOM      7  H   UNL A   1      32.581  30.849  27.517  1.00  0.00     0.163 HD
BRANCH   6   8
ATOM      8  C   UNL A   1      35.793  30.191  28.321  1.00  0.00     0.039 A 
ATOM      9  C   UNL A   1      36.768  30.206  27.330  1.00  0.00     0.014 A 
ATOM     10  C   UNL A   1      36.154  29.658  29.577  1.00  0.00     0.014 A 
ATOM     11  C   UNL A   1      38.030  29.642  27.549  1.00  0.00     0.010 A 
ATOM     12  C   UNL A   1      37.453  29.181  29.831  1.00  0.00     0.010 A 
ATOM     13  C   UNL A   1      38.410  29.166  28.814  1.00  0.00    -0.014 A 
BRANCH  13  14
ATOM     14  C   UNL A   1      39.831  28.775  29.047  1.00  0.00     0.031 A 
ATOM     15  C   UNL A   1      40.803  29.685  29.748  1.00  0.00     0.074 A 
ATOM     16  C   UNL A   1      40.242  27.553  28.644  1.00  0.00     0.049 A 
ATOM     17  N   UNL A   1      42.053  29.460  30.074  1.00  0.00    -0.248 NA
ATOM     18  C   UNL A   1      40.318  31.020  30.126  1.00  0.00     0.031 C 
ATOM     19  C   UNL A   1      39.412  26.581  27.926  1.00  0.00     0.029 A 
ATOM     20  N   UNL A   1      41.442  26.903  28.804  1.00  0.00    -0.354 N 
ATOM     21  C   UNL A   1      42.510  30.628  30.673  1.00  0.00     0.074 A 
ATOM     22  C   UNL A   1      41.410  31.569  30.642  1.00  0.00     0.031 C 
ATOM     23  C   UNL A   1      40.097  25.440  27.774  1.00  0.00     0.029 A 
ATOM     24  C   UNL A   1      41.442  25.620  28.307  1.00  0.00     0.049 A 
ATOM     25  H   UNL A   1      42.226  27.315  29.231  1.00  0.00     0.167 HD
ATOM     26  C   UNL A   1      43.730  30.892  31.201  1.00  0.00     0.031 A 
ATOM     27  C   UNL A   1      42.413  24.689  28.263  1.00  0.00     0.031 A 
ATOM     28  C   UNL A   1      44.827  29.956  31.229  1.00  0.00     0.049 A 
ATOM     29  C   UNL A   1      43.761  25.015  28.836  1.00  0.00     0.074 A 
ATOM     30  C   UNL A   1      46.089  30.122  31.775  1.00  0.00     0.029 A 
ATOM     31  N   UNL A   1      44.796  28.683  30.679  1.00  0.00    -0.354 N 
ATOM     32  N   UNL A   1      44.156  26.110  29.438  1.00  0.00    -0.248 NA
ATOM     33  C   UNL A   1      44.797  23.979  28.720  1.00  0.00     0.031 C 
ATOM     34  C   UNL A   1      46.840  28.973  31.504  1.00  0.00     0.029 A 
ATOM     35  C   UNL A   1      46.026  28.065  30.845  1.00  0.00     0.049 A 
ATOM     36  H   UNL A   1      44.015  28.278  30.237  1.00  0.00     0.167 HD
ATOM     37  C   UNL A   1      45.483  25.894  29.782  1.00  0.00     0.074 A 
ATOM     38  C   UNL A   1      45.816  24.552  29.346  1.00  0.00     0.031 C 
ATOM     39  C   UNL A   1      46.348  26.734  30.398  1.00  0.00     0.031 A 
BRANCH  26  40
ATOM     40  C   UNL A   1      43.961  32.270  31.765  1.00  0.00    -0.014 A 
ATOM     41  C   UNL A   1      43.710  32.563  33.115  1.00  0.00     0.009 A 
ATOM     42  C   UNL A   1      44.473  33.282  30.937  1.00  0.00     0.009 A 
ATOM     43  C   UNL A   1      43.927  33.852  33.612  1.00  0.00     0.001 A 
ATOM     44  C   UNL A   1      44.718  34.561  31.444  1.00  0.00     0.001 A 
ATOM     45  C   UNL A   1      44.434  34.847  32.777  1.00  0.00     0.000 A 
ENDBRANCH  26  40
BRANCH  27  46
ATOM     46  C   UNL A   1      42.149  23.372  27.624  1.00  0.00    -0.014 A 
ATOM     47  C   UNL A   1      41.520  22.338  28.332  1.00  0.00     0.009 A 
ATOM     48  C   UNL A   1      42.512  23.152  26.284  1.00  0.00     0.009 A 
ATOM     49  C   UNL A   1      41.275  21.106  27.717  1.00  0.00     0.001 A 
ATOM     50  C   UNL A   1      42.233  21.933  25.663  1.00  0.00     0.001 A 
ATOM     51  C   UNL A   1      41.624  20.909  26.383  1.00  0.00     0.000 A 
ENDBRANCH  27  46
BRANCH  39  52
ATOM     52  C   UNL A   1      47.734  26.215  30.658  1.00  0.00    -0.014 A 
ATOM     53  C   UNL A   1      48.725  26.251  29.664  1.00  0.00     0.009 A 
ATOM     54  C   UNL A   1      48.059  25.705  31.925  1.00  0.00     0.009 A 
ATOM     55  C   UNL A   1      50.004  25.755  29.924  1.00  0.00     0.001 A 
ATOM     56  C   UNL A   1      49.347  25.238  32.191  1.00  0.00     0.001 A 
ATOM     57  C   UNL A   1      50.315  25.254  31.189  1.00  0.00     0.000 A 
ENDBRANCH  39  52
ENDBRANCH  13  14
ENDBRANCH   6   8
ENDBRANCH   3   4
ENDBRANCH   2   3
ENDBRANCH   1   2
BRANCH   1  58
ATOM     58  N   UNL A   1      33.199  27.910  23.337  1.00  0.00    -0.355 N 
ATOM     59  C   UNL A   1      33.534  26.600  23.214  1.00  0.00     0.238 C 
ATOM     60  H   UNL A   1      33.261  28.364  22.466  1.00  0.00     0.163 HD
ATOM     61  O   UNL A   1      33.964  26.312  22.084  1.00  0.00    -0.273 OA
BRANCH  59  62
ATOM     62  C   UNL A   1      33.408  25.458  24.254  1.00  0.00     0.163 C 
BRANCH  62  63
ATOM     63  C   UNL A   1      34.614  25.211  25.194  1.00  0.00     0.065 C 
BRANCH  63  64
ATOM     64  C   UNL A   1      35.572  24.086  24.887  1.00  0.00    -0.046 A 
ATOM     65  C   UNL A   1      35.758  23.553  23.610  1.00  0.00     0.004 A 
ATOM     66  C   UNL A   1      36.347  23.569  25.907  1.00  0.00     0.004 A 
ATOM     67  C   UNL A   1      36.622  22.468  23.411  1.00  0.00     0.000 A 
ATOM     68  C   UNL A   1      37.183  22.468  25.744  1.00  0.00     0.000 A 
ATOM     69  C   UNL A   1      37.313  21.908  24.485  1.00  0.00     0.000 A 
ENDBRANCH  63  64
ENDBRANCH  62  63
BRANCH  62  70
ATOM     70  N   UNL A   1      32.059  25.369  24.836  1.00  0.00    -0.198 NA
ATOM     71  H   UNL A   1      31.542  26.175  24.483  1.00  0.00     0.142 HD
BRANCH  70  72
ATOM     72  S   UNL A   1      31.072  24.033  24.589  1.00  0.00     0.241 S 
ATOM     73  O   UNL A   1      30.129  23.975  25.686  1.00  0.00    -0.207 OA
ATOM     74  O   UNL A   1      30.660  24.096  23.214  1.00  0.00    -0.207 OA
BRANCH  72  75
ATOM     75  C   UNL A   1      32.080  22.572  24.753  1.00  0.00     0.094 A 
ATOM     76  C   UNL A   1      32.418  21.829  23.614  1.00  0.00     0.022 A 
ATOM     77  C   UNL A   1      32.602  22.220  26.019  1.00  0.00     0.076 A 
ATOM     78  C   UNL A   1      33.308  20.759  23.719  1.00  0.00     0.001 A 
ATOM     79  C   UNL A   1      33.508  21.143  26.092  1.00  0.00     0.014 A 
ATOM     80  C   UNL A   1      33.861  20.422  24.953  1.00  0.00     0.001 A 
BRANCH  77  81
ATOM     81  C   UNL A   1      32.265  22.946  27.305  1.00  0.00     0.417 C 
ATOM     82  F   UNL A   1      30.946  22.795  27.640  1.00  0.00    -0.166 F 
ATOM     83  F   UNL A   1      32.955  22.465  28.374  1.00  0.00    -0.166 F 
ATOM     84  F   UNL A   1      32.454  24.289  27.270  1.00  0.00    -0.166 F 
ENDBRANCH  77  81
ENDBRANCH  72  75
ENDBRANCH  70  72
ENDBRANCH  62  70
ENDBRANCH  59  62
ENDBRANCH   1  58
TORSDOF 16
ENDMDL
MODEL 2
REMARK VINA RESULT:     -10.8      3.159      7.480
REMARK SMILES O=C(NCCCNC(=O)[C@@H](Cc1ccccc1)NS(=O)(=O)c1ccccc1C(F)(F)F)c1ccc(-c2c3nc(c(-c4ccccc4)c4ccc([nH]4)c(-c4ccccc4)c4nc(c(-c5ccccc5)c5ccc2[nH]5)C=C4)C=C3)cc1
REMARK SMILES IDX 6 1 5 2 4 3 3 4 1 5 2 6 32 8 33 9 79 10 34 11 78 12 35 13
REMARK SMILES IDX 36 14 37 15 72 16 38 17 77 18 71 19 73 20 39 21 76 22 70 23
REMARK SMILES IDX 69 24 40 26 62 27 47 28 61 29 48 30 51 31 60 32 74 33 49 34
REMARK SMILES IDX 50 35 59 37 75 38 52 39 41 40 42 41 46 42 43 43 45 44 44 45
REMARK SMILES IDX 63 46 64 47 68 48 65 49 67 50 66 51 53 52 54 53 58 54 55 55
REMARK SMILES IDX 57 56 56 57 7 58 8 59 9 61 10 62 11 63 12 64 13 65 17 66
REMARK SMILES IDX 14 67 16 68 15 69 18 70 19 72 20 73 21 74 22 75 23 76 27 77
REMARK SMILES IDX 24 78 26 79 25 80 28 81 29 82 30 83 31 84
REMARK H PARENT 3 7 73 25 51 36 7 60 18 71
REMARK Flexibility Score: inf
ROOT
ATOM      1  C   UNL A   1      34.191  22.107  27.590  1.00  0.00     0.117 C 
ENDROOT
BRANCH   1   2
ATOM      2  C   UNL A   1      34.601  21.415  26.264  1.00  0.00     0.042 C 
BRANCH   2   3
ATOM      3  C   UNL A   1      35.773  22.046  25.522  1.00  0.00     0.118 C 
BRANCH   3   4
ATOM      4  N   UNL A   1      36.933  21.168  25.467  1.00  0.00    -0.352 N 
ATOM      5  O   UNL A   1      38.977  20.325  25.429  1.00  0.00    -0.269 OA
ATOM      6  C   UNL A   1      38.276  21.294  25.733  1.00  0.00     0.251 C 
ATOM      7  H   UNL A   1      36.698  20.261  25.165  1.00  0.00     0.163 HD
BRANCH   6   8
ATOM      8  C   UNL A   1      38.951  22.485  26.337  1.00  0.00     0.039 A 
ATOM      9  C   UNL A   1      40.144  22.449  27.050  1.00  0.00     0.014 A 
ATOM     10  C   UNL A   1      38.391  23.754  26.075  1.00  0.00     0.014 A 
ATOM     11  C   UNL A   1      40.721  23.621  27.554  1.00  0.00     0.010 A 
ATOM     12  C   UNL A   1      39.022  24.940  26.494  1.00  0.00     0.010 A 
ATOM     13  C   UNL A   1      40.199  24.886  27.244  1.00  0.00    -0.014 A 
BRANCH  13  14
ATOM     14  C   UNL A   1      40.971  26.105  27.624  1.00  0.00     0.031 A 
ATOM     15  C   UNL A   1      42.329  26.400  27.048  1.00  0.00     0.074 A 
ATOM     16  C   UNL A   1      40.414  26.983  28.487  1.00  0.00     0.049 A 
ATOM     17  N   UNL A   1      43.095  27.447  27.239  1.00  0.00    -0.248 NA
ATOM     18  C   UNL A   1      42.909  25.392  26.149  1.00  0.00     0.031 C 
ATOM     19  C   UNL A   1      39.116  26.806  29.145  1.00  0.00     0.029 A 
ATOM     20  N   UNL A   1      40.844  28.206  28.938  1.00  0.00    -0.354 N 
ATOM     21  C   UNL A   1      44.252  27.216  26.505  1.00  0.00     0.074 A 
ATOM     22  C   UNL A   1      44.099  25.916  25.885  1.00  0.00     0.031 C 
ATOM     23  C   UNL A   1      38.823  27.906  29.851  1.00  0.00     0.029 A 
ATOM     24  C   UNL A   1      39.943  28.835  29.766  1.00  0.00     0.049 A 
ATOM     25  H   UNL A   1      41.714  28.597  28.692  1.00  0.00     0.167 HD
ATOM     26  C   UNL A   1      45.340  28.011  26.359  1.00  0.00     0.031 A 
ATOM     27  C   UNL A   1      40.008  30.017  30.407  1.00  0.00     0.031 A 
ATOM     28  C   UNL A   1      45.494  29.304  26.979  1.00  0.00     0.049 A 
ATOM     29  C   UNL A   1      41.232  30.868  30.245  1.00  0.00     0.074 A 
ATOM     30  C   UNL A   1      46.546  30.198  26.860  1.00  0.00     0.029 A 
ATOM     31  N   UNL A   1      44.576  29.884  27.842  1.00  0.00    -0.354 N 
ATOM     32  N   UNL A   1      42.295  30.650  29.510  1.00  0.00    -0.248 NA
ATOM     33  C   UNL A   1      41.268  32.127  31.003  1.00  0.00     0.031 C 
ATOM     34  C   UNL A   1      46.291  31.291  27.696  1.00  0.00     0.029 A 
ATOM     35  C   UNL A   1      45.050  31.108  28.287  1.00  0.00     0.049 A 
ATOM     36  H   UNL A   1      43.714  29.485  28.099  1.00  0.00     0.167 HD
ATOM     37  C   UNL A   1      43.123  31.745  29.708  1.00  0.00     0.074 A 
ATOM     38  C   UNL A   1      42.426  32.640  30.610  1.00  0.00     0.031 C 
ATOM     39  C   UNL A   1      44.353  31.984  29.193  1.00  0.00     0.031 A 
BRANCH  26  40
ATOM     40  C   UNL A   1      46.477  27.489  25.518  1.00  0.00    -0.014 A 
ATOM     41  C   UNL A   1      47.389  26.547  26.020  1.00  0.00     0.009 A 
ATOM     42  C   UNL A   1      46.613  27.922  24.190  1.00  0.00     0.009 A 
ATOM     43  C   UNL A   1      48.438  26.082  25.221  1.00  0.00     0.001 A 
ATOM     44  C   UNL A   1      47.645  27.432  23.384  1.00  0.00     0.001 A 
ATOM     45  C   UNL A   1      48.562  26.522  23.904  1.00  0.00     0.000 A 
ENDBRANCH  26  40
BRANCH  27  46
ATOM     46  C   UNL A   1      38.886  30.445  31.286  1.00  0.00    -0.014 A 
ATOM     47  C   UNL A   1      38.877  30.129  32.652  1.00  0.00     0.009 A 
ATOM     48  C   UNL A   1      37.822  31.195  30.757  1.00  0.00     0.009 A 
ATOM     49  C   UNL A   1      37.817  30.540  33.466  1.00  0.00     0.001 A 
ATOM     50  C   UNL A   1      36.784  31.635  31.581  1.00  0.00     0.001 A 
ATOM     51  C   UNL A   1      36.778  31.299  32.932  1.00  0.00     0.000 A 
ENDBRANCH  27  46
BRANCH  39  52
ATOM     52  C   UNL A   1      45.012  33.279  29.576  1.00  0.00    -0.014 A 
ATOM     53  C   UNL A   1      44.805  34.451  28.832  1.00  0.00     0.009 A 
ATOM     54  C   UNL A   1      45.833  33.331  30.714  1.00  0.00     0.009 A 
ATOM     55  C   UNL A   1      45.435  35.642  29.200  1.00  0.00     0.001 A 
ATOM     56  C   UNL A   1      46.436  34.530  31.097  1.00  0.00     0.001 A 
ATOM     57  C   UNL A   1      46.245  35.680  30.335  1.00  0.00     0.000 A 
ENDBRANCH  39  52
ENDBRANCH  13  14
ENDBRANCH   6   8
ENDBRANCH   3   4
ENDBRANCH   2   3
ENDBRANCH   1   2
BRANCH   1  58
ATOM     58  N   UNL A   1      32.823  22.629  27.494  1.00  0.00    -0.355 N 
ATOM     59  C   UNL A   1      32.146  23.625  26.866  1.00  0.00     0.238 C 
ATOM     60  H   UNL A   1      32.211  22.097  28.053  1.00  0.00     0.163 HD
ATOM     61  O   UNL A   1      30.964  23.721  27.239  1.00  0.00    -0.273 OA
BRANCH  59  62
ATOM     62  C   UNL A   1      32.636  24.589  25.755  1.00  0.00     0.163 C 
BRANCH  62  63
ATOM     63  C   UNL A   1      33.677  25.665  26.149  1.00  0.00     0.065 C 
BRANCH  63  64
ATOM     64  C   UNL A   1      33.225  27.090  26.356  1.00  0.00    -0.046 A 
ATOM     65  C   UNL A   1      33.969  28.204  25.963  1.00  0.00     0.004 A 
ATOM     66  C   UNL A   1      31.989  27.324  26.928  1.00  0.00     0.004 A 
ATOM     67  C   UNL A   1      33.512  29.499  26.242  1.00  0.00     0.000 A 
ATOM     68  C   UNL A   1      31.530  28.598  27.251  1.00  0.00     0.000 A 
ATOM     69  C   UNL A   1      32.304  29.694  26.912  1.00  0.00     0.000 A 
ENDBRANCH  63  64
ENDBRANCH  62  63
BRANCH  62  70
ATOM     70  N   UNL A   1      32.807  23.915  24.457  1.00  0.00    -0.198 NA
ATOM     71  H   UNL A   1      32.781  22.913  24.650  1.00  0.00     0.142 HD
BRANCH  70  72
ATOM     72  S   UNL A   1      31.754  24.175  23.176  1.00  0.00     0.241 S 
ATOM     73  O   UNL A   1      32.525  24.100  21.952  1.00  0.00    -0.207 OA
ATOM     74  O   UNL A   1      30.613  23.339  23.427  1.00  0.00    -0.207 OA
BRANCH  72  75
ATOM     75  C   UNL A   1      31.183  25.861  23.272  1.00  0.00     0.094 A 
ATOM     76  C   UNL A   1      29.915  26.137  23.802  1.00  0.00     0.022 A 
ATOM     77  C   UNL A   1      32.045  26.915  22.893  1.00  0.00     0.076 A 
ATOM     78  C   UNL A   1      29.514  27.459  23.997  1.00  0.00     0.001 A 
ATOM     79  C   UNL A   1      31.618  28.240  23.114  1.00  0.00     0.014 A 
ATOM     80  C   UNL A   1      30.366  28.509  23.664  1.00  0.00     0.001 A 
BRANCH  77  81
ATOM     81  C   UNL A   1      33.417  26.709  22.283  1.00  0.00     0.417 C 
ATOM     82  F   UNL A   1      34.071  27.897  22.098  1.00  0.00    -0.166 F 
ATOM     83  F   UNL A   1      34.240  25.976  23.080  1.00  0.00    -0.166 F 
ATOM     84  F   UNL A   1      33.415  26.128  21.057  1.00  0.00    -0.166 F 
ENDBRANCH  77  81
ENDBRANCH  72  75
ENDBRANCH  70  72
ENDBRANCH  62  70
ENDBRANCH  59  62
ENDBRANCH   1  58
TORSDOF 16
ENDMDL
MODEL 3
REMARK VINA RESULT:     -10.8      2.430      7.168
REMARK SMILES O=C(NCCCNC(=O)[C@@H](Cc1ccccc1)NS(=O)(=O)c1ccccc1C(F)(F)F)c1ccc(-c2c3nc(c(-c4ccccc4)c4ccc([nH]4)c(-c4ccccc4)c4nc(c(-c5ccccc5)c5ccc2[nH]5)C=C4)C=C3)cc1
REMARK SMILES IDX 6 1 5 2 4 3 3 4 1 5 2 6 32 8 33 9 79 10 34 11 78 12 35 13
REMARK SMILES IDX 36 14 37 15 72 16 38 17 77 18 71 19 73 20 39 21 76 22 70 23
REMARK SMILES IDX 69 24 40 26 62 27 47 28 61 29 48 30 51 31 60 32 74 33 49 34
REMARK SMILES IDX 50 35 59 37 75 38 52 39 41 40 42 41 46 42 43 43 45 44 44 45
REMARK SMILES IDX 63 46 64 47 68 48 65 49 67 50 66 51 53 52 54 53 58 54 55 55
REMARK SMILES IDX 57 56 56 57 7 58 8 59 9 61 10 62 11 63 12 64 13 65 17 66
REMARK SMILES IDX 14 67 16 68 15 69 18 70 19 72 20 73 21 74 22 75 23 76 27 77
REMARK SMILES IDX 24 78 26 79 25 80 28 81 29 82 30 83 31 84
REMARK H PARENT 3 7 73 25 51 36 7 60 18 71
REMARK Flexibility Score: inf
ROOT
ATOM      1  C   UNL A   1      36.921  22.691  25.542  1.00  0.00     0.117 C 
ENDROOT
BRANCH   1   2
ATOM      2  C   UNL A   1      38.012  21.659  25.930  1.00  0.00     0.042 C 
BRANCH   2   3
ATOM      3  C   UNL A   1      38.203  20.500  24.960  1.00  0.00     0.118 C 
BRANCH   3   4
ATOM      4  N   UNL A   1      39.265  19.596  25.376  1.00  0.00    -0.352 N 
ATOM      5  O   UNL A   1      41.180  18.702  26.027  1.00  0.00    -0.269 OA
ATOM      6  C   UNL A   1      40.509  19.735  25.944  1.00  0.00     0.251 C 
ATOM      7  H   UNL A   1      39.035  18.653  25.211  1.00  0.00     0.163 HD
BRANCH   6   8
ATOM      8  C   UNL A   1      41.115  21.006  26.451  1.00  0.00     0.039 A 
ATOM      9  C   UNL A   1      41.613  22.027  25.649  1.00  0.00     0.014 A 
ATOM     10  C   UNL A   1      41.083  21.234  27.843  1.00  0.00     0.014 A 
ATOM     11  C   UNL A   1      42.134  23.198  26.210  1.00  0.00     0.010 A 
ATOM     12  C   UNL A   1      41.513  22.450  28.403  1.00  0.00     0.010 A 
ATOM     13  C   UNL A   1      42.049  23.451  27.588  1.00  0.00    -0.014 A 
BRANCH  13  14
ATOM     14  C   UNL A   1      42.421  24.800  28.105  1.00  0.00     0.031 A 
ATOM     15  C   UNL A   1      41.396  25.877  28.334  1.00  0.00     0.074 A 
ATOM     16  C   UNL A   1      43.716  25.045  28.406  1.00  0.00     0.049 A 
ATOM     17  N   UNL A   1      41.561  27.079  28.833  1.00  0.00    -0.248 NA
ATOM     18  C   UNL A   1      40.010  25.576  27.949  1.00  0.00     0.031 C 
ATOM     19  C   UNL A   1      44.819  24.100  28.204  1.00  0.00     0.029 A 
ATOM     20  N   UNL A   1      44.323  26.140  28.970  1.00  0.00    -0.354 N 
ATOM     21  C   UNL A   1      40.310  27.683  28.802  1.00  0.00     0.074 A 
ATOM     22  C   UNL A   1      39.400  26.724  28.211  1.00  0.00     0.031 C 
ATOM     23  C   UNL A   1      45.947  24.622  28.703  1.00  0.00     0.029 A 
ATOM     24  C   UNL A   1      45.671  25.970  29.185  1.00  0.00     0.049 A 
ATOM     25  H   UNL A   1      43.841  26.967  29.198  1.00  0.00     0.167 HD
ATOM     26  C   UNL A   1      39.952  28.919  29.227  1.00  0.00     0.031 A 
ATOM     27  C   UNL A   1      46.596  26.804  29.696  1.00  0.00     0.031 A 
ATOM     28  C   UNL A   1      40.859  29.875  29.813  1.00  0.00     0.049 A 
ATOM     29  C   UNL A   1      46.177  28.174  30.140  1.00  0.00     0.074 A 
ATOM     30  C   UNL A   1      40.580  31.139  30.306  1.00  0.00     0.029 A 
ATOM     31  N   UNL A   1      42.222  29.677  29.975  1.00  0.00    -0.354 N 
ATOM     32  N   UNL A   1      44.979  28.708  30.143  1.00  0.00    -0.248 NA
ATOM     33  C   UNL A   1      47.235  29.059  30.647  1.00  0.00     0.031 C 
ATOM     34  C   UNL A   1      41.782  31.728  30.712  1.00  0.00     0.029 A 
ATOM     35  C   UNL A   1      42.802  30.807  30.532  1.00  0.00     0.049 A 
ATOM     36  H   UNL A   1      42.705  28.855  29.732  1.00  0.00     0.167 HD
ATOM     37  C   UNL A   1      45.137  29.986  30.659  1.00  0.00     0.074 A 
ATOM     38  C   UNL A   1      46.541  30.137  30.985  1.00  0.00     0.031 C 
ATOM     39  C   UNL A   1      44.201  30.949  30.840  1.00  0.00     0.031 A 
BRANCH  26  40
ATOM     40  C   UNL A   1      38.514  29.329  29.041  1.00  0.00    -0.014 A 
ATOM     41  C   UNL A   1      37.591  29.272  30.097  1.00  0.00     0.009 A 
ATOM     42  C   UNL A   1      38.086  29.816  27.795  1.00  0.00     0.009 A 
ATOM     43  C   UNL A   1      36.260  29.653  29.897  1.00  0.00     0.001 A 
ATOM     44  C   UNL A   1      36.763  30.224  27.607  1.00  0.00     0.001 A 
ATOM     45  C   UNL A   1      35.850  30.132  28.654  1.00  0.00     0.000 A 
ENDBRANCH  26  40
BRANCH  27  46
ATOM     46  C   UNL A   1      48.017  26.371  29.784  1.00  0.00    -0.014 A 
ATOM     47  C   UNL A   1      48.899  26.566  28.711  1.00  0.00     0.009 A 
ATOM     48  C   UNL A   1      48.501  25.773  30.959  1.00  0.00     0.009 A 
ATOM     49  C   UNL A   1      50.233  26.156  28.809  1.00  0.00     0.001 A 
ATOM     50  C   UNL A   1      49.842  25.397  31.066  1.00  0.00     0.001 A 
ATOM     51  C   UNL A   1      50.704  25.581  29.987  1.00  0.00     0.000 A 
ENDBRANCH  27  46
BRANCH  39  52
ATOM     52  C   UNL A   1      44.667  32.245  31.442  1.00  0.00    -0.014 A 
ATOM     53  C   UNL A   1      45.090  33.313  30.635  1.00  0.00     0.009 A 
ATOM     54  C   UNL A   1      44.657  32.407  32.836  1.00  0.00     0.009 A 
ATOM     55  C   UNL A   1      45.528  34.506  31.215  1.00  0.00     0.001 A 
ATOM     56  C   UNL A   1      45.065  33.612  33.411  1.00  0.00     0.001 A 
ATOM     57  C   UNL A   1      45.509  34.655  32.602  1.00  0.00     0.000 A 
ENDBRANCH  39  52
ENDBRANCH  13  14
ENDBRANCH   6   8
ENDBRANCH   3   4
ENDBRANCH   2   3
ENDBRANCH   1   2
BRANCH   1  58
ATOM     58  N   UNL A   1      35.733  22.524  26.386  1.00  0.00    -0.355 N 
ATOM     59  C   UNL A   1      34.524  23.109  26.584  1.00  0.00     0.238 C 
ATOM     60  H   UNL A   1      35.847  21.756  26.993  1.00  0.00     0.163 HD
ATOM     61  O   UNL A   1      33.908  22.639  27.556  1.00  0.00    -0.273 OA
BRANCH  59  62
ATOM     62  C   UNL A   1      33.827  24.217  25.752  1.00  0.00     0.163 C 
BRANCH  62  63
ATOM     63  C   UNL A   1      34.433  25.640  25.807  1.00  0.00     0.065 C 
BRANCH  63  64
ATOM     64  C   UNL A   1      33.515  26.837  25.756  1.00  0.00    -0.046 A 
ATOM     65  C   UNL A   1      33.706  27.925  24.902  1.00  0.00     0.004 A 
ATOM     66  C   UNL A   1      32.393  26.856  26.563  1.00  0.00     0.004 A 
ATOM     67  C   UNL A   1      32.844  29.029  24.952  1.00  0.00     0.000 A 
ATOM     68  C   UNL A   1      31.545  27.954  26.660  1.00  0.00     0.000 A 
ATOM     69  C   UNL A   1      31.779  29.054  25.853  1.00  0.00     0.000 A 
ENDBRANCH  63  64
ENDBRANCH  62  63
BRANCH  62  70
ATOM     70  N   UNL A   1      33.349  23.728  24.448  1.00  0.00    -0.198 NA
ATOM     71  H   UNL A   1      33.810  22.831  24.293  1.00  0.00     0.142 HD
BRANCH  70  72
ATOM     72  S   UNL A   1      31.717  23.478  24.138  1.00  0.00     0.241 S 
ATOM     73  O   UNL A   1      31.618  22.589  22.999  1.00  0.00    -0.207 OA
ATOM     74  O   UNL A   1      31.116  23.180  25.409  1.00  0.00    -0.207 OA
BRANCH  72  75
ATOM     75  C   UNL A   1      31.021  25.026  23.594  1.00  0.00     0.094 A 
ATOM     76  C   UNL A   1      29.884  25.539  24.231  1.00  0.00     0.022 A 
ATOM     77  C   UNL A   1      31.671  25.767  22.581  1.00  0.00     0.076 A 
ATOM     78  C   UNL A   1      29.410  26.808  23.895  1.00  0.00     0.001 A 
ATOM     79  C   UNL A   1      31.177  27.050  22.272  1.00  0.00     0.014 A 
ATOM     80  C   UNL A   1      30.060  27.568  22.925  1.00  0.00     0.001 A 
BRANCH  77  81
ATOM     81  C   UNL A   1      32.884  25.276  21.818  1.00  0.00     0.417 C 
ATOM     82  F   UNL A   1      33.074  25.982  20.661  1.00  0.00    -0.166 F 
ATOM     83  F   UNL A   1      34.041  25.432  22.517  1.00  0.00    -0.166 F 
ATOM     84  F   UNL A   1      32.823  23.981  21.419  1.00  0.00    -0.166 F 
ENDBRANCH  77  81
ENDBRANCH  72  75
ENDBRANCH  70  72
ENDBRANCH  62  70
ENDBRANCH  59  62
ENDBRANCH   1  58
TORSDOF 16
ENDMDL
