MODEL 1
REMARK VINA RESULT:     -10.0      0.000      0.000
REMARK SMILES COCCS(=O)(=O)Cc1ccc(C(=O)NCCCNC(=O)c2ccc(-c3c4nc(c(-c5ccccc5)c5ccc([nH]5)c(-c5ccccc5)c5nc(c(-c6ccccc6)c6ccc3[nH]6)C=C5)C=C4)cc2)cn1
REMARK SMILES IDX 13 1 14 2 15 3 12 5 9 6 10 7 71 8 11 9 70 10 8 11 5 12 6 13
REMARK SMILES IDX 7 14 4 15 3 16 2 17 1 18 16 19 17 20 18 21 19 22 20 23 21 25
REMARK SMILES IDX 22 26 23 27 69 28 24 29 68 30 25 31 26 32 27 33 62 34 28 35
REMARK SMILES IDX 67 36 61 37 63 38 29 39 66 40 60 41 59 42 30 44 52 45 37 46
REMARK SMILES IDX 51 47 38 48 41 49 50 50 64 51 39 52 40 53 49 55 65 56 42 57
REMARK SMILES IDX 31 58 32 59 36 60 33 61 35 62 34 63 53 64 54 65 58 66 55 67
REMARK SMILES IDX 57 68 56 69 43 70 44 71 48 72 45 73 47 74 46 75
REMARK H PARENT 15 4 19 24 63 43 41 54
REMARK Flexibility Score: inf
ROOT
ATOM      1  C   UNL A   1      33.587  20.044  24.969  1.00  0.00     0.252 C 
ATOM      2  O   UNL A   1      32.765  19.149  25.138  1.00  0.00    -0.269 OA
ATOM      3  N   UNL A   1      34.917  19.794  25.199  1.00  0.00    -0.352 N 
ATOM      4  H   UNL A   1      35.107  18.913  25.596  1.00  0.00     0.163 HD
ENDROOT
BRANCH   1   5
ATOM      5  C   UNL A   1      33.133  21.357  24.484  1.00  0.00     0.058 A 
ATOM      6  C   UNL A   1      32.203  23.857  23.749  1.00  0.00     0.055 A 
ATOM      7  C   UNL A   1      32.607  22.953  22.771  1.00  0.00     0.026 A 
ATOM      8  N   UNL A   1      32.333  23.566  25.066  1.00  0.00    -0.259 NA
ATOM      9  C   UNL A   1      33.067  21.692  23.138  1.00  0.00     0.017 A 
ATOM     10  C   UNL A   1      32.805  22.336  25.406  1.00  0.00     0.125 A 
BRANCH   6  11
ATOM     11  C   UNL A   1      31.752  25.242  23.397  1.00  0.00     0.193 C 
BRANCH  11  12
ATOM     12  S   UNL A   1      33.105  26.359  23.069  1.00  0.00     0.158 S 
ATOM     13  O   UNL A   1      33.634  25.996  21.763  1.00  0.00    -0.228 OA
ATOM     14  O   UNL A   1      34.004  26.350  24.211  1.00  0.00    -0.228 OA
BRANCH  12  15
ATOM     15  C   UNL A   1      32.495  28.032  22.925  1.00  0.00     0.165 C 
BRANCH  15  16
ATOM     16  C   UNL A   1      32.501  28.798  24.234  1.00  0.00     0.176 C 
BRANCH  16  17
ATOM     17  O   UNL A   1      31.310  29.574  24.353  1.00  0.00    -0.384 OA
ATOM     18  C   UNL A   1      30.235  29.080  23.565  1.00  0.00     0.194 C 
ENDBRANCH  16  17
ENDBRANCH  15  16
ENDBRANCH  12  15
ENDBRANCH  11  12
ENDBRANCH   6  11
ENDBRANCH   1   5
BRANCH   3  19
ATOM     19  C   UNL A   1      36.088  20.618  24.951  1.00  0.00     0.118 C 
BRANCH  19  20
ATOM     20  C   UNL A   1      37.359  19.776  24.855  1.00  0.00     0.042 C 
BRANCH  20  21
ATOM     21  C   UNL A   1      38.550  20.377  25.596  1.00  0.00     0.118 C 
BRANCH  21  22
ATOM     22  N   UNL A   1      39.635  19.422  25.756  1.00  0.00    -0.352 N 
ATOM     23  C   UNL A   1      40.951  19.621  26.083  1.00  0.00     0.251 C 
ATOM     24  H   UNL A   1      39.384  18.482  25.604  1.00  0.00     0.163 HD
ATOM     25  O   UNL A   1      41.743  18.690  25.962  1.00  0.00    -0.269 OA
BRANCH  23  26
ATOM     26  C   UNL A   1      41.434  20.932  26.572  1.00  0.00     0.039 A 
ATOM     27  C   UNL A   1      41.306  21.218  27.936  1.00  0.00     0.014 A 
ATOM     28  C   UNL A   1      41.932  21.909  25.704  1.00  0.00     0.014 A 
ATOM     29  C   UNL A   1      41.695  22.465  28.429  1.00  0.00     0.010 A 
ATOM     30  C   UNL A   1      42.388  23.127  26.208  1.00  0.00     0.010 A 
ATOM     31  C   UNL A   1      42.252  23.426  27.571  1.00  0.00    -0.014 A 
BRANCH  31  32
ATOM     32  C   UNL A   1      42.654  24.759  28.086  1.00  0.00     0.031 A 
ATOM     33  C   UNL A   1      41.620  25.832  28.304  1.00  0.00     0.074 A 
ATOM     34  C   UNL A   1      43.952  25.014  28.336  1.00  0.00     0.049 A 
ATOM     35  N   UNL A   1      41.780  27.053  28.750  1.00  0.00    -0.248 NA
ATOM     36  C   UNL A   1      40.231  25.499  27.954  1.00  0.00     0.031 C 
ATOM     37  C   UNL A   1      45.056  24.074  28.131  1.00  0.00     0.029 A 
ATOM     38  N   UNL A   1      44.562  26.142  28.825  1.00  0.00    -0.354 N 
ATOM     39  C   UNL A   1      40.518  27.635  28.719  1.00  0.00     0.074 A 
ATOM     40  C   UNL A   1      39.614  26.652  28.163  1.00  0.00     0.031 C 
ATOM     41  C   UNL A   1      46.202  24.652  28.523  1.00  0.00     0.029 A 
ATOM     42  C   UNL A   1      45.920  26.009  28.977  1.00  0.00     0.049 A 
ATOM     43  H   UNL A   1      44.072  26.967  29.044  1.00  0.00     0.167 HD
ATOM     44  C   UNL A   1      40.138  28.868  29.134  1.00  0.00     0.031 A 
ATOM     45  C   UNL A   1      46.835  26.881  29.440  1.00  0.00     0.031 A 
ATOM     46  C   UNL A   1      41.033  29.842  29.700  1.00  0.00     0.049 A 
ATOM     47  C   UNL A   1      46.388  28.237  29.908  1.00  0.00     0.074 A 
ATOM     48  C   UNL A   1      40.738  31.101  30.193  1.00  0.00     0.029 A 
ATOM     49  N   UNL A   1      42.398  29.661  29.853  1.00  0.00    -0.354 N 
ATOM     50  N   UNL A   1      45.181  28.749  29.928  1.00  0.00    -0.248 NA
ATOM     51  C   UNL A   1      47.430  29.127  30.439  1.00  0.00     0.031 C 
ATOM     52  C   UNL A   1      41.934  31.699  30.606  1.00  0.00     0.029 A 
ATOM     53  C   UNL A   1      42.963  30.791  30.421  1.00  0.00     0.049 A 
ATOM     54  H   UNL A   1      42.894  28.851  29.594  1.00  0.00     0.167 HD
ATOM     55  C   UNL A   1      45.313  30.006  30.503  1.00  0.00     0.074 A 
ATOM     56  C   UNL A   1      46.714  30.172  30.831  1.00  0.00     0.031 C 
ATOM     57  C   UNL A   1      44.359  30.939  30.741  1.00  0.00     0.031 A 
BRANCH  44  58
ATOM     58  C   UNL A   1      38.686  29.229  28.984  1.00  0.00    -0.014 A 
ATOM     59  C   UNL A   1      38.168  29.665  27.752  1.00  0.00     0.009 A 
ATOM     60  C   UNL A   1      37.818  29.111  30.080  1.00  0.00     0.009 A 
ATOM     61  C   UNL A   1      36.820  30.013  27.634  1.00  0.00     0.001 A 
ATOM     62  C   UNL A   1      36.464  29.431  29.951  1.00  0.00     0.001 A 
ATOM     63  C   UNL A   1      35.969  29.892  28.731  1.00  0.00     0.000 A 
ENDBRANCH  44  58
BRANCH  45  64
ATOM     64  C   UNL A   1      48.266  26.485  29.521  1.00  0.00    -0.014 A 
ATOM     65  C   UNL A   1      48.757  25.824  30.657  1.00  0.00     0.009 A 
ATOM     66  C   UNL A   1      49.147  26.771  28.468  1.00  0.00     0.009 A 
ATOM     67  C   UNL A   1      50.109  25.484  30.749  1.00  0.00     0.001 A 
ATOM     68  C   UNL A   1      50.492  26.404  28.550  1.00  0.00     0.001 A 
ATOM     69  C   UNL A   1      50.973  25.771  29.694  1.00  0.00     0.000 A 
ENDBRANCH  45  64
BRANCH  57  70
ATOM     70  C   UNL A   1      44.797  32.202  31.428  1.00  0.00    -0.014 A 
ATOM     71  C   UNL A   1      44.810  32.308  32.827  1.00  0.00     0.009 A 
ATOM     72  C   UNL A   1      45.220  33.297  30.658  1.00  0.00     0.009 A 
ATOM     73  C   UNL A   1      45.196  33.502  33.440  1.00  0.00     0.001 A 
ATOM     74  C   UNL A   1      45.634  34.479  31.274  1.00  0.00     0.001 A 
ATOM     75  C   UNL A   1      45.610  34.584  32.664  1.00  0.00     0.000 A 
ENDBRANCH  57  70
ENDBRANCH  31  32
ENDBRANCH  23  26
ENDBRANCH  21  22
ENDBRANCH  20  21
ENDBRANCH  19  20
ENDBRANCH   3  19
TORSDOF 15
ENDMDL
MODEL 2
REMARK VINA RESULT:     -10.0      1.492      6.349
REMARK SMILES COCCS(=O)(=O)Cc1ccc(C(=O)NCCCNC(=O)c2ccc(-c3c4nc(c(-c5ccccc5)c5ccc([nH]5)c(-c5ccccc5)c5nc(c(-c6ccccc6)c6ccc3[nH]6)C=C5)C=C4)cc2)cn1
REMARK SMILES IDX 13 1 14 2 15 3 12 5 9 6 10 7 71 8 11 9 70 10 8 11 5 12 6 13
REMARK SMILES IDX 7 14 4 15 3 16 2 17 1 18 16 19 17 20 18 21 19 22 20 23 21 25
REMARK SMILES IDX 22 26 23 27 69 28 24 29 68 30 25 31 26 32 27 33 62 34 28 35
REMARK SMILES IDX 67 36 61 37 63 38 29 39 66 40 60 41 59 42 30 44 52 45 37 46
REMARK SMILES IDX 51 47 38 48 41 49 50 50 64 51 39 52 40 53 49 55 65 56 42 57
REMARK SMILES IDX 31 58 32 59 36 60 33 61 35 62 34 63 53 64 54 65 58 66 55 67
REMARK SMILES IDX 57 68 56 69 43 70 44 71 48 72 45 73 47 74 46 75
REMARK H PARENT 15 4 19 24 63 43 41 54
REMARK Flexibility Score: inf
ROOT
ATOM      1  C   UNL A   1      37.550  23.088  25.466  1.00  0.00     0.252 C 
ATOM      2  O   UNL A   1      38.134  23.945  26.121  1.00  0.00    -0.269 OA
ATOM      3  N   UNL A   1      38.072  21.820  25.393  1.00  0.00    -0.352 N 
ATOM      4  H   UNL A   1      38.961  21.717  25.802  1.00  0.00     0.163 HD
ENDROOT
BRANCH   1   5
ATOM      5  C   UNL A   1      36.281  23.427  24.804  1.00  0.00     0.058 A 
ATOM      6  C   UNL A   1      33.987  24.051  23.388  1.00  0.00     0.055 A 
ATOM      7  C   UNL A   1      34.040  24.284  24.759  1.00  0.00     0.026 A 
ATOM      8  N   UNL A   1      35.013  23.446  22.743  1.00  0.00    -0.259 NA
ATOM      9  C   UNL A   1      35.195  23.978  25.472  1.00  0.00     0.017 A 
ATOM     10  C   UNL A   1      36.126  23.135  23.459  1.00  0.00     0.125 A 
BRANCH   6  11
ATOM     11  C   UNL A   1      32.743  24.318  22.596  1.00  0.00     0.193 C 
BRANCH  11  12
ATOM     12  S   UNL A   1      32.635  25.999  22.004  1.00  0.00     0.158 S 
ATOM     13  O   UNL A   1      31.630  26.003  20.952  1.00  0.00    -0.228 OA
ATOM     14  O   UNL A   1      33.973  26.470  21.690  1.00  0.00    -0.228 OA
BRANCH  12  15
ATOM     15  C   UNL A   1      32.020  27.064  23.300  1.00  0.00     0.165 C 
BRANCH  15  16
ATOM     16  C   UNL A   1      31.960  28.529  22.907  1.00  0.00     0.176 C 
BRANCH  16  17
ATOM     17  O   UNL A   1      30.703  29.085  23.287  1.00  0.00    -0.384 OA
ATOM     18  C   UNL A   1      29.590  28.328  22.830  1.00  0.00     0.194 C 
ENDBRANCH  16  17
ENDBRANCH  15  16
ENDBRANCH  12  15
ENDBRANCH  11  12
ENDBRANCH   6  11
ENDBRANCH   1   5
BRANCH   3  19
ATOM     19  C   UNL A   1      37.523  20.607  24.811  1.00  0.00     0.118 C 
BRANCH  19  20
ATOM     20  C   UNL A   1      38.458  19.415  25.008  1.00  0.00     0.042 C 
BRANCH  20  21
ATOM     21  C   UNL A   1      39.428  19.584  26.175  1.00  0.00     0.118 C 
BRANCH  21  22
ATOM     22  N   UNL A   1      40.741  19.033  25.880  1.00  0.00    -0.352 N 
ATOM     23  C   UNL A   1      41.976  19.627  25.896  1.00  0.00     0.251 C 
ATOM     24  H   UNL A   1      40.743  18.082  25.626  1.00  0.00     0.163 HD
ATOM     25  O   UNL A   1      42.933  19.028  25.412  1.00  0.00    -0.269 OA
BRANCH  23  26
ATOM     26  C   UNL A   1      42.177  20.972  26.481  1.00  0.00     0.039 A 
ATOM     27  C   UNL A   1      42.474  22.032  25.618  1.00  0.00     0.014 A 
ATOM     28  C   UNL A   1      42.157  21.190  27.862  1.00  0.00     0.014 A 
ATOM     29  C   UNL A   1      42.728  23.304  26.133  1.00  0.00     0.010 A 
ATOM     30  C   UNL A   1      42.337  22.475  28.372  1.00  0.00     0.010 A 
ATOM     31  C   UNL A   1      42.650  23.541  27.515  1.00  0.00    -0.014 A 
BRANCH  31  32
ATOM     32  C   UNL A   1      42.932  24.888  28.070  1.00  0.00     0.031 A 
ATOM     33  C   UNL A   1      44.344  25.291  28.403  1.00  0.00     0.074 A 
ATOM     34  C   UNL A   1      41.916  25.742  28.298  1.00  0.00     0.049 A 
ATOM     35  N   UNL A   1      44.786  26.423  28.891  1.00  0.00    -0.248 NA
ATOM     36  C   UNL A   1      45.394  24.284  28.180  1.00  0.00     0.031 C 
ATOM     37  C   UNL A   1      40.500  25.460  28.055  1.00  0.00     0.029 A 
ATOM     38  N   UNL A   1      41.922  27.027  28.781  1.00  0.00    -0.354 N 
ATOM     39  C   UNL A   1      46.157  26.257  29.048  1.00  0.00     0.074 A 
ATOM     40  C   UNL A   1      46.466  24.901  28.652  1.00  0.00     0.031 C 
ATOM     41  C   UNL A   1      39.778  26.551  28.357  1.00  0.00     0.029 A 
ATOM     42  C   UNL A   1      40.674  27.595  28.843  1.00  0.00     0.049 A 
ATOM     43  H   UNL A   1      42.743  27.494  29.057  1.00  0.00     0.167 HD
ATOM     44  C   UNL A   1      47.081  27.158  29.462  1.00  0.00     0.031 A 
ATOM     45  C   UNL A   1      40.294  28.825  29.239  1.00  0.00     0.031 A 
ATOM     46  C   UNL A   1      46.778  28.511  29.843  1.00  0.00     0.049 A 
ATOM     47  C   UNL A   1      41.339  29.810  29.681  1.00  0.00     0.074 A 
ATOM     48  C   UNL A   1      47.649  29.514  30.235  1.00  0.00     0.029 A 
ATOM     49  N   UNL A   1      45.503  29.053  29.876  1.00  0.00    -0.354 N 
ATOM     50  N   UNL A   1      42.638  29.656  29.765  1.00  0.00    -0.248 NA
ATOM     51  C   UNL A   1      40.863  31.147  30.062  1.00  0.00     0.031 C 
ATOM     52  C   UNL A   1      46.894  30.651  30.544  1.00  0.00     0.029 A 
ATOM     53  C   UNL A   1      45.561  30.372  30.293  1.00  0.00     0.049 A 
ATOM     54  H   UNL A   1      44.677  28.571  29.639  1.00  0.00     0.167 HD
ATOM     55  C   UNL A   1      43.139  30.885  30.176  1.00  0.00     0.074 A 
ATOM     56  C   UNL A   1      42.004  31.776  30.309  1.00  0.00     0.031 C 
ATOM     57  C   UNL A   1      44.422  31.245  30.420  1.00  0.00     0.031 A 
BRANCH  44  58
ATOM     58  C   UNL A   1      48.512  26.697  29.529  1.00  0.00    -0.014 A 
ATOM     59  C   UNL A   1      49.053  26.171  30.714  1.00  0.00     0.009 A 
ATOM     60  C   UNL A   1      49.324  26.767  28.386  1.00  0.00     0.009 A 
ATOM     61  C   UNL A   1      50.388  25.763  30.763  1.00  0.00     0.001 A 
ATOM     62  C   UNL A   1      50.650  26.330  28.430  1.00  0.00     0.001 A 
ATOM     63  C   UNL A   1      51.184  25.839  29.621  1.00  0.00     0.000 A 
ENDBRANCH  44  58
BRANCH  45  64
ATOM     64  C   UNL A   1      38.859  29.209  29.197  1.00  0.00    -0.014 A 
ATOM     65  C   UNL A   1      38.049  29.056  30.333  1.00  0.00     0.009 A 
ATOM     66  C   UNL A   1      38.291  29.722  28.022  1.00  0.00     0.009 A 
ATOM     67  C   UNL A   1      36.692  29.383  30.284  1.00  0.00     0.001 A 
ATOM     68  C   UNL A   1      36.939  30.075  27.984  1.00  0.00     0.001 A 
ATOM     69  C   UNL A   1      36.141  29.895  29.111  1.00  0.00     0.000 A 
ENDBRANCH  45  64
BRANCH  57  70
ATOM     70  C   UNL A   1      44.667  32.675  30.810  1.00  0.00    -0.014 A 
ATOM     71  C   UNL A   1      44.895  33.669  29.845  1.00  0.00     0.009 A 
ATOM     72  C   UNL A   1      44.651  33.034  32.167  1.00  0.00     0.009 A 
ATOM     73  C   UNL A   1      45.147  34.986  30.235  1.00  0.00     0.001 A 
ATOM     74  C   UNL A   1      44.873  34.357  32.552  1.00  0.00     0.001 A 
ATOM     75  C   UNL A   1      45.133  35.328  31.587  1.00  0.00     0.000 A 
ENDBRANCH  57  70
ENDBRANCH  31  32
ENDBRANCH  23  26
ENDBRANCH  21  22
ENDBRANCH  20  21
ENDBRANCH  19  20
ENDBRANCH   3  19
TORSDOF 15
ENDMDL
MODEL 3
REMARK VINA RESULT:     -10.0      2.243      6.995
REMARK SMILES COCCS(=O)(=O)Cc1ccc(C(=O)NCCCNC(=O)c2ccc(-c3c4nc(c(-c5ccccc5)c5ccc([nH]5)c(-c5ccccc5)c5nc(c(-c6ccccc6)c6ccc3[nH]6)C=C5)C=C4)cc2)cn1
REMARK SMILES IDX 13 1 14 2 15 3 12 5 9 6 10 7 71 8 11 9 70 10 8 11 5 12 6 13
REMARK SMILES IDX 7 14 4 15 3 16 2 17 1 18 16 19 17 20 18 21 19 22 20 23 21 25
REMARK SMILES IDX 22 26 23 27 69 28 24 29 68 30 25 31 26 32 27 33 62 34 28 35
REMARK SMILES IDX 67 36 61 37 63 38 29 39 66 40 60 41 59 42 30 44 52 45 37 46
REMARK SMILES IDX 51 47 38 48 41 49 50 50 64 51 39 52 40 53 49 55 65 56 42 57
REMARK SMILES IDX 31 58 32 59 36 60 33 61 35 62 34 63 53 64 54 65 58 66 55 67
REMARK SMILES IDX 57 68 56 69 43 70 44 71 48 72 45 73 47 74 46 75
REMARK H PARENT 15 4 19 24 63 43 41 54
REMARK Flexibility Score: inf
ROOT
ATOM      1  C   UNL A   1      32.982  20.100  25.217  1.00  0.00     0.252 C 
ATOM      2  O   UNL A   1      32.338  19.076  25.423  1.00  0.00    -0.269 OA
ATOM      3  N   UNL A   1      34.346  20.083  25.364  1.00  0.00    -0.352 N 
ATOM      4  H   UNL A   1      34.710  19.248  25.737  1.00  0.00     0.163 HD
ENDROOT
BRANCH   1   5
ATOM      5  C   UNL A   1      32.278  21.316  24.777  1.00  0.00     0.058 A 
ATOM      6  C   UNL A   1      31.057  23.590  23.782  1.00  0.00     0.055 A 
ATOM      7  C   UNL A   1      30.961  23.288  25.138  1.00  0.00     0.026 A 
ATOM      8  N   UNL A   1      31.672  22.745  22.921  1.00  0.00    -0.259 NA
ATOM      9  C   UNL A   1      31.581  22.149  25.641  1.00  0.00     0.017 A 
ATOM     10  C   UNL A   1      32.254  21.625  23.428  1.00  0.00     0.125 A 
BRANCH   6  11
ATOM     11  C   UNL A   1      30.360  24.778  23.193  1.00  0.00     0.193 C 
BRANCH  11  12
ATOM     12  S   UNL A   1      31.104  26.332  23.660  1.00  0.00     0.158 S 
ATOM     13  O   UNL A   1      30.797  26.532  25.068  1.00  0.00    -0.228 OA
ATOM     14  O   UNL A   1      30.694  27.351  22.708  1.00  0.00    -0.228 OA
BRANCH  12  15
ATOM     15  C   UNL A   1      32.883  26.218  23.537  1.00  0.00     0.165 C 
BRANCH  15  16
ATOM     16  C   UNL A   1      33.424  26.586  22.168  1.00  0.00     0.176 C 
BRANCH  16  17
ATOM     17  O   UNL A   1      33.471  25.430  21.334  1.00  0.00    -0.384 OA
ATOM     18  C   UNL A   1      32.561  25.485  20.243  1.00  0.00     0.194 C 
ENDBRANCH  16  17
ENDBRANCH  15  16
ENDBRANCH  12  15
ENDBRANCH  11  12
ENDBRANCH   6  11
ENDBRANCH   1   5
BRANCH   3  19
ATOM     19  C   UNL A   1      35.340  21.099  25.056  1.00  0.00     0.118 C 
BRANCH  19  20
ATOM     20  C   UNL A   1      35.336  22.221  26.093  1.00  0.00     0.042 C 
BRANCH  20  21
ATOM     21  C   UNL A   1      36.579  23.104  26.044  1.00  0.00     0.118 C 
BRANCH  21  22
ATOM     22  N   UNL A   1      37.804  22.323  25.993  1.00  0.00    -0.352 N 
ATOM     23  C   UNL A   1      39.103  22.692  26.234  1.00  0.00     0.251 C 
ATOM     24  H   UNL A   1      37.683  21.379  25.743  1.00  0.00     0.163 HD
ATOM     25  O   UNL A   1      40.008  21.919  25.931  1.00  0.00    -0.269 OA
BRANCH  23  26
ATOM     26  C   UNL A   1      39.432  23.999  26.845  1.00  0.00     0.039 A 
ATOM     27  C   UNL A   1      40.049  24.968  26.047  1.00  0.00     0.014 A 
ATOM     28  C   UNL A   1      39.217  24.256  28.203  1.00  0.00     0.014 A 
ATOM     29  C   UNL A   1      40.429  26.192  26.599  1.00  0.00     0.010 A 
ATOM     30  C   UNL A   1      39.529  25.506  28.738  1.00  0.00     0.010 A 
ATOM     31  C   UNL A   1      40.161  26.478  27.948  1.00  0.00    -0.014 A 
BRANCH  31  32
ATOM     32  C   UNL A   1      40.574  27.772  28.545  1.00  0.00     0.031 A 
ATOM     33  C   UNL A   1      42.005  27.994  28.959  1.00  0.00     0.074 A 
ATOM     34  C   UNL A   1      39.659  28.741  28.737  1.00  0.00     0.049 A 
ATOM     35  N   UNL A   1      42.554  29.057  29.493  1.00  0.00    -0.248 NA
ATOM     36  C   UNL A   1      42.935  26.870  28.771  1.00  0.00     0.031 C 
ATOM     37  C   UNL A   1      38.235  28.638  28.414  1.00  0.00     0.029 A 
ATOM     38  N   UNL A   1      39.795  30.008  29.246  1.00  0.00    -0.354 N 
ATOM     39  C   UNL A   1      43.884  28.722  29.717  1.00  0.00     0.074 A 
ATOM     40  C   UNL A   1      44.047  27.344  29.311  1.00  0.00     0.031 C 
ATOM     41  C   UNL A   1      37.635  29.805  28.701  1.00  0.00     0.029 A 
ATOM     42  C   UNL A   1      38.624  30.725  29.254  1.00  0.00     0.049 A 
ATOM     43  H   UNL A   1      40.650  30.368  29.574  1.00  0.00     0.167 HD
ATOM     44  C   UNL A   1      44.887  29.496  30.198  1.00  0.00     0.031 A 
ATOM     45  C   UNL A   1      38.375  31.986  29.654  1.00  0.00     0.031 A 
ATOM     46  C   UNL A   1      44.730  30.872  30.591  1.00  0.00     0.049 A 
ATOM     47  C   UNL A   1      39.506  32.829  30.171  1.00  0.00     0.074 A 
ATOM     48  C   UNL A   1      45.694  31.755  31.048  1.00  0.00     0.029 A 
ATOM     49  N   UNL A   1      43.530  31.565  30.568  1.00  0.00    -0.354 N 
ATOM     50  N   UNL A   1      40.771  32.516  30.320  1.00  0.00    -0.248 NA
ATOM     51  C   UNL A   1      39.177  34.209  30.554  1.00  0.00     0.031 C 
ATOM     52  C   UNL A   1      45.068  32.971  31.340  1.00  0.00     0.029 A 
ATOM     53  C   UNL A   1      43.726  32.861  31.014  1.00  0.00     0.049 A 
ATOM     54  H   UNL A   1      42.667  31.191  30.279  1.00  0.00     0.167 HD
ATOM     55  C   UNL A   1      41.394  33.668  30.782  1.00  0.00     0.074 A 
ATOM     56  C   UNL A   1      40.371  34.690  30.873  1.00  0.00     0.031 C 
ATOM     57  C   UNL A   1      42.697  33.865  31.099  1.00  0.00     0.031 A 
BRANCH  44  58
ATOM     58  C   UNL A   1      46.245  28.863  30.330  1.00  0.00    -0.014 A 
ATOM     59  C   UNL A   1      46.633  28.212  31.513  1.00  0.00     0.009 A 
ATOM     60  C   UNL A   1      47.141  28.896  29.250  1.00  0.00     0.009 A 
ATOM     61  C   UNL A   1      47.904  27.643  31.624  1.00  0.00     0.001 A 
ATOM     62  C   UNL A   1      48.400  28.300  29.354  1.00  0.00     0.001 A 
ATOM     63  C   UNL A   1      48.784  27.685  30.545  1.00  0.00     0.000 A 
ENDBRANCH  44  58
BRANCH  45  64
ATOM     64  C   UNL A   1      37.001  32.543  29.546  1.00  0.00    -0.014 A 
ATOM     65  C   UNL A   1      36.595  33.210  28.380  1.00  0.00     0.009 A 
ATOM     66  C   UNL A   1      36.095  32.419  30.609  1.00  0.00     0.009 A 
ATOM     67  C   UNL A   1      35.317  33.765  28.292  1.00  0.00     0.001 A 
ATOM     68  C   UNL A   1      34.807  32.950  30.506  1.00  0.00     0.001 A 
ATOM     69  C   UNL A   1      34.424  33.631  29.353  1.00  0.00     0.000 A 
ENDBRANCH  45  64
BRANCH  57  70
ATOM     70  C   UNL A   1      43.092  35.249  31.531  1.00  0.00    -0.014 A 
ATOM     71  C   UNL A   1      43.545  36.203  30.607  1.00  0.00     0.009 A 
ATOM     72  C   UNL A   1      42.992  35.606  32.885  1.00  0.00     0.009 A 
ATOM     73  C   UNL A   1      43.932  37.474  31.038  1.00  0.00     0.001 A 
ATOM     74  C   UNL A   1      43.351  36.886  33.309  1.00  0.00     0.001 A 
ATOM     75  C   UNL A   1      43.832  37.814  32.386  1.00  0.00     0.000 A 
ENDBRANCH  57  70
ENDBRANCH  31  32
ENDBRANCH  23  26
ENDBRANCH  21  22
ENDBRANCH  20  21
ENDBRANCH  19  20
ENDBRANCH   3  19
TORSDOF 15
ENDMDL
