MODEL 1
REMARK VINA RESULT:     -11.3      0.000      0.000
REMARK SMILES N#CCCn1cc(C(=O)NCCCNC(=O)c2ccc(-c3c4nc(c(-c5ccccc5)c5ccc([nH]5)c(-c5ccccc5)c5nc(c(-c6ccccc6)c6ccc3[nH]6)C=C5)C=C4)cc2)c(-c2cccc([N+](=O)[O-])c2)n1
REMARK SMILES IDX 11 1 10 2 8 3 9 4 7 6 5 7 6 8 75 9 65 10 4 11 3 12 2 13 1 14
REMARK SMILES IDX 66 15 67 16 74 17 68 18 70 19 69 20 71 21 72 22 73 23 12 24
REMARK SMILES IDX 13 25 14 26 15 27 16 29 17 30 18 31 64 32 19 33 63 34 20 35
REMARK SMILES IDX 21 36 22 37 57 38 23 39 62 40 56 41 58 42 24 43 61 44 55 45
REMARK SMILES IDX 54 46 25 48 47 49 32 50 46 51 33 52 36 53 45 54 59 55 34 56
REMARK SMILES IDX 35 57 44 59 60 60 37 61 26 62 27 63 31 64 28 65 30 66 29 67
REMARK SMILES IDX 48 68 49 69 53 70 50 71 52 72 51 73 38 74 39 75 43 76 40 77
REMARK SMILES IDX 42 78 41 79
REMARK H PARENT 10 5 14 28 58 47 36 58
REMARK Flexibility Score: inf
ROOT
ATOM      1  C   UNL A   1      31.918  30.235  25.692  1.00  0.00     0.118 C 
ENDROOT
BRANCH   1   2
ATOM      2  N   UNL A   1      31.485  29.070  26.452  1.00  0.00    -0.352 N 
ATOM      3  C   UNL A   1      31.417  27.738  26.116  1.00  0.00     0.255 C 
ATOM      4  O   UNL A   1      31.126  26.956  27.021  1.00  0.00    -0.269 OA
ATOM      5  H   UNL A   1      31.189  29.272  27.368  1.00  0.00     0.163 HD
BRANCH   3   6
ATOM      6  C   UNL A   1      31.709  27.295  24.761  1.00  0.00     0.085 A 
ATOM      7  N   UNL A   1      32.616  26.275  23.036  1.00  0.00    -0.270 N 
ATOM      8  C   UNL A   1      32.878  26.751  24.279  1.00  0.00     0.123 A 
ATOM      9  N   UNL A   1      31.439  26.707  22.554  1.00  0.00    -0.172 NA
ATOM     10  C   UNL A   1      30.885  27.375  23.587  1.00  0.00     0.105 A 
BRANCH   7  11
ATOM     11  C   UNL A   1      33.478  25.403  22.253  1.00  0.00     0.159 C 
BRANCH  11  12
ATOM     12  C   UNL A   1      34.120  24.248  23.043  1.00  0.00     0.144 C 
BRANCH  12  13
ATOM     13  C   UNL A   1      33.266  22.993  22.952  1.00  0.00     0.064 C 
ATOM     14  N   UNL A   1      32.559  21.953  22.877  1.00  0.00    -0.198 NA
ENDBRANCH  12  13
ENDBRANCH  11  12
ENDBRANCH   7  11
BRANCH  10  15
ATOM     15  C   UNL A   1      29.613  28.083  23.449  1.00  0.00     0.010 A 
ATOM     16  C   UNL A   1      28.414  27.381  23.664  1.00  0.00     0.011 A 
ATOM     17  C   UNL A   1      29.563  29.424  23.057  1.00  0.00     0.096 A 
ATOM     18  C   UNL A   1      27.176  27.983  23.433  1.00  0.00     0.008 A 
ATOM     19  C   UNL A   1      28.313  30.023  22.825  1.00  0.00     0.270 A 
ATOM     20  C   UNL A   1      27.121  29.305  23.003  1.00  0.00     0.085 A 
BRANCH  19  21
ATOM     21  N   UNL A   1      28.244  31.415  22.363  1.00  0.00     0.062 N 
ATOM     22  O   UNL A   1      28.803  31.696  21.293  1.00  0.00    -0.258 OA
ATOM     23  O   UNL A   1      27.635  32.231  23.070  1.00  0.00    -0.258 OA
ENDBRANCH  19  21
ENDBRANCH  10  15
ENDBRANCH   3   6
ENDBRANCH   1   2
BRANCH   1  24
ATOM     24  C   UNL A   1      31.430  31.551  26.313  1.00  0.00     0.042 C 
BRANCH  24  25
ATOM     25  C   UNL A   1      32.403  32.107  27.337  1.00  0.00     0.118 C 
BRANCH  25  26
ATOM     26  N   UNL A   1      32.219  33.541  27.553  1.00  0.00    -0.352 N 
ATOM     27  C   UNL A   1      32.944  34.391  28.359  1.00  0.00     0.251 C 
ATOM     28  H   UNL A   1      31.478  33.955  27.056  1.00  0.00     0.163 HD
ATOM     29  O   UNL A   1      32.482  35.478  28.699  1.00  0.00    -0.269 OA
BRANCH  27  30
ATOM     30  C   UNL A   1      34.276  33.975  28.823  1.00  0.00     0.039 A 
ATOM     31  C   UNL A   1      34.452  33.385  30.079  1.00  0.00     0.014 A 
ATOM     32  C   UNL A   1      35.354  34.147  27.962  1.00  0.00     0.014 A 
ATOM     33  C   UNL A   1      35.707  32.887  30.419  1.00  0.00     0.010 A 
ATOM     34  C   UNL A   1      36.535  33.505  28.223  1.00  0.00     0.010 A 
ATOM     35  C   UNL A   1      36.741  32.929  29.474  1.00  0.00    -0.014 A 
BRANCH  35  36
ATOM     36  C   UNL A   1      38.022  32.278  29.724  1.00  0.00     0.031 A 
ATOM     37  C   UNL A   1      38.081  30.836  29.360  1.00  0.00     0.074 A 
ATOM     38  C   UNL A   1      39.140  32.982  30.009  1.00  0.00     0.049 A 
ATOM     39  N   UNL A   1      38.312  29.834  30.140  1.00  0.00    -0.248 NA
ATOM     40  C   UNL A   1      37.740  30.450  27.979  1.00  0.00     0.031 C 
ATOM     41  C   UNL A   1      39.293  34.441  30.080  1.00  0.00     0.029 A 
ATOM     42  N   UNL A   1      40.421  32.543  30.135  1.00  0.00    -0.354 N 
ATOM     43  C   UNL A   1      38.338  28.705  29.324  1.00  0.00     0.074 A 
ATOM     44  C   UNL A   1      37.812  29.119  28.047  1.00  0.00     0.031 C 
ATOM     45  C   UNL A   1      40.598  34.764  29.965  1.00  0.00     0.029 A 
ATOM     46  C   UNL A   1      41.378  33.541  29.994  1.00  0.00     0.049 A 
ATOM     47  H   UNL A   1      40.651  31.602  30.312  1.00  0.00     0.167 HD
ATOM     48  C   UNL A   1      39.024  27.585  29.682  1.00  0.00     0.031 A 
ATOM     49  C   UNL A   1      42.717  33.377  29.868  1.00  0.00     0.031 A 
ATOM     50  C   UNL A   1      39.384  27.604  31.077  1.00  0.00     0.049 A 
ATOM     51  C   UNL A   1      43.042  32.022  30.364  1.00  0.00     0.074 A 
ATOM     52  C   UNL A   1      38.685  27.685  32.264  1.00  0.00     0.029 A 
ATOM     53  N   UNL A   1      40.683  27.936  31.380  1.00  0.00    -0.354 N 
ATOM     54  N   UNL A   1      42.933  31.672  31.612  1.00  0.00    -0.248 NA
ATOM     55  C   UNL A   1      43.073  30.926  29.410  1.00  0.00     0.031 C 
ATOM     56  C   UNL A   1      39.480  28.523  33.100  1.00  0.00     0.029 A 
ATOM     57  C   UNL A   1      40.649  28.843  32.406  1.00  0.00     0.049 A 
ATOM     58  H   UNL A   1      41.491  27.588  30.939  1.00  0.00     0.167 HD
ATOM     59  C   UNL A   1      42.417  30.385  31.569  1.00  0.00     0.074 A 
ATOM     60  C   UNL A   1      42.644  29.934  30.198  1.00  0.00     0.031 C 
ATOM     61  C   UNL A   1      41.596  29.925  32.560  1.00  0.00     0.031 A 
BRANCH  48  62
ATOM     62  C   UNL A   1      39.738  26.687  28.698  1.00  0.00    -0.014 A 
ATOM     63  C   UNL A   1      40.741  27.245  27.882  1.00  0.00     0.009 A 
ATOM     64  C   UNL A   1      39.271  25.410  28.335  1.00  0.00     0.009 A 
ATOM     65  C   UNL A   1      41.182  26.598  26.721  1.00  0.00     0.001 A 
ATOM     66  C   UNL A   1      39.741  24.741  27.202  1.00  0.00     0.001 A 
ATOM     67  C   UNL A   1      40.674  25.350  26.376  1.00  0.00     0.000 A 
ENDBRANCH  48  62
BRANCH  49  68
ATOM     68  C   UNL A   1      43.698  34.213  29.143  1.00  0.00    -0.014 A 
ATOM     69  C   UNL A   1      45.025  34.304  29.589  1.00  0.00     0.009 A 
ATOM     70  C   UNL A   1      43.401  34.711  27.861  1.00  0.00     0.009 A 
ATOM     71  C   UNL A   1      46.027  34.830  28.761  1.00  0.00     0.001 A 
ATOM     72  C   UNL A   1      44.400  35.241  27.037  1.00  0.00     0.001 A 
ATOM     73  C   UNL A   1      45.718  35.282  27.481  1.00  0.00     0.000 A 
ENDBRANCH  49  68
BRANCH  61  74
ATOM     74  C   UNL A   1      41.466  30.758  33.813  1.00  0.00    -0.014 A 
ATOM     75  C   UNL A   1      40.573  31.838  33.931  1.00  0.00     0.009 A 
ATOM     76  C   UNL A   1      42.157  30.343  34.961  1.00  0.00     0.009 A 
ATOM     77  C   UNL A   1      40.406  32.503  35.151  1.00  0.00     0.001 A 
ATOM     78  C   UNL A   1      41.974  30.992  36.183  1.00  0.00     0.001 A 
ATOM     79  C   UNL A   1      41.103  32.076  36.278  1.00  0.00     0.000 A 
ENDBRANCH  61  74
ENDBRANCH  35  36
ENDBRANCH  27  30
ENDBRANCH  25  26
ENDBRANCH  24  25
ENDBRANCH   1  24
TORSDOF 15
ENDMDL
MODEL 2
REMARK VINA RESULT:     -11.3      3.152      7.517
REMARK SMILES N#CCCn1cc(C(=O)NCCCNC(=O)c2ccc(-c3c4nc(c(-c5ccccc5)c5ccc([nH]5)c(-c5ccccc5)c5nc(c(-c6ccccc6)c6ccc3[nH]6)C=C5)C=C4)cc2)c(-c2cccc([N+](=O)[O-])c2)n1
REMARK SMILES IDX 11 1 10 2 8 3 9 4 7 6 5 7 6 8 75 9 65 10 4 11 3 12 2 13 1 14
REMARK SMILES IDX 66 15 67 16 74 17 68 18 70 19 69 20 71 21 72 22 73 23 12 24
REMARK SMILES IDX 13 25 14 26 15 27 16 29 17 30 18 31 64 32 19 33 63 34 20 35
REMARK SMILES IDX 21 36 22 37 57 38 23 39 62 40 56 41 58 42 24 43 61 44 55 45
REMARK SMILES IDX 54 46 25 48 47 49 32 50 46 51 33 52 36 53 45 54 59 55 34 56
REMARK SMILES IDX 35 57 44 59 60 60 37 61 26 62 27 63 31 64 28 65 30 66 29 67
REMARK SMILES IDX 48 68 49 69 53 70 50 71 52 72 51 73 38 74 39 75 43 76 40 77
REMARK SMILES IDX 42 78 41 79
REMARK H PARENT 10 5 14 28 58 47 36 58
REMARK Flexibility Score: inf
ROOT
ATOM      1  C   UNL A   1      32.559  29.500  26.398  1.00  0.00     0.118 C 
ENDROOT
BRANCH   1   2
ATOM      2  N   UNL A   1      33.175  29.159  25.123  1.00  0.00    -0.352 N 
ATOM      3  C   UNL A   1      32.626  28.853  23.899  1.00  0.00     0.255 C 
ATOM      4  O   UNL A   1      33.410  28.730  22.959  1.00  0.00    -0.269 OA
ATOM      5  H   UNL A   1      34.158  29.145  25.140  1.00  0.00     0.163 HD
BRANCH   3   6
ATOM      6  C   UNL A   1      31.185  28.718  23.742  1.00  0.00     0.085 A 
ATOM      7  N   UNL A   1      29.078  29.133  23.268  1.00  0.00    -0.270 N 
ATOM      8  C   UNL A   1      30.245  29.718  23.637  1.00  0.00     0.123 A 
ATOM      9  N   UNL A   1      29.108  27.796  23.389  1.00  0.00    -0.172 NA
ATOM     10  C   UNL A   1      30.386  27.524  23.724  1.00  0.00     0.105 A 
BRANCH   7  11
ATOM     11  C   UNL A   1      27.885  29.822  22.800  1.00  0.00     0.159 C 
BRANCH  11  12
ATOM     12  C   UNL A   1      27.681  31.232  23.383  1.00  0.00     0.144 C 
BRANCH  12  13
ATOM     13  C   UNL A   1      27.872  32.292  22.310  1.00  0.00     0.064 C 
ATOM     14  N   UNL A   1      28.030  33.171  21.420  1.00  0.00    -0.198 NA
ENDBRANCH  12  13
ENDBRANCH  11  12
ENDBRANCH   7  11
BRANCH  10  15
ATOM     15  C   UNL A   1      30.825  26.164  24.034  1.00  0.00     0.010 A 
ATOM     16  C   UNL A   1      31.329  25.356  23.000  1.00  0.00     0.011 A 
ATOM     17  C   UNL A   1      30.706  25.634  25.323  1.00  0.00     0.096 A 
ATOM     18  C   UNL A   1      31.653  24.018  23.224  1.00  0.00     0.008 A 
ATOM     19  C   UNL A   1      31.033  24.285  25.541  1.00  0.00     0.270 A 
ATOM     20  C   UNL A   1      31.497  23.474  24.495  1.00  0.00     0.085 A 
BRANCH  19  21
ATOM     21  N   UNL A   1      30.864  23.699  26.877  1.00  0.00     0.062 N 
ATOM     22  O   UNL A   1      29.711  23.436  27.250  1.00  0.00    -0.258 OA
ATOM     23  O   UNL A   1      31.881  23.504  27.556  1.00  0.00    -0.258 OA
ENDBRANCH  19  21
ENDBRANCH  10  15
ENDBRANCH   3   6
ENDBRANCH   1   2
BRANCH   1  24
ATOM     24  C   UNL A   1      33.586  29.600  27.534  1.00  0.00     0.042 C 
BRANCH  24  25
ATOM     25  C   UNL A   1      34.570  30.738  27.331  1.00  0.00     0.118 C 
BRANCH  25  26
ATOM     26  N   UNL A   1      34.663  31.604  28.505  1.00  0.00    -0.352 N 
ATOM     27  C   UNL A   1      35.526  31.515  29.575  1.00  0.00     0.251 C 
ATOM     28  H   UNL A   1      34.023  32.351  28.536  1.00  0.00     0.163 HD
ATOM     29  O   UNL A   1      35.277  32.094  30.630  1.00  0.00    -0.269 OA
BRANCH  27  30
ATOM     30  C   UNL A   1      36.744  30.702  29.447  1.00  0.00     0.039 A 
ATOM     31  C   UNL A   1      37.972  31.287  29.119  1.00  0.00     0.014 A 
ATOM     32  C   UNL A   1      36.653  29.338  29.700  1.00  0.00     0.014 A 
ATOM     33  C   UNL A   1      39.120  30.500  29.141  1.00  0.00     0.010 A 
ATOM     34  C   UNL A   1      37.796  28.609  29.892  1.00  0.00     0.010 A 
ATOM     35  C   UNL A   1      39.028  29.163  29.553  1.00  0.00    -0.014 A 
BRANCH  35  36
ATOM     36  C   UNL A   1      40.221  28.346  29.745  1.00  0.00     0.031 A 
ATOM     37  C   UNL A   1      40.724  28.281  31.144  1.00  0.00     0.074 A 
ATOM     38  C   UNL A   1      40.675  27.504  28.791  1.00  0.00     0.049 A 
ATOM     39  N   UNL A   1      41.873  28.664  31.589  1.00  0.00    -0.248 NA
ATOM     40  C   UNL A   1      39.799  27.829  32.198  1.00  0.00     0.031 C 
ATOM     41  C   UNL A   1      40.082  27.230  27.475  1.00  0.00     0.029 A 
ATOM     42  N   UNL A   1      41.679  26.590  28.859  1.00  0.00    -0.354 N 
ATOM     43  C   UNL A   1      41.899  28.330  32.940  1.00  0.00     0.074 A 
ATOM     44  C   UNL A   1      40.545  27.983  33.294  1.00  0.00     0.031 C 
ATOM     45  C   UNL A   1      40.558  26.059  27.001  1.00  0.00     0.029 A 
ATOM     46  C   UNL A   1      41.612  25.600  27.886  1.00  0.00     0.049 A 
ATOM     47  H   UNL A   1      42.391  26.626  29.538  1.00  0.00     0.167 HD
ATOM     48  C   UNL A   1      43.072  28.120  33.599  1.00  0.00     0.031 A 
ATOM     49  C   UNL A   1      42.341  24.460  27.829  1.00  0.00     0.031 A 
ATOM     50  C   UNL A   1      44.199  28.613  32.849  1.00  0.00     0.049 A 
ATOM     51  C   UNL A   1      43.527  24.653  28.693  1.00  0.00     0.074 A 
ATOM     52  C   UNL A   1      44.576  29.843  32.350  1.00  0.00     0.029 A 
ATOM     53  N   UNL A   1      44.949  27.683  32.170  1.00  0.00    -0.354 N 
ATOM     54  N   UNL A   1      44.481  25.493  28.420  1.00  0.00    -0.248 NA
ATOM     55  C   UNL A   1      43.445  24.232  30.082  1.00  0.00     0.031 C 
ATOM     56  C   UNL A   1      45.159  29.558  31.079  1.00  0.00     0.029 A 
ATOM     57  C   UNL A   1      45.172  28.172  30.910  1.00  0.00     0.049 A 
ATOM     58  H   UNL A   1      45.267  26.820  32.523  1.00  0.00     0.167 HD
ATOM     59  C   UNL A   1      44.809  26.057  29.644  1.00  0.00     0.074 A 
ATOM     60  C   UNL A   1      44.234  25.155  30.640  1.00  0.00     0.031 C 
ATOM     61  C   UNL A   1      45.256  27.346  29.725  1.00  0.00     0.031 A 
BRANCH  48  62
ATOM     62  C   UNL A   1      43.246  27.099  34.700  1.00  0.00    -0.014 A 
ATOM     63  C   UNL A   1      43.035  25.740  34.399  1.00  0.00     0.009 A 
ATOM     64  C   UNL A   1      43.314  27.437  36.065  1.00  0.00     0.009 A 
ATOM     65  C   UNL A   1      42.816  24.793  35.406  1.00  0.00     0.001 A 
ATOM     66  C   UNL A   1      43.139  26.487  37.075  1.00  0.00     0.001 A 
ATOM     67  C   UNL A   1      42.858  25.170  36.745  1.00  0.00     0.000 A 
ENDBRANCH  48  62
BRANCH  49  68
ATOM     68  C   UNL A   1      41.975  23.142  27.268  1.00  0.00    -0.014 A 
ATOM     69  C   UNL A   1      42.675  22.612  26.174  1.00  0.00     0.009 A 
ATOM     70  C   UNL A   1      41.112  22.282  27.972  1.00  0.00     0.009 A 
ATOM     71  C   UNL A   1      42.553  21.259  25.828  1.00  0.00     0.001 A 
ATOM     72  C   UNL A   1      40.985  20.934  27.624  1.00  0.00     0.001 A 
ATOM     73  C   UNL A   1      41.721  20.417  26.563  1.00  0.00     0.000 A 
ENDBRANCH  49  68
BRANCH  61  74
ATOM     74  C   UNL A   1      45.616  28.051  28.439  1.00  0.00    -0.014 A 
ATOM     75  C   UNL A   1      44.661  28.640  27.591  1.00  0.00     0.009 A 
ATOM     76  C   UNL A   1      46.973  28.260  28.154  1.00  0.00     0.009 A 
ATOM     77  C   UNL A   1      45.053  29.384  26.472  1.00  0.00     0.001 A 
ATOM     78  C   UNL A   1      47.365  29.020  27.050  1.00  0.00     0.001 A 
ATOM     79  C   UNL A   1      46.407  29.577  26.206  1.00  0.00     0.000 A 
ENDBRANCH  61  74
ENDBRANCH  35  36
ENDBRANCH  27  30
ENDBRANCH  25  26
ENDBRANCH  24  25
ENDBRANCH   1  24
TORSDOF 15
ENDMDL
MODEL 3
REMARK VINA RESULT:     -11.1      2.515      5.780
REMARK SMILES N#CCCn1cc(C(=O)NCCCNC(=O)c2ccc(-c3c4nc(c(-c5ccccc5)c5ccc([nH]5)c(-c5ccccc5)c5nc(c(-c6ccccc6)c6ccc3[nH]6)C=C5)C=C4)cc2)c(-c2cccc([N+](=O)[O-])c2)n1
REMARK SMILES IDX 11 1 10 2 8 3 9 4 7 6 5 7 6 8 75 9 65 10 4 11 3 12 2 13 1 14
REMARK SMILES IDX 66 15 67 16 74 17 68 18 70 19 69 20 71 21 72 22 73 23 12 24
REMARK SMILES IDX 13 25 14 26 15 27 16 29 17 30 18 31 64 32 19 33 63 34 20 35
REMARK SMILES IDX 21 36 22 37 57 38 23 39 62 40 56 41 58 42 24 43 61 44 55 45
REMARK SMILES IDX 54 46 25 48 47 49 32 50 46 51 33 52 36 53 45 54 59 55 34 56
REMARK SMILES IDX 35 57 44 59 60 60 37 61 26 62 27 63 31 64 28 65 30 66 29 67
REMARK SMILES IDX 48 68 49 69 53 70 50 71 52 72 51 73 38 74 39 75 43 76 40 77
REMARK SMILES IDX 42 78 41 79
REMARK H PARENT 10 5 14 28 58 47 36 58
REMARK Flexibility Score: inf
ROOT
ATOM      1  C   UNL A   1      32.484  27.416  26.629  1.00  0.00     0.118 C 
ENDROOT
BRANCH   1   2
ATOM      2  N   UNL A   1      31.164  26.841  26.844  1.00  0.00    -0.352 N 
ATOM      3  C   UNL A   1      30.472  25.869  26.159  1.00  0.00     0.255 C 
ATOM      4  O   UNL A   1      29.411  25.495  26.657  1.00  0.00    -0.269 OA
ATOM      5  H   UNL A   1      30.682  27.213  27.616  1.00  0.00     0.163 HD
BRANCH   3   6
ATOM      6  C   UNL A   1      31.002  25.305  24.926  1.00  0.00     0.085 A 
ATOM      7  N   UNL A   1      31.813  23.902  23.440  1.00  0.00    -0.270 N 
ATOM      8  C   UNL A   1      31.750  24.160  24.770  1.00  0.00     0.123 A 
ATOM      9  N   UNL A   1      31.398  24.937  22.691  1.00  0.00    -0.172 NA
ATOM     10  C   UNL A   1      30.936  25.829  23.590  1.00  0.00     0.105 A 
BRANCH   7  11
ATOM     11  C   UNL A   1      32.284  22.668  22.827  1.00  0.00     0.159 C 
BRANCH  11  12
ATOM     12  C   UNL A   1      32.393  21.470  23.788  1.00  0.00     0.144 C 
BRANCH  12  13
ATOM     13  C   UNL A   1      33.807  21.342  24.331  1.00  0.00     0.064 C 
ATOM     14  N   UNL A   1      34.980  21.235  24.781  1.00  0.00    -0.198 NA
ENDBRANCH  12  13
ENDBRANCH  11  12
ENDBRANCH   7  11
BRANCH  10  15
ATOM     15  C   UNL A   1      30.461  27.151  23.185  1.00  0.00     0.010 A 
ATOM     16  C   UNL A   1      31.378  28.071  22.646  1.00  0.00     0.011 A 
ATOM     17  C   UNL A   1      29.129  27.538  23.371  1.00  0.00     0.096 A 
ATOM     18  C   UNL A   1      30.996  29.381  22.352  1.00  0.00     0.008 A 
ATOM     19  C   UNL A   1      28.752  28.859  23.074  1.00  0.00     0.270 A 
ATOM     20  C   UNL A   1      29.683  29.782  22.574  1.00  0.00     0.085 A 
BRANCH  19  21
ATOM     21  N   UNL A   1      27.371  29.295  23.312  1.00  0.00     0.062 N 
ATOM     22  O   UNL A   1      27.172  30.504  23.499  1.00  0.00    -0.258 OA
ATOM     23  O   UNL A   1      26.483  28.431  23.315  1.00  0.00    -0.258 OA
ENDBRANCH  19  21
ENDBRANCH  10  15
ENDBRANCH   3   6
ENDBRANCH   1   2
BRANCH   1  24
ATOM     24  C   UNL A   1      32.454  28.950  26.592  1.00  0.00     0.042 C 
BRANCH  24  25
ATOM     25  C   UNL A   1      33.382  29.576  27.617  1.00  0.00     0.118 C 
BRANCH  25  26
ATOM     26  N   UNL A   1      33.706  30.965  27.294  1.00  0.00    -0.352 N 
ATOM     27  C   UNL A   1      34.815  31.697  27.657  1.00  0.00     0.251 C 
ATOM     28  H   UNL A   1      33.043  31.440  26.744  1.00  0.00     0.163 HD
ATOM     29  O   UNL A   1      34.799  32.925  27.603  1.00  0.00    -0.269 OA
BRANCH  27  30
ATOM     30  C   UNL A   1      36.016  30.992  28.126  1.00  0.00     0.039 A 
ATOM     31  C   UNL A   1      36.296  29.685  27.712  1.00  0.00     0.014 A 
ATOM     32  C   UNL A   1      36.892  31.675  28.962  1.00  0.00     0.014 A 
ATOM     33  C   UNL A   1      37.510  29.109  28.075  1.00  0.00     0.010 A 
ATOM     34  C   UNL A   1      38.152  31.178  29.170  1.00  0.00     0.010 A 
ATOM     35  C   UNL A   1      38.446  29.873  28.786  1.00  0.00    -0.014 A 
BRANCH  35  36
ATOM     36  C   UNL A   1      39.790  29.370  29.050  1.00  0.00     0.031 A 
ATOM     37  C   UNL A   1      40.109  29.140  30.484  1.00  0.00     0.074 A 
ATOM     38  C   UNL A   1      40.586  28.899  28.064  1.00  0.00     0.049 A 
ATOM     39  N   UNL A   1      41.033  29.703  31.189  1.00  0.00    -0.248 NA
ATOM     40  C   UNL A   1      39.229  28.249  31.261  1.00  0.00     0.031 C 
ATOM     41  C   UNL A   1      40.269  28.768  26.635  1.00  0.00     0.029 A 
ATOM     42  N   UNL A   1      41.794  28.283  28.157  1.00  0.00    -0.354 N 
ATOM     43  C   UNL A   1      40.982  29.106  32.445  1.00  0.00     0.074 A 
ATOM     44  C   UNL A   1      39.754  28.353  32.484  1.00  0.00     0.031 C 
ATOM     45  C   UNL A   1      41.119  27.890  26.063  1.00  0.00     0.029 A 
ATOM     46  C   UNL A   1      42.140  27.541  27.033  1.00  0.00     0.049 A 
ATOM     47  H   UNL A   1      42.373  28.355  28.950  1.00  0.00     0.167 HD
ATOM     48  C   UNL A   1      42.073  29.070  33.261  1.00  0.00     0.031 A 
ATOM     49  C   UNL A   1      43.169  26.667  26.917  1.00  0.00     0.031 A 
ATOM     50  C   UNL A   1      43.095  29.987  32.822  1.00  0.00     0.049 A 
ATOM     51  C   UNL A   1      44.129  26.971  28.000  1.00  0.00     0.074 A 
ATOM     52  C   UNL A   1      43.160  31.349  32.616  1.00  0.00     0.029 A 
ATOM     53  N   UNL A   1      44.161  29.449  32.142  1.00  0.00    -0.354 N 
ATOM     54  N   UNL A   1      44.826  28.068  28.052  1.00  0.00    -0.248 NA
ATOM     55  C   UNL A   1      43.997  26.256  29.260  1.00  0.00     0.031 C 
ATOM     56  C   UNL A   1      43.956  31.503  31.442  1.00  0.00     0.029 A 
ATOM     57  C   UNL A   1      44.391  30.237  31.045  1.00  0.00     0.049 A 
ATOM     58  H   UNL A   1      44.668  28.644  32.395  1.00  0.00     0.167 HD
ATOM     59  C   UNL A   1      44.819  28.421  29.393  1.00  0.00     0.074 A 
ATOM     60  C   UNL A   1      44.407  27.211  30.100  1.00  0.00     0.031 C 
ATOM     61  C   UNL A   1      44.860  29.734  29.772  1.00  0.00     0.031 A 
BRANCH  48  62
ATOM     62  C   UNL A   1      42.393  27.918  34.185  1.00  0.00    -0.014 A 
ATOM     63  C   UNL A   1      43.106  26.819  33.669  1.00  0.00     0.009 A 
ATOM     64  C   UNL A   1      41.778  27.736  35.437  1.00  0.00     0.009 A 
ATOM     65  C   UNL A   1      43.124  25.584  34.330  1.00  0.00     0.001 A 
ATOM     66  C   UNL A   1      41.829  26.519  36.121  1.00  0.00     0.001 A 
ATOM     67  C   UNL A   1      42.476  25.432  35.551  1.00  0.00     0.000 A 
ENDBRANCH  48  62
BRANCH  49  68
ATOM     68  C   UNL A   1      43.273  25.451  26.083  1.00  0.00    -0.014 A 
ATOM     69  C   UNL A   1      44.394  25.240  25.265  1.00  0.00     0.009 A 
ATOM     70  C   UNL A   1      42.399  24.368  26.288  1.00  0.00     0.009 A 
ATOM     71  C   UNL A   1      44.655  23.977  24.715  1.00  0.00     0.001 A 
ATOM     72  C   UNL A   1      42.656  23.110  25.734  1.00  0.00     0.001 A 
ATOM     73  C   UNL A   1      43.796  22.909  24.963  1.00  0.00     0.000 A 
ENDBRANCH  49  68
BRANCH  61  74
ATOM     74  C   UNL A   1      45.160  30.767  28.712  1.00  0.00    -0.014 A 
ATOM     75  C   UNL A   1      46.461  31.214  28.418  1.00  0.00     0.009 A 
ATOM     76  C   UNL A   1      44.112  31.187  27.880  1.00  0.00     0.009 A 
ATOM     77  C   UNL A   1      46.697  32.083  27.347  1.00  0.00     0.001 A 
ATOM     78  C   UNL A   1      44.351  32.037  26.798  1.00  0.00     0.001 A 
ATOM     79  C   UNL A   1      45.642  32.490  26.535  1.00  0.00     0.000 A 
ENDBRANCH  61  74
ENDBRANCH  35  36
ENDBRANCH  27  30
ENDBRANCH  25  26
ENDBRANCH  24  25
ENDBRANCH   1  24
TORSDOF 15
ENDMDL
