MODEL 1
REMARK VINA RESULT:     -12.2      0.000      0.000
REMARK SMILES COC(=O)[C@H]1CC[C@]2(C)[C@H]3CC=C4[C@@H]5CC(C)(C)CC[C@@]5(C(=O)NCCCNC(=O)c5ccc(-c6c7nc(c(-c8ccccc8)c8ccc([nH]8)c(-c8ccccc8)c8nc(c(-c9ccccc9)c9ccc6[nH]9)C=C8)C=C7)cc5)CC[C@@]4(C)[C@@]3(C)CC[C@H]2C1(C)C
REMARK SMILES IDX 26 1 25 2 24 3 22 4 23 5 21 7 5 8 6 9 88 10 7 11 87 12 89 13
REMARK SMILES IDX 90 14 8 15 86 16 9 17 10 18 85 19 11 20 83 21 12 22 81 23
REMARK SMILES IDX 84 24 13 25 80 26 82 27 14 28 79 29 15 30 16 31 20 32 17 33
REMARK SMILES IDX 18 34 19 35 3 36 4 37 2 38 1 39 27 40 28 41 29 42 30 44
REMARK SMILES IDX 31 45 32 46 78 47 33 48 77 49 34 50 35 51 36 52 71 53 37 54
REMARK SMILES IDX 76 55 70 56 72 57 38 58 75 59 69 60 68 61 39 63 61 64 46 65
REMARK SMILES IDX 60 66 47 67 50 68 59 69 73 70 48 71 49 72 58 74 74 75 51 76
REMARK SMILES IDX 40 77 41 78 45 79 42 80 44 81 43 82 62 83 63 84 67 85 64 86
REMARK SMILES IDX 66 87 65 88 52 89 53 90 57 91 54 92 56 93 55 94
REMARK H PARENT 24 6 28 43 72 62 50 73
REMARK Flexibility Score: inf
ROOT
ATOM      1  C   UNL A   1      40.106  25.837  26.856  1.00  0.00     0.042 C 
ENDROOT
BRANCH   1   2
ATOM      2  C   UNL A   1      40.589  26.781  27.955  1.00  0.00     0.117 C 
BRANCH   2   3
ATOM      3  N   UNL A   1      39.774  26.801  29.152  1.00  0.00    -0.356 N 
ATOM      4  C   UNL A   1      39.117  27.820  29.783  1.00  0.00     0.226 C 
ATOM      5  O   UNL A   1      38.716  27.556  30.921  1.00  0.00    -0.274 OA
ATOM      6  H   UNL A   1      39.677  25.924  29.589  1.00  0.00     0.163 HD
BRANCH   4   7
ATOM      7  C   UNL A   1      38.864  29.218  29.141  1.00  0.00     0.056 C 
ATOM      8  C   UNL A   1      34.264  35.665  31.353  1.00  0.00     0.105 C 
ATOM      9  C   UNL A   1      34.807  35.701  32.837  1.00  0.00     0.016 C 
ATOM     10  C   UNL A   1      34.801  34.509  30.406  1.00  0.00    -0.019 C 
ATOM     11  C   UNL A   1      36.046  34.856  33.244  1.00  0.00     0.008 C 
ATOM     12  C   UNL A   1      36.180  34.068  31.001  1.00  0.00     0.002 C 
ATOM     13  C   UNL A   1      33.843  33.306  30.167  1.00  0.00     0.012 C 
ATOM     14  C   UNL A   1      34.992  35.124  28.986  1.00  0.00     0.012 C 
ATOM     15  C   UNL A   1      36.105  33.513  32.469  1.00  0.00    -0.026 C 
ATOM     16  C   UNL A   1      37.059  33.229  30.115  1.00  0.00     0.005 C 
ATOM     17  C   UNL A   1      34.779  32.803  32.871  1.00  0.00     0.012 C 
ATOM     18  C   UNL A   1      37.354  32.569  32.944  1.00  0.00     0.006 C 
ATOM     19  C   UNL A   1      38.487  33.225  30.639  1.00  0.00     0.008 C 
ATOM     20  C   UNL A   1      36.918  31.094  33.370  1.00  0.00     0.032 C 
ATOM     21  C   UNL A   1      38.696  32.520  32.000  1.00  0.00    -0.020 C 
ATOM     22  C   UNL A   1      36.914  30.161  32.197  1.00  0.00    -0.027 C 
ATOM     23  C   UNL A   1      39.198  30.981  31.768  1.00  0.00    -0.006 C 
ATOM     24  C   UNL A   1      39.799  33.344  32.725  1.00  0.00     0.012 C 
ATOM     25  C   UNL A   1      37.929  30.236  31.318  1.00  0.00    -0.064 C 
ATOM     26  C   UNL A   1      40.383  30.689  30.771  1.00  0.00     0.013 C 
ATOM     27  C   UNL A   1      39.814  30.439  33.119  1.00  0.00     0.017 C 
ATOM     28  C   UNL A   1      37.735  29.995  29.810  1.00  0.00     0.031 C 
ATOM     29  C   UNL A   1      40.120  30.142  29.351  1.00  0.00     0.018 C 
ATOM     30  C   UNL A   1      36.312  29.666  29.333  1.00  0.00     0.015 C 
ATOM     31  C   UNL A   1      36.092  29.866  27.811  1.00  0.00    -0.035 C 
ATOM     32  C   UNL A   1      38.660  29.093  27.601  1.00  0.00     0.018 C 
ATOM     33  C   UNL A   1      34.940  28.946  27.336  1.00  0.00     0.011 C 
ATOM     34  C   UNL A   1      35.565  31.295  27.528  1.00  0.00     0.011 C 
ATOM     35  C   UNL A   1      37.382  29.681  26.966  1.00  0.00     0.007 C 
BRANCH   8  36
ATOM     36  C   UNL A   1      32.733  35.826  31.309  1.00  0.00     0.309 C 
ATOM     37  O   UNL A   1      32.109  36.427  30.445  1.00  0.00    -0.252 OA
BRANCH  36  38
ATOM     38  O   UNL A   1      32.151  35.258  32.402  1.00  0.00    -0.469 OA
ATOM     39  C   UNL A   1      31.040  35.988  32.923  1.00  0.00     0.282 C 
ENDBRANCH  36  38
ENDBRANCH   8  36
ENDBRANCH   4   7
ENDBRANCH   2   3
ENDBRANCH   1   2
BRANCH   1  40
ATOM     40  C   UNL A   1      40.137  24.348  27.221  1.00  0.00     0.118 C 
BRANCH  40  41
ATOM     41  N   UNL A   1      40.945  23.496  26.349  1.00  0.00    -0.352 N 
ATOM     42  C   UNL A   1      42.229  23.587  25.867  1.00  0.00     0.251 C 
ATOM     43  H   UNL A   1      40.470  22.689  26.045  1.00  0.00     0.163 HD
ATOM     44  O   UNL A   1      42.666  22.673  25.167  1.00  0.00    -0.269 OA
BRANCH  42  45
ATOM     45  C   UNL A   1      43.070  24.787  26.091  1.00  0.00     0.039 A 
ATOM     46  C   UNL A   1      43.707  24.938  27.331  1.00  0.00     0.014 A 
ATOM     47  C   UNL A   1      43.276  25.746  25.106  1.00  0.00     0.014 A 
ATOM     48  C   UNL A   1      44.617  25.981  27.536  1.00  0.00     0.010 A 
ATOM     49  C   UNL A   1      44.267  26.708  25.266  1.00  0.00     0.010 A 
ATOM     50  C   UNL A   1      44.958  26.836  26.478  1.00  0.00    -0.014 A 
BRANCH  50  51
ATOM     51  C   UNL A   1      46.032  27.862  26.582  1.00  0.00     0.031 A 
ATOM     52  C   UNL A   1      45.671  29.316  26.749  1.00  0.00     0.074 A 
ATOM     53  C   UNL A   1      47.317  27.516  26.368  1.00  0.00     0.049 A 
ATOM     54  N   UNL A   1      46.421  30.379  26.604  1.00  0.00    -0.248 NA
ATOM     55  C   UNL A   1      44.261  29.614  27.052  1.00  0.00     0.031 C 
ATOM     56  C   UNL A   1      47.808  26.159  26.117  1.00  0.00     0.029 A 
ATOM     57  N   UNL A   1      48.448  28.293  26.302  1.00  0.00    -0.354 N 
ATOM     58  C   UNL A   1      45.559  31.464  26.711  1.00  0.00     0.074 A 
ATOM     59  C   UNL A   1      44.229  30.930  26.901  1.00  0.00     0.031 C 
ATOM     60  C   UNL A   1      49.140  26.193  25.956  1.00  0.00     0.029 A 
ATOM     61  C   UNL A   1      49.592  27.577  26.040  1.00  0.00     0.049 A 
ATOM     62  H   UNL A   1      48.441  29.268  26.431  1.00  0.00     0.167 HD
ATOM     63  C   UNL A   1      45.849  32.787  26.671  1.00  0.00     0.031 A 
ATOM     64  C   UNL A   1      50.863  27.987  25.872  1.00  0.00     0.031 A 
ATOM     65  C   UNL A   1      47.182  33.318  26.576  1.00  0.00     0.049 A 
ATOM     66  C   UNL A   1      51.180  29.452  25.959  1.00  0.00     0.074 A 
ATOM     67  C   UNL A   1      47.595  34.637  26.644  1.00  0.00     0.029 A 
ATOM     68  N   UNL A   1      48.324  32.548  26.420  1.00  0.00    -0.354 N 
ATOM     69  N   UNL A   1      50.362  30.464  26.111  1.00  0.00    -0.248 NA
ATOM     70  C   UNL A   1      52.597  29.829  25.860  1.00  0.00     0.031 C 
ATOM     71  C   UNL A   1      48.987  34.666  26.510  1.00  0.00     0.029 A 
ATOM     72  C   UNL A   1      49.442  33.363  26.393  1.00  0.00     0.049 A 
ATOM     73  H   UNL A   1      48.338  31.566  26.340  1.00  0.00     0.167 HD
ATOM     74  C   UNL A   1      51.164  31.596  26.145  1.00  0.00     0.074 A 
ATOM     75  C   UNL A   1      52.535  31.145  26.014  1.00  0.00     0.031 C 
ATOM     76  C   UNL A   1      50.798  32.894  26.268  1.00  0.00     0.031 A 
BRANCH  63  77
ATOM     77  C   UNL A   1      44.694  33.750  26.735  1.00  0.00    -0.014 A 
ATOM     78  C   UNL A   1      44.229  34.258  27.959  1.00  0.00     0.009 A 
ATOM     79  C   UNL A   1      44.061  34.157  25.550  1.00  0.00     0.009 A 
ATOM     80  C   UNL A   1      43.119  35.103  28.000  1.00  0.00     0.001 A 
ATOM     81  C   UNL A   1      42.972  35.032  25.591  1.00  0.00     0.001 A 
ATOM     82  C   UNL A   1      42.493  35.491  26.816  1.00  0.00     0.000 A 
ENDBRANCH  63  77
BRANCH  64  83
ATOM     83  C   UNL A   1      51.936  26.987  25.642  1.00  0.00    -0.014 A 
ATOM     84  C   UNL A   1      52.541  26.341  26.732  1.00  0.00     0.009 A 
ATOM     85  C   UNL A   1      52.342  26.652  24.341  1.00  0.00     0.009 A 
ATOM     86  C   UNL A   1      53.546  25.395  26.524  1.00  0.00     0.001 A 
ATOM     87  C   UNL A   1      53.331  25.688  24.136  1.00  0.00     0.001 A 
ATOM     88  C   UNL A   1      53.936  25.065  25.227  1.00  0.00     0.000 A 
ENDBRANCH  64  83
BRANCH  76  89
ATOM     89  C   UNL A   1      51.897  33.915  26.300  1.00  0.00    -0.014 A 
ATOM     90  C   UNL A   1      52.511  34.281  27.507  1.00  0.00     0.009 A 
ATOM     91  C   UNL A   1      52.354  34.482  25.100  1.00  0.00     0.009 A 
ATOM     92  C   UNL A   1      53.545  35.218  27.514  1.00  0.00     0.001 A 
ATOM     93  C   UNL A   1      53.401  35.402  25.108  1.00  0.00     0.001 A 
ATOM     94  C   UNL A   1      53.993  35.774  26.316  1.00  0.00     0.000 A 
ENDBRANCH  76  89
ENDBRANCH  50  51
ENDBRANCH  42  45
ENDBRANCH  40  41
ENDBRANCH   1  40
TORSDOF 12
ENDMDL
MODEL 2
REMARK VINA RESULT:     -11.9      0.454      5.423
REMARK SMILES COC(=O)[C@H]1CC[C@]2(C)[C@H]3CC=C4[C@@H]5CC(C)(C)CC[C@@]5(C(=O)NCCCNC(=O)c5ccc(-c6c7nc(c(-c8ccccc8)c8ccc([nH]8)c(-c8ccccc8)c8nc(c(-c9ccccc9)c9ccc6[nH]9)C=C8)C=C7)cc5)CC[C@@]4(C)[C@@]3(C)CC[C@H]2C1(C)C
REMARK SMILES IDX 26 1 25 2 24 3 22 4 23 5 21 7 5 8 6 9 88 10 7 11 87 12 89 13
REMARK SMILES IDX 90 14 8 15 86 16 9 17 10 18 85 19 11 20 83 21 12 22 81 23
REMARK SMILES IDX 84 24 13 25 80 26 82 27 14 28 79 29 15 30 16 31 20 32 17 33
REMARK SMILES IDX 18 34 19 35 3 36 4 37 2 38 1 39 27 40 28 41 29 42 30 44
REMARK SMILES IDX 31 45 32 46 78 47 33 48 77 49 34 50 35 51 36 52 71 53 37 54
REMARK SMILES IDX 76 55 70 56 72 57 38 58 75 59 69 60 68 61 39 63 61 64 46 65
REMARK SMILES IDX 60 66 47 67 50 68 59 69 73 70 48 71 49 72 58 74 74 75 51 76
REMARK SMILES IDX 40 77 41 78 45 79 42 80 44 81 43 82 62 83 63 84 67 85 64 86
REMARK SMILES IDX 66 87 65 88 52 89 53 90 57 91 54 92 56 93 55 94
REMARK H PARENT 24 6 28 43 72 62 50 73
REMARK Flexibility Score: inf
ROOT
ATOM      1  C   UNL A   1      39.949  25.375  27.088  1.00  0.00     0.042 C 
ENDROOT
BRANCH   1   2
ATOM      2  C   UNL A   1      40.260  26.648  27.871  1.00  0.00     0.117 C 
BRANCH   2   3
ATOM      3  N   UNL A   1      39.611  26.751  29.162  1.00  0.00    -0.356 N 
ATOM      4  C   UNL A   1      39.101  27.826  29.835  1.00  0.00     0.226 C 
ATOM      5  O   UNL A   1      38.837  27.618  31.024  1.00  0.00    -0.274 OA
ATOM      6  H   UNL A   1      39.522  25.894  29.638  1.00  0.00     0.163 HD
BRANCH   4   7
ATOM      7  C   UNL A   1      38.846  29.217  29.182  1.00  0.00     0.056 C 
ATOM      8  C   UNL A   1      34.247  35.680  31.351  1.00  0.00     0.105 C 
ATOM      9  C   UNL A   1      34.793  35.728  32.834  1.00  0.00     0.016 C 
ATOM     10  C   UNL A   1      34.782  34.517  30.413  1.00  0.00    -0.019 C 
ATOM     11  C   UNL A   1      36.033  34.888  33.245  1.00  0.00     0.008 C 
ATOM     12  C   UNL A   1      36.163  34.082  31.008  1.00  0.00     0.002 C 
ATOM     13  C   UNL A   1      33.825  33.311  30.186  1.00  0.00     0.012 C 
ATOM     14  C   UNL A   1      34.970  35.120  28.987  1.00  0.00     0.012 C 
ATOM     15  C   UNL A   1      36.091  33.539  32.481  1.00  0.00    -0.026 C 
ATOM     16  C   UNL A   1      37.040  33.235  30.128  1.00  0.00     0.005 C 
ATOM     17  C   UNL A   1      34.767  32.831  32.892  1.00  0.00     0.012 C 
ATOM     18  C   UNL A   1      37.342  32.599  32.961  1.00  0.00     0.006 C 
ATOM     19  C   UNL A   1      38.470  33.237  30.648  1.00  0.00     0.008 C 
ATOM     20  C   UNL A   1      36.907  31.128  33.400  1.00  0.00     0.032 C 
ATOM     21  C   UNL A   1      38.682  32.543  32.015  1.00  0.00    -0.020 C 
ATOM     22  C   UNL A   1      36.902  30.185  32.235  1.00  0.00    -0.027 C 
ATOM     23  C   UNL A   1      39.185  31.002  31.794  1.00  0.00    -0.006 C 
ATOM     24  C   UNL A   1      39.786  33.374  32.730  1.00  0.00     0.012 C 
ATOM     25  C   UNL A   1      37.914  30.253  31.353  1.00  0.00    -0.064 C 
ATOM     26  C   UNL A   1      40.367  30.703  30.797  1.00  0.00     0.013 C 
ATOM     27  C   UNL A   1      39.804  30.472  33.148  1.00  0.00     0.017 C 
ATOM     28  C   UNL A   1      37.717  30.000  29.848  1.00  0.00     0.031 C 
ATOM     29  C   UNL A   1      40.102  30.144  29.382  1.00  0.00     0.018 C 
ATOM     30  C   UNL A   1      36.294  29.666  29.377  1.00  0.00     0.015 C 
ATOM     31  C   UNL A   1      36.071  29.853  27.853  1.00  0.00    -0.035 C 
ATOM     32  C   UNL A   1      38.638  29.080  27.644  1.00  0.00     0.018 C 
ATOM     33  C   UNL A   1      34.918  28.928  27.388  1.00  0.00     0.011 C 
ATOM     34  C   UNL A   1      35.542  31.279  27.559  1.00  0.00     0.011 C 
ATOM     35  C   UNL A   1      37.358  29.662  27.008  1.00  0.00     0.007 C 
BRANCH   8  36
ATOM     36  C   UNL A   1      32.716  35.840  31.309  1.00  0.00     0.309 C 
ATOM     37  O   UNL A   1      32.088  36.415  30.430  1.00  0.00    -0.252 OA
BRANCH  36  38
ATOM     38  O   UNL A   1      32.138  35.305  32.422  1.00  0.00    -0.469 OA
ATOM     39  C   UNL A   1      30.995  36.018  32.891  1.00  0.00     0.282 C 
ENDBRANCH  36  38
ENDBRANCH   8  36
ENDBRANCH   4   7
ENDBRANCH   2   3
ENDBRANCH   1   2
BRANCH   1  40
ATOM     40  C   UNL A   1      40.188  24.069  27.854  1.00  0.00     0.118 C 
BRANCH  40  41
ATOM     41  N   UNL A   1      41.105  23.119  27.223  1.00  0.00    -0.352 N 
ATOM     42  C   UNL A   1      42.382  23.229  26.728  1.00  0.00     0.251 C 
ATOM     43  H   UNL A   1      40.729  22.214  27.135  1.00  0.00     0.163 HD
ATOM     44  O   UNL A   1      42.934  22.222  26.281  1.00  0.00    -0.269 OA
BRANCH  42  45
ATOM     45  C   UNL A   1      43.083  24.533  26.637  1.00  0.00     0.039 A 
ATOM     46  C   UNL A   1      43.751  25.015  27.771  1.00  0.00     0.014 A 
ATOM     47  C   UNL A   1      43.127  25.272  25.461  1.00  0.00     0.014 A 
ATOM     48  C   UNL A   1      44.538  26.170  27.689  1.00  0.00     0.010 A 
ATOM     49  C   UNL A   1      44.001  26.348  25.347  1.00  0.00     0.010 A 
ATOM     50  C   UNL A   1      44.725  26.809  26.455  1.00  0.00    -0.014 A 
BRANCH  50  51
ATOM     51  C   UNL A   1      45.671  27.942  26.267  1.00  0.00     0.031 A 
ATOM     52  C   UNL A   1      47.140  27.672  26.061  1.00  0.00     0.074 A 
ATOM     53  C   UNL A   1      45.247  29.210  26.438  1.00  0.00     0.049 A 
ATOM     54  N   UNL A   1      48.154  28.496  26.134  1.00  0.00    -0.248 NA
ATOM     55  C   UNL A   1      47.523  26.273  25.809  1.00  0.00     0.031 C 
ATOM     56  C   UNL A   1      43.869  29.621  26.718  1.00  0.00     0.029 A 
ATOM     57  N   UNL A   1      45.946  30.392  26.426  1.00  0.00    -0.354 N 
ATOM     58  C   UNL A   1      49.291  27.705  26.024  1.00  0.00     0.074 A 
ATOM     59  C   UNL A   1      48.842  26.335  25.912  1.00  0.00     0.031 C 
ATOM     60  C   UNL A   1      43.818  30.958  26.820  1.00  0.00     0.029 A 
ATOM     61  C   UNL A   1      45.164  31.497  26.665  1.00  0.00     0.049 A 
ATOM     62  H   UNL A   1      46.915  30.444  26.262  1.00  0.00     0.167 HD
ATOM     63  C   UNL A   1      50.592  28.083  26.003  1.00  0.00     0.031 A 
ATOM     64  C   UNL A   1      45.492  32.798  26.763  1.00  0.00     0.031 A 
ATOM     65  C   UNL A   1      51.033  29.452  26.020  1.00  0.00     0.049 A 
ATOM     66  C   UNL A   1      46.928  33.208  26.608  1.00  0.00     0.074 A 
ATOM     67  C   UNL A   1      52.319  29.947  25.885  1.00  0.00     0.029 A 
ATOM     68  N   UNL A   1      50.193  30.546  26.155  1.00  0.00    -0.354 N 
ATOM     69  N   UNL A   1      47.988  32.452  26.454  1.00  0.00    -0.248 NA
ATOM     70  C   UNL A   1      47.211  34.650  26.632  1.00  0.00     0.031 C 
ATOM     71  C   UNL A   1      52.257  31.343  25.957  1.00  0.00     0.029 A 
ATOM     72  C   UNL A   1      50.931  31.716  26.103  1.00  0.00     0.049 A 
ATOM     73  H   UNL A   1      49.216  30.498  26.271  1.00  0.00     0.167 HD
ATOM     74  C   UNL A   1      49.061  33.326  26.343  1.00  0.00     0.074 A 
ATOM     75  C   UNL A   1      48.522  34.668  26.431  1.00  0.00     0.031 C 
ATOM     76  C   UNL A   1      50.376  33.041  26.187  1.00  0.00     0.031 A 
BRANCH  63  77
ATOM     77  C   UNL A   1      51.628  26.993  25.952  1.00  0.00    -0.014 A 
ATOM     78  C   UNL A   1      52.202  26.471  27.122  1.00  0.00     0.009 A 
ATOM     79  C   UNL A   1      52.036  26.479  24.710  1.00  0.00     0.009 A 
ATOM     80  C   UNL A   1      53.205  25.502  27.048  1.00  0.00     0.001 A 
ATOM     81  C   UNL A   1      53.014  25.484  24.641  1.00  0.00     0.001 A 
ATOM     82  C   UNL A   1      53.608  25.008  25.808  1.00  0.00     0.000 A 
ENDBRANCH  63  77
BRANCH  64  83
ATOM     83  C   UNL A   1      44.429  33.812  26.984  1.00  0.00    -0.014 A 
ATOM     84  C   UNL A   1      43.784  34.404  25.887  1.00  0.00     0.009 A 
ATOM     85  C   UNL A   1      44.037  34.173  28.281  1.00  0.00     0.009 A 
ATOM     86  C   UNL A   1      42.779  35.353  26.086  1.00  0.00     0.001 A 
ATOM     87  C   UNL A   1      43.016  35.105  28.477  1.00  0.00     0.001 A 
ATOM     88  C   UNL A   1      42.393  35.699  27.379  1.00  0.00     0.000 A 
ENDBRANCH  64  83
BRANCH  76  89
ATOM     89  C   UNL A   1      51.318  34.203  26.070  1.00  0.00    -0.014 A 
ATOM     90  C   UNL A   1      51.591  34.792  24.827  1.00  0.00     0.009 A 
ATOM     91  C   UNL A   1      51.903  34.743  27.226  1.00  0.00     0.009 A 
ATOM     92  C   UNL A   1      52.454  35.884  24.740  1.00  0.00     0.001 A 
ATOM     93  C   UNL A   1      52.748  35.848  27.139  1.00  0.00     0.001 A 
ATOM     94  C   UNL A   1      53.029  36.415  25.895  1.00  0.00     0.000 A 
ENDBRANCH  76  89
ENDBRANCH  50  51
ENDBRANCH  42  45
ENDBRANCH  40  41
ENDBRANCH   1  40
TORSDOF 12
ENDMDL
MODEL 3
REMARK VINA RESULT:     -11.6      4.403     12.089
REMARK SMILES COC(=O)[C@H]1CC[C@]2(C)[C@H]3CC=C4[C@@H]5CC(C)(C)CC[C@@]5(C(=O)NCCCNC(=O)c5ccc(-c6c7nc(c(-c8ccccc8)c8ccc([nH]8)c(-c8ccccc8)c8nc(c(-c9ccccc9)c9ccc6[nH]9)C=C8)C=C7)cc5)CC[C@@]4(C)[C@@]3(C)CC[C@H]2C1(C)C
REMARK SMILES IDX 26 1 25 2 24 3 22 4 23 5 21 7 5 8 6 9 88 10 7 11 87 12 89 13
REMARK SMILES IDX 90 14 8 15 86 16 9 17 10 18 85 19 11 20 83 21 12 22 81 23
REMARK SMILES IDX 84 24 13 25 80 26 82 27 14 28 79 29 15 30 16 31 20 32 17 33
REMARK SMILES IDX 18 34 19 35 3 36 4 37 2 38 1 39 27 40 28 41 29 42 30 44
REMARK SMILES IDX 31 45 32 46 78 47 33 48 77 49 34 50 35 51 36 52 71 53 37 54
REMARK SMILES IDX 76 55 70 56 72 57 38 58 75 59 69 60 68 61 39 63 61 64 46 65
REMARK SMILES IDX 60 66 47 67 50 68 59 69 73 70 48 71 49 72 58 74 74 75 51 76
REMARK SMILES IDX 40 77 41 78 45 79 42 80 44 81 43 82 62 83 63 84 67 85 64 86
REMARK SMILES IDX 66 87 65 88 52 89 53 90 57 91 54 92 56 93 55 94
REMARK H PARENT 24 6 28 43 72 62 50 73
REMARK Flexibility Score: inf
ROOT
ATOM      1  C   UNL A   1      46.789  33.395  26.138  1.00  0.00     0.042 C 
ENDROOT
BRANCH   1   2
ATOM      2  C   UNL A   1      46.047  32.150  26.618  1.00  0.00     0.117 C 
BRANCH   2   3
ATOM      3  N   UNL A   1      46.193  30.982  25.774  1.00  0.00    -0.356 N 
ATOM      4  C   UNL A   1      46.353  29.659  26.080  1.00  0.00     0.226 C 
ATOM      5  O   UNL A   1      46.698  28.944  25.133  1.00  0.00    -0.274 OA
ATOM      6  H   UNL A   1      46.174  31.176  24.809  1.00  0.00     0.163 HD
BRANCH   4   7
ATOM      7  C   UNL A   1      46.114  29.062  27.499  1.00  0.00     0.056 C 
ATOM      8  C   UNL A   1      39.472  28.514  32.316  1.00  0.00     0.105 C 
ATOM      9  C   UNL A   1      38.543  27.928  31.179  1.00  0.00     0.016 C 
ATOM     10  C   UNL A   1      40.962  28.889  31.920  1.00  0.00    -0.019 C 
ATOM     11  C   UNL A   1      39.152  27.437  29.838  1.00  0.00     0.008 C 
ATOM     12  C   UNL A   1      41.308  28.022  30.663  1.00  0.00     0.002 C 
ATOM     13  C   UNL A   1      41.265  30.400  31.702  1.00  0.00     0.012 C 
ATOM     14  C   UNL A   1      41.875  28.494  33.121  1.00  0.00     0.012 C 
ATOM     15  C   UNL A   1      40.382  28.285  29.421  1.00  0.00    -0.026 C 
ATOM     16  C   UNL A   1      42.761  27.929  30.287  1.00  0.00     0.005 C 
ATOM     17  C   UNL A   1      39.802  29.723  29.285  1.00  0.00     0.012 C 
ATOM     18  C   UNL A   1      40.989  27.839  27.968  1.00  0.00     0.006 C 
ATOM     19  C   UNL A   1      42.987  26.762  29.338  1.00  0.00     0.008 C 
ATOM     20  C   UNL A   1      41.126  29.046  26.933  1.00  0.00     0.032 C 
ATOM     21  C   UNL A   1      42.338  26.904  27.940  1.00  0.00    -0.020 C 
ATOM     22  C   UNL A   1      42.454  29.730  27.057  1.00  0.00    -0.027 C 
ATOM     23  C   UNL A   1      43.430  27.475  26.865  1.00  0.00    -0.006 C 
ATOM     24  C   UNL A   1      41.892  25.466  27.546  1.00  0.00     0.012 C 
ATOM     25  C   UNL A   1      43.552  28.969  27.212  1.00  0.00    -0.064 C 
ATOM     26  C   UNL A   1      44.859  26.817  26.781  1.00  0.00     0.013 C 
ATOM     27  C   UNL A   1      42.895  27.198  25.404  1.00  0.00     0.017 C 
ATOM     28  C   UNL A   1      44.746  29.409  28.079  1.00  0.00     0.031 C 
ATOM     29  C   UNL A   1      46.091  27.490  27.423  1.00  0.00     0.018 C 
ATOM     30  C   UNL A   1      44.635  30.771  28.780  1.00  0.00     0.015 C 
ATOM     31  C   UNL A   1      45.631  30.963  29.953  1.00  0.00    -0.035 C 
ATOM     32  C   UNL A   1      47.276  29.441  28.465  1.00  0.00     0.018 C 
ATOM     33  C   UNL A   1      45.903  32.475  30.151  1.00  0.00     0.011 C 
ATOM     34  C   UNL A   1      44.978  30.527  31.288  1.00  0.00     0.011 C 
ATOM     35  C   UNL A   1      46.940  30.142  29.799  1.00  0.00     0.007 C 
BRANCH   8  36
ATOM     36  C   UNL A   1      38.757  29.620  33.114  1.00  0.00     0.309 C 
ATOM     37  O   UNL A   1      38.732  29.710  34.334  1.00  0.00    -0.252 OA
BRANCH  36  38
ATOM     38  O   UNL A   1      38.092  30.471  32.282  1.00  0.00    -0.469 OA
ATOM     39  C   UNL A   1      36.716  30.658  32.609  1.00  0.00     0.282 C 
ENDBRANCH  36  38
ENDBRANCH   8  36
ENDBRANCH   4   7
ENDBRANCH   2   3
ENDBRANCH   1   2
BRANCH   1  40
ATOM     40  C   UNL A   1      46.348  34.707  26.797  1.00  0.00     0.118 C 
BRANCH  40  41
ATOM     41  N   UNL A   1      45.131  35.312  26.258  1.00  0.00    -0.352 N 
ATOM     42  C   UNL A   1      43.894  35.581  26.795  1.00  0.00     0.251 C 
ATOM     43  H   UNL A   1      45.214  35.584  25.316  1.00  0.00     0.163 HD
ATOM     44  O   UNL A   1      43.055  36.151  26.096  1.00  0.00    -0.269 OA
BRANCH  42  45
ATOM     45  C   UNL A   1      43.511  35.129  28.154  1.00  0.00     0.039 A 
ATOM     46  C   UNL A   1      43.529  36.062  29.201  1.00  0.00     0.014 A 
ATOM     47  C   UNL A   1      43.102  33.827  28.418  1.00  0.00     0.014 A 
ATOM     48  C   UNL A   1      43.044  35.714  30.467  1.00  0.00     0.010 A 
ATOM     49  C   UNL A   1      42.509  33.516  29.636  1.00  0.00     0.010 A 
ATOM     50  C   UNL A   1      42.464  34.455  30.676  1.00  0.00    -0.014 A 
BRANCH  50  51
ATOM     51  C   UNL A   1      41.788  34.078  31.948  1.00  0.00     0.031 A 
ATOM     52  C   UNL A   1      40.284  34.117  32.041  1.00  0.00     0.074 A 
ATOM     53  C   UNL A   1      42.518  33.857  33.059  1.00  0.00     0.049 A 
ATOM     54  N   UNL A   1      39.517  34.080  33.102  1.00  0.00    -0.248 NA
ATOM     55  C   UNL A   1      39.549  34.290  30.777  1.00  0.00     0.031 C 
ATOM     56  C   UNL A   1      43.980  33.862  33.138  1.00  0.00     0.029 A 
ATOM     57  N   UNL A   1      42.120  33.609  34.350  1.00  0.00    -0.354 N 
ATOM     58  C   UNL A   1      38.227  34.311  32.641  1.00  0.00     0.074 A 
ATOM     59  C   UNL A   1      38.320  34.519  31.213  1.00  0.00     0.031 C 
ATOM     60  C   UNL A   1      44.356  33.599  34.399  1.00  0.00     0.029 A 
ATOM     61  C   UNL A   1      43.166  33.457  35.229  1.00  0.00     0.049 A 
ATOM     62  H   UNL A   1      41.176  33.545  34.621  1.00  0.00     0.167 HD
ATOM     63  C   UNL A   1      37.066  34.335  33.339  1.00  0.00     0.031 A 
ATOM     64  C   UNL A   1      43.170  33.240  36.557  1.00  0.00     0.031 A 
ATOM     65  C   UNL A   1      36.963  34.036  34.742  1.00  0.00     0.049 A 
ATOM     66  C   UNL A   1      41.863  33.143  37.291  1.00  0.00     0.074 A 
ATOM     67  C   UNL A   1      35.824  33.918  35.520  1.00  0.00     0.029 A 
ATOM     68  N   UNL A   1      38.044  33.781  35.572  1.00  0.00    -0.354 N 
ATOM     69  N   UNL A   1      40.648  33.314  36.832  1.00  0.00    -0.248 NA
ATOM     70  C   UNL A   1      41.930  32.813  38.721  1.00  0.00     0.031 C 
ATOM     71  C   UNL A   1      36.219  33.609  36.826  1.00  0.00     0.029 A 
ATOM     72  C   UNL A   1      37.599  33.502  36.852  1.00  0.00     0.049 A 
ATOM     73  H   UNL A   1      38.988  33.796  35.291  1.00  0.00     0.167 HD
ATOM     74  C   UNL A   1      39.804  33.095  37.912  1.00  0.00     0.074 A 
ATOM     75  C   UNL A   1      40.645  32.762  39.044  1.00  0.00     0.031 C 
ATOM     76  C   UNL A   1      38.452  33.168  37.963  1.00  0.00     0.031 A 
BRANCH  63  77
ATOM     77  C   UNL A   1      35.813  34.692  32.585  1.00  0.00    -0.014 A 
ATOM     78  C   UNL A   1      35.344  33.900  31.525  1.00  0.00     0.009 A 
ATOM     79  C   UNL A   1      35.089  35.841  32.944  1.00  0.00     0.009 A 
ATOM     80  C   UNL A   1      34.212  34.283  30.802  1.00  0.00     0.001 A 
ATOM     81  C   UNL A   1      33.937  36.202  32.242  1.00  0.00     0.001 A 
ATOM     82  C   UNL A   1      33.509  35.431  31.162  1.00  0.00     0.000 A 
ENDBRANCH  63  77
BRANCH  64  83
ATOM     83  C   UNL A   1      44.460  33.064  37.271  1.00  0.00    -0.014 A 
ATOM     84  C   UNL A   1      45.045  31.791  37.362  1.00  0.00     0.009 A 
ATOM     85  C   UNL A   1      45.125  34.161  37.840  1.00  0.00     0.009 A 
ATOM     86  C   UNL A   1      46.261  31.618  38.026  1.00  0.00     0.001 A 
ATOM     87  C   UNL A   1      46.352  33.987  38.483  1.00  0.00     0.001 A 
ATOM     88  C   UNL A   1      46.916  32.715  38.581  1.00  0.00     0.000 A 
ENDBRANCH  64  83
BRANCH  76  89
ATOM     89  C   UNL A   1      37.799  32.851  39.276  1.00  0.00    -0.014 A 
ATOM     90  C   UNL A   1      37.203  31.602  39.506  1.00  0.00     0.009 A 
ATOM     91  C   UNL A   1      37.822  33.800  40.310  1.00  0.00     0.009 A 
ATOM     92  C   UNL A   1      36.618  31.319  40.741  1.00  0.00     0.001 A 
ATOM     93  C   UNL A   1      37.255  33.506  41.550  1.00  0.00     0.001 A 
ATOM     94  C   UNL A   1      36.648  32.268  41.763  1.00  0.00     0.000 A 
ENDBRANCH  76  89
ENDBRANCH  50  51
ENDBRANCH  42  45
ENDBRANCH  40  41
ENDBRANCH   1  40
TORSDOF 12
ENDMDL
