MODEL 1
REMARK VINA RESULT:     -11.3      0.000      0.000
REMARK SMILES C[C@H](NC(=O)c1ccncc1/C=C/C(=O)NCCCNC(=O)c1ccc(-c2c3nc(c(-c4ccccc4)c4ccc([nH]4)c(-c4ccccc4)c4nc(c(-c5ccccc5)c5ccc2[nH]5)C=C4)C=C3)cc1)c1ccco1
REMARK SMILES IDX 17 1 16 2 14 3 15 4 13 6 12 7 11 8 6 9 7 10 8 11 10 12 9 13
REMARK SMILES IDX 4 14 3 15 5 17 2 18 1 19 71 20 72 21 75 22 73 23 74 24 18 25
REMARK SMILES IDX 19 26 20 27 21 28 22 30 23 31 24 32 70 33 25 34 69 35 26 36
REMARK SMILES IDX 27 37 28 38 63 39 29 40 68 41 62 42 64 43 30 44 67 45 61 46
REMARK SMILES IDX 60 47 31 49 53 50 38 51 52 52 39 53 42 54 51 55 65 56 40 57
REMARK SMILES IDX 41 58 50 60 66 61 43 62 32 63 33 64 37 65 34 66 36 67 35 68
REMARK SMILES IDX 54 69 55 70 59 71 56 72 58 73 57 74 44 75 45 76 49 77 46 78
REMARK SMILES IDX 48 79 47 80
REMARK H PARENT 16 5 3 16 20 29 64 48 42 59
REMARK Flexibility Score: inf
ROOT
ATOM      1  C   UNL A   1      37.187  21.166  24.663  1.00  0.00     0.118 C 
ENDROOT
BRANCH   1   2
ATOM      2  N   UNL A   1      37.796  22.388  25.163  1.00  0.00    -0.352 N 
ATOM      3  C   UNL A   1      37.226  23.520  25.648  1.00  0.00     0.244 C 
ATOM      4  O   UNL A   1      37.938  24.424  26.079  1.00  0.00    -0.270 OA
ATOM      5  H   UNL A   1      38.780  22.394  25.148  1.00  0.00     0.163 HD
BRANCH   3   6
ATOM      6  C   UNL A   1      35.756  23.640  25.766  1.00  0.00     0.072 C 
ATOM      7  C   UNL A   1      34.956  24.313  24.923  1.00  0.00     0.016 C 
BRANCH   7   8
ATOM      8  C   UNL A   1      33.492  24.352  25.077  1.00  0.00     0.006 A 
ATOM      9  C   UNL A   1      32.613  24.710  24.044  1.00  0.00     0.050 A 
ATOM     10  C   UNL A   1      31.227  24.657  24.235  1.00  0.00     0.034 A 
ATOM     11  C   UNL A   1      30.753  24.341  25.491  1.00  0.00     0.112 A 
ATOM     12  C   UNL A   1      32.893  24.066  26.303  1.00  0.00     0.119 A 
ATOM     13  N   UNL A   1      31.557  24.066  26.535  1.00  0.00    -0.264 NA
BRANCH   9  14
ATOM     14  C   UNL A   1      33.096  25.114  22.703  1.00  0.00     0.252 C 
ATOM     15  N   UNL A   1      33.115  26.448  22.377  1.00  0.00    -0.342 N 
ATOM     16  H   UNL A   1      33.243  26.653  21.423  1.00  0.00     0.164 HD
ATOM     17  O   UNL A   1      33.463  24.263  21.900  1.00  0.00    -0.269 OA
BRANCH  15  18
ATOM     18  C   UNL A   1      32.969  27.599  23.259  1.00  0.00     0.145 C 
ATOM     19  C   UNL A   1      34.033  28.649  22.963  1.00  0.00     0.039 C 
BRANCH  18  20
ATOM     20  C   UNL A   1      31.591  28.153  23.111  1.00  0.00     0.125 A 
ATOM     21  C   UNL A   1      30.464  27.693  22.461  1.00  0.00     0.048 A 
ATOM     22  O   UNL A   1      31.317  29.339  23.730  1.00  0.00    -0.467 OA
ATOM     23  C   UNL A   1      29.441  28.638  22.712  1.00  0.00     0.042 A 
ATOM     24  C   UNL A   1      30.011  29.621  23.487  1.00  0.00     0.195 A 
ENDBRANCH  18  20
ENDBRANCH  15  18
ENDBRANCH   9  14
ENDBRANCH   7   8
ENDBRANCH   3   6
ENDBRANCH   1   2
BRANCH   1  25
ATOM     25  C   UNL A   1      38.084  19.964  24.940  1.00  0.00     0.042 C 
BRANCH  25  26
ATOM     26  C   UNL A   1      39.219  20.290  25.905  1.00  0.00     0.118 C 
BRANCH  26  27
ATOM     27  N   UNL A   1      40.263  19.271  25.887  1.00  0.00    -0.352 N 
ATOM     28  C   UNL A   1      41.623  19.410  26.013  1.00  0.00     0.251 C 
ATOM     29  H   UNL A   1      39.945  18.347  25.765  1.00  0.00     0.163 HD
ATOM     30  O   UNL A   1      42.369  18.473  25.757  1.00  0.00    -0.269 OA
BRANCH  28  31
ATOM     31  C   UNL A   1      42.185  20.701  26.454  1.00  0.00     0.039 A 
ATOM     32  C   UNL A   1      42.617  21.621  25.496  1.00  0.00     0.014 A 
ATOM     33  C   UNL A   1      42.291  20.993  27.816  1.00  0.00     0.014 A 
ATOM     34  C   UNL A   1      43.100  22.865  25.903  1.00  0.00     0.010 A 
ATOM     35  C   UNL A   1      42.695  22.260  28.215  1.00  0.00     0.010 A 
ATOM     36  C   UNL A   1      43.112  23.205  27.265  1.00  0.00    -0.014 A 
BRANCH  36  37
ATOM     37  C   UNL A   1      43.572  24.531  27.742  1.00  0.00     0.031 A 
ATOM     38  C   UNL A   1      42.558  25.577  28.109  1.00  0.00     0.074 A 
ATOM     39  C   UNL A   1      44.883  24.830  27.735  1.00  0.00     0.049 A 
ATOM     40  N   UNL A   1      42.737  26.843  28.384  1.00  0.00    -0.248 NA
ATOM     41  C   UNL A   1      41.151  25.147  28.129  1.00  0.00     0.031 C 
ATOM     42  C   UNL A   1      45.962  23.910  27.370  1.00  0.00     0.029 A 
ATOM     43  N   UNL A   1      45.530  26.008  28.015  1.00  0.00    -0.354 N 
ATOM     44  C   UNL A   1      41.464  27.366  28.578  1.00  0.00     0.074 A 
ATOM     45  C   UNL A   1      40.524  26.294  28.337  1.00  0.00     0.031 C 
ATOM     46  C   UNL A   1      47.135  24.557  27.451  1.00  0.00     0.029 A 
ATOM     47  C   UNL A   1      46.888  25.947  27.821  1.00  0.00     0.049 A 
ATOM     48  H   UNL A   1      45.064  26.818  28.325  1.00  0.00     0.167 HD
ATOM     49  C   UNL A   1      41.111  28.622  28.939  1.00  0.00     0.031 A 
ATOM     50  C   UNL A   1      47.827  26.908  27.904  1.00  0.00     0.031 A 
ATOM     51  C   UNL A   1      42.054  29.683  29.174  1.00  0.00     0.049 A 
ATOM     52  C   UNL A   1      47.417  28.304  28.281  1.00  0.00     0.074 A 
ATOM     53  C   UNL A   1      41.808  30.977  29.595  1.00  0.00     0.029 A 
ATOM     54  N   UNL A   1      43.425  29.570  28.997  1.00  0.00    -0.354 N 
ATOM     55  N   UNL A   1      46.217  28.773  28.524  1.00  0.00    -0.248 NA
ATOM     56  C   UNL A   1      48.489  29.302  28.405  1.00  0.00     0.031 C 
ATOM     57  C   UNL A   1      43.025  31.666  29.612  1.00  0.00     0.029 A 
ATOM     58  C   UNL A   1      44.037  30.781  29.274  1.00  0.00     0.049 A 
ATOM     59  H   UNL A   1      43.894  28.752  28.717  1.00  0.00     0.167 HD
ATOM     60  C   UNL A   1      46.391  30.109  28.862  1.00  0.00     0.074 A 
ATOM     61  C   UNL A   1      47.813  30.376  28.794  1.00  0.00     0.031 C 
ATOM     62  C   UNL A   1      45.456  31.028  29.206  1.00  0.00     0.031 A 
BRANCH  49  63
ATOM     63  C   UNL A   1      39.640  28.913  29.065  1.00  0.00    -0.014 A 
ATOM     64  C   UNL A   1      38.951  28.705  30.271  1.00  0.00     0.009 A 
ATOM     65  C   UNL A   1      38.928  29.394  27.955  1.00  0.00     0.009 A 
ATOM     66  C   UNL A   1      37.571  28.911  30.345  1.00  0.00     0.001 A 
ATOM     67  C   UNL A   1      37.556  29.637  28.043  1.00  0.00     0.001 A 
ATOM     68  C   UNL A   1      36.876  29.378  29.232  1.00  0.00     0.000 A 
ENDBRANCH  49  63
BRANCH  50  69
ATOM     69  C   UNL A   1      49.246  26.570  27.620  1.00  0.00    -0.014 A 
ATOM     70  C   UNL A   1      50.106  26.175  28.655  1.00  0.00     0.009 A 
ATOM     71  C   UNL A   1      49.735  26.594  26.304  1.00  0.00     0.009 A 
ATOM     72  C   UNL A   1      51.431  25.825  28.379  1.00  0.00     0.001 A 
ATOM     73  C   UNL A   1      51.050  26.215  26.027  1.00  0.00     0.001 A 
ATOM     74  C   UNL A   1      51.899  25.838  27.065  1.00  0.00     0.000 A 
ENDBRANCH  50  69
BRANCH  62  75
ATOM     75  C   UNL A   1      45.931  32.401  29.588  1.00  0.00    -0.014 A 
ATOM     76  C   UNL A   1      46.013  33.439  28.648  1.00  0.00     0.009 A 
ATOM     77  C   UNL A   1      46.210  32.681  30.936  1.00  0.00     0.009 A 
ATOM     78  C   UNL A   1      46.379  34.726  29.050  1.00  0.00     0.001 A 
ATOM     79  C   UNL A   1      46.547  33.973  31.339  1.00  0.00     0.001 A 
ATOM     80  C   UNL A   1      46.634  34.994  30.394  1.00  0.00     0.000 A 
ENDBRANCH  62  75
ENDBRANCH  36  37
ENDBRANCH  28  31
ENDBRANCH  26  27
ENDBRANCH  25  26
ENDBRANCH   1  25
TORSDOF 14
ENDMDL
MODEL 2
REMARK VINA RESULT:     -11.3      4.781      9.437
REMARK SMILES C[C@H](NC(=O)c1ccncc1/C=C/C(=O)NCCCNC(=O)c1ccc(-c2c3nc(c(-c4ccccc4)c4ccc([nH]4)c(-c4ccccc4)c4nc(c(-c5ccccc5)c5ccc2[nH]5)C=C4)C=C3)cc1)c1ccco1
REMARK SMILES IDX 17 1 16 2 14 3 15 4 13 6 12 7 11 8 6 9 7 10 8 11 10 12 9 13
REMARK SMILES IDX 4 14 3 15 5 17 2 18 1 19 71 20 72 21 75 22 73 23 74 24 18 25
REMARK SMILES IDX 19 26 20 27 21 28 22 30 23 31 24 32 70 33 25 34 69 35 26 36
REMARK SMILES IDX 27 37 28 38 63 39 29 40 68 41 62 42 64 43 30 44 67 45 61 46
REMARK SMILES IDX 60 47 31 49 53 50 38 51 52 52 39 53 42 54 51 55 65 56 40 57
REMARK SMILES IDX 41 58 50 60 66 61 43 62 32 63 33 64 37 65 34 66 36 67 35 68
REMARK SMILES IDX 54 69 55 70 59 71 56 72 58 73 57 74 44 75 45 76 49 77 46 78
REMARK SMILES IDX 48 79 47 80
REMARK H PARENT 16 5 3 16 20 29 64 48 42 59
REMARK Flexibility Score: inf
ROOT
ATOM      1  C   UNL A   1      32.001  30.103  27.172  1.00  0.00     0.118 C 
ENDROOT
BRANCH   1   2
ATOM      2  N   UNL A   1      33.398  29.917  27.528  1.00  0.00    -0.352 N 
ATOM      3  C   UNL A   1      34.256  28.911  27.224  1.00  0.00     0.244 C 
ATOM      4  O   UNL A   1      35.430  28.981  27.583  1.00  0.00    -0.270 OA
ATOM      5  H   UNL A   1      33.783  30.637  28.077  1.00  0.00     0.163 HD
BRANCH   3   6
ATOM      6  C   UNL A   1      33.829  27.778  26.375  1.00  0.00     0.072 C 
ATOM      7  C   UNL A   1      34.217  27.559  25.108  1.00  0.00     0.016 C 
BRANCH   7   8
ATOM      8  C   UNL A   1      33.786  26.381  24.336  1.00  0.00     0.006 A 
ATOM      9  C   UNL A   1      33.304  26.451  23.020  1.00  0.00     0.050 A 
ATOM     10  C   UNL A   1      32.978  25.285  22.316  1.00  0.00     0.034 A 
ATOM     11  C   UNL A   1      33.048  24.080  22.983  1.00  0.00     0.112 A 
ATOM     12  C   UNL A   1      33.797  25.108  24.904  1.00  0.00     0.119 A 
ATOM     13  N   UNL A   1      33.430  23.969  24.268  1.00  0.00    -0.264 NA
BRANCH   9  14
ATOM     14  C   UNL A   1      33.159  27.738  22.301  1.00  0.00     0.252 C 
ATOM     15  N   UNL A   1      31.915  28.315  22.214  1.00  0.00    -0.342 N 
ATOM     16  H   UNL A   1      31.828  29.048  21.563  1.00  0.00     0.164 HD
ATOM     17  O   UNL A   1      34.137  28.269  21.787  1.00  0.00    -0.269 OA
BRANCH  15  18
ATOM     18  C   UNL A   1      30.708  27.982  22.960  1.00  0.00     0.145 C 
ATOM     19  C   UNL A   1      30.935  28.138  24.459  1.00  0.00     0.039 C 
BRANCH  18  20
ATOM     20  C   UNL A   1      29.588  28.844  22.480  1.00  0.00     0.125 A 
ATOM     21  C   UNL A   1      28.248  28.901  22.804  1.00  0.00     0.048 A 
ATOM     22  O   UNL A   1      29.881  29.799  21.548  1.00  0.00    -0.467 OA
ATOM     23  C   UNL A   1      27.696  29.960  22.044  1.00  0.00     0.042 A 
ATOM     24  C   UNL A   1      28.730  30.473  21.295  1.00  0.00     0.195 A 
ENDBRANCH  18  20
ENDBRANCH  15  18
ENDBRANCH   9  14
ENDBRANCH   7   8
ENDBRANCH   3   6
ENDBRANCH   1   2
BRANCH   1  25
ATOM     25  C   UNL A   1      31.723  31.562  26.827  1.00  0.00     0.042 C 
BRANCH  25  26
ATOM     26  C   UNL A   1      32.944  32.455  27.023  1.00  0.00     0.118 C 
BRANCH  26  27
ATOM     27  N   UNL A   1      32.582  33.775  27.526  1.00  0.00    -0.352 N 
ATOM     28  C   UNL A   1      33.113  34.488  28.572  1.00  0.00     0.251 C 
ATOM     29  H   UNL A   1      31.848  34.221  27.044  1.00  0.00     0.163 HD
ATOM     30  O   UNL A   1      32.545  35.488  28.994  1.00  0.00    -0.269 OA
BRANCH  28  31
ATOM     31  C   UNL A   1      34.373  34.037  29.194  1.00  0.00     0.039 A 
ATOM     32  C   UNL A   1      34.322  33.251  30.349  1.00  0.00     0.014 A 
ATOM     33  C   UNL A   1      35.601  34.401  28.638  1.00  0.00     0.014 A 
ATOM     34  C   UNL A   1      35.507  32.778  30.913  1.00  0.00     0.010 A 
ATOM     35  C   UNL A   1      36.773  33.863  29.153  1.00  0.00     0.010 A 
ATOM     36  C   UNL A   1      36.739  33.054  30.299  1.00  0.00    -0.014 A 
BRANCH  36  37
ATOM     37  C   UNL A   1      38.019  32.533  30.835  1.00  0.00     0.031 A 
ATOM     38  C   UNL A   1      38.632  31.305  30.223  1.00  0.00     0.074 A 
ATOM     39  C   UNL A   1      38.566  33.090  31.931  1.00  0.00     0.049 A 
ATOM     40  N   UNL A   1      39.645  30.590  30.639  1.00  0.00    -0.248 NA
ATOM     41  C   UNL A   1      37.990  30.792  29.002  1.00  0.00     0.031 C 
ATOM     42  C   UNL A   1      38.049  34.265  32.633  1.00  0.00     0.029 A 
ATOM     43  N   UNL A   1      39.664  32.717  32.666  1.00  0.00    -0.354 N 
ATOM     44  C   UNL A   1      39.741  29.527  29.749  1.00  0.00     0.074 A 
ATOM     45  C   UNL A   1      38.653  29.662  28.807  1.00  0.00     0.031 C 
ATOM     46  C   UNL A   1      38.829  34.519  33.695  1.00  0.00     0.029 A 
ATOM     47  C   UNL A   1      39.868  33.496  33.779  1.00  0.00     0.049 A 
ATOM     48  H   UNL A   1      40.248  31.964  32.420  1.00  0.00     0.167 HD
ATOM     49  C   UNL A   1      40.662  28.535  29.713  1.00  0.00     0.031 A 
ATOM     50  C   UNL A   1      40.770  33.384  34.771  1.00  0.00     0.031 A 
ATOM     51  C   UNL A   1      41.740  28.407  30.657  1.00  0.00     0.049 A 
ATOM     52  C   UNL A   1      41.771  32.263  34.730  1.00  0.00     0.074 A 
ATOM     53  C   UNL A   1      42.759  27.473  30.679  1.00  0.00     0.029 A 
ATOM     54  N   UNL A   1      41.930  29.237  31.751  1.00  0.00    -0.354 N 
ATOM     55  N   UNL A   1      41.892  31.299  33.849  1.00  0.00    -0.248 NA
ATOM     56  C   UNL A   1      42.764  32.218  35.812  1.00  0.00     0.031 C 
ATOM     57  C   UNL A   1      43.529  27.699  31.824  1.00  0.00     0.029 A 
ATOM     58  C   UNL A   1      43.034  28.819  32.474  1.00  0.00     0.049 A 
ATOM     59  H   UNL A   1      41.363  30.009  31.981  1.00  0.00     0.167 HD
ATOM     60  C   UNL A   1      42.993  30.553  34.250  1.00  0.00     0.074 A 
ATOM     61  C   UNL A   1      43.505  31.177  35.453  1.00  0.00     0.031 C 
ATOM     62  C   UNL A   1      43.534  29.455  33.667  1.00  0.00     0.031 A 
BRANCH  49  63
ATOM     63  C   UNL A   1      40.512  27.499  28.632  1.00  0.00    -0.014 A 
ATOM     64  C   UNL A   1      41.122  27.654  27.376  1.00  0.00     0.009 A 
ATOM     65  C   UNL A   1      39.740  26.351  28.869  1.00  0.00     0.009 A 
ATOM     66  C   UNL A   1      40.909  26.717  26.362  1.00  0.00     0.001 A 
ATOM     67  C   UNL A   1      39.561  25.395  27.868  1.00  0.00     0.001 A 
ATOM     68  C   UNL A   1      40.131  25.588  26.611  1.00  0.00     0.000 A 
ENDBRANCH  49  63
BRANCH  50  69
ATOM     69  C   UNL A   1      40.758  34.369  35.884  1.00  0.00    -0.014 A 
ATOM     70  C   UNL A   1      41.518  35.545  35.805  1.00  0.00     0.009 A 
ATOM     71  C   UNL A   1      39.949  34.158  37.012  1.00  0.00     0.009 A 
ATOM     72  C   UNL A   1      41.477  36.484  36.839  1.00  0.00     0.001 A 
ATOM     73  C   UNL A   1      39.888  35.112  38.030  1.00  0.00     0.001 A 
ATOM     74  C   UNL A   1      40.657  36.270  37.946  1.00  0.00     0.000 A 
ENDBRANCH  50  69
BRANCH  62  75
ATOM     75  C   UNL A   1      44.777  28.876  34.283  1.00  0.00    -0.014 A 
ATOM     76  C   UNL A   1      44.714  27.844  35.232  1.00  0.00     0.009 A 
ATOM     77  C   UNL A   1      46.034  29.311  33.832  1.00  0.00     0.009 A 
ATOM     78  C   UNL A   1      45.888  27.269  35.725  1.00  0.00     0.001 A 
ATOM     79  C   UNL A   1      47.203  28.715  34.304  1.00  0.00     0.001 A 
ATOM     80  C   UNL A   1      47.129  27.697  35.253  1.00  0.00     0.000 A 
ENDBRANCH  62  75
ENDBRANCH  36  37
ENDBRANCH  28  31
ENDBRANCH  26  27
ENDBRANCH  25  26
ENDBRANCH   1  25
TORSDOF 14
ENDMDL
MODEL 3
REMARK VINA RESULT:     -11.2      5.148     10.209
REMARK SMILES C[C@H](NC(=O)c1ccncc1/C=C/C(=O)NCCCNC(=O)c1ccc(-c2c3nc(c(-c4ccccc4)c4ccc([nH]4)c(-c4ccccc4)c4nc(c(-c5ccccc5)c5ccc2[nH]5)C=C4)C=C3)cc1)c1ccco1
REMARK SMILES IDX 17 1 16 2 14 3 15 4 13 6 12 7 11 8 6 9 7 10 8 11 10 12 9 13
REMARK SMILES IDX 4 14 3 15 5 17 2 18 1 19 71 20 72 21 75 22 73 23 74 24 18 25
REMARK SMILES IDX 19 26 20 27 21 28 22 30 23 31 24 32 70 33 25 34 69 35 26 36
REMARK SMILES IDX 27 37 28 38 63 39 29 40 68 41 62 42 64 43 30 44 67 45 61 46
REMARK SMILES IDX 60 47 31 49 53 50 38 51 52 52 39 53 42 54 51 55 65 56 40 57
REMARK SMILES IDX 41 58 50 60 66 61 43 62 32 63 33 64 37 65 34 66 36 67 35 68
REMARK SMILES IDX 54 69 55 70 59 71 56 72 58 73 57 74 44 75 45 76 49 77 46 78
REMARK SMILES IDX 48 79 47 80
REMARK H PARENT 16 5 3 16 20 29 64 48 42 59
REMARK Flexibility Score: inf
ROOT
ATOM      1  C   UNL A   1      31.748  30.429  26.667  1.00  0.00     0.118 C 
ENDROOT
BRANCH   1   2
ATOM      2  N   UNL A   1      33.058  30.056  27.174  1.00  0.00    -0.352 N 
ATOM      3  C   UNL A   1      33.971  29.177  26.689  1.00  0.00     0.244 C 
ATOM      4  O   UNL A   1      35.057  29.054  27.250  1.00  0.00    -0.270 OA
ATOM      5  H   UNL A   1      33.326  30.516  28.002  1.00  0.00     0.163 HD
BRANCH   3   6
ATOM      6  C   UNL A   1      33.722  28.439  25.431  1.00  0.00     0.072 C 
ATOM      7  C   UNL A   1      33.585  27.108  25.318  1.00  0.00     0.016 C 
BRANCH   7   8
ATOM      8  C   UNL A   1      33.291  26.445  24.037  1.00  0.00     0.006 A 
ATOM      9  C   UNL A   1      32.461  25.320  23.918  1.00  0.00     0.050 A 
ATOM     10  C   UNL A   1      32.165  24.780  22.661  1.00  0.00     0.034 A 
ATOM     11  C   UNL A   1      32.789  25.320  21.556  1.00  0.00     0.112 A 
ATOM     12  C   UNL A   1      33.872  26.890  22.850  1.00  0.00     0.119 A 
ATOM     13  N   UNL A   1      33.652  26.349  21.626  1.00  0.00    -0.264 NA
BRANCH   9  14
ATOM     14  C   UNL A   1      31.829  24.680  25.095  1.00  0.00     0.252 C 
ATOM     15  N   UNL A   1      32.412  23.562  25.639  1.00  0.00    -0.342 N 
ATOM     16  H   UNL A   1      31.858  23.057  26.277  1.00  0.00     0.164 HD
ATOM     17  O   UNL A   1      30.794  25.143  25.565  1.00  0.00    -0.269 OA
BRANCH  15  18
ATOM     18  C   UNL A   1      33.746  23.026  25.395  1.00  0.00     0.145 C 
ATOM     19  C   UNL A   1      34.647  23.237  26.606  1.00  0.00     0.039 C 
BRANCH  18  20
ATOM     20  C   UNL A   1      33.630  21.582  25.038  1.00  0.00     0.125 A 
ATOM     21  C   UNL A   1      34.549  20.552  25.000  1.00  0.00     0.048 A 
ATOM     22  O   UNL A   1      32.395  21.114  24.689  1.00  0.00    -0.467 OA
ATOM     23  C   UNL A   1      33.834  19.390  24.626  1.00  0.00     0.042 A 
ATOM     24  C   UNL A   1      32.529  19.785  24.447  1.00  0.00     0.195 A 
ENDBRANCH  18  20
ENDBRANCH  15  18
ENDBRANCH   9  14
ENDBRANCH   7   8
ENDBRANCH   3   6
ENDBRANCH   1   2
BRANCH   1  25
ATOM     25  C   UNL A   1      31.545  31.939  26.756  1.00  0.00     0.042 C 
BRANCH  25  26
ATOM     26  C   UNL A   1      32.789  32.669  27.251  1.00  0.00     0.118 C 
BRANCH  26  27
ATOM     27  N   UNL A   1      32.501  34.049  27.625  1.00  0.00    -0.352 N 
ATOM     28  C   UNL A   1      33.040  34.814  28.629  1.00  0.00     0.251 C 
ATOM     29  H   UNL A   1      31.820  34.500  27.075  1.00  0.00     0.163 HD
ATOM     30  O   UNL A   1      32.528  35.883  28.939  1.00  0.00    -0.269 OA
BRANCH  28  31
ATOM     31  C   UNL A   1      34.241  34.337  29.343  1.00  0.00     0.039 A 
ATOM     32  C   UNL A   1      34.090  33.652  30.551  1.00  0.00     0.014 A 
ATOM     33  C   UNL A   1      35.512  34.577  28.818  1.00  0.00     0.014 A 
ATOM     34  C   UNL A   1      35.217  33.152  31.205  1.00  0.00     0.010 A 
ATOM     35  C   UNL A   1      36.624  34.010  29.427  1.00  0.00     0.010 A 
ATOM     36  C   UNL A   1      36.489  33.300  30.630  1.00  0.00    -0.014 A 
BRANCH  36  37
ATOM     37  C   UNL A   1      37.709  32.745  31.263  1.00  0.00     0.031 A 
ATOM     38  C   UNL A   1      38.386  31.553  30.646  1.00  0.00     0.074 A 
ATOM     39  C   UNL A   1      38.137  33.233  32.441  1.00  0.00     0.049 A 
ATOM     40  N   UNL A   1      39.353  30.812  31.122  1.00  0.00    -0.248 NA
ATOM     41  C   UNL A   1      37.876  31.116  29.337  1.00  0.00     0.031 C 
ATOM     42  C   UNL A   1      37.545  34.366  33.155  1.00  0.00     0.029 A 
ATOM     43  N   UNL A   1      39.154  32.815  33.263  1.00  0.00    -0.354 N 
ATOM     44  C   UNL A   1      39.545  29.805  30.185  1.00  0.00     0.074 A 
ATOM     45  C   UNL A   1      38.560  29.999  29.145  1.00  0.00     0.031 C 
ATOM     46  C   UNL A   1      38.211  34.554  34.305  1.00  0.00     0.029 A 
ATOM     47  C   UNL A   1      39.238  33.525  34.435  1.00  0.00     0.049 A 
ATOM     48  H   UNL A   1      39.763  32.076  33.034  1.00  0.00     0.167 HD
ATOM     49  C   UNL A   1      40.468  28.814  30.185  1.00  0.00     0.031 A 
ATOM     50  C   UNL A   1      40.034  33.352  35.507  1.00  0.00     0.031 A 
ATOM     51  C   UNL A   1      41.443  28.627  31.226  1.00  0.00     0.049 A 
ATOM     52  C   UNL A   1      41.037  32.233  35.503  1.00  0.00     0.074 A 
ATOM     53  C   UNL A   1      42.457  27.690  31.298  1.00  0.00     0.029 A 
ATOM     54  N   UNL A   1      41.515  29.390  32.382  1.00  0.00    -0.354 N 
ATOM     55  N   UNL A   1      41.253  31.323  34.584  1.00  0.00    -0.248 NA
ATOM     56  C   UNL A   1      41.913  32.121  36.678  1.00  0.00     0.031 C 
ATOM     57  C   UNL A   1      43.104  27.845  32.529  1.00  0.00     0.029 A 
ATOM     58  C   UNL A   1      42.540  28.927  33.189  1.00  0.00     0.049 A 
ATOM     59  H   UNL A   1      40.925  30.148  32.597  1.00  0.00     0.167 HD
ATOM     60  C   UNL A   1      42.309  30.551  35.051  1.00  0.00     0.074 A 
ATOM     61  C   UNL A   1      42.691  31.102  36.336  1.00  0.00     0.031 C 
ATOM     62  C   UNL A   1      42.911  29.489  34.464  1.00  0.00     0.031 A 
BRANCH  49  63
ATOM     63  C   UNL A   1      40.435  27.844  29.034  1.00  0.00    -0.014 A 
ATOM     64  C   UNL A   1      41.146  28.088  27.847  1.00  0.00     0.009 A 
ATOM     65  C   UNL A   1      39.671  26.671  29.134  1.00  0.00     0.009 A 
ATOM     66  C   UNL A   1      41.042  27.212  26.765  1.00  0.00     0.001 A 
ATOM     67  C   UNL A   1      39.600  25.776  28.065  1.00  0.00     0.001 A 
ATOM     68  C   UNL A   1      40.271  26.056  26.876  1.00  0.00     0.000 A 
ENDBRANCH  49  63
BRANCH  50  69
ATOM     69  C   UNL A   1      39.903  34.268  36.669  1.00  0.00    -0.014 A 
ATOM     70  C   UNL A   1      40.563  35.506  36.682  1.00  0.00     0.009 A 
ATOM     71  C   UNL A   1      39.078  33.930  37.754  1.00  0.00     0.009 A 
ATOM     72  C   UNL A   1      40.411  36.379  37.762  1.00  0.00     0.001 A 
ATOM     73  C   UNL A   1      38.903  34.817  38.818  1.00  0.00     0.001 A 
ATOM     74  C   UNL A   1      39.575  36.037  38.825  1.00  0.00     0.000 A 
ENDBRANCH  50  69
BRANCH  62  75
ATOM     75  C   UNL A   1      44.085  28.871  35.169  1.00  0.00    -0.014 A 
ATOM     76  C   UNL A   1      43.928  27.788  36.048  1.00  0.00     0.009 A 
ATOM     77  C   UNL A   1      45.381  29.324  34.873  1.00  0.00     0.009 A 
ATOM     78  C   UNL A   1      45.046  27.182  36.625  1.00  0.00     0.001 A 
ATOM     79  C   UNL A   1      46.497  28.697  35.428  1.00  0.00     0.001 A 
ATOM     80  C   UNL A   1      46.328  27.629  36.306  1.00  0.00     0.000 A 
ENDBRANCH  62  75
ENDBRANCH  36  37
ENDBRANCH  28  31
ENDBRANCH  26  27
ENDBRANCH  25  26
ENDBRANCH   1  25
TORSDOF 14
ENDMDL
