MODEL 1
REMARK VINA RESULT:     -11.2      0.000      0.000
REMARK SMILES Cc1cc(C[NH+]2C[C@@H](C)[C@H](C)C2)oc1C(=O)NCCCNC(=O)c1ccc(-c2c3nc(c(-c4ccccc4)c4ccc([nH]4)c(-c4ccccc4)c4nc(c(-c5ccccc5)c5ccc2[nH]5)C=C4)C=C3)cc1
REMARK SMILES IDX 19 1 18 2 17 3 15 4 16 5 14 7 1 8 2 9 3 10 4 11 13 12 5 13
REMARK SMILES IDX 6 14 7 15 12 16 8 18 10 19 9 20 11 21 20 22 21 23 22 24
REMARK SMILES IDX 23 26 24 27 25 28 71 29 26 30 70 31 27 32 28 33 29 34 64 35
REMARK SMILES IDX 30 36 69 37 63 38 65 39 31 40 68 41 62 42 61 43 32 45 54 46
REMARK SMILES IDX 39 47 53 48 40 49 43 50 52 51 66 52 41 53 42 54 51 56 67 57
REMARK SMILES IDX 44 58 33 59 34 60 38 61 35 62 37 63 36 64 55 65 56 66 60 67
REMARK SMILES IDX 57 68 59 69 58 70 45 71 46 72 50 73 47 74 49 75 48 76
REMARK H PARENT 17 6 6 17 21 25 65 44 43 55
REMARK Flexibility Score: inf
ROOT
ATOM      1  C   UNL A   1      36.081  23.825  25.788  1.00  0.00     0.042 C 
ENDROOT
BRANCH   1   2
ATOM      2  C   UNL A   1      35.466  22.624  26.486  1.00  0.00     0.118 C 
BRANCH   2   3
ATOM      3  N   UNL A   1      34.205  22.897  27.131  1.00  0.00    -0.349 N 
ATOM      4  C   UNL A   1      32.921  22.829  26.638  1.00  0.00     0.287 C 
ATOM      5  O   UNL A   1      32.053  23.229  27.416  1.00  0.00    -0.266 OA
ATOM      6  H   UNL A   1      34.274  23.177  28.071  1.00  0.00     0.163 HD
BRANCH   4   7
ATOM      7  C   UNL A   1      32.614  22.353  25.295  1.00  0.00     0.194 A 
ATOM      8  C   UNL A   1      31.854  24.274  23.662  1.00  0.00     0.049 C 
ATOM      9  C   UNL A   1      32.202  22.890  24.072  1.00  0.00     0.001 A 
ATOM     10  C   UNL A   1      32.178  21.804  23.149  1.00  0.00     0.056 A 
ATOM     11  C   UNL A   1      32.509  20.669  23.843  1.00  0.00     0.159 A 
ATOM     12  O   UNL A   1      32.804  20.997  25.125  1.00  0.00    -0.450 OA
BRANCH  11  13
ATOM     13  C   UNL A   1      32.584  19.226  23.472  1.00  0.00     0.338 C 
BRANCH  13  14
ATOM     14  N   UNL A   1      33.096  18.348  24.529  1.00  0.00    -0.328 N 
ATOM     15  C   UNL A   1      32.196  17.255  24.898  1.00  0.00     0.266 C 
ATOM     16  C   UNL A   1      34.444  17.812  24.323  1.00  0.00     0.266 C 
ATOM     17  H   UNL A   1      33.153  19.006  25.307  1.00  0.00     0.348 HD
ATOM     18  C   UNL A   1      33.126  16.272  25.603  1.00  0.00     0.049 C 
ATOM     19  C   UNL A   1      34.366  16.333  24.711  1.00  0.00     0.049 C 
ATOM     20  C   UNL A   1      32.518  14.882  25.723  1.00  0.00     0.014 C 
ATOM     21  C   UNL A   1      35.641  15.828  25.366  1.00  0.00     0.014 C 
ENDBRANCH  13  14
ENDBRANCH  11  13
ENDBRANCH   4   7
ENDBRANCH   2   3
ENDBRANCH   1   2
BRANCH   1  22
ATOM     22  C   UNL A   1      37.166  23.486  24.779  1.00  0.00     0.118 C 
BRANCH  22  23
ATOM     23  N   UNL A   1      38.205  22.614  25.313  1.00  0.00    -0.352 N 
ATOM     24  C   UNL A   1      39.289  22.863  26.125  1.00  0.00     0.251 C 
ATOM     25  H   UNL A   1      38.116  21.672  25.044  1.00  0.00     0.163 HD
ATOM     26  O   UNL A   1      40.115  21.973  26.306  1.00  0.00    -0.269 OA
BRANCH  24  27
ATOM     27  C   UNL A   1      39.501  24.189  26.751  1.00  0.00     0.039 A 
ATOM     28  C   UNL A   1      39.031  24.410  28.050  1.00  0.00     0.014 A 
ATOM     29  C   UNL A   1      40.130  25.228  26.068  1.00  0.00     0.014 A 
ATOM     30  C   UNL A   1      39.280  25.631  28.687  1.00  0.00     0.010 A 
ATOM     31  C   UNL A   1      40.488  26.390  26.741  1.00  0.00     0.010 A 
ATOM     32  C   UNL A   1      40.059  26.614  28.057  1.00  0.00    -0.014 A 
BRANCH  32  33
ATOM     33  C   UNL A   1      40.428  27.886  28.733  1.00  0.00     0.031 A 
ATOM     34  C   UNL A   1      41.792  28.043  29.354  1.00  0.00     0.074 A 
ATOM     35  C   UNL A   1      39.511  28.864  28.872  1.00  0.00     0.049 A 
ATOM     36  N   UNL A   1      42.259  29.020  30.089  1.00  0.00    -0.248 NA
ATOM     37  C   UNL A   1      42.745  26.938  29.154  1.00  0.00     0.031 C 
ATOM     38  C   UNL A   1      38.138  28.826  28.361  1.00  0.00     0.029 A 
ATOM     39  N   UNL A   1      39.596  30.084  29.495  1.00  0.00    -0.354 N 
ATOM     40  C   UNL A   1      43.538  28.629  30.468  1.00  0.00     0.074 A 
ATOM     41  C   UNL A   1      43.756  27.308  29.927  1.00  0.00     0.031 C 
ATOM     42  C   UNL A   1      37.525  29.983  28.656  1.00  0.00     0.029 A 
ATOM     43  C   UNL A   1      38.441  30.826  29.418  1.00  0.00     0.049 A 
ATOM     44  H   UNL A   1      40.408  30.400  29.955  1.00  0.00     0.167 HD
ATOM     45  C   UNL A   1      44.460  29.316  31.182  1.00  0.00     0.031 A 
ATOM     46  C   UNL A   1      38.149  32.044  29.911  1.00  0.00     0.031 A 
ATOM     47  C   UNL A   1      44.264  30.649  31.685  1.00  0.00     0.049 A 
ATOM     48  C   UNL A   1      39.194  32.792  30.689  1.00  0.00     0.074 A 
ATOM     49  C   UNL A   1      45.163  31.459  32.356  1.00  0.00     0.029 A 
ATOM     50  N   UNL A   1      43.087  31.369  31.566  1.00  0.00    -0.354 N 
ATOM     51  N   UNL A   1      40.418  32.431  30.987  1.00  0.00    -0.248 NA
ATOM     52  C   UNL A   1      38.817  34.121  31.192  1.00  0.00     0.031 C 
ATOM     53  C   UNL A   1      44.516  32.654  32.680  1.00  0.00     0.029 A 
ATOM     54  C   UNL A   1      43.230  32.608  32.165  1.00  0.00     0.049 A 
ATOM     55  H   UNL A   1      42.269  31.047  31.120  1.00  0.00     0.167 HD
ATOM     56  C   UNL A   1      40.967  33.498  31.686  1.00  0.00     0.074 A 
ATOM     57  C   UNL A   1      39.947  34.524  31.755  1.00  0.00     0.031 C 
ATOM     58  C   UNL A   1      42.207  33.618  32.220  1.00  0.00     0.031 A 
BRANCH  45  59
ATOM     59  C   UNL A   1      45.773  28.635  31.457  1.00  0.00    -0.014 A 
ATOM     60  C   UNL A   1      46.859  28.764  30.576  1.00  0.00     0.009 A 
ATOM     61  C   UNL A   1      45.936  27.881  32.629  1.00  0.00     0.009 A 
ATOM     62  C   UNL A   1      48.068  28.120  30.843  1.00  0.00     0.001 A 
ATOM     63  C   UNL A   1      47.157  27.262  32.909  1.00  0.00     0.001 A 
ATOM     64  C   UNL A   1      48.218  27.373  32.012  1.00  0.00     0.000 A 
ENDBRANCH  45  59
BRANCH  46  65
ATOM     65  C   UNL A   1      36.817  32.652  29.657  1.00  0.00    -0.014 A 
ATOM     66  C   UNL A   1      36.569  33.335  28.456  1.00  0.00     0.009 A 
ATOM     67  C   UNL A   1      35.790  32.562  30.610  1.00  0.00     0.009 A 
ATOM     68  C   UNL A   1      35.330  33.938  28.225  1.00  0.00     0.001 A 
ATOM     69  C   UNL A   1      34.543  33.143  30.365  1.00  0.00     0.001 A 
ATOM     70  C   UNL A   1      34.317  33.837  29.178  1.00  0.00     0.000 A 
ENDBRANCH  46  65
BRANCH  58  71
ATOM     71  C   UNL A   1      42.543  34.919  32.892  1.00  0.00    -0.014 A 
ATOM     72  C   UNL A   1      43.279  35.912  32.231  1.00  0.00     0.009 A 
ATOM     73  C   UNL A   1      42.074  35.166  34.192  1.00  0.00     0.009 A 
ATOM     74  C   UNL A   1      43.566  37.119  32.872  1.00  0.00     0.001 A 
ATOM     75  C   UNL A   1      42.339  36.384  34.819  1.00  0.00     0.001 A 
ATOM     76  C   UNL A   1      43.091  37.355  34.161  1.00  0.00     0.000 A 
ENDBRANCH  58  71
ENDBRANCH  32  33
ENDBRANCH  24  27
ENDBRANCH  22  23
ENDBRANCH   1  22
TORSDOF 12
ENDMDL
MODEL 2
REMARK VINA RESULT:     -11.1      3.392      8.021
REMARK SMILES Cc1cc(C[NH+]2C[C@@H](C)[C@H](C)C2)oc1C(=O)NCCCNC(=O)c1ccc(-c2c3nc(c(-c4ccccc4)c4ccc([nH]4)c(-c4ccccc4)c4nc(c(-c5ccccc5)c5ccc2[nH]5)C=C4)C=C3)cc1
REMARK SMILES IDX 19 1 18 2 17 3 15 4 16 5 14 7 1 8 2 9 3 10 4 11 13 12 5 13
REMARK SMILES IDX 6 14 7 15 12 16 8 18 10 19 9 20 11 21 20 22 21 23 22 24
REMARK SMILES IDX 23 26 24 27 25 28 71 29 26 30 70 31 27 32 28 33 29 34 64 35
REMARK SMILES IDX 30 36 69 37 63 38 65 39 31 40 68 41 62 42 61 43 32 45 54 46
REMARK SMILES IDX 39 47 53 48 40 49 43 50 52 51 66 52 41 53 42 54 51 56 67 57
REMARK SMILES IDX 44 58 33 59 34 60 38 61 35 62 37 63 36 64 55 65 56 66 60 67
REMARK SMILES IDX 57 68 59 69 58 70 45 71 46 72 50 73 47 74 49 75 48 76
REMARK H PARENT 17 6 6 17 21 25 65 44 43 55
REMARK Flexibility Score: inf
ROOT
ATOM      1  C   UNL A   1      33.035  29.402  25.339  1.00  0.00     0.042 C 
ENDROOT
BRANCH   1   2
ATOM      2  C   UNL A   1      31.537  29.641  25.269  1.00  0.00     0.118 C 
BRANCH   2   3
ATOM      3  N   UNL A   1      31.029  29.819  23.930  1.00  0.00    -0.349 N 
ATOM      4  C   UNL A   1      30.612  28.887  23.006  1.00  0.00     0.287 C 
ATOM      5  O   UNL A   1      30.329  29.355  21.901  1.00  0.00    -0.266 OA
ATOM      6  H   UNL A   1      30.974  30.754  23.630  1.00  0.00     0.163 HD
BRANCH   4   7
ATOM      7  C   UNL A   1      30.542  27.461  23.298  1.00  0.00     0.194 A 
ATOM      8  C   UNL A   1      28.127  26.658  23.975  1.00  0.00     0.049 C 
ATOM      9  C   UNL A   1      29.574  26.524  23.671  1.00  0.00     0.001 A 
ATOM     10  C   UNL A   1      30.234  25.261  23.704  1.00  0.00     0.056 A 
ATOM     11  C   UNL A   1      31.557  25.484  23.415  1.00  0.00     0.159 A 
ATOM     12  O   UNL A   1      31.742  26.798  23.138  1.00  0.00    -0.450 OA
BRANCH  11  13
ATOM     13  C   UNL A   1      32.758  24.600  23.368  1.00  0.00     0.338 C 
BRANCH  13  14
ATOM     14  N   UNL A   1      33.583  24.625  24.580  1.00  0.00    -0.328 N 
ATOM     15  C   UNL A   1      33.085  23.784  25.669  1.00  0.00     0.266 C 
ATOM     16  C   UNL A   1      35.013  24.367  24.390  1.00  0.00     0.266 C 
ATOM     17  H   UNL A   1      33.491  25.604  24.849  1.00  0.00     0.348 HD
ATOM     18  C   UNL A   1      34.316  23.611  26.555  1.00  0.00     0.049 C 
ATOM     19  C   UNL A   1      35.414  23.406  25.512  1.00  0.00     0.049 C 
ATOM     20  C   UNL A   1      34.168  22.456  27.534  1.00  0.00     0.014 C 
ATOM     21  C   UNL A   1      36.825  23.654  26.023  1.00  0.00     0.014 C 
ENDBRANCH  13  14
ENDBRANCH  11  13
ENDBRANCH   4   7
ENDBRANCH   2   3
ENDBRANCH   1   2
BRANCH   1  22
ATOM     22  C   UNL A   1      33.582  29.214  26.745  1.00  0.00     0.118 C 
BRANCH  22  23
ATOM     23  N   UNL A   1      33.627  30.448  27.521  1.00  0.00    -0.352 N 
ATOM     24  C   UNL A   1      34.577  30.967  28.372  1.00  0.00     0.251 C 
ATOM     25  H   UNL A   1      32.831  31.016  27.417  1.00  0.00     0.163 HD
ATOM     26  O   UNL A   1      34.303  31.964  29.034  1.00  0.00    -0.269 OA
BRANCH  24  27
ATOM     27  C   UNL A   1      35.904  30.328  28.536  1.00  0.00     0.039 A 
ATOM     28  C   UNL A   1      36.818  30.379  27.478  1.00  0.00     0.014 A 
ATOM     29  C   UNL A   1      36.252  29.654  29.705  1.00  0.00     0.014 A 
ATOM     30  C   UNL A   1      38.101  29.843  27.634  1.00  0.00     0.010 A 
ATOM     31  C   UNL A   1      37.562  29.236  29.906  1.00  0.00     0.010 A 
ATOM     32  C   UNL A   1      38.503  29.314  28.870  1.00  0.00    -0.014 A 
BRANCH  32  33
ATOM     33  C   UNL A   1      39.885  28.821  29.108  1.00  0.00     0.031 A 
ATOM     34  C   UNL A   1      40.919  29.736  29.714  1.00  0.00     0.074 A 
ATOM     35  C   UNL A   1      40.240  27.587  28.698  1.00  0.00     0.049 A 
ATOM     36  N   UNL A   1      42.202  29.536  29.887  1.00  0.00    -0.248 NA
ATOM     37  C   UNL A   1      40.459  31.066  30.147  1.00  0.00     0.031 C 
ATOM     38  C   UNL A   1      39.352  26.613  28.057  1.00  0.00     0.029 A 
ATOM     39  N   UNL A   1      41.450  26.941  28.757  1.00  0.00    -0.354 N 
ATOM     40  C   UNL A   1      42.701  30.723  30.409  1.00  0.00     0.074 A 
ATOM     41  C   UNL A   1      41.599  31.655  30.477  1.00  0.00     0.031 C 
ATOM     42  C   UNL A   1      40.037  25.484  27.817  1.00  0.00     0.029 A 
ATOM     43  C   UNL A   1      41.420  25.666  28.242  1.00  0.00     0.049 A 
ATOM     44  H   UNL A   1      42.263  27.351  29.131  1.00  0.00     0.167 HD
ATOM     45  C   UNL A   1      43.960  31.009  30.819  1.00  0.00     0.031 A 
ATOM     46  C   UNL A   1      42.399  24.750  28.120  1.00  0.00     0.031 A 
ATOM     47  C   UNL A   1      45.049  30.071  30.793  1.00  0.00     0.049 A 
ATOM     48  C   UNL A   1      43.785  25.085  28.594  1.00  0.00     0.074 A 
ATOM     49  C   UNL A   1      46.343  30.240  31.255  1.00  0.00     0.029 A 
ATOM     50  N   UNL A   1      44.969  28.786  30.283  1.00  0.00    -0.354 N 
ATOM     51  N   UNL A   1      44.225  26.193  29.139  1.00  0.00    -0.248 NA
ATOM     52  C   UNL A   1      44.805  24.040  28.442  1.00  0.00     0.031 C 
ATOM     53  C   UNL A   1      47.058  29.070  30.985  1.00  0.00     0.029 A 
ATOM     54  C   UNL A   1      46.195  28.154  30.403  1.00  0.00     0.049 A 
ATOM     55  H   UNL A   1      44.160  28.380  29.894  1.00  0.00     0.167 HD
ATOM     56  C   UNL A   1      45.566  25.968  29.422  1.00  0.00     0.074 A 
ATOM     57  C   UNL A   1      45.862  24.613  29.001  1.00  0.00     0.031 C 
ATOM     58  C   UNL A   1      46.470  26.806  29.983  1.00  0.00     0.031 A 
BRANCH  45  59
ATOM     59  C   UNL A   1      44.223  32.396  31.337  1.00  0.00    -0.014 A 
ATOM     60  C   UNL A   1      44.624  33.431  30.477  1.00  0.00     0.009 A 
ATOM     61  C   UNL A   1      44.035  32.679  32.698  1.00  0.00     0.009 A 
ATOM     62  C   UNL A   1      44.870  34.711  30.976  1.00  0.00     0.001 A 
ATOM     63  C   UNL A   1      44.253  33.968  33.190  1.00  0.00     0.001 A 
ATOM     64  C   UNL A   1      44.680  34.980  32.331  1.00  0.00     0.000 A 
ENDBRANCH  45  59
BRANCH  46  65
ATOM     65  C   UNL A   1      42.099  23.410  27.551  1.00  0.00    -0.014 A 
ATOM     66  C   UNL A   1      41.544  22.407  28.361  1.00  0.00     0.009 A 
ATOM     67  C   UNL A   1      42.371  23.121  26.204  1.00  0.00     0.009 A 
ATOM     68  C   UNL A   1      41.292  21.135  27.842  1.00  0.00     0.001 A 
ATOM     69  C   UNL A   1      42.092  21.856  25.681  1.00  0.00     0.001 A 
ATOM     70  C   UNL A   1      41.561  20.862  26.502  1.00  0.00     0.000 A 
ENDBRANCH  46  65
BRANCH  58  71
ATOM     71  C   UNL A   1      47.855  26.271  30.210  1.00  0.00    -0.014 A 
ATOM     72  C   UNL A   1      48.245  25.762  31.458  1.00  0.00     0.009 A 
ATOM     73  C   UNL A   1      48.766  26.237  29.144  1.00  0.00     0.009 A 
ATOM     74  C   UNL A   1      49.533  25.256  31.641  1.00  0.00     0.001 A 
ATOM     75  C   UNL A   1      50.044  25.706  29.322  1.00  0.00     0.001 A 
ATOM     76  C   UNL A   1      50.428  25.224  30.572  1.00  0.00     0.000 A 
ENDBRANCH  58  71
ENDBRANCH  32  33
ENDBRANCH  24  27
ENDBRANCH  22  23
ENDBRANCH   1  22
TORSDOF 12
ENDMDL
MODEL 3
REMARK VINA RESULT:     -11.1      1.836      3.884
REMARK SMILES Cc1cc(C[NH+]2C[C@@H](C)[C@H](C)C2)oc1C(=O)NCCCNC(=O)c1ccc(-c2c3nc(c(-c4ccccc4)c4ccc([nH]4)c(-c4ccccc4)c4nc(c(-c5ccccc5)c5ccc2[nH]5)C=C4)C=C3)cc1
REMARK SMILES IDX 19 1 18 2 17 3 15 4 16 5 14 7 1 8 2 9 3 10 4 11 13 12 5 13
REMARK SMILES IDX 6 14 7 15 12 16 8 18 10 19 9 20 11 21 20 22 21 23 22 24
REMARK SMILES IDX 23 26 24 27 25 28 71 29 26 30 70 31 27 32 28 33 29 34 64 35
REMARK SMILES IDX 30 36 69 37 63 38 65 39 31 40 68 41 62 42 61 43 32 45 54 46
REMARK SMILES IDX 39 47 53 48 40 49 43 50 52 51 66 52 41 53 42 54 51 56 67 57
REMARK SMILES IDX 44 58 33 59 34 60 38 61 35 62 37 63 36 64 55 65 56 66 60 67
REMARK SMILES IDX 57 68 59 69 58 70 45 71 46 72 50 73 47 74 49 75 48 76
REMARK H PARENT 17 6 6 17 21 25 65 44 43 55
REMARK Flexibility Score: inf
ROOT
ATOM      1  C   UNL A   1      36.084  23.411  26.036  1.00  0.00     0.042 C 
ENDROOT
BRANCH   1   2
ATOM      2  C   UNL A   1      35.305  22.111  26.126  1.00  0.00     0.118 C 
BRANCH   2   3
ATOM      3  N   UNL A   1      34.454  22.011  27.287  1.00  0.00    -0.349 N 
ATOM      4  C   UNL A   1      33.149  22.409  27.469  1.00  0.00     0.287 C 
ATOM      5  O   UNL A   1      32.732  22.279  28.622  1.00  0.00    -0.266 OA
ATOM      6  H   UNL A   1      34.874  21.593  28.072  1.00  0.00     0.163 HD
BRANCH   4   7
ATOM      7  C   UNL A   1      32.336  22.970  26.397  1.00  0.00     0.194 A 
ATOM      8  C   UNL A   1      32.318  21.484  24.223  1.00  0.00     0.049 C 
ATOM      9  C   UNL A   1      31.960  22.632  25.094  1.00  0.00     0.001 A 
ATOM     10  C   UNL A   1      31.057  23.648  24.664  1.00  0.00     0.056 A 
ATOM     11  C   UNL A   1      30.969  24.571  25.675  1.00  0.00     0.159 A 
ATOM     12  O   UNL A   1      31.709  24.153  26.732  1.00  0.00    -0.450 OA
BRANCH  11  13
ATOM     13  C   UNL A   1      30.264  25.879  25.810  1.00  0.00     0.338 C 
BRANCH  13  14
ATOM     14  N   UNL A   1      31.091  27.054  25.518  1.00  0.00    -0.328 N 
ATOM     15  C   UNL A   1      31.898  27.522  26.645  1.00  0.00     0.266 C 
ATOM     16  C   UNL A   1      31.938  26.963  24.326  1.00  0.00     0.266 C 
ATOM     17  H   UNL A   1      30.369  27.746  25.318  1.00  0.00     0.348 HD
ATOM     18  C   UNL A   1      32.967  28.375  25.967  1.00  0.00     0.049 C 
ATOM     19  C   UNL A   1      33.301  27.526  24.741  1.00  0.00     0.049 C 
ATOM     20  C   UNL A   1      34.157  28.644  26.876  1.00  0.00     0.014 C 
ATOM     21  C   UNL A   1      33.991  28.283  23.617  1.00  0.00     0.014 C 
ENDBRANCH  13  14
ENDBRANCH  11  13
ENDBRANCH   4   7
ENDBRANCH   2   3
ENDBRANCH   1   2
BRANCH   1  22
ATOM     22  C   UNL A   1      37.217  23.404  25.022  1.00  0.00     0.118 C 
BRANCH  22  23
ATOM     23  N   UNL A   1      38.363  22.603  25.436  1.00  0.00    -0.352 N 
ATOM     24  C   UNL A   1      39.492  22.916  26.160  1.00  0.00     0.251 C 
ATOM     25  H   UNL A   1      38.322  21.664  25.146  1.00  0.00     0.163 HD
ATOM     26  O   UNL A   1      40.397  22.089  26.240  1.00  0.00    -0.269 OA
BRANCH  24  27
ATOM     27  C   UNL A   1      39.657  24.238  26.808  1.00  0.00     0.039 A 
ATOM     28  C   UNL A   1      39.128  24.438  28.088  1.00  0.00     0.014 A 
ATOM     29  C   UNL A   1      40.298  25.294  26.163  1.00  0.00     0.014 A 
ATOM     30  C   UNL A   1      39.330  25.656  28.748  1.00  0.00     0.010 A 
ATOM     31  C   UNL A   1      40.609  26.454  26.863  1.00  0.00     0.010 A 
ATOM     32  C   UNL A   1      40.121  26.656  28.162  1.00  0.00    -0.014 A 
BRANCH  32  33
ATOM     33  C   UNL A   1      40.440  27.926  28.866  1.00  0.00     0.031 A 
ATOM     34  C   UNL A   1      41.767  28.090  29.562  1.00  0.00     0.074 A 
ATOM     35  C   UNL A   1      39.508  28.895  28.961  1.00  0.00     0.049 A 
ATOM     36  N   UNL A   1      42.184  29.066  30.329  1.00  0.00    -0.248 NA
ATOM     37  C   UNL A   1      42.739  26.995  29.407  1.00  0.00     0.031 C 
ATOM     38  C   UNL A   1      38.167  28.850  28.374  1.00  0.00     0.029 A 
ATOM     39  N   UNL A   1      39.549  30.112  29.596  1.00  0.00    -0.354 N 
ATOM     40  C   UNL A   1      43.443  28.683  30.775  1.00  0.00     0.074 A 
ATOM     41  C   UNL A   1      43.702  27.367  30.238  1.00  0.00     0.031 C 
ATOM     42  C   UNL A   1      37.528  30.000  28.643  1.00  0.00     0.029 A 
ATOM     43  C   UNL A   1      38.393  30.844  29.460  1.00  0.00     0.049 A 
ATOM     44  H   UNL A   1      40.331  30.431  30.102  1.00  0.00     0.167 HD
ATOM     45  C   UNL A   1      44.319  29.372  31.544  1.00  0.00     0.031 A 
ATOM     46  C   UNL A   1      38.064  32.057  29.944  1.00  0.00     0.031 A 
ATOM     47  C   UNL A   1      44.083  30.699  32.045  1.00  0.00     0.049 A 
ATOM     48  C   UNL A   1      39.057  32.808  30.785  1.00  0.00     0.074 A 
ATOM     49  C   UNL A   1      44.937  31.511  32.770  1.00  0.00     0.029 A 
ATOM     50  N   UNL A   1      42.908  31.410  31.865  1.00  0.00    -0.354 N 
ATOM     51  N   UNL A   1      40.266  32.454  31.147  1.00  0.00    -0.248 NA
ATOM     52  C   UNL A   1      38.642  34.129  31.275  1.00  0.00     0.031 C 
ATOM     53  C   UNL A   1      44.263  32.699  33.066  1.00  0.00     0.029 A 
ATOM     54  C   UNL A   1      43.007  32.646  32.480  1.00  0.00     0.049 A 
ATOM     55  H   UNL A   1      42.119  31.085  31.373  1.00  0.00     0.167 HD
ATOM     56  C   UNL A   1      40.767  33.520  31.883  1.00  0.00     0.074 A 
ATOM     57  C   UNL A   1      39.736  34.538  31.902  1.00  0.00     0.031 C 
ATOM     58  C   UNL A   1      41.974  33.647  32.485  1.00  0.00     0.031 A 
BRANCH  45  59
ATOM     59  C   UNL A   1      45.620  28.700  31.886  1.00  0.00    -0.014 A 
ATOM     60  C   UNL A   1      45.751  27.907  33.037  1.00  0.00     0.009 A 
ATOM     61  C   UNL A   1      46.722  28.835  31.027  1.00  0.00     0.009 A 
ATOM     62  C   UNL A   1      46.968  27.296  33.342  1.00  0.00     0.001 A 
ATOM     63  C   UNL A   1      47.930  28.199  31.319  1.00  0.00     0.001 A 
ATOM     64  C   UNL A   1      48.056  27.438  32.481  1.00  0.00     0.000 A 
ENDBRANCH  45  59
BRANCH  46  65
ATOM     65  C   UNL A   1      36.742  32.655  29.622  1.00  0.00    -0.014 A 
ATOM     66  C   UNL A   1      36.554  33.341  28.412  1.00  0.00     0.009 A 
ATOM     67  C   UNL A   1      35.667  32.553  30.518  1.00  0.00     0.009 A 
ATOM     68  C   UNL A   1      35.325  33.936  28.117  1.00  0.00     0.001 A 
ATOM     69  C   UNL A   1      34.430  33.125  30.208  1.00  0.00     0.001 A 
ATOM     70  C   UNL A   1      34.263  33.823  29.013  1.00  0.00     0.000 A 
ENDBRANCH  46  65
BRANCH  58  71
ATOM     71  C   UNL A   1      42.261  34.945  33.184  1.00  0.00    -0.014 A 
ATOM     72  C   UNL A   1      41.767  35.205  34.471  1.00  0.00     0.009 A 
ATOM     73  C   UNL A   1      43.075  35.902  32.559  1.00  0.00     0.009 A 
ATOM     74  C   UNL A   1      42.060  36.413  35.107  1.00  0.00     0.001 A 
ATOM     75  C   UNL A   1      43.389  37.096  33.208  1.00  0.00     0.001 A 
ATOM     76  C   UNL A   1      42.874  37.354  34.477  1.00  0.00     0.000 A 
ENDBRANCH  58  71
ENDBRANCH  32  33
ENDBRANCH  24  27
ENDBRANCH  22  23
ENDBRANCH   1  22
TORSDOF 12
ENDMDL
