MODEL 1
REMARK VINA RESULT:     -12.1      0.000      0.000
REMARK SMILES Cc1cc2c(c(C)c1Br)C=C(C(=O)NCCCNC(=O)c1ccc(-c3c4nc(c(-c5ccccc5)c5ccc([nH]5)c(-c5ccccc5)c5nc(c(-c6ccccc6)c6ccc3[nH]6)C=C5)C=C4)cc1)[C@@H](C(F)(F)F)O2
REMARK SMILES IDX 16 1 15 2 14 3 12 4 13 5 11 7 1 8 2 9 3 10 8 11 4 12 6 13
REMARK SMILES IDX 9 14 5 15 74 16 7 17 10 18 69 19 70 20 71 21 72 22 73 23
REMARK SMILES IDX 17 24 18 25 19 26 20 28 21 29 22 30 68 31 23 32 67 33 24 34
REMARK SMILES IDX 25 35 26 36 61 37 27 38 66 39 60 40 62 41 28 42 65 43 59 44
REMARK SMILES IDX 58 45 29 47 51 48 36 49 50 50 37 51 40 52 49 53 63 54 38 55
REMARK SMILES IDX 39 56 48 58 64 59 41 60 30 61 31 62 35 63 32 64 34 65 33 66
REMARK SMILES IDX 52 67 53 68 57 69 54 70 56 71 55 72 42 73 43 74 47 75 44 76
REMARK SMILES IDX 46 77 45 78
REMARK H PARENT 14 6 18 27 62 46 40 57
REMARK Flexibility Score: inf
ROOT
ATOM      1  C   UNL A   1      37.792  19.866  24.807  1.00  0.00     0.042 C 
ENDROOT
BRANCH   1   2
ATOM      2  C   UNL A   1      36.466  20.583  25.002  1.00  0.00     0.118 C 
BRANCH   2   3
ATOM      3  N   UNL A   1      35.344  19.657  24.965  1.00  0.00    -0.352 N 
ATOM      4  C   UNL A   1      33.993  19.732  24.998  1.00  0.00     0.251 C 
ATOM      5  O   UNL A   1      33.408  18.646  24.947  1.00  0.00    -0.270 OA
ATOM      6  H   UNL A   1      35.650  18.724  24.897  1.00  0.00     0.163 HD
BRANCH   4   7
ATOM      7  C   UNL A   1      33.207  20.996  25.089  1.00  0.00     0.067 C 
ATOM      8  C   UNL A   1      29.960  26.568  24.283  1.00  0.00     0.046 C 
ATOM      9  C   UNL A   1      30.839  25.357  24.126  1.00  0.00    -0.033 A 
ATOM     10  C   UNL A   1      30.827  24.420  25.162  1.00  0.00     0.051 A 
ATOM     11  C   UNL A   1      31.616  25.088  22.977  1.00  0.00     0.024 A 
ATOM     12  C   UNL A   1      31.593  23.266  25.084  1.00  0.00     0.128 A 
ATOM     13  C   UNL A   1      32.414  23.916  22.890  1.00  0.00    -0.026 A 
ATOM     14  Br  UNL A   1      31.539  26.328  21.521  1.00  0.00    -0.050 Br
ATOM     15  C   UNL A   1      32.388  22.995  23.967  1.00  0.00     0.021 A 
ATOM     16  O   UNL A   1      31.468  22.416  26.144  1.00  0.00    -0.475 OA
ATOM     17  C   UNL A   1      33.278  23.611  21.688  1.00  0.00     0.046 C 
ATOM     18  C   UNL A   1      33.123  21.724  23.959  1.00  0.00     0.026 C 
ATOM     19  C   UNL A   1      32.552  21.480  26.344  1.00  0.00     0.314 C 
BRANCH  19  20
ATOM     20  C   UNL A   1      33.555  22.064  27.358  1.00  0.00     0.429 C 
ATOM     21  F   UNL A   1      32.895  22.579  28.427  1.00  0.00    -0.167 F 
ATOM     22  F   UNL A   1      34.404  21.131  27.849  1.00  0.00    -0.167 F 
ATOM     23  F   UNL A   1      34.316  23.050  26.836  1.00  0.00    -0.167 F 
ENDBRANCH  19  20
ENDBRANCH   4   7
ENDBRANCH   2   3
ENDBRANCH   1   2
BRANCH   1  24
ATOM     24  C   UNL A   1      38.864  20.383  25.755  1.00  0.00     0.118 C 
BRANCH  24  25
ATOM     25  N   UNL A   1      39.962  19.427  25.901  1.00  0.00    -0.352 N 
ATOM     26  C   UNL A   1      41.296  19.642  26.121  1.00  0.00     0.251 C 
ATOM     27  H   UNL A   1      39.699  18.481  25.832  1.00  0.00     0.163 HD
ATOM     28  O   UNL A   1      42.105  18.735  25.927  1.00  0.00    -0.269 OA
BRANCH  26  29
ATOM     29  C   UNL A   1      41.763  20.958  26.591  1.00  0.00     0.039 A 
ATOM     30  C   UNL A   1      42.252  21.885  25.670  1.00  0.00     0.014 A 
ATOM     31  C   UNL A   1      41.736  21.265  27.954  1.00  0.00     0.014 A 
ATOM     32  C   UNL A   1      42.655  23.144  26.112  1.00  0.00     0.010 A 
ATOM     33  C   UNL A   1      42.034  22.550  28.377  1.00  0.00     0.010 A 
ATOM     34  C   UNL A   1      42.517  23.496  27.464  1.00  0.00    -0.014 A 
BRANCH  34  35
ATOM     35  C   UNL A   1      42.904  24.836  27.960  1.00  0.00     0.031 A 
ATOM     36  C   UNL A   1      41.848  25.878  28.197  1.00  0.00     0.074 A 
ATOM     37  C   UNL A   1      44.206  25.129  28.135  1.00  0.00     0.049 A 
ATOM     38  N   UNL A   1      41.988  27.122  28.576  1.00  0.00    -0.248 NA
ATOM     39  C   UNL A   1      40.451  25.481  27.949  1.00  0.00     0.031 C 
ATOM     40  C   UNL A   1      45.322  24.210  27.899  1.00  0.00     0.029 A 
ATOM     41  N   UNL A   1      44.812  26.285  28.555  1.00  0.00    -0.354 N 
ATOM     42  C   UNL A   1      40.706  27.654  28.596  1.00  0.00     0.074 A 
ATOM     43  C   UNL A   1      39.807  26.624  28.129  1.00  0.00     0.031 C 
ATOM     44  C   UNL A   1      46.472  24.824  28.219  1.00  0.00     0.029 A 
ATOM     45  C   UNL A   1      46.180  26.191  28.638  1.00  0.00     0.049 A 
ATOM     46  H   UNL A   1      44.314  27.105  28.776  1.00  0.00     0.167 HD
ATOM     47  C   UNL A   1      40.309  28.884  28.996  1.00  0.00     0.031 A 
ATOM     48  C   UNL A   1      47.095  27.105  29.010  1.00  0.00     0.031 A 
ATOM     49  C   UNL A   1      41.205  29.899  29.474  1.00  0.00     0.049 A 
ATOM     50  C   UNL A   1      46.632  28.472  29.429  1.00  0.00     0.074 A 
ATOM     51  C   UNL A   1      40.900  31.159  29.955  1.00  0.00     0.029 A 
ATOM     52  N   UNL A   1      42.584  29.768  29.532  1.00  0.00    -0.354 N 
ATOM     53  N   UNL A   1      45.409  28.940  29.504  1.00  0.00    -0.248 NA
ATOM     54  C   UNL A   1      47.672  29.432  29.822  1.00  0.00     0.031 C 
ATOM     55  C   UNL A   1      42.099  31.813  30.247  1.00  0.00     0.029 A 
ATOM     56  C   UNL A   1      43.147  30.937  30.010  1.00  0.00     0.049 A 
ATOM     57  H   UNL A   1      43.088  28.963  29.269  1.00  0.00     0.167 HD
ATOM     58  C   UNL A   1      45.530  30.243  29.969  1.00  0.00     0.074 A 
ATOM     59  C   UNL A   1      46.945  30.483  30.178  1.00  0.00     0.031 C 
ATOM     60  C   UNL A   1      44.559  31.158  30.203  1.00  0.00     0.031 A 
BRANCH  47  61
ATOM     61  C   UNL A   1      38.838  29.194  28.936  1.00  0.00    -0.014 A 
ATOM     62  C   UNL A   1      38.013  29.024  30.059  1.00  0.00     0.009 A 
ATOM     63  C   UNL A   1      38.278  29.703  27.754  1.00  0.00     0.009 A 
ATOM     64  C   UNL A   1      36.653  29.328  29.991  1.00  0.00     0.001 A 
ATOM     65  C   UNL A   1      36.923  30.035  27.698  1.00  0.00     0.001 A 
ATOM     66  C   UNL A   1      36.110  29.839  28.812  1.00  0.00     0.000 A 
ENDBRANCH  47  61
BRANCH  48  67
ATOM     67  C   UNL A   1      48.534  26.735  29.034  1.00  0.00    -0.014 A 
ATOM     68  C   UNL A   1      49.092  26.128  30.169  1.00  0.00     0.009 A 
ATOM     69  C   UNL A   1      49.349  26.949  27.911  1.00  0.00     0.009 A 
ATOM     70  C   UNL A   1      50.438  25.753  30.183  1.00  0.00     0.001 A 
ATOM     71  C   UNL A   1      50.687  26.547  27.917  1.00  0.00     0.001 A 
ATOM     72  C   UNL A   1      51.231  25.954  29.056  1.00  0.00     0.000 A 
ENDBRANCH  48  67
BRANCH  60  73
ATOM     73  C   UNL A   1      44.981  32.504  30.719  1.00  0.00    -0.014 A 
ATOM     74  C   UNL A   1      45.235  33.569  29.842  1.00  0.00     0.009 A 
ATOM     75  C   UNL A   1      45.041  32.731  32.104  1.00  0.00     0.009 A 
ATOM     76  C   UNL A   1      45.558  34.832  30.342  1.00  0.00     0.001 A 
ATOM     77  C   UNL A   1      45.334  34.002  32.600  1.00  0.00     0.001 A 
ATOM     78  C   UNL A   1      45.599  35.048  31.719  1.00  0.00     0.000 A 
ENDBRANCH  60  73
ENDBRANCH  34  35
ENDBRANCH  26  29
ENDBRANCH  24  25
ENDBRANCH   1  24
TORSDOF 11
ENDMDL
MODEL 2
REMARK VINA RESULT:     -12.0      1.431      6.176
REMARK SMILES Cc1cc2c(c(C)c1Br)C=C(C(=O)NCCCNC(=O)c1ccc(-c3c4nc(c(-c5ccccc5)c5ccc([nH]5)c(-c5ccccc5)c5nc(c(-c6ccccc6)c6ccc3[nH]6)C=C5)C=C4)cc1)[C@@H](C(F)(F)F)O2
REMARK SMILES IDX 16 1 15 2 14 3 12 4 13 5 11 7 1 8 2 9 3 10 8 11 4 12 6 13
REMARK SMILES IDX 9 14 5 15 74 16 7 17 10 18 69 19 70 20 71 21 72 22 73 23
REMARK SMILES IDX 17 24 18 25 19 26 20 28 21 29 22 30 68 31 23 32 67 33 24 34
REMARK SMILES IDX 25 35 26 36 61 37 27 38 66 39 60 40 62 41 28 42 65 43 59 44
REMARK SMILES IDX 58 45 29 47 51 48 36 49 50 50 37 51 40 52 49 53 63 54 38 55
REMARK SMILES IDX 39 56 48 58 64 59 41 60 30 61 31 62 35 63 32 64 34 65 33 66
REMARK SMILES IDX 52 67 53 68 57 69 54 70 56 71 55 72 42 73 43 74 47 75 44 76
REMARK SMILES IDX 46 77 45 78
REMARK H PARENT 14 6 18 27 62 46 40 57
REMARK Flexibility Score: inf
ROOT
ATOM      1  C   UNL A   1      37.410  19.633  25.002  1.00  0.00     0.042 C 
ENDROOT
BRANCH   1   2
ATOM      2  C   UNL A   1      36.284  20.646  25.129  1.00  0.00     0.118 C 
BRANCH   2   3
ATOM      3  N   UNL A   1      36.773  21.941  25.579  1.00  0.00    -0.352 N 
ATOM      4  C   UNL A   1      36.265  23.178  25.786  1.00  0.00     0.251 C 
ATOM      5  O   UNL A   1      37.079  24.018  26.183  1.00  0.00    -0.270 OA
ATOM      6  H   UNL A   1      37.734  21.908  25.790  1.00  0.00     0.163 HD
BRANCH   4   7
ATOM      7  C   UNL A   1      34.842  23.566  25.569  1.00  0.00     0.067 C 
ATOM      8  C   UNL A   1      29.099  26.336  24.305  1.00  0.00     0.046 C 
ATOM      9  C   UNL A   1      30.549  26.049  24.591  1.00  0.00    -0.033 A 
ATOM     10  C   UNL A   1      30.926  24.709  24.696  1.00  0.00     0.051 A 
ATOM     11  C   UNL A   1      31.545  27.045  24.695  1.00  0.00     0.024 A 
ATOM     12  C   UNL A   1      32.248  24.360  24.938  1.00  0.00     0.128 A 
ATOM     13  C   UNL A   1      32.899  26.703  24.954  1.00  0.00    -0.026 A 
ATOM     14  Br  UNL A   1      31.031  28.872  24.442  1.00  0.00    -0.050 Br
ATOM     15  C   UNL A   1      33.243  25.333  25.070  1.00  0.00     0.021 A 
ATOM     16  O   UNL A   1      32.493  23.019  24.985  1.00  0.00    -0.475 OA
ATOM     17  C   UNL A   1      33.986  27.744  25.099  1.00  0.00     0.046 C 
ATOM     18  C   UNL A   1      34.618  24.861  25.275  1.00  0.00     0.026 C 
ATOM     19  C   UNL A   1      33.693  22.613  25.683  1.00  0.00     0.314 C 
BRANCH  19  20
ATOM     20  C   UNL A   1      33.346  22.263  27.143  1.00  0.00     0.429 C 
ATOM     21  F   UNL A   1      33.552  20.941  27.370  1.00  0.00    -0.167 F 
ATOM     22  F   UNL A   1      34.115  22.927  28.036  1.00  0.00    -0.167 F 
ATOM     23  F   UNL A   1      32.060  22.534  27.456  1.00  0.00    -0.167 F 
ENDBRANCH  19  20
ENDBRANCH   4   7
ENDBRANCH   2   3
ENDBRANCH   1   2
BRANCH   1  24
ATOM     24  C   UNL A   1      38.777  20.274  25.184  1.00  0.00     0.118 C 
BRANCH  24  25
ATOM     25  N   UNL A   1      39.782  19.296  25.597  1.00  0.00    -0.352 N 
ATOM     26  C   UNL A   1      41.046  19.481  26.089  1.00  0.00     0.251 C 
ATOM     27  H   UNL A   1      39.505  18.355  25.507  1.00  0.00     0.163 HD
ATOM     28  O   UNL A   1      41.845  18.545  26.105  1.00  0.00    -0.269 OA
BRANCH  26  29
ATOM     29  C   UNL A   1      41.451  20.804  26.599  1.00  0.00     0.039 A 
ATOM     30  C   UNL A   1      42.020  21.733  25.727  1.00  0.00     0.014 A 
ATOM     31  C   UNL A   1      41.286  21.113  27.951  1.00  0.00     0.014 A 
ATOM     32  C   UNL A   1      42.365  22.998  26.203  1.00  0.00     0.010 A 
ATOM     33  C   UNL A   1      41.528  22.402  28.397  1.00  0.00     0.010 A 
ATOM     34  C   UNL A   1      42.090  23.351  27.534  1.00  0.00    -0.014 A 
BRANCH  34  35
ATOM     35  C   UNL A   1      42.413  24.696  28.061  1.00  0.00     0.031 A 
ATOM     36  C   UNL A   1      43.823  25.017  28.471  1.00  0.00     0.074 A 
ATOM     37  C   UNL A   1      41.430  25.599  28.226  1.00  0.00     0.049 A 
ATOM     38  N   UNL A   1      44.296  26.114  29.005  1.00  0.00    -0.248 NA
ATOM     39  C   UNL A   1      44.829  23.957  28.286  1.00  0.00     0.031 C 
ATOM     40  C   UNL A   1      40.017  25.386  27.900  1.00  0.00     0.029 A 
ATOM     41  N   UNL A   1      41.469  26.882  28.709  1.00  0.00    -0.354 N 
ATOM     42  C   UNL A   1      45.644  25.869  29.229  1.00  0.00     0.074 A 
ATOM     43  C   UNL A   1      45.903  24.502  28.839  1.00  0.00     0.031 C 
ATOM     44  C   UNL A   1      39.334  26.513  28.151  1.00  0.00     0.029 A 
ATOM     45  C   UNL A   1      40.248  27.511  28.698  1.00  0.00     0.049 A 
ATOM     46  H   UNL A   1      42.293  27.311  29.034  1.00  0.00     0.167 HD
ATOM     47  C   UNL A   1      46.590  26.718  29.692  1.00  0.00     0.031 A 
ATOM     48  C   UNL A   1      39.904  28.754  29.086  1.00  0.00     0.031 A 
ATOM     49  C   UNL A   1      46.331  28.081  30.064  1.00  0.00     0.049 A 
ATOM     50  C   UNL A   1      40.968  29.671  29.618  1.00  0.00     0.074 A 
ATOM     51  C   UNL A   1      47.228  29.040  30.493  1.00  0.00     0.029 A 
ATOM     52  N   UNL A   1      45.079  28.676  30.049  1.00  0.00    -0.354 N 
ATOM     53  N   UNL A   1      42.252  29.447  29.765  1.00  0.00    -0.248 NA
ATOM     54  C   UNL A   1      40.539  31.015  30.031  1.00  0.00     0.031 C 
ATOM     55  C   UNL A   1      46.510  30.200  30.796  1.00  0.00     0.029 A 
ATOM     56  C   UNL A   1      45.175  29.982  30.492  1.00  0.00     0.049 A 
ATOM     57  H   UNL A   1      44.246  28.234  29.766  1.00  0.00     0.167 HD
ATOM     58  C   UNL A   1      42.788  30.625  30.269  1.00  0.00     0.074 A 
ATOM     59  C   UNL A   1      41.692  31.567  30.384  1.00  0.00     0.031 C 
ATOM     60  C   UNL A   1      44.071  30.902  30.606  1.00  0.00     0.031 A 
BRANCH  47  61
ATOM     61  C   UNL A   1      47.995  26.193  29.818  1.00  0.00    -0.014 A 
ATOM     62  C   UNL A   1      48.866  26.177  28.716  1.00  0.00     0.009 A 
ATOM     63  C   UNL A   1      48.467  25.750  31.062  1.00  0.00     0.009 A 
ATOM     64  C   UNL A   1      50.170  25.698  28.851  1.00  0.00     0.001 A 
ATOM     65  C   UNL A   1      49.782  25.301  31.202  1.00  0.00     0.001 A 
ATOM     66  C   UNL A   1      50.628  25.267  30.096  1.00  0.00     0.000 A 
ENDBRANCH  47  61
BRANCH  48  67
ATOM     67  C   UNL A   1      38.495  29.203  28.946  1.00  0.00    -0.014 A 
ATOM     68  C   UNL A   1      37.624  29.162  30.046  1.00  0.00     0.009 A 
ATOM     69  C   UNL A   1      38.021  29.713  27.727  1.00  0.00     0.009 A 
ATOM     70  C   UNL A   1      36.307  29.612  29.924  1.00  0.00     0.001 A 
ATOM     71  C   UNL A   1      36.712  30.188  27.615  1.00  0.00     0.001 A 
ATOM     72  C   UNL A   1      35.856  30.132  28.713  1.00  0.00     0.000 A 
ENDBRANCH  48  67
BRANCH  60  73
ATOM     73  C   UNL A   1      44.372  32.279  31.125  1.00  0.00    -0.014 A 
ATOM     74  C   UNL A   1      44.672  33.333  30.250  1.00  0.00     0.009 A 
ATOM     75  C   UNL A   1      44.268  32.542  32.501  1.00  0.00     0.009 A 
ATOM     76  C   UNL A   1      44.880  34.622  30.745  1.00  0.00     0.001 A 
ATOM     77  C   UNL A   1      44.446  33.837  32.988  1.00  0.00     0.001 A 
ATOM     78  C   UNL A   1      44.758  34.874  32.111  1.00  0.00     0.000 A 
ENDBRANCH  60  73
ENDBRANCH  34  35
ENDBRANCH  26  29
ENDBRANCH  24  25
ENDBRANCH   1  24
TORSDOF 11
ENDMDL
MODEL 3
REMARK VINA RESULT:     -11.9      1.350      1.726
REMARK SMILES Cc1cc2c(c(C)c1Br)C=C(C(=O)NCCCNC(=O)c1ccc(-c3c4nc(c(-c5ccccc5)c5ccc([nH]5)c(-c5ccccc5)c5nc(c(-c6ccccc6)c6ccc3[nH]6)C=C5)C=C4)cc1)[C@@H](C(F)(F)F)O2
REMARK SMILES IDX 16 1 15 2 14 3 12 4 13 5 11 7 1 8 2 9 3 10 8 11 4 12 6 13
REMARK SMILES IDX 9 14 5 15 74 16 7 17 10 18 69 19 70 20 71 21 72 22 73 23
REMARK SMILES IDX 17 24 18 25 19 26 20 28 21 29 22 30 68 31 23 32 67 33 24 34
REMARK SMILES IDX 25 35 26 36 61 37 27 38 66 39 60 40 62 41 28 42 65 43 59 44
REMARK SMILES IDX 58 45 29 47 51 48 36 49 50 50 37 51 40 52 49 53 63 54 38 55
REMARK SMILES IDX 39 56 48 58 64 59 41 60 30 61 31 62 35 63 32 64 34 65 33 66
REMARK SMILES IDX 52 67 53 68 57 69 54 70 56 71 55 72 42 73 43 74 47 75 44 76
REMARK SMILES IDX 46 77 45 78
REMARK H PARENT 14 6 18 27 62 46 40 57
REMARK Flexibility Score: inf
ROOT
ATOM      1  C   UNL A   1      37.548  19.780  25.005  1.00  0.00     0.042 C 
ENDROOT
BRANCH   1   2
ATOM      2  C   UNL A   1      36.404  20.779  25.055  1.00  0.00     0.118 C 
BRANCH   2   3
ATOM      3  N   UNL A   1      36.836  22.066  25.580  1.00  0.00    -0.352 N 
ATOM      4  C   UNL A   1      36.282  23.276  25.824  1.00  0.00     0.251 C 
ATOM      5  O   UNL A   1      37.054  24.121  26.288  1.00  0.00    -0.270 OA
ATOM      6  H   UNL A   1      37.790  22.052  25.824  1.00  0.00     0.163 HD
BRANCH   4   7
ATOM      7  C   UNL A   1      34.855  23.630  25.575  1.00  0.00     0.067 C 
ATOM      8  C   UNL A   1      29.079  26.262  24.177  1.00  0.00     0.046 C 
ATOM      9  C   UNL A   1      30.528  26.010  24.496  1.00  0.00    -0.033 A 
ATOM     10  C   UNL A   1      30.934  24.679  24.612  1.00  0.00     0.051 A 
ATOM     11  C   UNL A   1      31.498  27.029  24.620  1.00  0.00     0.024 A 
ATOM     12  C   UNL A   1      32.257  24.362  24.885  1.00  0.00     0.128 A 
ATOM     13  C   UNL A   1      32.853  26.719  24.910  1.00  0.00    -0.026 A 
ATOM     14  Br  UNL A   1      30.947  28.843  24.352  1.00  0.00    -0.050 Br
ATOM     15  C   UNL A   1      33.227  25.358  25.036  1.00  0.00     0.021 A 
ATOM     16  O   UNL A   1      32.533  23.027  24.940  1.00  0.00    -0.475 OA
ATOM     17  C   UNL A   1      33.912  27.786  25.077  1.00  0.00     0.046 C 
ATOM     18  C   UNL A   1      34.607  24.919  25.274  1.00  0.00     0.026 C 
ATOM     19  C   UNL A   1      33.727  22.651  25.665  1.00  0.00     0.314 C 
BRANCH  19  20
ATOM     20  C   UNL A   1      33.355  22.295  27.118  1.00  0.00     0.429 C 
ATOM     21  F   UNL A   1      34.139  22.984  27.985  1.00  0.00    -0.167 F 
ATOM     22  F   UNL A   1      32.076  22.617  27.423  1.00  0.00    -0.167 F 
ATOM     23  F   UNL A   1      33.504  20.980  27.391  1.00  0.00    -0.167 F 
ENDBRANCH  19  20
ENDBRANCH   4   7
ENDBRANCH   2   3
ENDBRANCH   1   2
BRANCH   1  24
ATOM     24  C   UNL A   1      38.879  20.418  25.373  1.00  0.00     0.118 C 
BRANCH  24  25
ATOM     25  N   UNL A   1      39.888  19.412  25.703  1.00  0.00    -0.352 N 
ATOM     26  C   UNL A   1      41.184  19.563  26.117  1.00  0.00     0.251 C 
ATOM     27  H   UNL A   1      39.586  18.479  25.613  1.00  0.00     0.163 HD
ATOM     28  O   UNL A   1      41.962  18.611  26.065  1.00  0.00    -0.269 OA
BRANCH  26  29
ATOM     29  C   UNL A   1      41.648  20.867  26.624  1.00  0.00     0.039 A 
ATOM     30  C   UNL A   1      42.187  21.799  25.737  1.00  0.00     0.014 A 
ATOM     31  C   UNL A   1      41.567  21.156  27.988  1.00  0.00     0.014 A 
ATOM     32  C   UNL A   1      42.588  23.047  26.213  1.00  0.00     0.010 A 
ATOM     33  C   UNL A   1      41.864  22.431  28.441  1.00  0.00     0.010 A 
ATOM     34  C   UNL A   1      42.397  23.382  27.563  1.00  0.00    -0.014 A 
BRANCH  34  35
ATOM     35  C   UNL A   1      42.781  24.710  28.093  1.00  0.00     0.031 A 
ATOM     36  C   UNL A   1      41.730  25.765  28.294  1.00  0.00     0.074 A 
ATOM     37  C   UNL A   1      44.077  24.981  28.333  1.00  0.00     0.049 A 
ATOM     38  N   UNL A   1      41.871  27.003  28.694  1.00  0.00    -0.248 NA
ATOM     39  C   UNL A   1      40.341  25.393  27.975  1.00  0.00     0.031 C 
ATOM     40  C   UNL A   1      45.189  24.048  28.138  1.00  0.00     0.029 A 
ATOM     41  N   UNL A   1      44.679  26.123  28.796  1.00  0.00    -0.354 N 
ATOM     42  C   UNL A   1      40.597  27.555  28.660  1.00  0.00     0.074 A 
ATOM     43  C   UNL A   1      39.706  26.544  28.139  1.00  0.00     0.031 C 
ATOM     44  C   UNL A   1      46.331  24.640  28.520  1.00  0.00     0.029 A 
ATOM     45  C   UNL A   1      46.040  26.006  28.941  1.00  0.00     0.049 A 
ATOM     46  H   UNL A   1      44.183  26.947  29.003  1.00  0.00     0.167 HD
ATOM     47  C   UNL A   1      40.200  28.785  29.057  1.00  0.00     0.031 A 
ATOM     48  C   UNL A   1      46.951  26.901  29.368  1.00  0.00     0.031 A 
ATOM     49  C   UNL A   1      41.087  29.781  29.590  1.00  0.00     0.049 A 
ATOM     50  C   UNL A   1      46.488  28.270  29.782  1.00  0.00     0.074 A 
ATOM     51  C   UNL A   1      40.779  31.039  30.071  1.00  0.00     0.029 A 
ATOM     52  N   UNL A   1      42.460  29.628  29.710  1.00  0.00    -0.354 N 
ATOM     53  N   UNL A   1      45.270  28.757  29.805  1.00  0.00    -0.248 NA
ATOM     54  C   UNL A   1      47.523  29.210  30.235  1.00  0.00     0.031 C 
ATOM     55  C   UNL A   1      41.972  31.671  30.428  1.00  0.00     0.029 A 
ATOM     56  C   UNL A   1      43.017  30.782  30.230  1.00  0.00     0.049 A 
ATOM     57  H   UNL A   1      42.963  28.818  29.462  1.00  0.00     0.167 HD
ATOM     58  C   UNL A   1      45.389  30.052  30.292  1.00  0.00     0.074 A 
ATOM     59  C   UNL A   1      46.795  30.267  30.570  1.00  0.00     0.031 C 
ATOM     60  C   UNL A   1      44.421  30.979  30.492  1.00  0.00     0.031 A 
BRANCH  47  61
ATOM     61  C   UNL A   1      38.738  29.119  28.932  1.00  0.00    -0.014 A 
ATOM     62  C   UNL A   1      37.865  28.980  30.023  1.00  0.00     0.009 A 
ATOM     63  C   UNL A   1      38.236  29.618  27.720  1.00  0.00     0.009 A 
ATOM     64  C   UNL A   1      36.514  29.305  29.894  1.00  0.00     0.001 A 
ATOM     65  C   UNL A   1      36.890  29.972  27.603  1.00  0.00     0.001 A 
ATOM     66  C   UNL A   1      36.029  29.807  28.686  1.00  0.00     0.000 A 
ENDBRANCH  47  61
BRANCH  48  67
ATOM     67  C   UNL A   1      48.381  26.509  29.455  1.00  0.00    -0.014 A 
ATOM     68  C   UNL A   1      49.255  26.773  28.390  1.00  0.00     0.009 A 
ATOM     69  C   UNL A   1      48.891  25.907  30.616  1.00  0.00     0.009 A 
ATOM     70  C   UNL A   1      50.607  26.431  28.482  1.00  0.00     0.001 A 
ATOM     71  C   UNL A   1      50.248  25.593  30.717  1.00  0.00     0.001 A 
ATOM     72  C   UNL A   1      51.103  25.851  29.647  1.00  0.00     0.000 A 
ENDBRANCH  48  67
BRANCH  60  73
ATOM     73  C   UNL A   1      44.838  32.312  31.044  1.00  0.00    -0.014 A 
ATOM     74  C   UNL A   1      45.142  33.385  30.193  1.00  0.00     0.009 A 
ATOM     75  C   UNL A   1      44.844  32.519  32.433  1.00  0.00     0.009 A 
ATOM     76  C   UNL A   1      45.460  34.637  30.724  1.00  0.00     0.001 A 
ATOM     77  C   UNL A   1      45.132  33.779  32.959  1.00  0.00     0.001 A 
ATOM     78  C   UNL A   1      45.446  34.834  32.105  1.00  0.00     0.000 A 
ENDBRANCH  60  73
ENDBRANCH  34  35
ENDBRANCH  26  29
ENDBRANCH  24  25
ENDBRANCH   1  24
TORSDOF 11
ENDMDL
