MODEL 1
REMARK VINA RESULT:     -10.7      0.000      0.000
REMARK SMILES CCC(CC)(Nc1nc(Cl)nc(OC)n1)C(=O)NCCCNC(=O)c1ccc(-c2c3nc(c(-c4ccccc4)c4ccc([nH]4)c(-c4ccccc4)c4nc(c(-c5ccccc5)c5ccc2[nH]5)C=C4)C=C3)cc1
REMARK SMILES IDX 19 1 18 2 16 3 17 4 3 6 2 7 1 8 4 9 5 10 6 11 7 13 8 14
REMARK SMILES IDX 15 15 9 16 12 17 10 18 11 19 13 20 14 21 20 22 21 23 22 24
REMARK SMILES IDX 23 25 24 27 25 28 26 29 72 30 27 31 71 32 28 33 29 34 30 35
REMARK SMILES IDX 65 36 31 37 70 38 64 39 66 40 32 41 69 42 63 43 62 44 33 46
REMARK SMILES IDX 55 47 40 48 54 49 41 50 44 51 53 52 67 53 42 54 43 55 52 57
REMARK SMILES IDX 68 58 45 59 34 60 35 61 39 62 36 63 38 64 37 65 56 66 57 67
REMARK SMILES IDX 61 68 58 69 60 70 59 71 46 72 47 73 51 74 48 75 50 76 49 77
REMARK H PARENT 18 5 6 12 22 26 66 45 44 56
REMARK Flexibility Score: inf
ROOT
ATOM      1  C   UNL A   1      36.140  20.292  25.362  1.00  0.00     0.117 C 
ENDROOT
BRANCH   1   2
ATOM      2  N   UNL A   1      35.350  21.135  24.479  1.00  0.00    -0.354 N 
ATOM      3  C   UNL A   1      34.053  21.571  24.533  1.00  0.00     0.245 C 
ATOM      4  O   UNL A   1      33.687  22.283  23.590  1.00  0.00    -0.272 OA
ATOM      5  H   UNL A   1      35.844  21.455  23.690  1.00  0.00     0.163 HD
BRANCH   3   6
ATOM      6  C   UNL A   1      33.102  21.225  25.734  1.00  0.00     0.118 C 
BRANCH   6   7
ATOM      7  C   UNL A   1      31.639  21.700  25.448  1.00  0.00     0.035 C 
ATOM      8  C   UNL A   1      31.079  22.799  26.351  1.00  0.00     0.007 C 
ENDBRANCH   6   7
BRANCH   6   9
ATOM      9  C   UNL A   1      33.670  21.944  26.996  1.00  0.00     0.035 C 
ATOM     10  C   UNL A   1      34.428  23.245  26.756  1.00  0.00     0.007 C 
ENDBRANCH   6   9
BRANCH   6  11
ATOM     11  N   UNL A   1      33.031  19.763  25.967  1.00  0.00    -0.340 N 
ATOM     12  H   UNL A   1      33.006  19.445  26.898  1.00  0.00     0.164 HD
BRANCH  11  13
ATOM     13  C   UNL A   1      32.998  18.822  24.962  1.00  0.00     0.231 A 
ATOM     14  N   UNL A   1      32.501  19.119  23.775  1.00  0.00    -0.182 NA
ATOM     15  N   UNL A   1      33.560  17.654  25.242  1.00  0.00    -0.159 NA
ATOM     16  C   UNL A   1      32.650  18.182  22.850  1.00  0.00     0.230 A 
ATOM     17  C   UNL A   1      33.615  16.793  24.225  1.00  0.00     0.322 A 
ATOM     18  Cl  UNL A   1      32.160  18.605  21.269  1.00  0.00    -0.041 Cl
ATOM     19  N   UNL A   1      33.209  16.997  22.986  1.00  0.00    -0.164 NA
BRANCH  17  20
ATOM     20  O   UNL A   1      34.207  15.576  24.458  1.00  0.00    -0.467 OA
ATOM     21  C   UNL A   1      35.341  15.772  25.295  1.00  0.00     0.282 C 
ENDBRANCH  17  20
ENDBRANCH  11  13
ENDBRANCH   6  11
ENDBRANCH   3   6
ENDBRANCH   1   2
BRANCH   1  22
ATOM     22  C   UNL A   1      37.501  19.892  24.811  1.00  0.00     0.042 C 
BRANCH  22  23
ATOM     23  C   UNL A   1      38.692  20.403  25.602  1.00  0.00     0.118 C 
BRANCH  23  24
ATOM     24  N   UNL A   1      39.767  19.427  25.694  1.00  0.00    -0.352 N 
ATOM     25  C   UNL A   1      41.080  19.607  26.063  1.00  0.00     0.251 C 
ATOM     26  H   UNL A   1      39.518  18.504  25.458  1.00  0.00     0.163 HD
ATOM     27  O   UNL A   1      41.886  18.695  25.931  1.00  0.00    -0.269 OA
BRANCH  25  28
ATOM     28  C   UNL A   1      41.526  20.916  26.589  1.00  0.00     0.039 A 
ATOM     29  C   UNL A   1      42.063  21.852  25.702  1.00  0.00     0.014 A 
ATOM     30  C   UNL A   1      41.409  21.224  27.948  1.00  0.00     0.014 A 
ATOM     31  C   UNL A   1      42.415  23.124  26.163  1.00  0.00     0.010 A 
ATOM     32  C   UNL A   1      41.682  22.515  28.389  1.00  0.00     0.010 A 
ATOM     33  C   UNL A   1      42.191  23.477  27.504  1.00  0.00    -0.014 A 
BRANCH  33  34
ATOM     34  C   UNL A   1      42.502  24.837  28.013  1.00  0.00     0.031 A 
ATOM     35  C   UNL A   1      43.904  25.170  28.447  1.00  0.00     0.074 A 
ATOM     36  C   UNL A   1      41.519  25.747  28.157  1.00  0.00     0.049 A 
ATOM     37  N   UNL A   1      44.355  26.258  29.018  1.00  0.00    -0.248 NA
ATOM     38  C   UNL A   1      44.926  24.134  28.231  1.00  0.00     0.031 C 
ATOM     39  C   UNL A   1      40.114  25.546  27.798  1.00  0.00     0.029 A 
ATOM     40  N   UNL A   1      41.554  27.024  28.661  1.00  0.00    -0.354 N 
ATOM     41  C   UNL A   1      45.705  26.026  29.252  1.00  0.00     0.074 A 
ATOM     42  C   UNL A   1      45.989  24.682  28.799  1.00  0.00     0.031 C 
ATOM     43  C   UNL A   1      39.426  26.665  28.077  1.00  0.00     0.029 A 
ATOM     44  C   UNL A   1      40.328  27.645  28.675  1.00  0.00     0.049 A 
ATOM     45  H   UNL A   1      42.379  27.455  28.982  1.00  0.00     0.167 HD
ATOM     46  C   UNL A   1      46.629  26.861  29.783  1.00  0.00     0.031 A 
ATOM     47  C   UNL A   1      39.968  28.859  29.132  1.00  0.00     0.031 A 
ATOM     48  C   UNL A   1      46.354  28.203  30.220  1.00  0.00     0.049 A 
ATOM     49  C   UNL A   1      41.008  29.761  29.736  1.00  0.00     0.074 A 
ATOM     50  C   UNL A   1      47.236  29.142  30.726  1.00  0.00     0.029 A 
ATOM     51  N   UNL A   1      45.101  28.795  30.202  1.00  0.00    -0.354 N 
ATOM     52  N   UNL A   1      42.290  29.546  29.902  1.00  0.00    -0.248 NA
ATOM     53  C   UNL A   1      40.552  31.077  30.207  1.00  0.00     0.031 C 
ATOM     54  C   UNL A   1      46.508  30.289  31.055  1.00  0.00     0.029 A 
ATOM     55  C   UNL A   1      45.184  30.082  30.705  1.00  0.00     0.049 A 
ATOM     56  H   UNL A   1      44.276  28.365  29.881  1.00  0.00     0.167 HD
ATOM     57  C   UNL A   1      42.800  30.710  30.463  1.00  0.00     0.074 A 
ATOM     58  C   UNL A   1      41.691  31.630  30.604  1.00  0.00     0.031 C 
ATOM     59  C   UNL A   1      44.074  30.991  30.824  1.00  0.00     0.031 A 
BRANCH  46  60
ATOM     60  C   UNL A   1      48.030  26.337  29.926  1.00  0.00    -0.014 A 
ATOM     61  C   UNL A   1      48.958  26.441  28.878  1.00  0.00     0.009 A 
ATOM     62  C   UNL A   1      48.438  25.761  31.139  1.00  0.00     0.009 A 
ATOM     63  C   UNL A   1      50.253  25.944  29.028  1.00  0.00     0.001 A 
ATOM     64  C   UNL A   1      49.743  25.291  31.297  1.00  0.00     0.001 A 
ATOM     65  C   UNL A   1      50.646  25.374  30.239  1.00  0.00     0.000 A 
ENDBRANCH  46  60
BRANCH  47  66
ATOM     66  C   UNL A   1      38.553  29.304  29.027  1.00  0.00    -0.014 A 
ATOM     67  C   UNL A   1      38.063  29.840  27.827  1.00  0.00     0.009 A 
ATOM     68  C   UNL A   1      37.688  29.204  30.128  1.00  0.00     0.009 A 
ATOM     69  C   UNL A   1      36.744  30.291  27.739  1.00  0.00     0.001 A 
ATOM     70  C   UNL A   1      36.362  29.630  30.029  1.00  0.00     0.001 A 
ATOM     71  C   UNL A   1      35.894  30.182  28.838  1.00  0.00     0.000 A 
ENDBRANCH  47  66
BRANCH  59  72
ATOM     72  C   UNL A   1      44.358  32.368  31.353  1.00  0.00    -0.014 A 
ATOM     73  C   UNL A   1      44.671  33.432  30.493  1.00  0.00     0.009 A 
ATOM     74  C   UNL A   1      44.245  32.615  32.730  1.00  0.00     0.009 A 
ATOM     75  C   UNL A   1      44.888  34.712  31.007  1.00  0.00     0.001 A 
ATOM     76  C   UNL A   1      44.437  33.901  33.238  1.00  0.00     0.001 A 
ATOM     77  C   UNL A   1      44.764  34.946  32.377  1.00  0.00     0.000 A 
ENDBRANCH  59  72
ENDBRANCH  33  34
ENDBRANCH  25  28
ENDBRANCH  23  24
ENDBRANCH  22  23
ENDBRANCH   1  22
TORSDOF 15
ENDMDL
MODEL 2
REMARK VINA RESULT:     -10.7      2.309      7.262
REMARK SMILES CCC(CC)(Nc1nc(Cl)nc(OC)n1)C(=O)NCCCNC(=O)c1ccc(-c2c3nc(c(-c4ccccc4)c4ccc([nH]4)c(-c4ccccc4)c4nc(c(-c5ccccc5)c5ccc2[nH]5)C=C4)C=C3)cc1
REMARK SMILES IDX 19 1 18 2 16 3 17 4 3 6 2 7 1 8 4 9 5 10 6 11 7 13 8 14
REMARK SMILES IDX 15 15 9 16 12 17 10 18 11 19 13 20 14 21 20 22 21 23 22 24
REMARK SMILES IDX 23 25 24 27 25 28 26 29 72 30 27 31 71 32 28 33 29 34 30 35
REMARK SMILES IDX 65 36 31 37 70 38 64 39 66 40 32 41 69 42 63 43 62 44 33 46
REMARK SMILES IDX 55 47 40 48 54 49 41 50 44 51 53 52 67 53 42 54 43 55 52 57
REMARK SMILES IDX 68 58 45 59 34 60 35 61 39 62 36 63 38 64 37 65 56 66 57 67
REMARK SMILES IDX 61 68 58 69 60 70 59 71 46 72 47 73 51 74 48 75 50 76 49 77
REMARK H PARENT 18 5 6 12 22 26 66 45 44 56
REMARK Flexibility Score: inf
ROOT
ATOM      1  C   UNL A   1      31.919  26.826  26.146  1.00  0.00     0.117 C 
ENDROOT
BRANCH   1   2
ATOM      2  N   UNL A   1      30.977  25.811  26.589  1.00  0.00    -0.354 N 
ATOM      3  C   UNL A   1      31.004  24.443  26.546  1.00  0.00     0.245 C 
ATOM      4  O   UNL A   1      30.011  23.871  27.011  1.00  0.00    -0.272 OA
ATOM      5  H   UNL A   1      30.161  26.179  27.000  1.00  0.00     0.163 HD
BRANCH   3   6
ATOM      6  C   UNL A   1      32.236  23.646  25.983  1.00  0.00     0.118 C 
BRANCH   6   7
ATOM      7  C   UNL A   1      33.583  24.256  26.495  1.00  0.00     0.035 C 
ATOM      8  C   UNL A   1      34.590  24.698  25.434  1.00  0.00     0.007 C 
ENDBRANCH   6   7
BRANCH   6   9
ATOM      9  C   UNL A   1      32.162  23.721  24.427  1.00  0.00     0.035 C 
ATOM     10  C   UNL A   1      30.770  23.679  23.808  1.00  0.00     0.007 C 
ENDBRANCH   6   9
BRANCH   6  11
ATOM     11  N   UNL A   1      32.219  22.233  26.429  1.00  0.00    -0.340 N 
ATOM     12  H   UNL A   1      31.713  22.012  27.245  1.00  0.00     0.164 HD
BRANCH  11  13
ATOM     13  C   UNL A   1      32.868  21.209  25.775  1.00  0.00     0.231 A 
ATOM     14  N   UNL A   1      32.191  20.328  25.061  1.00  0.00    -0.182 NA
ATOM     15  N   UNL A   1      34.192  21.220  25.850  1.00  0.00    -0.159 NA
ATOM     16  C   UNL A   1      32.932  19.476  24.367  1.00  0.00     0.230 A 
ATOM     17  C   UNL A   1      34.808  20.287  25.124  1.00  0.00     0.322 A 
ATOM     18  Cl  UNL A   1      32.084  18.433  23.312  1.00  0.00    -0.041 Cl
ATOM     19  N   UNL A   1      34.246  19.396  24.329  1.00  0.00    -0.164 NA
BRANCH  17  20
ATOM     20  O   UNL A   1      36.181  20.269  25.150  1.00  0.00    -0.467 OA
ATOM     21  C   UNL A   1      36.653  21.605  25.286  1.00  0.00     0.282 C 
ENDBRANCH  17  20
ENDBRANCH  11  13
ENDBRANCH   6  11
ENDBRANCH   3   6
ENDBRANCH   1   2
BRANCH   1  22
ATOM     22  C   UNL A   1      32.015  28.044  27.054  1.00  0.00     0.042 C 
BRANCH  22  23
ATOM     23  C   UNL A   1      33.420  28.581  27.264  1.00  0.00     0.118 C 
BRANCH  23  24
ATOM     24  N   UNL A   1      33.438  30.000  27.582  1.00  0.00    -0.352 N 
ATOM     25  C   UNL A   1      34.437  30.756  28.151  1.00  0.00     0.251 C 
ATOM     26  H   UNL A   1      32.614  30.492  27.359  1.00  0.00     0.163 HD
ATOM     27  O   UNL A   1      34.217  31.911  28.493  1.00  0.00    -0.269 OA
BRANCH  25  28
ATOM     28  C   UNL A   1      35.772  30.159  28.382  1.00  0.00     0.039 A 
ATOM     29  C   UNL A   1      36.703  30.163  27.340  1.00  0.00     0.014 A 
ATOM     30  C   UNL A   1      36.108  29.605  29.620  1.00  0.00     0.014 A 
ATOM     31  C   UNL A   1      37.995  29.680  27.561  1.00  0.00     0.010 A 
ATOM     32  C   UNL A   1      37.417  29.201  29.863  1.00  0.00     0.010 A 
ATOM     33  C   UNL A   1      38.373  29.229  28.836  1.00  0.00    -0.014 A 
BRANCH  33  34
ATOM     34  C   UNL A   1      39.754  28.761  29.119  1.00  0.00     0.031 A 
ATOM     35  C   UNL A   1      40.745  29.699  29.754  1.00  0.00     0.074 A 
ATOM     36  C   UNL A   1      40.142  27.528  28.741  1.00  0.00     0.049 A 
ATOM     37  N   UNL A   1      42.021  29.520  29.981  1.00  0.00    -0.248 NA
ATOM     38  C   UNL A   1      40.238  31.018  30.164  1.00  0.00     0.031 C 
ATOM     39  C   UNL A   1      39.288  26.529  28.095  1.00  0.00     0.029 A 
ATOM     40  N   UNL A   1      41.364  26.910  28.834  1.00  0.00    -0.354 N 
ATOM     41  C   UNL A   1      42.473  30.711  30.536  1.00  0.00     0.074 A 
ATOM     42  C   UNL A   1      41.346  31.617  30.573  1.00  0.00     0.031 C 
ATOM     43  C   UNL A   1      40.009  25.418  27.867  1.00  0.00     0.029 A 
ATOM     44  C   UNL A   1      41.383  25.641  28.307  1.00  0.00     0.049 A 
ATOM     45  H   UNL A   1      42.153  27.336  29.241  1.00  0.00     0.167 HD
ATOM     46  C   UNL A   1      43.712  31.021  30.988  1.00  0.00     0.031 A 
ATOM     47  C   UNL A   1      42.394  24.763  28.178  1.00  0.00     0.031 A 
ATOM     48  C   UNL A   1      44.831  30.118  30.968  1.00  0.00     0.049 A 
ATOM     49  C   UNL A   1      43.766  25.136  28.669  1.00  0.00     0.074 A 
ATOM     50  C   UNL A   1      46.112  30.324  31.449  1.00  0.00     0.029 A 
ATOM     51  N   UNL A   1      44.800  28.838  30.438  1.00  0.00    -0.354 N 
ATOM     52  N   UNL A   1      44.164  26.247  29.238  1.00  0.00    -0.248 NA
ATOM     53  C   UNL A   1      44.825  24.129  28.507  1.00  0.00     0.031 C 
ATOM     54  C   UNL A   1      46.870  29.183  31.170  1.00  0.00     0.029 A 
ATOM     55  C   UNL A   1      46.046  28.248  30.564  1.00  0.00     0.049 A 
ATOM     56  H   UNL A   1      44.011  28.412  30.032  1.00  0.00     0.167 HD
ATOM     57  C   UNL A   1      45.508  26.060  29.535  1.00  0.00     0.074 A 
ATOM     58  C   UNL A   1      45.857  24.728  29.087  1.00  0.00     0.031 C 
ATOM     59  C   UNL A   1      46.373  26.916  30.129  1.00  0.00     0.031 A 
BRANCH  46  60
ATOM     60  C   UNL A   1      43.920  32.403  31.539  1.00  0.00    -0.014 A 
ATOM     61  C   UNL A   1      44.306  33.467  30.709  1.00  0.00     0.009 A 
ATOM     62  C   UNL A   1      43.695  32.651  32.902  1.00  0.00     0.009 A 
ATOM     63  C   UNL A   1      44.500  34.744  31.239  1.00  0.00     0.001 A 
ATOM     64  C   UNL A   1      43.861  33.935  33.425  1.00  0.00     0.001 A 
ATOM     65  C   UNL A   1      44.272  34.977  32.596  1.00  0.00     0.000 A 
ENDBRANCH  46  60
BRANCH  47  66
ATOM     66  C   UNL A   1      42.150  23.431  27.563  1.00  0.00    -0.014 A 
ATOM     67  C   UNL A   1      42.494  23.193  26.223  1.00  0.00     0.009 A 
ATOM     68  C   UNL A   1      41.565  22.396  28.308  1.00  0.00     0.009 A 
ATOM     69  C   UNL A   1      42.232  21.954  25.636  1.00  0.00     0.001 A 
ATOM     70  C   UNL A   1      41.331  21.148  27.726  1.00  0.00     0.001 A 
ATOM     71  C   UNL A   1      41.655  20.931  26.387  1.00  0.00     0.000 A 
ENDBRANCH  47  66
BRANCH  59  72
ATOM     72  C   UNL A   1      47.769  26.424  30.387  1.00  0.00    -0.014 A 
ATOM     73  C   UNL A   1      48.124  25.840  31.613  1.00  0.00     0.009 A 
ATOM     74  C   UNL A   1      48.724  26.488  29.360  1.00  0.00     0.009 A 
ATOM     75  C   UNL A   1      49.417  25.351  31.811  1.00  0.00     0.001 A 
ATOM     76  C   UNL A   1      50.007  25.975  29.553  1.00  0.00     0.001 A 
ATOM     77  C   UNL A   1      50.354  25.414  30.780  1.00  0.00     0.000 A 
ENDBRANCH  59  72
ENDBRANCH  33  34
ENDBRANCH  25  28
ENDBRANCH  23  24
ENDBRANCH  22  23
ENDBRANCH   1  22
TORSDOF 15
ENDMDL
MODEL 3
REMARK VINA RESULT:     -10.6      4.236      8.641
REMARK SMILES CCC(CC)(Nc1nc(Cl)nc(OC)n1)C(=O)NCCCNC(=O)c1ccc(-c2c3nc(c(-c4ccccc4)c4ccc([nH]4)c(-c4ccccc4)c4nc(c(-c5ccccc5)c5ccc2[nH]5)C=C4)C=C3)cc1
REMARK SMILES IDX 19 1 18 2 16 3 17 4 3 6 2 7 1 8 4 9 5 10 6 11 7 13 8 14
REMARK SMILES IDX 15 15 9 16 12 17 10 18 11 19 13 20 14 21 20 22 21 23 22 24
REMARK SMILES IDX 23 25 24 27 25 28 26 29 72 30 27 31 71 32 28 33 29 34 30 35
REMARK SMILES IDX 65 36 31 37 70 38 64 39 66 40 32 41 69 42 63 43 62 44 33 46
REMARK SMILES IDX 55 47 40 48 54 49 41 50 44 51 53 52 67 53 42 54 43 55 52 57
REMARK SMILES IDX 68 58 45 59 34 60 35 61 39 62 36 63 38 64 37 65 56 66 57 67
REMARK SMILES IDX 61 68 58 69 60 70 59 71 46 72 47 73 51 74 48 75 50 76 49 77
REMARK H PARENT 18 5 6 12 22 26 66 45 44 56
REMARK Flexibility Score: inf
ROOT
ATOM      1  C   UNL A   1      32.232  26.946  26.884  1.00  0.00     0.117 C 
ENDROOT
BRANCH   1   2
ATOM      2  N   UNL A   1      30.898  26.560  26.451  1.00  0.00    -0.354 N 
ATOM      3  C   UNL A   1      30.415  26.078  25.264  1.00  0.00     0.245 C 
ATOM      4  O   UNL A   1      29.199  25.858  25.230  1.00  0.00    -0.272 OA
ATOM      5  H   UNL A   1      30.210  26.665  27.147  1.00  0.00     0.163 HD
BRANCH   3   6
ATOM      6  C   UNL A   1      31.350  25.783  24.037  1.00  0.00     0.118 C 
BRANCH   6   7
ATOM      7  C   UNL A   1      30.697  24.739  23.070  1.00  0.00     0.035 C 
ATOM      8  C   UNL A   1      30.984  23.264  23.350  1.00  0.00     0.007 C 
ENDBRANCH   6   7
BRANCH   6   9
ATOM      9  C   UNL A   1      32.696  25.234  24.602  1.00  0.00     0.035 C 
ATOM     10  C   UNL A   1      33.963  25.637  23.858  1.00  0.00     0.007 C 
ENDBRANCH   6   9
BRANCH   6  11
ATOM     11  N   UNL A   1      31.593  27.004  23.233  1.00  0.00    -0.340 N 
ATOM     12  H   UNL A   1      32.357  27.004  22.612  1.00  0.00     0.164 HD
BRANCH  11  13
ATOM     13  C   UNL A   1      30.817  28.140  23.301  1.00  0.00     0.231 A 
ATOM     14  N   UNL A   1      30.999  29.025  24.265  1.00  0.00    -0.182 NA
ATOM     15  N   UNL A   1      29.951  28.313  22.311  1.00  0.00    -0.159 NA
ATOM     16  C   UNL A   1      30.291  30.139  24.149  1.00  0.00     0.230 A 
ATOM     17  C   UNL A   1      29.285  29.467  22.336  1.00  0.00     0.322 A 
ATOM     18  Cl  UNL A   1      30.628  31.363  25.293  1.00  0.00    -0.041 Cl
ATOM     19  N   UNL A   1      29.423  30.448  23.208  1.00  0.00    -0.164 NA
BRANCH  17  20
ATOM     20  O   UNL A   1      28.392  29.703  21.320  1.00  0.00    -0.467 OA
ATOM     21  C   UNL A   1      28.251  31.110  21.152  1.00  0.00     0.282 C 
ENDBRANCH  17  20
ENDBRANCH  11  13
ENDBRANCH   6  11
ENDBRANCH   3   6
ENDBRANCH   1   2
BRANCH   1  22
ATOM     22  C   UNL A   1      32.328  28.345  27.476  1.00  0.00     0.042 C 
BRANCH  22  23
ATOM     23  C   UNL A   1      33.662  29.041  27.272  1.00  0.00     0.118 C 
BRANCH  23  24
ATOM     24  N   UNL A   1      33.685  30.386  27.824  1.00  0.00    -0.352 N 
ATOM     25  C   UNL A   1      34.679  31.023  28.531  1.00  0.00     0.251 C 
ATOM     26  H   UNL A   1      32.871  30.918  27.669  1.00  0.00     0.163 HD
ATOM     27  O   UNL A   1      34.462  32.107  29.058  1.00  0.00    -0.269 OA
BRANCH  25  28
ATOM     28  C   UNL A   1      36.003  30.380  28.686  1.00  0.00     0.039 A 
ATOM     29  C   UNL A   1      36.906  30.429  27.621  1.00  0.00     0.014 A 
ATOM     30  C   UNL A   1      36.356  29.738  29.877  1.00  0.00     0.014 A 
ATOM     31  C   UNL A   1      38.190  29.900  27.775  1.00  0.00     0.010 A 
ATOM     32  C   UNL A   1      37.660  29.286  30.056  1.00  0.00     0.010 A 
ATOM     33  C   UNL A   1      38.590  29.358  29.007  1.00  0.00    -0.014 A 
BRANCH  33  34
ATOM     34  C   UNL A   1      39.964  28.838  29.221  1.00  0.00     0.031 A 
ATOM     35  C   UNL A   1      41.021  29.738  29.801  1.00  0.00     0.074 A 
ATOM     36  C   UNL A   1      40.285  27.590  28.827  1.00  0.00     0.049 A 
ATOM     37  N   UNL A   1      42.300  29.512  29.964  1.00  0.00    -0.248 NA
ATOM     38  C   UNL A   1      40.586  31.076  30.233  1.00  0.00     0.031 C 
ATOM     39  C   UNL A   1      39.362  26.623  28.229  1.00  0.00     0.029 A 
ATOM     40  N   UNL A   1      41.487  26.927  28.860  1.00  0.00    -0.354 N 
ATOM     41  C   UNL A   1      42.824  30.685  30.491  1.00  0.00     0.074 A 
ATOM     42  C   UNL A   1      41.736  31.633  30.583  1.00  0.00     0.031 C 
ATOM     43  C   UNL A   1      40.028  25.486  27.968  1.00  0.00     0.029 A 
ATOM     44  C   UNL A   1      41.430  25.657  28.337  1.00  0.00     0.049 A 
ATOM     45  H   UNL A   1      42.311  27.322  29.225  1.00  0.00     0.167 HD
ATOM     46  C   UNL A   1      44.095  30.948  30.879  1.00  0.00     0.031 A 
ATOM     47  C   UNL A   1      42.400  24.741  28.159  1.00  0.00     0.031 A 
ATOM     48  C   UNL A   1      45.176  30.004  30.805  1.00  0.00     0.049 A 
ATOM     49  C   UNL A   1      43.808  25.063  28.579  1.00  0.00     0.074 A 
ATOM     50  C   UNL A   1      46.488  30.161  31.219  1.00  0.00     0.029 A 
ATOM     51  N   UNL A   1      45.070  28.725  30.281  1.00  0.00    -0.354 N 
ATOM     52  N   UNL A   1      44.276  26.159  29.123  1.00  0.00    -0.248 NA
ATOM     53  C   UNL A   1      44.819  24.016  28.366  1.00  0.00     0.031 C 
ATOM     54  C   UNL A   1      47.187  28.992  30.906  1.00  0.00     0.029 A 
ATOM     55  C   UNL A   1      46.298  28.088  30.345  1.00  0.00     0.049 A 
ATOM     56  H   UNL A   1      44.246  28.328  29.917  1.00  0.00     0.167 HD
ATOM     57  C   UNL A   1      45.626  25.921  29.352  1.00  0.00     0.074 A 
ATOM     58  C   UNL A   1      45.901  24.576  28.891  1.00  0.00     0.031 C 
ATOM     59  C   UNL A   1      46.552  26.744  29.898  1.00  0.00     0.031 A 
BRANCH  46  60
ATOM     60  C   UNL A   1      44.383  32.322  31.414  1.00  0.00    -0.014 A 
ATOM     61  C   UNL A   1      44.771  33.368  30.563  1.00  0.00     0.009 A 
ATOM     62  C   UNL A   1      44.233  32.581  32.785  1.00  0.00     0.009 A 
ATOM     63  C   UNL A   1      45.039  34.637  31.079  1.00  0.00     0.001 A 
ATOM     64  C   UNL A   1      44.474  33.859  33.295  1.00  0.00     0.001 A 
ATOM     65  C   UNL A   1      44.886  34.882  32.444  1.00  0.00     0.000 A 
ENDBRANCH  46  60
BRANCH  47  66
ATOM     66  C   UNL A   1      42.075  23.419  27.562  1.00  0.00    -0.014 A 
ATOM     67  C   UNL A   1      41.440  22.429  28.329  1.00  0.00     0.009 A 
ATOM     68  C   UNL A   1      42.404  23.136  26.228  1.00  0.00     0.009 A 
ATOM     69  C   UNL A   1      41.167  21.175  27.779  1.00  0.00     0.001 A 
ATOM     70  C   UNL A   1      42.104  21.890  25.672  1.00  0.00     0.001 A 
ATOM     71  C   UNL A   1      41.495  20.908  26.451  1.00  0.00     0.000 A 
ENDBRANCH  47  66
BRANCH  59  72
ATOM     72  C   UNL A   1      47.939  26.199  30.087  1.00  0.00    -0.014 A 
ATOM     73  C   UNL A   1      48.878  26.210  29.043  1.00  0.00     0.009 A 
ATOM     74  C   UNL A   1      48.329  25.728  31.350  1.00  0.00     0.009 A 
ATOM     75  C   UNL A   1      50.173  25.737  29.258  1.00  0.00     0.001 A 
ATOM     76  C   UNL A   1      49.633  25.280  31.568  1.00  0.00     0.001 A 
ATOM     77  C   UNL A   1      50.551  25.279  30.520  1.00  0.00     0.000 A 
ENDBRANCH  59  72
ENDBRANCH  33  34
ENDBRANCH  25  28
ENDBRANCH  23  24
ENDBRANCH  22  23
ENDBRANCH   1  22
TORSDOF 15
ENDMDL
