MODEL 1
REMARK VINA RESULT:     -11.3      0.000      0.000
REMARK SMILES [NH3+]C1(C(=O)N2[C@@H](C(=O)NCCCNC(=O)c3ccc(-c4c5nc(c(-c6ccccc6)c6ccc([nH]6)c(-c6ccccc6)c6nc(c(-c7ccccc7)c7ccc4[nH]7)C=C6)C=C5)cc3)CC[C@@H]3CCCC[C@@H]32)CC1
REMARK SMILES IDX 10 1 9 2 7 3 8 4 6 6 5 7 71 8 64 9 66 10 70 11 65 12 67 13
REMARK SMILES IDX 69 14 68 15 3 16 4 17 2 18 72 19 73 20 1 21 11 25 12 26
REMARK SMILES IDX 13 27 14 28 15 30 16 31 17 32 63 33 18 34 62 35 19 36 20 37
REMARK SMILES IDX 21 38 56 39 22 40 61 41 55 42 57 43 23 44 60 45 54 46 53 47
REMARK SMILES IDX 24 49 46 50 31 51 45 52 32 53 35 54 44 55 58 56 33 57 34 58
REMARK SMILES IDX 43 60 59 61 36 62 25 63 26 64 30 65 27 66 29 67 28 68 47 69
REMARK SMILES IDX 48 70 52 71 49 72 51 73 50 74 37 75 38 76 42 77 39 78 41 79
REMARK SMILES IDX 40 80
REMARK H PARENT 9 5 1 22 1 23 1 24 13 29 57 48 35 59
REMARK Flexibility Score: inf
ROOT
ATOM      1  C   UNL A   1      32.074  26.864  26.273  1.00  0.00     0.117 C 
ENDROOT
BRANCH   1   2
ATOM      2  N   UNL A   1      31.369  25.752  26.883  1.00  0.00    -0.354 N 
ATOM      3  C   UNL A   1      31.654  24.424  26.852  1.00  0.00     0.242 C 
ATOM      4  O   UNL A   1      30.737  23.643  27.127  1.00  0.00    -0.273 OA
ATOM      5  H   UNL A   1      30.566  25.997  27.397  1.00  0.00     0.163 HD
BRANCH   3   6
ATOM      6  C   UNL A   1      33.007  23.896  26.353  1.00  0.00     0.175 C 
ATOM      7  N   UNL A   1      33.163  23.551  24.917  1.00  0.00    -0.322 N 
ATOM      8  C   UNL A   1      34.371  22.792  24.536  1.00  0.00     0.089 C 
ATOM      9  C   UNL A   1      33.323  22.687  27.273  1.00  0.00     0.036 C 
ATOM     10  C   UNL A   1      34.528  21.541  25.397  1.00  0.00     0.012 C 
ATOM     11  C   UNL A   1      35.616  23.698  24.533  1.00  0.00     0.025 C 
ATOM     12  C   UNL A   1      34.569  21.912  26.883  1.00  0.00     0.008 C 
ATOM     13  C   UNL A   1      35.772  20.779  24.944  1.00  0.00     0.006 C 
ATOM     14  C   UNL A   1      36.986  23.027  24.696  1.00  0.00     0.002 C 
ATOM     15  C   UNL A   1      37.042  21.577  25.176  1.00  0.00     0.000 C 
BRANCH   7  16
ATOM     16  C   UNL A   1      32.241  23.784  23.897  1.00  0.00     0.284 C 
ATOM     17  O   UNL A   1      31.489  22.868  23.547  1.00  0.00    -0.268 OA
BRANCH  16  18
ATOM     18  C   UNL A   1      32.213  25.055  23.046  1.00  0.00     0.174 C 
ATOM     19  C   UNL A   1      32.910  25.008  21.699  1.00  0.00     0.086 C 
ATOM     20  C   UNL A   1      33.319  26.022  22.718  1.00  0.00     0.086 C 
BRANCH  18  21
ATOM     21  N   UNL A   1      30.842  25.668  23.047  1.00  0.00    -0.345 N 
ATOM     22  H   UNL A   1      30.165  24.988  22.697  1.00  0.00     0.345 HD
ATOM     23  H   UNL A   1      30.837  26.492  22.445  1.00  0.00     0.345 HD
ATOM     24  H   UNL A   1      30.590  25.938  23.997  1.00  0.00     0.345 HD
ENDBRANCH  18  21
ENDBRANCH  16  18
ENDBRANCH   7  16
ENDBRANCH   3   6
ENDBRANCH   1   2
BRANCH   1  25
ATOM     25  C   UNL A   1      32.222  28.016  27.253  1.00  0.00     0.042 C 
BRANCH  25  26
ATOM     26  C   UNL A   1      33.608  28.634  27.242  1.00  0.00     0.118 C 
BRANCH  26  27
ATOM     27  N   UNL A   1      33.593  30.039  27.626  1.00  0.00    -0.352 N 
ATOM     28  C   UNL A   1      34.554  30.767  28.277  1.00  0.00     0.251 C 
ATOM     29  H   UNL A   1      32.778  30.534  27.385  1.00  0.00     0.163 HD
ATOM     30  O   UNL A   1      34.292  31.887  28.711  1.00  0.00    -0.269 OA
BRANCH  28  31
ATOM     31  C   UNL A   1      35.897  30.191  28.471  1.00  0.00     0.039 A 
ATOM     32  C   UNL A   1      36.816  30.244  27.422  1.00  0.00     0.014 A 
ATOM     33  C   UNL A   1      36.250  29.611  29.692  1.00  0.00     0.014 A 
ATOM     34  C   UNL A   1      38.110  29.764  27.620  1.00  0.00     0.010 A 
ATOM     35  C   UNL A   1      37.566  29.231  29.920  1.00  0.00     0.010 A 
ATOM     36  C   UNL A   1      38.503  29.285  28.880  1.00  0.00    -0.014 A 
BRANCH  36  37
ATOM     37  C   UNL A   1      39.885  28.805  29.125  1.00  0.00     0.031 A 
ATOM     38  C   UNL A   1      40.892  29.719  29.768  1.00  0.00     0.074 A 
ATOM     39  C   UNL A   1      40.246  27.573  28.719  1.00  0.00     0.049 A 
ATOM     40  N   UNL A   1      42.158  29.505  30.020  1.00  0.00    -0.248 NA
ATOM     41  C   UNL A   1      40.423  31.061  30.152  1.00  0.00     0.031 C 
ATOM     42  C   UNL A   1      39.372  26.609  28.045  1.00  0.00     0.029 A 
ATOM     43  N   UNL A   1      41.449  26.921  28.812  1.00  0.00    -0.354 N 
ATOM     44  C   UNL A   1      42.637  30.686  30.572  1.00  0.00     0.074 A 
ATOM     45  C   UNL A   1      41.545  31.633  30.561  1.00  0.00     0.031 C 
ATOM     46  C   UNL A   1      40.058  25.477  27.821  1.00  0.00     0.029 A 
ATOM     47  C   UNL A   1      41.428  25.651  28.290  1.00  0.00     0.049 A 
ATOM     48  H   UNL A   1      42.252  27.325  29.215  1.00  0.00     0.167 HD
ATOM     49  C   UNL A   1      43.868  30.953  31.067  1.00  0.00     0.031 A 
ATOM     50  C   UNL A   1      42.406  24.730  28.196  1.00  0.00     0.031 A 
ATOM     51  C   UNL A   1      44.949  30.005  31.086  1.00  0.00     0.049 A 
ATOM     52  C   UNL A   1      43.770  25.057  28.737  1.00  0.00     0.074 A 
ATOM     53  C   UNL A   1      46.219  30.157  31.613  1.00  0.00     0.029 A 
ATOM     54  N   UNL A   1      44.886  28.727  30.550  1.00  0.00    -0.354 N 
ATOM     55  N   UNL A   1      44.189  26.155  29.319  1.00  0.00    -0.248 NA
ATOM     56  C   UNL A   1      44.794  24.010  28.619  1.00  0.00     0.031 C 
ATOM     57  C   UNL A   1      46.944  28.992  31.344  1.00  0.00     0.029 A 
ATOM     58  C   UNL A   1      46.104  28.089  30.711  1.00  0.00     0.049 A 
ATOM     59  H   UNL A   1      44.093  28.334  30.120  1.00  0.00     0.167 HD
ATOM     60  C   UNL A   1      45.512  25.918  29.667  1.00  0.00     0.074 A 
ATOM     61  C   UNL A   1      45.820  24.568  29.246  1.00  0.00     0.031 C 
ATOM     62  C   UNL A   1      46.392  26.744  30.284  1.00  0.00     0.031 A 
BRANCH  49  63
ATOM     63  C   UNL A   1      44.109  32.331  31.621  1.00  0.00    -0.014 A 
ATOM     64  C   UNL A   1      44.570  33.376  30.803  1.00  0.00     0.009 A 
ATOM     65  C   UNL A   1      43.846  32.595  32.974  1.00  0.00     0.009 A 
ATOM     66  C   UNL A   1      44.800  34.646  31.339  1.00  0.00     0.001 A 
ATOM     67  C   UNL A   1      44.046  33.873  33.498  1.00  0.00     0.001 A 
ATOM     68  C   UNL A   1      44.533  34.894  32.684  1.00  0.00     0.000 A 
ENDBRANCH  49  63
BRANCH  50  69
ATOM     69  C   UNL A   1      42.129  23.405  27.580  1.00  0.00    -0.014 A 
ATOM     70  C   UNL A   1      41.536  22.380  28.333  1.00  0.00     0.009 A 
ATOM     71  C   UNL A   1      42.463  23.156  26.241  1.00  0.00     0.009 A 
ATOM     72  C   UNL A   1      41.314  21.122  27.767  1.00  0.00     0.001 A 
ATOM     73  C   UNL A   1      42.211  21.907  25.667  1.00  0.00     0.001 A 
ATOM     74  C   UNL A   1      41.647  20.889  26.434  1.00  0.00     0.000 A 
ENDBRANCH  50  69
BRANCH  62  75
ATOM     75  C   UNL A   1      47.760  26.194  30.581  1.00  0.00    -0.014 A 
ATOM     76  C   UNL A   1      48.769  26.169  29.605  1.00  0.00     0.009 A 
ATOM     77  C   UNL A   1      48.052  25.728  31.873  1.00  0.00     0.009 A 
ATOM     78  C   UNL A   1      50.031  25.653  29.909  1.00  0.00     0.001 A 
ATOM     79  C   UNL A   1      49.323  25.245  32.182  1.00  0.00     0.001 A 
ATOM     80  C   UNL A   1      50.307  25.197  31.197  1.00  0.00     0.000 A 
ENDBRANCH  62  75
ENDBRANCH  36  37
ENDBRANCH  28  31
ENDBRANCH  26  27
ENDBRANCH  25  26
ENDBRANCH   1  25
TORSDOF 13
ENDMDL
MODEL 2
REMARK VINA RESULT:     -11.2      2.402      7.720
REMARK SMILES [NH3+]C1(C(=O)N2[C@@H](C(=O)NCCCNC(=O)c3ccc(-c4c5nc(c(-c6ccccc6)c6ccc([nH]6)c(-c6ccccc6)c6nc(c(-c7ccccc7)c7ccc4[nH]7)C=C6)C=C5)cc3)CC[C@@H]3CCCC[C@@H]32)CC1
REMARK SMILES IDX 10 1 9 2 7 3 8 4 6 6 5 7 71 8 64 9 66 10 70 11 65 12 67 13
REMARK SMILES IDX 69 14 68 15 3 16 4 17 2 18 72 19 73 20 1 21 11 25 12 26
REMARK SMILES IDX 13 27 14 28 15 30 16 31 17 32 63 33 18 34 62 35 19 36 20 37
REMARK SMILES IDX 21 38 56 39 22 40 61 41 55 42 57 43 23 44 60 45 54 46 53 47
REMARK SMILES IDX 24 49 46 50 31 51 45 52 32 53 35 54 44 55 58 56 33 57 34 58
REMARK SMILES IDX 43 60 59 61 36 62 25 63 26 64 30 65 27 66 29 67 28 68 47 69
REMARK SMILES IDX 48 70 52 71 49 72 51 73 50 74 37 75 38 76 42 77 39 78 41 79
REMARK SMILES IDX 40 80
REMARK H PARENT 9 5 1 22 1 23 1 24 13 29 57 48 35 59
REMARK Flexibility Score: inf
ROOT
ATOM      1  C   UNL A   1      34.638  23.293  25.326  1.00  0.00     0.117 C 
ENDROOT
BRANCH   1   2
ATOM      2  N   UNL A   1      34.549  23.724  23.943  1.00  0.00    -0.354 N 
ATOM      3  C   UNL A   1      33.961  24.832  23.417  1.00  0.00     0.242 C 
ATOM      4  O   UNL A   1      33.695  24.812  22.211  1.00  0.00    -0.273 OA
ATOM      5  H   UNL A   1      34.977  23.127  23.289  1.00  0.00     0.163 HD
BRANCH   3   6
ATOM      6  C   UNL A   1      33.507  26.005  24.298  1.00  0.00     0.175 C 
ATOM      7  N   UNL A   1      32.109  26.035  24.796  1.00  0.00    -0.322 N 
ATOM      8  C   UNL A   1      31.636  27.299  25.395  1.00  0.00     0.089 C 
ATOM      9  C   UNL A   1      33.853  27.274  23.476  1.00  0.00     0.036 C 
ATOM     10  C   UNL A   1      31.885  28.478  24.457  1.00  0.00     0.012 C 
ATOM     11  C   UNL A   1      32.223  27.498  26.804  1.00  0.00     0.025 C 
ATOM     12  C   UNL A   1      33.371  28.573  24.097  1.00  0.00     0.008 C 
ATOM     13  C   UNL A   1      31.353  29.752  25.109  1.00  0.00     0.006 C 
ATOM     14  C   UNL A   1      32.296  28.929  27.350  1.00  0.00     0.002 C 
ATOM     15  C   UNL A   1      32.106  30.096  26.382  1.00  0.00     0.000 C 
BRANCH   7  16
ATOM     16  C   UNL A   1      31.156  25.023  24.673  1.00  0.00     0.284 C 
ATOM     17  O   UNL A   1      30.595  24.857  23.585  1.00  0.00    -0.268 OA
BRANCH  16  18
ATOM     18  C   UNL A   1      30.618  24.209  25.851  1.00  0.00     0.174 C 
ATOM     19  C   UNL A   1      31.628  23.680  26.852  1.00  0.00     0.086 C 
ATOM     20  C   UNL A   1      30.721  22.734  26.133  1.00  0.00     0.086 C 
BRANCH  18  21
ATOM     21  N   UNL A   1      29.401  24.863  26.440  1.00  0.00    -0.345 N 
ATOM     22  H   UNL A   1      29.689  25.554  27.135  1.00  0.00     0.345 HD
ATOM     23  H   UNL A   1      28.817  24.156  26.886  1.00  0.00     0.345 HD
ATOM     24  H   UNL A   1      28.872  25.327  25.702  1.00  0.00     0.345 HD
ENDBRANCH  18  21
ENDBRANCH  16  18
ENDBRANCH   7  16
ENDBRANCH   3   6
ENDBRANCH   1   2
BRANCH   1  25
ATOM     25  C   UNL A   1      35.951  23.739  25.949  1.00  0.00     0.042 C 
BRANCH  25  26
ATOM     26  C   UNL A   1      37.121  23.671  24.984  1.00  0.00     0.118 C 
BRANCH  26  27
ATOM     27  N   UNL A   1      38.123  22.696  25.394  1.00  0.00    -0.352 N 
ATOM     28  C   UNL A   1      39.276  22.889  26.108  1.00  0.00     0.251 C 
ATOM     29  H   UNL A   1      37.946  21.768  25.119  1.00  0.00     0.163 HD
ATOM     30  O   UNL A   1      40.113  21.993  26.184  1.00  0.00    -0.269 OA
BRANCH  28  31
ATOM     31  C   UNL A   1      39.515  24.186  26.767  1.00  0.00     0.039 A 
ATOM     32  C   UNL A   1      39.054  24.380  28.070  1.00  0.00     0.014 A 
ATOM     33  C   UNL A   1      40.204  25.203  26.103  1.00  0.00     0.014 A 
ATOM     34  C   UNL A   1      39.336  25.577  28.726  1.00  0.00     0.010 A 
ATOM     35  C   UNL A   1      40.574  26.349  26.792  1.00  0.00     0.010 A 
ATOM     36  C   UNL A   1      40.126  26.557  28.103  1.00  0.00    -0.014 A 
BRANCH  36  37
ATOM     37  C   UNL A   1      40.472  27.822  28.795  1.00  0.00     0.031 A 
ATOM     38  C   UNL A   1      41.821  27.978  29.440  1.00  0.00     0.074 A 
ATOM     39  C   UNL A   1      39.554  28.803  28.891  1.00  0.00     0.049 A 
ATOM     40  N   UNL A   1      42.294  28.983  30.133  1.00  0.00    -0.248 NA
ATOM     41  C   UNL A   1      42.754  26.845  29.317  1.00  0.00     0.031 C 
ATOM     42  C   UNL A   1      38.196  28.754  28.344  1.00  0.00     0.029 A 
ATOM     43  N   UNL A   1      39.627  30.036  29.488  1.00  0.00    -0.354 N 
ATOM     44  C   UNL A   1      43.564  28.596  30.540  1.00  0.00     0.074 A 
ATOM     45  C   UNL A   1      43.766  27.243  30.072  1.00  0.00     0.031 C 
ATOM     46  C   UNL A   1      37.579  29.918  28.598  1.00  0.00     0.029 A 
ATOM     47  C   UNL A   1      38.476  30.775  29.364  1.00  0.00     0.049 A 
ATOM     48  H   UNL A   1      40.428  30.360  29.960  1.00  0.00     0.167 HD
ATOM     49  C   UNL A   1      44.491  29.309  31.221  1.00  0.00     0.031 A 
ATOM     50  C   UNL A   1      38.177  32.006  29.822  1.00  0.00     0.031 A 
ATOM     51  C   UNL A   1      44.292  30.658  31.676  1.00  0.00     0.049 A 
ATOM     52  C   UNL A   1      39.217  32.771  30.591  1.00  0.00     0.074 A 
ATOM     53  C   UNL A   1      45.186  31.489  32.327  1.00  0.00     0.029 A 
ATOM     54  N   UNL A   1      43.113  31.374  31.527  1.00  0.00    -0.354 N 
ATOM     55  N   UNL A   1      40.440  32.417  30.908  1.00  0.00    -0.248 NA
ATOM     56  C   UNL A   1      38.839  34.114  31.054  1.00  0.00     0.031 C 
ATOM     57  C   UNL A   1      44.528  32.687  32.626  1.00  0.00     0.029 A 
ATOM     58  C   UNL A   1      43.247  32.627  32.099  1.00  0.00     0.049 A 
ATOM     59  H   UNL A   1      42.301  31.039  31.082  1.00  0.00     0.167 HD
ATOM     60  C   UNL A   1      40.987  33.504  31.577  1.00  0.00     0.074 A 
ATOM     61  C   UNL A   1      39.970  34.534  31.605  1.00  0.00     0.031 C 
ATOM     62  C   UNL A   1      42.223  33.639  32.117  1.00  0.00     0.031 A 
BRANCH  49  63
ATOM     63  C   UNL A   1      45.803  28.635  31.520  1.00  0.00    -0.014 A 
ATOM     64  C   UNL A   1      45.990  27.893  32.698  1.00  0.00     0.009 A 
ATOM     65  C   UNL A   1      46.857  28.720  30.598  1.00  0.00     0.009 A 
ATOM     66  C   UNL A   1      47.220  27.286  32.965  1.00  0.00     0.001 A 
ATOM     67  C   UNL A   1      48.074  28.084  30.852  1.00  0.00     0.001 A 
ATOM     68  C   UNL A   1      48.258  27.378  32.039  1.00  0.00     0.000 A 
ENDBRANCH  49  63
BRANCH  50  69
ATOM     69  C   UNL A   1      36.841  32.599  29.551  1.00  0.00    -0.014 A 
ATOM     70  C   UNL A   1      35.810  32.495  30.498  1.00  0.00     0.009 A 
ATOM     71  C   UNL A   1      36.585  33.264  28.342  1.00  0.00     0.009 A 
ATOM     72  C   UNL A   1      34.542  33.015  30.226  1.00  0.00     0.001 A 
ATOM     73  C   UNL A   1      35.326  33.811  28.086  1.00  0.00     0.001 A 
ATOM     74  C   UNL A   1      34.303  33.677  29.022  1.00  0.00     0.000 A 
ENDBRANCH  50  69
BRANCH  62  75
ATOM     75  C   UNL A   1      42.559  34.964  32.744  1.00  0.00    -0.014 A 
ATOM     76  C   UNL A   1      42.179  35.271  34.060  1.00  0.00     0.009 A 
ATOM     77  C   UNL A   1      43.304  35.904  32.014  1.00  0.00     0.009 A 
ATOM     78  C   UNL A   1      42.506  36.509  34.617  1.00  0.00     0.001 A 
ATOM     79  C   UNL A   1      43.658  37.127  32.585  1.00  0.00     0.001 A 
ATOM     80  C   UNL A   1      43.248  37.433  33.882  1.00  0.00     0.000 A 
ENDBRANCH  62  75
ENDBRANCH  36  37
ENDBRANCH  28  31
ENDBRANCH  26  27
ENDBRANCH  25  26
ENDBRANCH   1  25
TORSDOF 13
ENDMDL
MODEL 3
REMARK VINA RESULT:     -11.2      0.302      6.016
REMARK SMILES [NH3+]C1(C(=O)N2[C@@H](C(=O)NCCCNC(=O)c3ccc(-c4c5nc(c(-c6ccccc6)c6ccc([nH]6)c(-c6ccccc6)c6nc(c(-c7ccccc7)c7ccc4[nH]7)C=C6)C=C5)cc3)CC[C@@H]3CCCC[C@@H]32)CC1
REMARK SMILES IDX 10 1 9 2 7 3 8 4 6 6 5 7 71 8 64 9 66 10 70 11 65 12 67 13
REMARK SMILES IDX 69 14 68 15 3 16 4 17 2 18 72 19 73 20 1 21 11 25 12 26
REMARK SMILES IDX 13 27 14 28 15 30 16 31 17 32 63 33 18 34 62 35 19 36 20 37
REMARK SMILES IDX 21 38 56 39 22 40 61 41 55 42 57 43 23 44 60 45 54 46 53 47
REMARK SMILES IDX 24 49 46 50 31 51 45 52 32 53 35 54 44 55 58 56 33 57 34 58
REMARK SMILES IDX 43 60 59 61 36 62 25 63 26 64 30 65 27 66 29 67 28 68 47 69
REMARK SMILES IDX 48 70 52 71 49 72 51 73 50 74 37 75 38 76 42 77 39 78 41 79
REMARK SMILES IDX 40 80
REMARK H PARENT 9 5 1 22 1 23 1 24 13 29 57 48 35 59
REMARK Flexibility Score: inf
ROOT
ATOM      1  C   UNL A   1      32.091  26.798  26.285  1.00  0.00     0.117 C 
ENDROOT
BRANCH   1   2
ATOM      2  N   UNL A   1      31.398  25.676  26.892  1.00  0.00    -0.354 N 
ATOM      3  C   UNL A   1      31.709  24.354  26.873  1.00  0.00     0.242 C 
ATOM      4  O   UNL A   1      30.804  23.556  27.139  1.00  0.00    -0.273 OA
ATOM      5  H   UNL A   1      30.582  25.908  27.390  1.00  0.00     0.163 HD
BRANCH   3   6
ATOM      6  C   UNL A   1      33.080  23.849  26.400  1.00  0.00     0.175 C 
ATOM      7  N   UNL A   1      33.277  23.533  24.963  1.00  0.00    -0.322 N 
ATOM      8  C   UNL A   1      34.502  22.794  24.599  1.00  0.00     0.089 C 
ATOM      9  C   UNL A   1      33.386  22.626  27.306  1.00  0.00     0.036 C 
ATOM     10  C   UNL A   1      34.651  21.528  25.440  1.00  0.00     0.012 C 
ATOM     11  C   UNL A   1      35.737  23.712  24.646  1.00  0.00     0.025 C 
ATOM     12  C   UNL A   1      34.650  21.872  26.933  1.00  0.00     0.008 C 
ATOM     13  C   UNL A   1      35.914  20.788  25.006  1.00  0.00     0.006 C 
ATOM     14  C   UNL A   1      37.110  23.053  24.831  1.00  0.00     0.002 C 
ATOM     15  C   UNL A   1      37.170  21.595  25.285  1.00  0.00     0.000 C 
BRANCH   7  16
ATOM     16  C   UNL A   1      32.379  23.776  23.923  1.00  0.00     0.284 C 
ATOM     17  O   UNL A   1      31.625  22.868  23.558  1.00  0.00    -0.268 OA
BRANCH  16  18
ATOM     18  C   UNL A   1      32.382  25.047  23.072  1.00  0.00     0.174 C 
ATOM     19  C   UNL A   1      33.243  25.047  21.823  1.00  0.00     0.086 C 
ATOM     20  C   UNL A   1      33.462  26.078  22.882  1.00  0.00     0.086 C 
BRANCH  18  21
ATOM     21  N   UNL A   1      30.988  25.578  22.900  1.00  0.00    -0.345 N 
ATOM     22  H   UNL A   1      30.334  24.798  22.823  1.00  0.00     0.345 HD
ATOM     23  H   UNL A   1      30.942  26.144  22.054  1.00  0.00     0.345 HD
ATOM     24  H   UNL A   1      30.739  26.150  23.707  1.00  0.00     0.345 HD
ENDBRANCH  18  21
ENDBRANCH  16  18
ENDBRANCH   7  16
ENDBRANCH   3   6
ENDBRANCH   1   2
BRANCH   1  25
ATOM     25  C   UNL A   1      32.221  27.950  27.268  1.00  0.00     0.042 C 
BRANCH  25  26
ATOM     26  C   UNL A   1      33.598  28.590  27.256  1.00  0.00     0.118 C 
BRANCH  26  27
ATOM     27  N   UNL A   1      33.558  30.000  27.622  1.00  0.00    -0.352 N 
ATOM     28  C   UNL A   1      34.508  30.755  28.257  1.00  0.00     0.251 C 
ATOM     29  H   UNL A   1      32.731  30.476  27.380  1.00  0.00     0.163 HD
ATOM     30  O   UNL A   1      34.227  31.875  28.678  1.00  0.00    -0.269 OA
BRANCH  28  31
ATOM     31  C   UNL A   1      35.863  30.208  28.449  1.00  0.00     0.039 A 
ATOM     32  C   UNL A   1      36.765  30.239  27.385  1.00  0.00     0.014 A 
ATOM     33  C   UNL A   1      36.245  29.677  29.684  1.00  0.00     0.014 A 
ATOM     34  C   UNL A   1      38.069  29.787  27.579  1.00  0.00     0.010 A 
ATOM     35  C   UNL A   1      37.569  29.328  29.904  1.00  0.00     0.010 A 
ATOM     36  C   UNL A   1      38.490  29.359  28.849  1.00  0.00    -0.014 A 
BRANCH  36  37
ATOM     37  C   UNL A   1      39.883  28.911  29.089  1.00  0.00     0.031 A 
ATOM     38  C   UNL A   1      40.303  27.524  28.689  1.00  0.00     0.074 A 
ATOM     39  C   UNL A   1      40.749  29.730  29.717  1.00  0.00     0.049 A 
ATOM     40  N   UNL A   1      41.456  26.929  28.859  1.00  0.00    -0.248 NA
ATOM     41  C   UNL A   1      39.285  26.682  28.037  1.00  0.00     0.031 C 
ATOM     42  C   UNL A   1      40.448  31.082  30.192  1.00  0.00     0.029 A 
ATOM     43  N   UNL A   1      42.061  29.540  30.066  1.00  0.00    -0.354 N 
ATOM     44  C   UNL A   1      41.296  25.645  28.354  1.00  0.00     0.074 A 
ATOM     45  C   UNL A   1      39.920  25.525  27.929  1.00  0.00     0.031 C 
ATOM     46  C   UNL A   1      41.555  31.612  30.736  1.00  0.00     0.029 A 
ATOM     47  C   UNL A   1      42.627  30.624  30.691  1.00  0.00     0.049 A 
ATOM     48  H   UNL A   1      42.552  28.705  29.885  1.00  0.00     0.167 HD
ATOM     49  C   UNL A   1      42.216  24.660  28.232  1.00  0.00     0.031 A 
ATOM     50  C   UNL A   1      43.871  30.799  31.177  1.00  0.00     0.031 A 
ATOM     51  C   UNL A   1      43.587  24.787  28.646  1.00  0.00     0.049 A 
ATOM     52  C   UNL A   1      44.870  29.685  31.045  1.00  0.00     0.074 A 
ATOM     53  C   UNL A   1      44.614  23.868  28.518  1.00  0.00     0.029 A 
ATOM     54  N   UNL A   1      44.122  25.903  29.272  1.00  0.00    -0.354 N 
ATOM     55  N   UNL A   1      44.722  28.500  30.503  1.00  0.00    -0.248 NA
ATOM     56  C   UNL A   1      46.214  29.938  31.582  1.00  0.00     0.031 C 
ATOM     57  C   UNL A   1      45.757  24.406  29.119  1.00  0.00     0.029 A 
ATOM     58  C   UNL A   1      45.458  25.687  29.560  1.00  0.00     0.049 A 
ATOM     59  H   UNL A   1      43.624  26.726  29.480  1.00  0.00     0.167 HD
ATOM     60  C   UNL A   1      45.960  27.880  30.602  1.00  0.00     0.074 A 
ATOM     61  C   UNL A   1      46.851  28.826  31.242  1.00  0.00     0.031 C 
ATOM     62  C   UNL A   1      46.329  26.640  30.197  1.00  0.00     0.031 A 
BRANCH  49  63
ATOM     63  C   UNL A   1      41.763  23.357  27.632  1.00  0.00    -0.014 A 
ATOM     64  C   UNL A   1      41.779  23.149  26.242  1.00  0.00     0.009 A 
ATOM     65  C   UNL A   1      41.339  22.314  28.468  1.00  0.00     0.009 A 
ATOM     66  C   UNL A   1      41.342  21.936  25.703  1.00  0.00     0.001 A 
ATOM     67  C   UNL A   1      40.934  21.092  27.928  1.00  0.00     0.001 A 
ATOM     68  C   UNL A   1      40.925  20.908  26.547  1.00  0.00     0.000 A 
ENDBRANCH  49  63
BRANCH  50  69
ATOM     69  C   UNL A   1      44.246  32.087  31.819  1.00  0.00    -0.014 A 
ATOM     70  C   UNL A   1      44.753  33.146  31.049  1.00  0.00     0.009 A 
ATOM     71  C   UNL A   1      44.110  32.262  33.205  1.00  0.00     0.009 A 
ATOM     72  C   UNL A   1      45.146  34.340  31.658  1.00  0.00     0.001 A 
ATOM     73  C   UNL A   1      44.473  33.469  33.807  1.00  0.00     0.001 A 
ATOM     74  C   UNL A   1      45.001  34.502  33.035  1.00  0.00     0.000 A 
ENDBRANCH  50  69
BRANCH  62  75
ATOM     75  C   UNL A   1      47.769  26.252  30.392  1.00  0.00    -0.014 A 
ATOM     76  C   UNL A   1      48.234  25.751  31.618  1.00  0.00     0.009 A 
ATOM     77  C   UNL A   1      48.664  26.355  29.316  1.00  0.00     0.009 A 
ATOM     78  C   UNL A   1      49.577  25.397  31.771  1.00  0.00     0.001 A 
ATOM     79  C   UNL A   1      49.997  25.969  29.462  1.00  0.00     0.001 A 
ATOM     80  C   UNL A   1      50.454  25.502  30.692  1.00  0.00     0.000 A 
ENDBRANCH  62  75
ENDBRANCH  36  37
ENDBRANCH  28  31
ENDBRANCH  26  27
ENDBRANCH  25  26
ENDBRANCH   1  25
TORSDOF 13
ENDMDL
