MODEL 1
REMARK VINA RESULT:     -12.4      0.000      0.000
REMARK SMILES CS(=O)(=O)c1ccc(-c2cc(Cl)cc3c2O[C@H](C(F)(F)F)C(C(=O)NCCCNC(=O)c2ccc(-c4c5nc(c(-c6ccccc6)c6ccc([nH]6)c(-c6ccccc6)c6nc(c(-c7ccccc7)c7ccc4[nH]7)C=C6)C=C5)cc2)=C3)cc1
REMARK SMILES IDX 27 1 26 2 25 3 23 4 24 5 22 7 9 8 10 9 15 10 11 11 14 12
REMARK SMILES IDX 16 13 12 14 13 15 80 16 17 17 8 18 5 19 6 20 82 21 7 22
REMARK SMILES IDX 81 23 2 24 1 25 3 26 4 27 18 28 19 29 20 30 21 31 28 32
REMARK SMILES IDX 29 33 30 34 31 36 32 37 33 38 79 39 34 40 78 41 35 42 36 43
REMARK SMILES IDX 37 44 72 45 38 46 77 47 71 48 73 49 39 50 76 51 70 52 69 53
REMARK SMILES IDX 40 55 62 56 47 57 61 58 48 59 51 60 60 61 74 62 49 63 50 64
REMARK SMILES IDX 59 66 75 67 52 68 41 69 42 70 46 71 43 72 45 73 44 74 63 75
REMARK SMILES IDX 64 76 68 77 65 78 67 79 66 80 53 81 54 82 58 83 55 84 57 85
REMARK SMILES IDX 56 86
REMARK H PARENT 25 6 29 35 73 54 51 65
REMARK Flexibility Score: inf
ROOT
ATOM      1  C   UNL A   1      37.135  20.740  25.012  1.00  0.00     0.042 C 
ENDROOT
BRANCH   1   2
ATOM      2  C   UNL A   1      35.929  21.401  25.681  1.00  0.00     0.118 C 
BRANCH   2   3
ATOM      3  N   UNL A   1      35.922  22.823  25.404  1.00  0.00    -0.352 N 
ATOM      4  C   UNL A   1      35.186  23.447  24.451  1.00  0.00     0.251 C 
ATOM      5  O   UNL A   1      35.699  24.314  23.753  1.00  0.00    -0.270 OA
ATOM      6  H   UNL A   1      36.507  23.389  25.958  1.00  0.00     0.163 HD
BRANCH   4   7
ATOM      7  C   UNL A   1      33.727  23.144  24.433  1.00  0.00     0.067 C 
ATOM      8  C   UNL A   1      32.181  26.868  23.870  1.00  0.00     0.026 A 
ATOM      9  C   UNL A   1      32.913  27.743  24.715  1.00  0.00     0.033 A 
ATOM     10  C   UNL A   1      32.360  25.492  24.098  1.00  0.00     0.135 A 
ATOM     11  C   UNL A   1      33.608  27.292  25.836  1.00  0.00     0.042 A 
ATOM     12  C   UNL A   1      32.957  25.067  25.309  1.00  0.00     0.019 A 
ATOM     13  O   UNL A   1      32.021  24.513  23.172  1.00  0.00    -0.475 OA
ATOM     14  Cl  UNL A   1      34.481  28.409  26.807  1.00  0.00    -0.084 Cl
ATOM     15  C   UNL A   1      33.566  25.958  26.186  1.00  0.00     0.032 A 
ATOM     16  C   UNL A   1      33.099  23.611  25.531  1.00  0.00     0.025 C 
ATOM     17  C   UNL A   1      33.015  23.396  23.112  1.00  0.00     0.314 C 
BRANCH   8  18
ATOM     18  C   UNL A   1      31.115  27.522  23.060  1.00  0.00    -0.015 A 
ATOM     19  C   UNL A   1      29.115  29.446  22.516  1.00  0.00     0.067 A 
ATOM     20  C   UNL A   1      30.414  29.648  22.048  1.00  0.00     0.021 A 
ATOM     21  C   UNL A   1      28.778  28.254  23.156  1.00  0.00     0.021 A 
ATOM     22  C   UNL A   1      31.396  28.677  22.295  1.00  0.00     0.010 A 
ATOM     23  C   UNL A   1      29.769  27.291  23.408  1.00  0.00     0.010 A 
BRANCH  19  24
ATOM     24  S   UNL A   1      27.941  30.789  22.478  1.00  0.00     0.175 S 
ATOM     25  C   UNL A   1      28.876  32.190  23.017  1.00  0.00     0.163 C 
ATOM     26  O   UNL A   1      26.926  30.518  23.473  1.00  0.00    -0.224 OA
ATOM     27  O   UNL A   1      27.574  31.003  21.087  1.00  0.00    -0.224 OA
ENDBRANCH  19  24
ENDBRANCH   8  18
BRANCH  17  28
ATOM     28  C   UNL A   1      32.370  22.065  22.661  1.00  0.00     0.429 C 
ATOM     29  F   UNL A   1      31.037  22.026  22.880  1.00  0.00    -0.167 F 
ATOM     30  F   UNL A   1      32.574  21.847  21.339  1.00  0.00    -0.167 F 
ATOM     31  F   UNL A   1      32.896  20.988  23.302  1.00  0.00    -0.167 F 
ENDBRANCH  17  28
ENDBRANCH   4   7
ENDBRANCH   2   3
ENDBRANCH   1   2
BRANCH   1  32
ATOM     32  C   UNL A   1      38.480  21.077  25.649  1.00  0.00     0.118 C 
BRANCH  32  33
ATOM     33  N   UNL A   1      39.408  19.957  25.655  1.00  0.00    -0.352 N 
ATOM     34  C   UNL A   1      40.737  19.933  26.002  1.00  0.00     0.251 C 
ATOM     35  H   UNL A   1      39.030  19.094  25.372  1.00  0.00     0.163 HD
ATOM     36  O   UNL A   1      41.411  18.927  25.801  1.00  0.00    -0.269 OA
BRANCH  34  37
ATOM     37  C   UNL A   1      41.360  21.138  26.588  1.00  0.00     0.039 A 
ATOM     38  C   UNL A   1      41.880  22.112  25.734  1.00  0.00     0.014 A 
ATOM     39  C   UNL A   1      41.403  21.318  27.973  1.00  0.00     0.014 A 
ATOM     40  C   UNL A   1      42.377  23.302  26.268  1.00  0.00     0.010 A 
ATOM     41  C   UNL A   1      41.813  22.540  28.496  1.00  0.00     0.010 A 
ATOM     42  C   UNL A   1      42.306  23.545  27.651  1.00  0.00    -0.014 A 
BRANCH  42  43
ATOM     43  C   UNL A   1      42.739  24.843  28.229  1.00  0.00     0.031 A 
ATOM     44  C   UNL A   1      41.728  25.921  28.511  1.00  0.00     0.074 A 
ATOM     45  C   UNL A   1      44.050  25.077  28.442  1.00  0.00     0.049 A 
ATOM     46  N   UNL A   1      41.918  27.136  28.959  1.00  0.00    -0.248 NA
ATOM     47  C   UNL A   1      40.319  25.602  28.225  1.00  0.00     0.031 C 
ATOM     48  C   UNL A   1      45.136  24.131  28.173  1.00  0.00     0.029 A 
ATOM     49  N   UNL A   1      44.692  26.187  28.932  1.00  0.00    -0.354 N 
ATOM     50  C   UNL A   1      40.663  27.728  28.991  1.00  0.00     0.074 A 
ATOM     51  C   UNL A   1      39.725  26.762  28.463  1.00  0.00     0.031 C 
ATOM     52  C   UNL A   1      46.303  24.689  28.533  1.00  0.00     0.029 A 
ATOM     53  C   UNL A   1      46.056  26.044  29.012  1.00  0.00     0.049 A 
ATOM     54  H   UNL A   1      44.219  27.008  29.201  1.00  0.00     0.167 HD
ATOM     55  C   UNL A   1      40.314  28.957  29.440  1.00  0.00     0.031 A 
ATOM     56  C   UNL A   1      47.004  26.911  29.417  1.00  0.00     0.031 A 
ATOM     57  C   UNL A   1      41.244  29.916  29.972  1.00  0.00     0.049 A 
ATOM     58  C   UNL A   1      46.594  28.278  29.888  1.00  0.00     0.074 A 
ATOM     59  C   UNL A   1      40.984  31.166  30.504  1.00  0.00     0.029 A 
ATOM     60  N   UNL A   1      42.618  29.732  30.035  1.00  0.00    -0.354 N 
ATOM     61  N   UNL A   1      45.393  28.796  29.981  1.00  0.00    -0.248 NA
ATOM     62  C   UNL A   1      47.672  29.179  30.322  1.00  0.00     0.031 C 
ATOM     63  C   UNL A   1      42.205  31.765  30.831  1.00  0.00     0.029 A 
ATOM     64  C   UNL A   1      43.219  30.859  30.570  1.00  0.00     0.049 A 
ATOM     65  H   UNL A   1      43.093  28.921  29.744  1.00  0.00     0.167 HD
ATOM     66  C   UNL A   1      45.567  30.067  30.511  1.00  0.00     0.074 A 
ATOM     67  C   UNL A   1      46.988  30.235  30.738  1.00  0.00     0.031 C 
ATOM     68  C   UNL A   1      44.635  31.011  30.788  1.00  0.00     0.031 A 
BRANCH  55  69
ATOM     69  C   UNL A   1      38.859  29.335  29.366  1.00  0.00    -0.014 A 
ATOM     70  C   UNL A   1      37.977  29.060  30.423  1.00  0.00     0.009 A 
ATOM     71  C   UNL A   1      38.370  30.009  28.235  1.00  0.00     0.009 A 
ATOM     72  C   UNL A   1      36.628  29.412  30.332  1.00  0.00     0.001 A 
ATOM     73  C   UNL A   1      37.029  30.392  28.161  1.00  0.00     0.001 A 
ATOM     74  C   UNL A   1      36.158  30.083  29.204  1.00  0.00     0.000 A 
ENDBRANCH  55  69
BRANCH  56  75
ATOM     75  C   UNL A   1      48.438  26.511  29.407  1.00  0.00    -0.014 A 
ATOM     76  C   UNL A   1      49.009  25.875  30.520  1.00  0.00     0.009 A 
ATOM     77  C   UNL A   1      49.247  26.777  28.292  1.00  0.00     0.009 A 
ATOM     78  C   UNL A   1      50.366  25.544  30.528  1.00  0.00     0.001 A 
ATOM     79  C   UNL A   1      50.596  26.414  28.289  1.00  0.00     0.001 A 
ATOM     80  C   UNL A   1      51.157  25.809  29.412  1.00  0.00     0.000 A 
ENDBRANCH  56  75
BRANCH  68  81
ATOM     81  C   UNL A   1      45.115  32.295  31.407  1.00  0.00    -0.014 A 
ATOM     82  C   UNL A   1      45.240  32.437  32.797  1.00  0.00     0.009 A 
ATOM     83  C   UNL A   1      45.490  33.364  30.578  1.00  0.00     0.009 A 
ATOM     84  C   UNL A   1      45.694  33.639  33.346  1.00  0.00     0.001 A 
ATOM     85  C   UNL A   1      45.975  34.552  31.127  1.00  0.00     0.001 A 
ATOM     86  C   UNL A   1      46.067  34.692  32.511  1.00  0.00     0.000 A 
ENDBRANCH  68  81
ENDBRANCH  42  43
ENDBRANCH  34  37
ENDBRANCH  32  33
ENDBRANCH   1  32
TORSDOF 13
ENDMDL
MODEL 2
REMARK VINA RESULT:     -12.2      3.957      8.927
REMARK SMILES CS(=O)(=O)c1ccc(-c2cc(Cl)cc3c2O[C@H](C(F)(F)F)C(C(=O)NCCCNC(=O)c2ccc(-c4c5nc(c(-c6ccccc6)c6ccc([nH]6)c(-c6ccccc6)c6nc(c(-c7ccccc7)c7ccc4[nH]7)C=C6)C=C5)cc2)=C3)cc1
REMARK SMILES IDX 27 1 26 2 25 3 23 4 24 5 22 7 9 8 10 9 15 10 11 11 14 12
REMARK SMILES IDX 16 13 12 14 13 15 80 16 17 17 8 18 5 19 6 20 82 21 7 22
REMARK SMILES IDX 81 23 2 24 1 25 3 26 4 27 18 28 19 29 20 30 21 31 28 32
REMARK SMILES IDX 29 33 30 34 31 36 32 37 33 38 79 39 34 40 78 41 35 42 36 43
REMARK SMILES IDX 37 44 72 45 38 46 77 47 71 48 73 49 39 50 76 51 70 52 69 53
REMARK SMILES IDX 40 55 62 56 47 57 61 58 48 59 51 60 60 61 74 62 49 63 50 64
REMARK SMILES IDX 59 66 75 67 52 68 41 69 42 70 46 71 43 72 45 73 44 74 63 75
REMARK SMILES IDX 64 76 68 77 65 78 67 79 66 80 53 81 54 82 58 83 55 84 57 85
REMARK SMILES IDX 56 86
REMARK H PARENT 25 6 29 35 73 54 51 65
REMARK Flexibility Score: inf
ROOT
ATOM      1  C   UNL A   1      31.990  30.293  25.970  1.00  0.00     0.042 C 
ENDROOT
BRANCH   1   2
ATOM      2  C   UNL A   1      32.804  29.490  24.953  1.00  0.00     0.118 C 
BRANCH   2   3
ATOM      3  N   UNL A   1      33.418  28.347  25.598  1.00  0.00    -0.352 N 
ATOM      4  C   UNL A   1      32.833  27.142  25.812  1.00  0.00     0.251 C 
ATOM      5  O   UNL A   1      32.969  26.580  26.892  1.00  0.00    -0.270 OA
ATOM      6  H   UNL A   1      34.345  28.455  25.910  1.00  0.00     0.163 HD
BRANCH   4   7
ATOM      7  C   UNL A   1      32.189  26.497  24.632  1.00  0.00     0.067 C 
ATOM      8  C   UNL A   1      33.401  22.641  25.116  1.00  0.00     0.026 A 
ATOM      9  C   UNL A   1      34.771  22.690  25.486  1.00  0.00     0.033 A 
ATOM     10  C   UNL A   1      32.846  23.839  24.635  1.00  0.00     0.135 A 
ATOM     11  C   UNL A   1      35.583  23.787  25.204  1.00  0.00     0.042 A 
ATOM     12  C   UNL A   1      33.710  24.888  24.238  1.00  0.00     0.019 A 
ATOM     13  O   UNL A   1      31.478  24.075  24.567  1.00  0.00    -0.475 OA
ATOM     14  Cl  UNL A   1      37.231  23.779  25.691  1.00  0.00    -0.084 Cl
ATOM     15  C   UNL A   1      35.074  24.862  24.503  1.00  0.00     0.032 A 
ATOM     16  C   UNL A   1      33.092  26.122  23.704  1.00  0.00     0.025 C 
ATOM     17  C   UNL A   1      31.107  25.474  24.946  1.00  0.00     0.314 C 
BRANCH   8  18
ATOM     18  C   UNL A   1      32.825  21.270  25.018  1.00  0.00    -0.015 A 
ATOM     19  C   UNL A   1      32.887  18.483  24.541  1.00  0.00     0.067 A 
ATOM     20  C   UNL A   1      33.034  18.965  25.842  1.00  0.00     0.021 A 
ATOM     21  C   UNL A   1      32.606  19.362  23.496  1.00  0.00     0.021 A 
ATOM     22  C   UNL A   1      32.973  20.347  26.078  1.00  0.00     0.010 A 
ATOM     23  C   UNL A   1      32.556  20.744  23.739  1.00  0.00     0.010 A 
BRANCH  19  24
ATOM     24  S   UNL A   1      33.261  16.776  24.182  1.00  0.00     0.175 S 
ATOM     25  C   UNL A   1      34.886  16.545  24.839  1.00  0.00     0.163 C 
ATOM     26  O   UNL A   1      33.335  16.632  22.743  1.00  0.00    -0.224 OA
ATOM     27  O   UNL A   1      32.342  15.960  24.960  1.00  0.00    -0.224 OA
ENDBRANCH  19  24
ENDBRANCH   8  18
BRANCH  17  28
ATOM     28  C   UNL A   1      29.803  25.939  24.257  1.00  0.00     0.429 C 
ATOM     29  F   UNL A   1      29.416  25.116  23.257  1.00  0.00    -0.167 F 
ATOM     30  F   UNL A   1      28.782  26.015  25.144  1.00  0.00    -0.167 F 
ATOM     31  F   UNL A   1      29.916  27.179  23.710  1.00  0.00    -0.167 F 
ENDBRANCH  17  28
ENDBRANCH   4   7
ENDBRANCH   2   3
ENDBRANCH   1   2
BRANCH   1  32
ATOM     32  C   UNL A   1      32.825  31.006  27.031  1.00  0.00     0.118 C 
BRANCH  32  33
ATOM     33  N   UNL A   1      32.432  32.392  27.233  1.00  0.00    -0.352 N 
ATOM     34  C   UNL A   1      33.052  33.372  27.969  1.00  0.00     0.251 C 
ATOM     35  H   UNL A   1      31.604  32.667  26.777  1.00  0.00     0.163 HD
ATOM     36  O   UNL A   1      32.498  34.451  28.156  1.00  0.00    -0.269 OA
BRANCH  34  37
ATOM     37  C   UNL A   1      34.379  33.107  28.564  1.00  0.00     0.039 A 
ATOM     38  C   UNL A   1      34.451  32.394  29.762  1.00  0.00     0.014 A 
ATOM     39  C   UNL A   1      35.546  33.535  27.927  1.00  0.00     0.014 A 
ATOM     40  C   UNL A   1      35.698  32.045  30.282  1.00  0.00     0.010 A 
ATOM     41  C   UNL A   1      36.783  33.109  28.397  1.00  0.00     0.010 A 
ATOM     42  C   UNL A   1      36.874  32.361  29.580  1.00  0.00    -0.014 A 
BRANCH  42  43
ATOM     43  C   UNL A   1      38.206  31.915  30.065  1.00  0.00     0.031 A 
ATOM     44  C   UNL A   1      38.828  30.658  29.521  1.00  0.00     0.074 A 
ATOM     45  C   UNL A   1      38.827  32.605  31.043  1.00  0.00     0.049 A 
ATOM     46  N   UNL A   1      39.951  30.078  29.860  1.00  0.00    -0.248 NA
ATOM     47  C   UNL A   1      38.075  29.942  28.478  1.00  0.00     0.031 C 
ATOM     48  C   UNL A   1      38.313  33.817  31.686  1.00  0.00     0.029 A 
ATOM     49  N   UNL A   1      40.028  32.383  31.670  1.00  0.00    -0.354 N 
ATOM     50  C   UNL A   1      40.029  28.927  29.088  1.00  0.00     0.074 A 
ATOM     51  C   UNL A   1      38.815  28.857  28.305  1.00  0.00     0.031 C 
ATOM     52  C   UNL A   1      39.208  34.249  32.589  1.00  0.00     0.029 A 
ATOM     53  C   UNL A   1      40.333  33.322  32.625  1.00  0.00     0.049 A 
ATOM     54  H   UNL A   1      40.615  31.622  31.455  1.00  0.00     0.167 HD
ATOM     55  C   UNL A   1      41.031  28.018  29.017  1.00  0.00     0.031 A 
ATOM     56  C   UNL A   1      41.397  33.421  33.446  1.00  0.00     0.031 A 
ATOM     57  C   UNL A   1      42.242  28.090  29.789  1.00  0.00     0.049 A 
ATOM     58  C   UNL A   1      42.484  32.386  33.365  1.00  0.00     0.074 A 
ATOM     59  C   UNL A   1      43.341  27.249  29.750  1.00  0.00     0.029 A 
ATOM     60  N   UNL A   1      42.512  29.057  30.746  1.00  0.00    -0.354 N 
ATOM     61  N   UNL A   1      42.577  31.343  32.576  1.00  0.00    -0.248 NA
ATOM     62  C   UNL A   1      43.622  32.550  34.282  1.00  0.00     0.031 C 
ATOM     63  C   UNL A   1      44.249  27.671  30.726  1.00  0.00     0.029 A 
ATOM     64  C   UNL A   1      43.747  28.816  31.324  1.00  0.00     0.049 A 
ATOM     65  H   UNL A   1      41.915  29.804  30.979  1.00  0.00     0.167 HD
ATOM     66  C   UNL A   1      43.793  30.745  32.879  1.00  0.00     0.074 A 
ATOM     67  C   UNL A   1      44.411  31.553  33.910  1.00  0.00     0.031 C 
ATOM     68  C   UNL A   1      44.349  29.628  32.350  1.00  0.00     0.031 A 
BRANCH  55  69
ATOM     69  C   UNL A   1      40.852  26.860  28.073  1.00  0.00    -0.014 A 
ATOM     70  C   UNL A   1      41.251  26.943  26.729  1.00  0.00     0.009 A 
ATOM     71  C   UNL A   1      40.306  25.655  28.542  1.00  0.00     0.009 A 
ATOM     72  C   UNL A   1      41.069  25.860  25.866  1.00  0.00     0.001 A 
ATOM     73  C   UNL A   1      40.157  24.561  27.687  1.00  0.00     0.001 A 
ATOM     74  C   UNL A   1      40.528  24.669  26.347  1.00  0.00     0.000 A 
ENDBRANCH  55  69
BRANCH  56  75
ATOM     75  C   UNL A   1      41.495  34.550  34.411  1.00  0.00    -0.014 A 
ATOM     76  C   UNL A   1      40.957  34.434  35.702  1.00  0.00     0.009 A 
ATOM     77  C   UNL A   1      42.115  35.754  34.042  1.00  0.00     0.009 A 
ATOM     78  C   UNL A   1      41.008  35.511  36.590  1.00  0.00     0.001 A 
ATOM     79  C   UNL A   1      42.195  36.818  34.944  1.00  0.00     0.001 A 
ATOM     80  C   UNL A   1      41.631  36.699  36.213  1.00  0.00     0.000 A 
ENDBRANCH  56  75
BRANCH  68  81
ATOM     81  C   UNL A   1      45.714  29.236  32.845  1.00  0.00    -0.014 A 
ATOM     82  C   UNL A   1      46.882  29.679  32.206  1.00  0.00     0.009 A 
ATOM     83  C   UNL A   1      45.829  28.443  33.999  1.00  0.00     0.009 A 
ATOM     84  C   UNL A   1      48.137  29.304  32.691  1.00  0.00     0.001 A 
ATOM     85  C   UNL A   1      47.085  28.099  34.500  1.00  0.00     0.001 A 
ATOM     86  C   UNL A   1      48.238  28.520  33.839  1.00  0.00     0.000 A 
ENDBRANCH  68  81
ENDBRANCH  42  43
ENDBRANCH  34  37
ENDBRANCH  32  33
ENDBRANCH   1  32
TORSDOF 13
ENDMDL
MODEL 3
REMARK VINA RESULT:     -12.1      3.939      8.642
REMARK SMILES CS(=O)(=O)c1ccc(-c2cc(Cl)cc3c2O[C@H](C(F)(F)F)C(C(=O)NCCCNC(=O)c2ccc(-c4c5nc(c(-c6ccccc6)c6ccc([nH]6)c(-c6ccccc6)c6nc(c(-c7ccccc7)c7ccc4[nH]7)C=C6)C=C5)cc2)=C3)cc1
REMARK SMILES IDX 27 1 26 2 25 3 23 4 24 5 22 7 9 8 10 9 15 10 11 11 14 12
REMARK SMILES IDX 16 13 12 14 13 15 80 16 17 17 8 18 5 19 6 20 82 21 7 22
REMARK SMILES IDX 81 23 2 24 1 25 3 26 4 27 18 28 19 29 20 30 21 31 28 32
REMARK SMILES IDX 29 33 30 34 31 36 32 37 33 38 79 39 34 40 78 41 35 42 36 43
REMARK SMILES IDX 37 44 72 45 38 46 77 47 71 48 73 49 39 50 76 51 70 52 69 53
REMARK SMILES IDX 40 55 62 56 47 57 61 58 48 59 51 60 60 61 74 62 49 63 50 64
REMARK SMILES IDX 59 66 75 67 52 68 41 69 42 70 46 71 43 72 45 73 44 74 63 75
REMARK SMILES IDX 64 76 68 77 65 78 67 79 66 80 53 81 54 82 58 83 55 84 57 85
REMARK SMILES IDX 56 86
REMARK H PARENT 25 6 29 35 73 54 51 65
REMARK Flexibility Score: inf
ROOT
ATOM      1  C   UNL A   1      31.806  30.490  26.010  1.00  0.00     0.042 C 
ENDROOT
BRANCH   1   2
ATOM      2  C   UNL A   1      32.531  29.611  24.989  1.00  0.00     0.118 C 
BRANCH   2   3
ATOM      3  N   UNL A   1      33.151  28.483  25.653  1.00  0.00    -0.352 N 
ATOM      4  C   UNL A   1      32.599  27.256  25.826  1.00  0.00     0.251 C 
ATOM      5  O   UNL A   1      32.700  26.687  26.906  1.00  0.00    -0.270 OA
ATOM      6  H   UNL A   1      34.057  28.620  26.014  1.00  0.00     0.163 HD
BRANCH   4   7
ATOM      7  C   UNL A   1      32.040  26.602  24.608  1.00  0.00     0.067 C 
ATOM      8  C   UNL A   1      33.293  22.768  25.160  1.00  0.00     0.026 A 
ATOM      9  C   UNL A   1      34.637  22.842  25.611  1.00  0.00     0.033 A 
ATOM     10  C   UNL A   1      32.745  23.957  24.647  1.00  0.00     0.135 A 
ATOM     11  C   UNL A   1      35.443  23.954  25.380  1.00  0.00     0.042 A 
ATOM     12  C   UNL A   1      33.612  25.023  24.305  1.00  0.00     0.019 A 
ATOM     13  O   UNL A   1      31.380  24.167  24.498  1.00  0.00    -0.475 OA
ATOM     14  Cl  UNL A   1      37.059  23.976  25.965  1.00  0.00    -0.084 Cl
ATOM     15  C   UNL A   1      34.958  25.021  24.651  1.00  0.00     0.032 A 
ATOM     16  C   UNL A   1      33.004  26.246  23.737  1.00  0.00     0.025 C 
ATOM     17  C   UNL A   1      30.960  25.559  24.856  1.00  0.00     0.314 C 
BRANCH   8  18
ATOM     18  C   UNL A   1      32.750  21.387  25.025  1.00  0.00    -0.015 A 
ATOM     19  C   UNL A   1      32.880  18.614  24.481  1.00  0.00     0.067 A 
ATOM     20  C   UNL A   1      33.009  19.068  25.794  1.00  0.00     0.021 A 
ATOM     21  C   UNL A   1      32.582  19.512  23.455  1.00  0.00     0.021 A 
ATOM     22  C   UNL A   1      32.915  20.442  26.063  1.00  0.00     0.010 A 
ATOM     23  C   UNL A   1      32.499  20.886  23.732  1.00  0.00     0.010 A 
BRANCH  19  24
ATOM     24  S   UNL A   1      33.295  16.926  24.082  1.00  0.00     0.175 S 
ATOM     25  C   UNL A   1      34.949  16.739  24.679  1.00  0.00     0.163 C 
ATOM     26  O   UNL A   1      33.323  16.806  22.639  1.00  0.00    -0.224 OA
ATOM     27  O   UNL A   1      32.431  16.069  24.878  1.00  0.00    -0.224 OA
ENDBRANCH  19  24
ENDBRANCH   8  18
BRANCH  17  28
ATOM     28  C   UNL A   1      29.691  26.000  24.089  1.00  0.00     0.429 C 
ATOM     29  F   UNL A   1      28.634  26.215  24.903  1.00  0.00    -0.167 F 
ATOM     30  F   UNL A   1      29.913  27.143  23.396  1.00  0.00    -0.167 F 
ATOM     31  F   UNL A   1      29.290  25.079  23.173  1.00  0.00    -0.167 F 
ENDBRANCH  17  28
ENDBRANCH   4   7
ENDBRANCH   2   3
ENDBRANCH   1   2
BRANCH   1  32
ATOM     32  C   UNL A   1      32.714  31.132  27.056  1.00  0.00     0.118 C 
BRANCH  32  33
ATOM     33  N   UNL A   1      32.419  32.538  27.284  1.00  0.00    -0.352 N 
ATOM     34  C   UNL A   1      33.110  33.459  28.033  1.00  0.00     0.251 C 
ATOM     35  H   UNL A   1      31.610  32.878  26.837  1.00  0.00     0.163 HD
ATOM     36  O   UNL A   1      32.633  34.570  28.241  1.00  0.00    -0.269 OA
BRANCH  34  37
ATOM     37  C   UNL A   1      34.418  33.092  28.614  1.00  0.00     0.039 A 
ATOM     38  C   UNL A   1      34.448  32.427  29.841  1.00  0.00     0.014 A 
ATOM     39  C   UNL A   1      35.607  33.377  27.937  1.00  0.00     0.014 A 
ATOM     40  C   UNL A   1      35.667  31.981  30.354  1.00  0.00     0.010 A 
ATOM     41  C   UNL A   1      36.807  32.853  28.404  1.00  0.00     0.010 A 
ATOM     42  C   UNL A   1      36.852  32.151  29.617  1.00  0.00    -0.014 A 
BRANCH  42  43
ATOM     43  C   UNL A   1      38.145  31.599  30.098  1.00  0.00     0.031 A 
ATOM     44  C   UNL A   1      38.946  32.339  31.134  1.00  0.00     0.074 A 
ATOM     45  C   UNL A   1      38.630  30.463  29.556  1.00  0.00     0.049 A 
ATOM     46  N   UNL A   1      40.120  32.048  31.634  1.00  0.00    -0.248 NA
ATOM     47  C   UNL A   1      38.366  33.587  31.656  1.00  0.00     0.031 C 
ATOM     48  C   UNL A   1      37.973  29.670  28.514  1.00  0.00     0.029 A 
ATOM     49  N   UNL A   1      39.794  29.780  29.806  1.00  0.00    -0.354 N 
ATOM     50  C   UNL A   1      40.423  33.080  32.512  1.00  0.00     0.074 A 
ATOM     51  C   UNL A   1      39.340  34.035  32.434  1.00  0.00     0.031 C 
ATOM     52  C   UNL A   1      38.726  28.593  28.241  1.00  0.00     0.029 A 
ATOM     53  C   UNL A   1      39.939  28.643  29.049  1.00  0.00     0.049 A 
ATOM     54  H   UNL A   1      40.462  30.077  30.465  1.00  0.00     0.167 HD
ATOM     55  C   UNL A   1      41.495  33.214  33.329  1.00  0.00     0.031 A 
ATOM     56  C   UNL A   1      40.941  27.743  29.003  1.00  0.00     0.031 A 
ATOM     57  C   UNL A   1      42.570  32.262  33.412  1.00  0.00     0.049 A 
ATOM     58  C   UNL A   1      42.132  27.927  29.902  1.00  0.00     0.074 A 
ATOM     59  C   UNL A   1      43.673  32.278  34.247  1.00  0.00     0.029 A 
ATOM     60  N   UNL A   1      42.678  31.123  32.628  1.00  0.00    -0.354 N 
ATOM     61  N   UNL A   1      42.368  28.872  30.780  1.00  0.00    -0.248 NA
ATOM     62  C   UNL A   1      43.191  26.912  29.811  1.00  0.00     0.031 C 
ATOM     63  C   UNL A   1      44.480  31.183  33.926  1.00  0.00     0.029 A 
ATOM     64  C   UNL A   1      43.845  30.446  32.940  1.00  0.00     0.049 A 
ATOM     65  H   UNL A   1      42.023  30.838  31.951  1.00  0.00     0.167 HD
ATOM     66  C   UNL A   1      43.585  28.549  31.366  1.00  0.00     0.074 A 
ATOM     67  C   UNL A   1      44.027  27.311  30.758  1.00  0.00     0.031 C 
ATOM     68  C   UNL A   1      44.272  29.216  32.325  1.00  0.00     0.031 A 
BRANCH  55  69
ATOM     69  C   UNL A   1      41.560  34.445  34.193  1.00  0.00    -0.014 A 
ATOM     70  C   UNL A   1      42.179  35.622  33.743  1.00  0.00     0.009 A 
ATOM     71  C   UNL A   1      40.962  34.438  35.463  1.00  0.00     0.009 A 
ATOM     72  C   UNL A   1      42.235  36.752  34.563  1.00  0.00     0.001 A 
ATOM     73  C   UNL A   1      40.989  35.579  36.267  1.00  0.00     0.001 A 
ATOM     74  C   UNL A   1      41.635  36.731  35.821  1.00  0.00     0.000 A 
ENDBRANCH  55  69
BRANCH  56  75
ATOM     75  C   UNL A   1      40.860  26.578  28.080  1.00  0.00    -0.014 A 
ATOM     76  C   UNL A   1      41.332  26.677  26.762  1.00  0.00     0.009 A 
ATOM     77  C   UNL A   1      40.298  25.366  28.508  1.00  0.00     0.009 A 
ATOM     78  C   UNL A   1      41.212  25.597  25.884  1.00  0.00     0.001 A 
ATOM     79  C   UNL A   1      40.210  24.276  27.638  1.00  0.00     0.001 A 
ATOM     80  C   UNL A   1      40.656  24.397  26.323  1.00  0.00     0.000 A 
ENDBRANCH  56  75
BRANCH  68  81
ATOM     81  C   UNL A   1      45.558  28.600  32.807  1.00  0.00    -0.014 A 
ATOM     82  C   UNL A   1      46.792  28.931  32.227  1.00  0.00     0.009 A 
ATOM     83  C   UNL A   1      45.533  27.706  33.889  1.00  0.00     0.009 A 
ATOM     84  C   UNL A   1      47.971  28.349  32.698  1.00  0.00     0.001 A 
ATOM     85  C   UNL A   1      46.716  27.152  34.378  1.00  0.00     0.001 A 
ATOM     86  C   UNL A   1      47.933  27.466  33.776  1.00  0.00     0.000 A 
ENDBRANCH  68  81
ENDBRANCH  42  43
ENDBRANCH  34  37
ENDBRANCH  32  33
ENDBRANCH   1  32
TORSDOF 13
ENDMDL
