MODEL 1
REMARK VINA RESULT:     -11.3      0.000      0.000
REMARK SMILES CCC[C@H](C(=O)NCCCNC(=O)c1ccc(-c2c3nc(c(-c4ccccc4)c4ccc([nH]4)c(-c4ccccc4)c4nc(c(-c5ccccc5)c5ccc2[nH]5)C=C4)C=C3)cc1)N1C(=O)/C(=C\C(C)=C\c2ccccc2)SC1=S
REMARK SMILES IDX 8 1 7 2 5 3 6 4 4 6 3 7 2 8 1 9 62 10 63 11 77 12 64 13
REMARK SMILES IDX 65 14 76 15 78 16 66 17 67 18 68 19 69 20 70 21 71 22 75 23
REMARK SMILES IDX 72 24 74 25 73 26 9 27 10 28 11 29 12 30 13 32 14 33 15 34
REMARK SMILES IDX 61 35 16 36 60 37 17 38 18 39 19 40 54 41 20 42 59 43 53 44
REMARK SMILES IDX 55 45 21 46 58 47 52 48 51 49 22 51 44 52 29 53 43 54 30 55
REMARK SMILES IDX 33 56 42 57 56 58 31 59 32 60 41 62 57 63 34 64 23 65 24 66
REMARK SMILES IDX 28 67 25 68 27 69 26 70 45 71 46 72 50 73 47 74 49 75 48 76
REMARK SMILES IDX 35 77 36 78 40 79 37 80 39 81 38 82
REMARK H PARENT 7 5 11 31 55 50 33 61
REMARK Flexibility Score: inf
ROOT
ATOM      1  C   UNL A   1      37.368  21.120  24.324  1.00  0.00     0.117 C 
ENDROOT
BRANCH   1   2
ATOM      2  N   UNL A   1      37.386  22.229  25.250  1.00  0.00    -0.354 N 
ATOM      3  C   UNL A   1      36.609  23.328  25.400  1.00  0.00     0.243 C 
ATOM      4  O   UNL A   1      37.007  24.129  26.258  1.00  0.00    -0.273 OA
ATOM      5  H   UNL A   1      38.114  22.175  25.910  1.00  0.00     0.163 HD
BRANCH   3   6
ATOM      6  C   UNL A   1      35.365  23.677  24.539  1.00  0.00     0.181 C 
BRANCH   6   7
ATOM      7  C   UNL A   1      34.922  22.893  23.285  1.00  0.00     0.035 C 
BRANCH   7   8
ATOM      8  C   UNL A   1      33.663  23.459  22.604  1.00  0.00    -0.001 C 
ATOM      9  C   UNL A   1      32.474  22.520  22.518  1.00  0.00     0.004 C 
ENDBRANCH   7   8
ENDBRANCH   6   7
BRANCH   6  10
ATOM     10  N   UNL A   1      34.209  23.724  25.472  1.00  0.00    -0.280 N 
ATOM     11  C   UNL A   1      33.588  24.944  25.690  1.00  0.00     0.266 C 
ATOM     12  C   UNL A   1      33.618  22.619  26.058  1.00  0.00     0.149 C 
ATOM     13  O   UNL A   1      34.057  26.034  25.413  1.00  0.00    -0.268 OA
ATOM     14  C   UNL A   1      32.228  24.710  26.258  1.00  0.00     0.080 C 
ATOM     15  S   UNL A   1      32.201  23.129  26.966  1.00  0.00    -0.054 SA
ATOM     16  S   UNL A   1      34.044  21.008  25.941  1.00  0.00    -0.052 S 
ATOM     17  C   UNL A   1      31.104  25.433  26.146  1.00  0.00     0.024 C 
BRANCH  17  18
ATOM     18  C   UNL A   1      30.827  26.699  25.466  1.00  0.00    -0.049 C 
ATOM     19  C   UNL A   1      31.315  27.912  26.226  1.00  0.00     0.044 C 
ATOM     20  C   UNL A   1      30.085  26.790  24.343  1.00  0.00     0.011 C 
BRANCH  20  21
ATOM     21  C   UNL A   1      29.799  27.974  23.513  1.00  0.00    -0.025 A 
ATOM     22  C   UNL A   1      28.462  28.339  23.299  1.00  0.00     0.008 A 
ATOM     23  C   UNL A   1      30.798  28.658  22.809  1.00  0.00     0.008 A 
ATOM     24  C   UNL A   1      28.135  29.382  22.430  1.00  0.00     0.001 A 
ATOM     25  C   UNL A   1      30.474  29.712  21.949  1.00  0.00     0.001 A 
ATOM     26  C   UNL A   1      29.142  30.072  21.758  1.00  0.00     0.000 A 
ENDBRANCH  20  21
ENDBRANCH  17  18
ENDBRANCH   6  10
ENDBRANCH   3   6
ENDBRANCH   1   2
BRANCH   1  27
ATOM     27  C   UNL A   1      38.005  19.880  24.932  1.00  0.00     0.042 C 
BRANCH  27  28
ATOM     28  C   UNL A   1      39.019  20.238  26.005  1.00  0.00     0.118 C 
BRANCH  28  29
ATOM     29  N   UNL A   1      40.216  19.404  25.906  1.00  0.00    -0.352 N 
ATOM     30  C   UNL A   1      41.547  19.732  25.995  1.00  0.00     0.251 C 
ATOM     31  H   UNL A   1      40.038  18.448  25.750  1.00  0.00     0.163 HD
ATOM     32  O   UNL A   1      42.393  18.934  25.602  1.00  0.00    -0.269 OA
BRANCH  30  33
ATOM     33  C   UNL A   1      41.967  21.033  26.554  1.00  0.00     0.039 A 
ATOM     34  C   UNL A   1      42.255  22.097  25.692  1.00  0.00     0.014 A 
ATOM     35  C   UNL A   1      42.125  21.199  27.929  1.00  0.00     0.014 A 
ATOM     36  C   UNL A   1      42.639  23.336  26.216  1.00  0.00     0.010 A 
ATOM     37  C   UNL A   1      42.379  22.457  28.453  1.00  0.00     0.010 A 
ATOM     38  C   UNL A   1      42.670  23.534  27.604  1.00  0.00    -0.014 A 
BRANCH  38  39
ATOM     39  C   UNL A   1      43.061  24.824  28.227  1.00  0.00     0.031 A 
ATOM     40  C   UNL A   1      41.996  25.854  28.507  1.00  0.00     0.074 A 
ATOM     41  C   UNL A   1      44.359  25.120  28.426  1.00  0.00     0.049 A 
ATOM     42  N   UNL A   1      42.126  27.118  28.819  1.00  0.00    -0.248 NA
ATOM     43  C   UNL A   1      40.598  25.414  28.359  1.00  0.00     0.031 C 
ATOM     44  C   UNL A   1      45.489  24.225  28.168  1.00  0.00     0.029 A 
ATOM     45  N   UNL A   1      44.946  26.275  28.875  1.00  0.00    -0.354 N 
ATOM     46  C   UNL A   1      40.834  27.632  28.844  1.00  0.00     0.074 A 
ATOM     47  C   UNL A   1      39.941  26.559  28.470  1.00  0.00     0.031 C 
ATOM     48  C   UNL A   1      46.631  24.858  28.484  1.00  0.00     0.029 A 
ATOM     49  C   UNL A   1      46.318  26.216  28.913  1.00  0.00     0.049 A 
ATOM     50  H   UNL A   1      44.433  27.071  29.143  1.00  0.00     0.167 HD
ATOM     51  C   UNL A   1      40.425  28.881  29.167  1.00  0.00     0.031 A 
ATOM     52  C   UNL A   1      47.222  27.158  29.239  1.00  0.00     0.031 A 
ATOM     53  C   UNL A   1      41.311  29.927  29.596  1.00  0.00     0.049 A 
ATOM     54  C   UNL A   1      46.743  28.528  29.632  1.00  0.00     0.074 A 
ATOM     55  C   UNL A   1      40.997  31.206  30.019  1.00  0.00     0.029 A 
ATOM     56  N   UNL A   1      42.690  29.804  29.676  1.00  0.00    -0.354 N 
ATOM     57  N   UNL A   1      45.517  28.990  29.684  1.00  0.00    -0.248 NA
ATOM     58  C   UNL A   1      47.773  29.502  30.021  1.00  0.00     0.031 C 
ATOM     59  C   UNL A   1      42.189  31.869  30.325  1.00  0.00     0.029 A 
ATOM     60  C   UNL A   1      43.242  30.985  30.138  1.00  0.00     0.049 A 
ATOM     61  H   UNL A   1      43.200  28.996  29.439  1.00  0.00     0.167 HD
ATOM     62  C   UNL A   1      45.625  30.297  30.142  1.00  0.00     0.074 A 
ATOM     63  C   UNL A   1      47.035  30.550  30.360  1.00  0.00     0.031 C 
ATOM     64  C   UNL A   1      44.646  31.207  30.364  1.00  0.00     0.031 A 
BRANCH  51  65
ATOM     65  C   UNL A   1      38.954  29.176  29.069  1.00  0.00    -0.014 A 
ATOM     66  C   UNL A   1      38.104  29.040  30.178  1.00  0.00     0.009 A 
ATOM     67  C   UNL A   1      38.411  29.615  27.851  1.00  0.00     0.009 A 
ATOM     68  C   UNL A   1      36.736  29.290  30.058  1.00  0.00     0.001 A 
ATOM     69  C   UNL A   1      37.048  29.898  27.743  1.00  0.00     0.001 A 
ATOM     70  C   UNL A   1      36.210  29.724  28.843  1.00  0.00     0.000 A 
ENDBRANCH  51  65
BRANCH  52  71
ATOM     71  C   UNL A   1      48.672  26.833  29.230  1.00  0.00    -0.014 A 
ATOM     72  C   UNL A   1      49.427  27.011  28.060  1.00  0.00     0.009 A 
ATOM     73  C   UNL A   1      49.311  26.353  30.384  1.00  0.00     0.009 A 
ATOM     74  C   UNL A   1      50.786  26.688  28.038  1.00  0.00     0.001 A 
ATOM     75  C   UNL A   1      50.676  26.058  30.366  1.00  0.00     0.001 A 
ATOM     76  C   UNL A   1      51.410  26.217  29.192  1.00  0.00     0.000 A 
ENDBRANCH  52  71
BRANCH  64  77
ATOM     77  C   UNL A   1      45.056  32.537  30.923  1.00  0.00    -0.014 A 
ATOM     78  C   UNL A   1      45.162  32.747  32.306  1.00  0.00     0.009 A 
ATOM     79  C   UNL A   1      45.398  33.577  30.046  1.00  0.00     0.009 A 
ATOM     80  C   UNL A   1      45.578  33.984  32.799  1.00  0.00     0.001 A 
ATOM     81  C   UNL A   1      45.837  34.805  30.540  1.00  0.00     0.001 A 
ATOM     82  C   UNL A   1      45.920  35.010  31.917  1.00  0.00     0.000 A 
ENDBRANCH  64  77
ENDBRANCH  38  39
ENDBRANCH  30  33
ENDBRANCH  28  29
ENDBRANCH  27  28
ENDBRANCH   1  27
TORSDOF 15
ENDMDL
MODEL 2
REMARK VINA RESULT:     -11.0      3.891      9.155
REMARK SMILES CCC[C@H](C(=O)NCCCNC(=O)c1ccc(-c2c3nc(c(-c4ccccc4)c4ccc([nH]4)c(-c4ccccc4)c4nc(c(-c5ccccc5)c5ccc2[nH]5)C=C4)C=C3)cc1)N1C(=O)/C(=C\C(C)=C\c2ccccc2)SC1=S
REMARK SMILES IDX 8 1 7 2 5 3 6 4 4 6 3 7 2 8 1 9 62 10 63 11 77 12 64 13
REMARK SMILES IDX 65 14 76 15 78 16 66 17 67 18 68 19 69 20 70 21 71 22 75 23
REMARK SMILES IDX 72 24 74 25 73 26 9 27 10 28 11 29 12 30 13 32 14 33 15 34
REMARK SMILES IDX 61 35 16 36 60 37 17 38 18 39 19 40 54 41 20 42 59 43 53 44
REMARK SMILES IDX 55 45 21 46 58 47 52 48 51 49 22 51 44 52 29 53 43 54 30 55
REMARK SMILES IDX 33 56 42 57 56 58 31 59 32 60 41 62 57 63 34 64 23 65 24 66
REMARK SMILES IDX 28 67 25 68 27 69 26 70 45 71 46 72 50 73 47 74 49 75 48 76
REMARK SMILES IDX 35 77 36 78 40 79 37 80 39 81 38 82
REMARK H PARENT 7 5 11 31 55 50 33 61
REMARK Flexibility Score: inf
ROOT
ATOM      1  C   UNL A   1      31.464  30.556  25.828  1.00  0.00     0.117 C 
ENDROOT
BRANCH   1   2
ATOM      2  N   UNL A   1      32.772  29.973  26.021  1.00  0.00    -0.354 N 
ATOM      3  C   UNL A   1      33.239  28.702  25.977  1.00  0.00     0.243 C 
ATOM      4  O   UNL A   1      34.426  28.578  26.312  1.00  0.00    -0.273 OA
ATOM      5  H   UNL A   1      33.468  30.637  26.227  1.00  0.00     0.163 HD
BRANCH   3   6
ATOM      6  C   UNL A   1      32.395  27.443  25.644  1.00  0.00     0.181 C 
BRANCH   6   7
ATOM      7  C   UNL A   1      30.852  27.407  25.611  1.00  0.00     0.035 C 
BRANCH   7   8
ATOM      8  C   UNL A   1      30.264  26.014  25.327  1.00  0.00    -0.001 C 
ATOM      9  C   UNL A   1      29.462  25.880  24.044  1.00  0.00     0.004 C 
ENDBRANCH   7   8
ENDBRANCH   6   7
BRANCH   6  10
ATOM     10  N   UNL A   1      32.886  26.945  24.332  1.00  0.00    -0.280 N 
ATOM     11  C   UNL A   1      33.579  25.745  24.300  1.00  0.00     0.266 C 
ATOM     12  C   UNL A   1      32.603  27.525  23.108  1.00  0.00     0.149 C 
ATOM     13  O   UNL A   1      34.071  25.189  25.265  1.00  0.00    -0.268 OA
ATOM     14  C   UNL A   1      33.573  25.211  22.907  1.00  0.00     0.080 C 
ATOM     15  S   UNL A   1      33.263  26.525  21.822  1.00  0.00    -0.054 SA
ATOM     16  S   UNL A   1      31.727  28.909  22.774  1.00  0.00    -0.052 S 
ATOM     17  C   UNL A   1      33.607  23.945  22.462  1.00  0.00     0.024 C 
BRANCH  17  18
ATOM     18  C   UNL A   1      33.692  22.669  23.172  1.00  0.00    -0.049 C 
ATOM     19  C   UNL A   1      35.074  22.367  23.710  1.00  0.00     0.044 C 
ATOM     20  C   UNL A   1      32.679  21.779  23.222  1.00  0.00     0.011 C 
BRANCH  20  21
ATOM     21  C   UNL A   1      32.596  20.507  23.962  1.00  0.00    -0.025 A 
ATOM     22  C   UNL A   1      32.820  20.517  25.346  1.00  0.00     0.008 A 
ATOM     23  C   UNL A   1      32.452  19.271  23.319  1.00  0.00     0.008 A 
ATOM     24  C   UNL A   1      32.866  19.326  26.073  1.00  0.00     0.001 A 
ATOM     25  C   UNL A   1      32.484  18.078  24.047  1.00  0.00     0.001 A 
ATOM     26  C   UNL A   1      32.693  18.106  25.423  1.00  0.00     0.000 A 
ENDBRANCH  20  21
ENDBRANCH  17  18
ENDBRANCH   6  10
ENDBRANCH   3   6
ENDBRANCH   1   2
BRANCH   1  27
ATOM     27  C   UNL A   1      31.279  31.798  26.686  1.00  0.00     0.042 C 
BRANCH  27  28
ATOM     28  C   UNL A   1      32.610  32.387  27.117  1.00  0.00     0.118 C 
BRANCH  28  29
ATOM     29  N   UNL A   1      32.454  33.756  27.605  1.00  0.00    -0.352 N 
ATOM     30  C   UNL A   1      33.133  34.442  28.583  1.00  0.00     0.251 C 
ATOM     31  H   UNL A   1      31.744  34.272  27.160  1.00  0.00     0.163 HD
ATOM     32  O   UNL A   1      32.659  35.482  29.031  1.00  0.00    -0.269 OA
BRANCH  30  33
ATOM     33  C   UNL A   1      34.423  33.939  29.100  1.00  0.00     0.039 A 
ATOM     34  C   UNL A   1      34.437  33.068  30.196  1.00  0.00     0.014 A 
ATOM     35  C   UNL A   1      35.627  34.359  28.538  1.00  0.00     0.014 A 
ATOM     36  C   UNL A   1      35.653  32.577  30.681  1.00  0.00     0.010 A 
ATOM     37  C   UNL A   1      36.820  33.774  28.934  1.00  0.00     0.010 A 
ATOM     38  C   UNL A   1      36.853  32.899  30.030  1.00  0.00    -0.014 A 
BRANCH  38  39
ATOM     39  C   UNL A   1      38.177  32.407  30.486  1.00  0.00     0.031 A 
ATOM     40  C   UNL A   1      38.733  31.140  29.888  1.00  0.00     0.074 A 
ATOM     41  C   UNL A   1      38.816  33.013  31.504  1.00  0.00     0.049 A 
ATOM     42  N   UNL A   1      39.737  30.403  30.289  1.00  0.00    -0.248 NA
ATOM     43  C   UNL A   1      38.027  30.600  28.713  1.00  0.00     0.031 C 
ATOM     44  C   UNL A   1      38.372  34.227  32.192  1.00  0.00     0.029 A 
ATOM     45  N   UNL A   1      39.974  32.669  32.154  1.00  0.00    -0.354 N 
ATOM     46  C   UNL A   1      39.742  29.290  29.456  1.00  0.00     0.074 A 
ATOM     47  C   UNL A   1      38.615  29.424  28.560  1.00  0.00     0.031 C 
ATOM     48  C   UNL A   1      39.258  34.538  33.152  1.00  0.00     0.029 A 
ATOM     49  C   UNL A   1      40.301  33.518  33.183  1.00  0.00     0.049 A 
ATOM     50  H   UNL A   1      40.520  31.888  31.906  1.00  0.00     0.167 HD
ATOM     51  C   UNL A   1      40.615  28.257  29.427  1.00  0.00     0.031 A 
ATOM     52  C   UNL A   1      41.317  33.470  34.064  1.00  0.00     0.031 A 
ATOM     53  C   UNL A   1      41.767  28.158  30.279  1.00  0.00     0.049 A 
ATOM     54  C   UNL A   1      42.298  32.334  33.988  1.00  0.00     0.074 A 
ATOM     55  C   UNL A   1      42.759  27.194  30.284  1.00  0.00     0.029 A 
ATOM     56  N   UNL A   1      42.091  29.074  31.269  1.00  0.00    -0.354 N 
ATOM     57  N   UNL A   1      42.310  31.306  33.174  1.00  0.00    -0.248 NA
ATOM     58  C   UNL A   1      43.411  32.356  34.948  1.00  0.00     0.031 C 
ATOM     59  C   UNL A   1      43.667  27.509  31.299  1.00  0.00     0.029 A 
ATOM     60  C   UNL A   1      43.265  28.696  31.894  1.00  0.00     0.049 A 
ATOM     61  H   UNL A   1      41.563  29.874  31.494  1.00  0.00     0.167 HD
ATOM     62  C   UNL A   1      43.447  30.577  33.500  1.00  0.00     0.074 A 
ATOM     63  C   UNL A   1      44.103  31.286  34.580  1.00  0.00     0.031 C 
ATOM     64  C   UNL A   1      43.908  29.427  32.954  1.00  0.00     0.031 A 
BRANCH  51  65
ATOM     65  C   UNL A   1      40.354  27.156  28.437  1.00  0.00    -0.014 A 
ATOM     66  C   UNL A   1      39.584  26.032  28.778  1.00  0.00     0.009 A 
ATOM     67  C   UNL A   1      40.871  27.251  27.135  1.00  0.00     0.009 A 
ATOM     68  C   UNL A   1      39.377  25.006  27.853  1.00  0.00     0.001 A 
ATOM     69  C   UNL A   1      40.635  26.240  26.202  1.00  0.00     0.001 A 
ATOM     70  C   UNL A   1      39.898  25.113  26.565  1.00  0.00     0.000 A 
ENDBRANCH  51  65
BRANCH  52  71
ATOM     71  C   UNL A   1      41.472  34.542  35.082  1.00  0.00    -0.014 A 
ATOM     72  C   UNL A   1      42.292  35.650  34.818  1.00  0.00     0.009 A 
ATOM     73  C   UNL A   1      40.804  34.470  36.313  1.00  0.00     0.009 A 
ATOM     74  C   UNL A   1      42.460  36.651  35.778  1.00  0.00     0.001 A 
ATOM     75  C   UNL A   1      40.952  35.486  37.260  1.00  0.00     0.001 A 
ATOM     76  C   UNL A   1      41.786  36.570  36.995  1.00  0.00     0.000 A 
ENDBRANCH  52  71
BRANCH  64  77
ATOM     77  C   UNL A   1      45.211  28.893  33.472  1.00  0.00    -0.014 A 
ATOM     78  C   UNL A   1      45.255  27.965  34.523  1.00  0.00     0.009 A 
ATOM     79  C   UNL A   1      46.410  29.285  32.856  1.00  0.00     0.009 A 
ATOM     80  C   UNL A   1      46.478  27.459  34.964  1.00  0.00     0.001 A 
ATOM     81  C   UNL A   1      47.629  28.759  33.282  1.00  0.00     0.001 A 
ATOM     82  C   UNL A   1      47.663  27.852  34.340  1.00  0.00     0.000 A 
ENDBRANCH  64  77
ENDBRANCH  38  39
ENDBRANCH  30  33
ENDBRANCH  28  29
ENDBRANCH  27  28
ENDBRANCH   1  27
TORSDOF 15
ENDMDL
MODEL 3
REMARK VINA RESULT:     -11.0      2.421      8.184
REMARK SMILES CCC[C@H](C(=O)NCCCNC(=O)c1ccc(-c2c3nc(c(-c4ccccc4)c4ccc([nH]4)c(-c4ccccc4)c4nc(c(-c5ccccc5)c5ccc2[nH]5)C=C4)C=C3)cc1)N1C(=O)/C(=C\C(C)=C\c2ccccc2)SC1=S
REMARK SMILES IDX 8 1 7 2 5 3 6 4 4 6 3 7 2 8 1 9 62 10 63 11 77 12 64 13
REMARK SMILES IDX 65 14 76 15 78 16 66 17 67 18 68 19 69 20 70 21 71 22 75 23
REMARK SMILES IDX 72 24 74 25 73 26 9 27 10 28 11 29 12 30 13 32 14 33 15 34
REMARK SMILES IDX 61 35 16 36 60 37 17 38 18 39 19 40 54 41 20 42 59 43 53 44
REMARK SMILES IDX 55 45 21 46 58 47 52 48 51 49 22 51 44 52 29 53 43 54 30 55
REMARK SMILES IDX 33 56 42 57 56 58 31 59 32 60 41 62 57 63 34 64 23 65 24 66
REMARK SMILES IDX 28 67 25 68 27 69 26 70 45 71 46 72 50 73 47 74 49 75 48 76
REMARK SMILES IDX 35 77 36 78 40 79 37 80 39 81 38 82
REMARK H PARENT 7 5 11 31 55 50 33 61
REMARK Flexibility Score: inf
ROOT
ATOM      1  C   UNL A   1      31.652  27.850  26.302  1.00  0.00     0.117 C 
ENDROOT
BRANCH   1   2
ATOM      2  N   UNL A   1      30.810  26.766  26.752  1.00  0.00    -0.354 N 
ATOM      3  C   UNL A   1      30.249  25.702  26.129  1.00  0.00     0.243 C 
ATOM      4  O   UNL A   1      29.482  25.034  26.837  1.00  0.00    -0.273 OA
ATOM      5  H   UNL A   1      30.599  26.810  27.713  1.00  0.00     0.163 HD
BRANCH   3   6
ATOM      6  C   UNL A   1      30.423  25.343  24.629  1.00  0.00     0.181 C 
BRANCH   6   7
ATOM      7  C   UNL A   1      30.008  26.257  23.456  1.00  0.00     0.035 C 
BRANCH   7   8
ATOM      8  C   UNL A   1      28.772  27.128  23.747  1.00  0.00    -0.001 C 
ATOM      9  C   UNL A   1      28.776  28.514  23.128  1.00  0.00     0.004 C 
ENDBRANCH   7   8
ENDBRANCH   6   7
BRANCH   6  10
ATOM     10  N   UNL A   1      31.857  24.996  24.445  1.00  0.00    -0.280 N 
ATOM     11  C   UNL A   1      32.283  23.732  24.821  1.00  0.00     0.266 C 
ATOM     12  C   UNL A   1      32.791  25.797  23.812  1.00  0.00     0.149 C 
ATOM     13  O   UNL A   1      31.668  22.966  25.542  1.00  0.00    -0.268 OA
ATOM     14  C   UNL A   1      33.582  23.431  24.152  1.00  0.00     0.080 C 
ATOM     15  S   UNL A   1      34.316  24.932  23.693  1.00  0.00    -0.054 SA
ATOM     16  S   UNL A   1      32.603  27.325  23.160  1.00  0.00    -0.052 S 
ATOM     17  C   UNL A   1      34.107  22.260  23.760  1.00  0.00     0.024 C 
BRANCH  17  18
ATOM     18  C   UNL A   1      33.612  20.888  23.875  1.00  0.00    -0.049 C 
ATOM     19  C   UNL A   1      32.299  20.657  23.161  1.00  0.00     0.044 C 
ATOM     20  C   UNL A   1      34.192  19.954  24.659  1.00  0.00     0.011 C 
BRANCH  20  21
ATOM     21  C   UNL A   1      33.856  18.526  24.804  1.00  0.00    -0.025 A 
ATOM     22  C   UNL A   1      34.411  17.608  23.902  1.00  0.00     0.008 A 
ATOM     23  C   UNL A   1      32.889  18.070  25.710  1.00  0.00     0.008 A 
ATOM     24  C   UNL A   1      34.035  16.264  23.926  1.00  0.00     0.001 A 
ATOM     25  C   UNL A   1      32.522  16.722  25.746  1.00  0.00     0.001 A 
ATOM     26  C   UNL A   1      33.093  15.820  24.852  1.00  0.00     0.000 A 
ENDBRANCH  20  21
ENDBRANCH  17  18
ENDBRANCH   6  10
ENDBRANCH   3   6
ENDBRANCH   1   2
BRANCH   1  27
ATOM     27  C   UNL A   1      32.982  27.862  27.039  1.00  0.00     0.042 C 
BRANCH  27  28
ATOM     28  C   UNL A   1      33.969  28.823  26.399  1.00  0.00     0.118 C 
BRANCH  28  29
ATOM     29  N   UNL A   1      33.876  30.155  26.994  1.00  0.00    -0.352 N 
ATOM     30  C   UNL A   1      34.674  30.780  27.922  1.00  0.00     0.251 C 
ATOM     31  H   UNL A   1      33.116  30.694  26.677  1.00  0.00     0.163 HD
ATOM     32  O   UNL A   1      34.261  31.784  28.495  1.00  0.00    -0.269 OA
BRANCH  30  33
ATOM     33  C   UNL A   1      36.019  30.254  28.237  1.00  0.00     0.039 A 
ATOM     34  C   UNL A   1      36.264  29.688  29.493  1.00  0.00     0.014 A 
ATOM     35  C   UNL A   1      37.058  30.358  27.314  1.00  0.00     0.014 A 
ATOM     36  C   UNL A   1      37.530  29.175  29.793  1.00  0.00     0.010 A 
ATOM     37  C   UNL A   1      38.272  29.736  27.561  1.00  0.00     0.010 A 
ATOM     38  C   UNL A   1      38.535  29.164  28.814  1.00  0.00    -0.014 A 
BRANCH  38  39
ATOM     39  C   UNL A   1      39.897  28.629  29.062  1.00  0.00     0.031 A 
ATOM     40  C   UNL A   1      40.964  29.557  29.587  1.00  0.00     0.074 A 
ATOM     41  C   UNL A   1      40.210  27.368  28.710  1.00  0.00     0.049 A 
ATOM     42  N   UNL A   1      42.258  29.380  29.654  1.00  0.00    -0.248 NA
ATOM     43  C   UNL A   1      40.516  30.885  30.043  1.00  0.00     0.031 C 
ATOM     44  C   UNL A   1      39.281  26.378  28.163  1.00  0.00     0.029 A 
ATOM     45  N   UNL A   1      41.414  26.711  28.742  1.00  0.00    -0.354 N 
ATOM     46  C   UNL A   1      42.779  30.589  30.101  1.00  0.00     0.074 A 
ATOM     47  C   UNL A   1      41.669  31.505  30.242  1.00  0.00     0.031 C 
ATOM     48  C   UNL A   1      39.944  25.233  27.932  1.00  0.00     0.029 A 
ATOM     49  C   UNL A   1      41.352  25.426  28.262  1.00  0.00     0.049 A 
ATOM     50  H   UNL A   1      42.243  27.122  29.077  1.00  0.00     0.167 HD
ATOM     51  C   UNL A   1      44.064  30.906  30.385  1.00  0.00     0.031 A 
ATOM     52  C   UNL A   1      42.324  24.512  28.091  1.00  0.00     0.031 A 
ATOM     53  C   UNL A   1      45.155  29.975  30.300  1.00  0.00     0.049 A 
ATOM     54  C   UNL A   1      43.739  24.872  28.449  1.00  0.00     0.074 A 
ATOM     55  C   UNL A   1      46.482  30.167  30.636  1.00  0.00     0.029 A 
ATOM     56  N   UNL A   1      45.035  28.664  29.864  1.00  0.00    -0.354 N 
ATOM     57  N   UNL A   1      44.212  26.008  28.903  1.00  0.00    -0.248 NA
ATOM     58  C   UNL A   1      44.752  23.820  28.282  1.00  0.00     0.031 C 
ATOM     59  C   UNL A   1      47.174  28.981  30.373  1.00  0.00     0.029 A 
ATOM     60  C   UNL A   1      46.266  28.036  29.918  1.00  0.00     0.049 A 
ATOM     61  H   UNL A   1      44.198  28.243  29.561  1.00  0.00     0.167 HD
ATOM     62  C   UNL A   1      45.570  25.798  29.105  1.00  0.00     0.074 A 
ATOM     63  C   UNL A   1      45.842  24.424  28.734  1.00  0.00     0.031 C 
ATOM     64  C   UNL A   1      46.508  26.663  29.561  1.00  0.00     0.031 A 
BRANCH  51  65
ATOM     65  C   UNL A   1      44.351  32.317  30.816  1.00  0.00    -0.014 A 
ATOM     66  C   UNL A   1      44.646  33.323  29.882  1.00  0.00     0.009 A 
ATOM     67  C   UNL A   1      44.309  32.652  32.179  1.00  0.00     0.009 A 
ATOM     68  C   UNL A   1      44.939  34.621  30.305  1.00  0.00     0.001 A 
ATOM     69  C   UNL A   1      44.570  33.958  32.597  1.00  0.00     0.001 A 
ATOM     70  C   UNL A   1      44.896  34.939  31.662  1.00  0.00     0.000 A 
ENDBRANCH  51  65
BRANCH  52  71
ATOM     71  C   UNL A   1      41.992  23.159  27.573  1.00  0.00    -0.014 A 
ATOM     72  C   UNL A   1      41.487  22.177  28.439  1.00  0.00     0.009 A 
ATOM     73  C   UNL A   1      42.171  22.842  26.218  1.00  0.00     0.009 A 
ATOM     74  C   UNL A   1      41.193  20.897  27.964  1.00  0.00     0.001 A 
ATOM     75  C   UNL A   1      41.850  21.569  25.740  1.00  0.00     0.001 A 
ATOM     76  C   UNL A   1      41.370  20.596  26.614  1.00  0.00     0.000 A 
ENDBRANCH  52  71
BRANCH  64  77
ATOM     77  C   UNL A   1      47.901  26.137  29.738  1.00  0.00    -0.014 A 
ATOM     78  C   UNL A   1      48.810  26.096  28.670  1.00  0.00     0.009 A 
ATOM     79  C   UNL A   1      48.326  25.729  31.013  1.00  0.00     0.009 A 
ATOM     80  C   UNL A   1      50.110  25.633  28.870  1.00  0.00     0.001 A 
ATOM     81  C   UNL A   1      49.634  25.290  31.216  1.00  0.00     0.001 A 
ATOM     82  C   UNL A   1      50.523  25.235  30.143  1.00  0.00     0.000 A 
ENDBRANCH  64  77
ENDBRANCH  38  39
ENDBRANCH  30  33
ENDBRANCH  28  29
ENDBRANCH  27  28
ENDBRANCH   1  27
TORSDOF 15
ENDMDL
