MODEL 1
REMARK VINA RESULT:     -13.0      0.000      0.000
REMARK SMILES O=C(NCCCNC(=O)c1nccnc1C(=O)Nc1n[nH]c2ncccc12)c1ccc(-c2c3nc(c(-c4ccccc4)c4ccc([nH]4)c(-c4ccccc4)c4nc(c(-c5ccccc5)c5ccc2[nH]5)C=C4)C=C3)cc1
REMARK SMILES IDX 5 1 4 2 3 3 1 4 2 5 28 7 29 8 75 9 30 10 74 11 31 12 32 13
REMARK SMILES IDX 33 14 68 15 34 16 73 17 67 18 69 19 35 20 72 21 66 22 65 23
REMARK SMILES IDX 36 25 58 26 43 27 57 28 44 29 47 30 56 31 70 32 45 33 46 34
REMARK SMILES IDX 55 36 71 37 48 38 37 39 38 40 42 41 39 42 41 43 40 44 59 45
REMARK SMILES IDX 60 46 64 47 61 48 63 49 62 50 49 51 50 52 54 53 51 54 53 55
REMARK SMILES IDX 52 56 6 57 7 58 8 59 9 61 10 62 11 63 15 64 12 65 14 66
REMARK SMILES IDX 13 67 16 68 17 69 18 70 19 72 20 73 27 74 21 75 22 76 26 77
REMARK SMILES IDX 23 79 25 80 24 81
REMARK H PARENT 3 6 69 24 47 35 7 60 18 71 21 78
REMARK Flexibility Score: inf
ROOT
ATOM      1  C   UNL A   1      36.366  23.329  23.690  1.00  0.00     0.042 C 
ENDROOT
BRANCH   1   2
ATOM      2  C   UNL A   1      37.159  23.639  25.176  1.00  0.00     0.118 C 
BRANCH   2   3
ATOM      3  N   UNL A   1      38.214  22.717  25.594  1.00  0.00    -0.352 N 
ATOM      4  O   UNL A   1      40.260  22.027  26.244  1.00  0.00    -0.269 OA
ATOM      5  C   UNL A   1      39.409  22.908  26.219  1.00  0.00     0.251 C 
ATOM      6  H   UNL A   1      38.023  21.774  25.383  1.00  0.00     0.163 HD
BRANCH   5   7
ATOM      7  C   UNL A   1      39.670  24.216  26.838  1.00  0.00     0.039 A 
ATOM      8  C   UNL A   1      39.243  24.452  28.144  1.00  0.00     0.014 A 
ATOM      9  C   UNL A   1      40.333  25.205  26.111  1.00  0.00     0.014 A 
ATOM     10  C   UNL A   1      39.317  25.724  28.668  1.00  0.00     0.010 A 
ATOM     11  C   UNL A   1      40.558  26.444  26.704  1.00  0.00     0.010 A 
ATOM     12  C   UNL A   1      40.052  26.702  27.988  1.00  0.00    -0.014 A 
BRANCH  12  13
ATOM     13  C   UNL A   1      40.446  27.904  28.742  1.00  0.00     0.031 A 
ATOM     14  C   UNL A   1      41.781  28.007  29.401  1.00  0.00     0.074 A 
ATOM     15  C   UNL A   1      39.545  28.907  28.800  1.00  0.00     0.049 A 
ATOM     16  N   UNL A   1      42.253  28.989  30.123  1.00  0.00    -0.248 NA
ATOM     17  C   UNL A   1      42.705  26.872  29.245  1.00  0.00     0.031 C 
ATOM     18  C   UNL A   1      38.211  28.882  28.180  1.00  0.00     0.029 A 
ATOM     19  N   UNL A   1      39.608  30.142  29.381  1.00  0.00    -0.354 N 
ATOM     20  C   UNL A   1      43.512  28.581  30.536  1.00  0.00     0.074 A 
ATOM     21  C   UNL A   1      43.734  27.260  29.990  1.00  0.00     0.031 C 
ATOM     22  C   UNL A   1      37.611  30.062  28.367  1.00  0.00     0.029 A 
ATOM     23  C   UNL A   1      38.462  30.881  29.213  1.00  0.00     0.049 A 
ATOM     24  H   UNL A   1      40.396  30.469  29.872  1.00  0.00     0.167 HD
ATOM     25  C   UNL A   1      44.388  29.259  31.312  1.00  0.00     0.031 A 
ATOM     26  C   UNL A   1      38.108  32.066  29.734  1.00  0.00     0.031 A 
ATOM     27  C   UNL A   1      44.134  30.574  31.843  1.00  0.00     0.049 A 
ATOM     28  C   UNL A   1      39.085  32.754  30.638  1.00  0.00     0.074 A 
ATOM     29  C   UNL A   1      44.975  31.369  32.600  1.00  0.00     0.029 A 
ATOM     30  N   UNL A   1      42.947  31.276  31.687  1.00  0.00    -0.354 N 
ATOM     31  N   UNL A   1      40.300  32.387  30.965  1.00  0.00    -0.248 NA
ATOM     32  C   UNL A   1      38.642  34.008  31.252  1.00  0.00     0.031 C 
ATOM     33  C   UNL A   1      44.267  32.513  32.974  1.00  0.00     0.029 A 
ATOM     34  C   UNL A   1      43.014  32.471  32.383  1.00  0.00     0.049 A 
ATOM     35  H   UNL A   1      42.174  30.970  31.160  1.00  0.00     0.167 HD
ATOM     36  C   UNL A   1      40.772  33.374  31.815  1.00  0.00     0.074 A 
ATOM     37  C   UNL A   1      39.727  34.374  31.916  1.00  0.00     0.031 C 
ATOM     38  C   UNL A   1      41.958  33.444  32.467  1.00  0.00     0.031 A 
BRANCH  25  39
ATOM     39  C   UNL A   1      45.680  28.588  31.683  1.00  0.00    -0.014 A 
ATOM     40  C   UNL A   1      46.858  28.802  30.954  1.00  0.00     0.009 A 
ATOM     41  C   UNL A   1      45.735  27.808  32.851  1.00  0.00     0.009 A 
ATOM     42  C   UNL A   1      48.063  28.239  31.381  1.00  0.00     0.001 A 
ATOM     43  C   UNL A   1      46.945  27.272  33.291  1.00  0.00     0.001 A 
ATOM     44  C   UNL A   1      48.107  27.485  32.555  1.00  0.00     0.000 A 
ENDBRANCH  25  39
BRANCH  26  45
ATOM     45  C   UNL A   1      36.752  32.623  29.488  1.00  0.00    -0.014 A 
ATOM     46  C   UNL A   1      36.484  33.393  28.347  1.00  0.00     0.009 A 
ATOM     47  C   UNL A   1      35.721  32.415  30.421  1.00  0.00     0.009 A 
ATOM     48  C   UNL A   1      35.230  33.983  28.173  1.00  0.00     0.001 A 
ATOM     49  C   UNL A   1      34.457  32.968  30.222  1.00  0.00     0.001 A 
ATOM     50  C   UNL A   1      34.219  33.769  29.108  1.00  0.00     0.000 A 
ENDBRANCH  26  45
BRANCH  38  51
ATOM     51  C   UNL A   1      42.185  34.653  33.327  1.00  0.00    -0.014 A 
ATOM     52  C   UNL A   1      42.842  35.786  32.825  1.00  0.00     0.009 A 
ATOM     53  C   UNL A   1      41.699  34.670  34.643  1.00  0.00     0.009 A 
ATOM     54  C   UNL A   1      43.038  36.904  33.638  1.00  0.00     0.001 A 
ATOM     55  C   UNL A   1      41.861  35.802  35.440  1.00  0.00     0.001 A 
ATOM     56  C   UNL A   1      42.539  36.914  34.940  1.00  0.00     0.000 A 
ENDBRANCH  38  51
ENDBRANCH  12  13
ENDBRANCH   5   7
ENDBRANCH   2   3
ENDBRANCH   1   2
BRANCH   1  57
ATOM     57  C   UNL A   1      34.238  23.202  23.126  1.00  0.00     0.118 C 
BRANCH  57  58
ATOM     58  N   UNL A   1      33.202  21.975  23.131  1.00  0.00    -0.351 N 
ATOM     59  C   UNL A   1      32.743  21.214  24.187  1.00  0.00     0.272 C 
ATOM     60  H   UNL A   1      32.840  21.730  22.250  1.00  0.00     0.163 HD
ATOM     61  O   UNL A   1      32.120  20.175  24.012  1.00  0.00    -0.267 OA
BRANCH  59  62
ATOM     62  C   UNL A   1      33.018  21.720  25.541  1.00  0.00     0.159 A 
ATOM     63  N   UNL A   1      34.294  21.427  25.961  1.00  0.00    -0.247 NA
ATOM     64  C   UNL A   1      32.077  22.344  26.347  1.00  0.00     0.159 A 
ATOM     65  C   UNL A   1      34.612  21.826  27.205  1.00  0.00     0.132 A 
ATOM     66  N   UNL A   1      32.423  22.719  27.621  1.00  0.00    -0.247 NA
ATOM     67  C   UNL A   1      33.696  22.466  28.015  1.00  0.00     0.132 A 
BRANCH  64  68
ATOM     68  C   UNL A   1      30.685  22.743  25.960  1.00  0.00     0.277 C 
ATOM     69  O   UNL A   1      29.751  22.090  26.439  1.00  0.00    -0.267 OA
ATOM     70  N   UNL A   1      30.360  23.801  25.141  1.00  0.00    -0.303 N 
ATOM     71  H   UNL A   1      29.400  24.021  25.116  1.00  0.00     0.172 HD
BRANCH  70  72
ATOM     72  C   UNL A   1      31.149  24.597  24.356  1.00  0.00     0.164 A 
ATOM     73  N   UNL A   1      31.001  24.514  23.022  1.00  0.00    -0.155 NA
ATOM     74  C   UNL A   1      32.053  25.598  24.761  1.00  0.00     0.063 A 
ATOM     75  N   UNL A   1      31.419  25.681  22.451  1.00  0.00    -0.259 N 
ATOM     76  C   UNL A   1      32.083  26.523  23.297  1.00  0.00     0.157 A 
ATOM     77  C   UNL A   1      32.923  26.238  26.188  1.00  0.00     0.017 A 
ATOM     78  H   UNL A   1      31.257  25.897  21.504  1.00  0.00     0.192 HD
ATOM     79  N   UNL A   1      32.781  28.111  23.168  1.00  0.00    -0.237 NA
ATOM     80  C   UNL A   1      33.728  27.826  26.129  1.00  0.00     0.021 A 
ATOM     81  C   UNL A   1      33.674  28.704  24.607  1.00  0.00     0.113 A 
ENDBRANCH  70  72
ENDBRANCH  64  68
ENDBRANCH  59  62
ENDBRANCH  57  58
ENDBRANCH   1  57
TORSDOF 12
ENDMDL
MODEL 2
REMARK VINA RESULT:     -13.0      2.741      7.786
REMARK SMILES O=C(NCCCNC(=O)c1nccnc1C(=O)Nc1n[nH]c2ncccc12)c1ccc(-c2c3nc(c(-c4ccccc4)c4ccc([nH]4)c(-c4ccccc4)c4nc(c(-c5ccccc5)c5ccc2[nH]5)C=C4)C=C3)cc1
REMARK SMILES IDX 5 1 4 2 3 3 1 4 2 5 28 7 29 8 75 9 30 10 74 11 31 12 32 13
REMARK SMILES IDX 33 14 68 15 34 16 73 17 67 18 69 19 35 20 72 21 66 22 65 23
REMARK SMILES IDX 36 25 58 26 43 27 57 28 44 29 47 30 56 31 70 32 45 33 46 34
REMARK SMILES IDX 55 36 71 37 48 38 37 39 38 40 42 41 39 42 41 43 40 44 59 45
REMARK SMILES IDX 60 46 64 47 61 48 63 49 62 50 49 51 50 52 54 53 51 54 53 55
REMARK SMILES IDX 52 56 6 57 7 58 8 59 9 61 10 62 11 63 15 64 12 65 14 66
REMARK SMILES IDX 13 67 16 68 17 69 18 70 19 72 20 73 27 74 21 75 22 76 26 77
REMARK SMILES IDX 23 79 25 80 24 81
REMARK H PARENT 3 6 69 24 47 35 7 60 18 71 21 78
REMARK Flexibility Score: inf
ROOT
ATOM      1  C   UNL A   1      32.136  27.953  27.349  1.00  0.00     0.042 C 
ENDROOT
BRANCH   1   2
ATOM      2  C   UNL A   1      33.652  28.746  27.258  1.00  0.00     0.118 C 
BRANCH   2   3
ATOM      3  N   UNL A   1      33.707  30.159  27.631  1.00  0.00    -0.352 N 
ATOM      4  O   UNL A   1      34.360  32.011  28.741  1.00  0.00    -0.269 OA
ATOM      5  C   UNL A   1      34.630  30.895  28.311  1.00  0.00     0.251 C 
ATOM      6  H   UNL A   1      32.926  30.679  27.335  1.00  0.00     0.163 HD
BRANCH   5   7
ATOM      7  C   UNL A   1      35.956  30.305  28.546  1.00  0.00     0.039 A 
ATOM      8  C   UNL A   1      36.928  30.384  27.550  1.00  0.00     0.014 A 
ATOM      9  C   UNL A   1      36.223  29.667  29.758  1.00  0.00     0.014 A 
ATOM     10  C   UNL A   1      38.104  29.681  27.684  1.00  0.00     0.010 A 
ATOM     11  C   UNL A   1      37.477  29.098  29.961  1.00  0.00     0.010 A 
ATOM     12  C   UNL A   1      38.421  29.109  28.922  1.00  0.00    -0.014 A 
BRANCH  12  13
ATOM     13  C   UNL A   1      39.824  28.721  29.153  1.00  0.00     0.031 A 
ATOM     14  C   UNL A   1      40.804  29.670  29.759  1.00  0.00     0.074 A 
ATOM     15  C   UNL A   1      40.173  27.468  28.799  1.00  0.00     0.049 A 
ATOM     16  N   UNL A   1      42.075  29.480  29.993  1.00  0.00    -0.248 NA
ATOM     17  C   UNL A   1      40.310  31.002  30.145  1.00  0.00     0.031 C 
ATOM     18  C   UNL A   1      39.268  26.476  28.197  1.00  0.00     0.029 A 
ATOM     19  N   UNL A   1      41.360  26.800  28.905  1.00  0.00    -0.354 N 
ATOM     20  C   UNL A   1      42.543  30.672  30.522  1.00  0.00     0.074 A 
ATOM     21  C   UNL A   1      41.423  31.587  30.572  1.00  0.00     0.031 C 
ATOM     22  C   UNL A   1      39.919  25.317  28.041  1.00  0.00     0.029 A 
ATOM     23  C   UNL A   1      41.306  25.515  28.421  1.00  0.00     0.049 A 
ATOM     24  H   UNL A   1      42.173  27.199  29.290  1.00  0.00     0.167 HD
ATOM     25  C   UNL A   1      43.804  30.964  30.915  1.00  0.00     0.031 A 
ATOM     26  C   UNL A   1      42.283  24.611  28.245  1.00  0.00     0.031 A 
ATOM     27  C   UNL A   1      44.898  30.030  30.848  1.00  0.00     0.049 A 
ATOM     28  C   UNL A   1      43.676  24.999  28.638  1.00  0.00     0.074 A 
ATOM     29  C   UNL A   1      46.204  30.210  31.267  1.00  0.00     0.029 A 
ATOM     30  N   UNL A   1      44.818  28.752  30.316  1.00  0.00    -0.354 N 
ATOM     31  N   UNL A   1      44.092  26.108  29.200  1.00  0.00    -0.248 NA
ATOM     32  C   UNL A   1      44.732  24.021  28.364  1.00  0.00     0.031 C 
ATOM     33  C   UNL A   1      46.933  29.074  30.909  1.00  0.00     0.029 A 
ATOM     34  C   UNL A   1      46.066  28.153  30.342  1.00  0.00     0.049 A 
ATOM     35  H   UNL A   1      43.996  28.334  29.970  1.00  0.00     0.167 HD
ATOM     36  C   UNL A   1      45.460  25.955  29.359  1.00  0.00     0.074 A 
ATOM     37  C   UNL A   1      45.792  24.630  28.872  1.00  0.00     0.031 C 
ATOM     38  C   UNL A   1      46.366  26.834  29.849  1.00  0.00     0.031 A 
BRANCH  25  39
ATOM     39  C   UNL A   1      44.095  32.354  31.405  1.00  0.00    -0.014 A 
ATOM     40  C   UNL A   1      44.042  32.682  32.767  1.00  0.00     0.009 A 
ATOM     41  C   UNL A   1      44.530  33.326  30.488  1.00  0.00     0.009 A 
ATOM     42  C   UNL A   1      44.411  33.958  33.200  1.00  0.00     0.001 A 
ATOM     43  C   UNL A   1      44.926  34.590  30.926  1.00  0.00     0.001 A 
ATOM     44  C   UNL A   1      44.863  34.906  32.281  1.00  0.00     0.000 A 
ENDBRANCH  25  39
BRANCH  26  45
ATOM     45  C   UNL A   1      41.994  23.306  27.595  1.00  0.00    -0.014 A 
ATOM     46  C   UNL A   1      41.473  22.232  28.331  1.00  0.00     0.009 A 
ATOM     47  C   UNL A   1      42.275  23.117  26.230  1.00  0.00     0.009 A 
ATOM     48  C   UNL A   1      41.289  20.986  27.729  1.00  0.00     0.001 A 
ATOM     49  C   UNL A   1      42.048  21.884  25.620  1.00  0.00     0.001 A 
ATOM     50  C   UNL A   1      41.575  20.814  26.375  1.00  0.00     0.000 A 
ENDBRANCH  26  45
BRANCH  38  51
ATOM     51  C   UNL A   1      47.794  26.376  29.899  1.00  0.00    -0.014 A 
ATOM     52  C   UNL A   1      48.647  26.541  28.798  1.00  0.00     0.009 A 
ATOM     53  C   UNL A   1      48.300  25.808  31.078  1.00  0.00     0.009 A 
ATOM     54  C   UNL A   1      49.974  26.115  28.865  1.00  0.00     0.001 A 
ATOM     55  C   UNL A   1      49.636  25.419  31.156  1.00  0.00     0.001 A 
ATOM     56  C   UNL A   1      50.469  25.563  30.046  1.00  0.00     0.000 A 
ENDBRANCH  38  51
ENDBRANCH  12  13
ENDBRANCH   5   7
ENDBRANCH   2   3
ENDBRANCH   1   2
BRANCH   1  57
ATOM     57  C   UNL A   1      31.052  26.630  25.957  1.00  0.00     0.118 C 
BRANCH  57  58
ATOM     58  N   UNL A   1      30.066  26.948  24.731  1.00  0.00    -0.351 N 
ATOM     59  C   UNL A   1      30.323  27.591  23.537  1.00  0.00     0.272 C 
ATOM     60  H   UNL A   1      29.140  26.636  24.847  1.00  0.00     0.163 HD
ATOM     61  O   UNL A   1      29.423  27.949  22.789  1.00  0.00    -0.267 OA
BRANCH  59  62
ATOM     62  C   UNL A   1      31.736  27.810  23.190  1.00  0.00     0.159 A 
ATOM     63  N   UNL A   1      32.276  28.891  23.845  1.00  0.00    -0.247 NA
ATOM     64  C   UNL A   1      32.429  27.070  22.243  1.00  0.00     0.159 A 
ATOM     65  C   UNL A   1      33.557  29.178  23.554  1.00  0.00     0.132 A 
ATOM     66  N   UNL A   1      33.729  27.402  21.949  1.00  0.00    -0.247 NA
ATOM     67  C   UNL A   1      34.270  28.443  22.629  1.00  0.00     0.132 A 
BRANCH  64  68
ATOM     68  C   UNL A   1      31.940  25.853  21.517  1.00  0.00     0.277 C 
ATOM     69  O   UNL A   1      31.721  25.963  20.305  1.00  0.00    -0.267 OA
ATOM     70  N   UNL A   1      31.749  24.613  22.084  1.00  0.00    -0.303 N 
ATOM     71  H   UNL A   1      31.577  23.889  21.438  1.00  0.00     0.172 HD
BRANCH  70  72
ATOM     72  C   UNL A   1      31.757  24.220  23.394  1.00  0.00     0.164 A 
ATOM     73  N   UNL A   1      30.599  23.805  23.936  1.00  0.00    -0.155 NA
ATOM     74  C   UNL A   1      32.862  24.087  24.257  1.00  0.00     0.063 A 
ATOM     75  N   UNL A   1      30.867  22.980  24.990  1.00  0.00    -0.259 N 
ATOM     76  C   UNL A   1      32.175  22.961  25.381  1.00  0.00     0.157 A 
ATOM     77  C   UNL A   1      34.592  24.513  24.432  1.00  0.00     0.017 A 
ATOM     78  H   UNL A   1      30.171  22.441  25.433  1.00  0.00     0.192 HD
ATOM     79  N   UNL A   1      33.098  22.103  26.579  1.00  0.00    -0.237 NA
ATOM     80  C   UNL A   1      35.602  23.736  25.677  1.00  0.00     0.021 A 
ATOM     81  C   UNL A   1      34.820  22.582  26.747  1.00  0.00     0.113 A 
ENDBRANCH  70  72
ENDBRANCH  64  68
ENDBRANCH  59  62
ENDBRANCH  57  58
ENDBRANCH   1  57
TORSDOF 12
ENDMDL
MODEL 3
REMARK VINA RESULT:     -12.7      2.747      7.424
REMARK SMILES O=C(NCCCNC(=O)c1nccnc1C(=O)Nc1n[nH]c2ncccc12)c1ccc(-c2c3nc(c(-c4ccccc4)c4ccc([nH]4)c(-c4ccccc4)c4nc(c(-c5ccccc5)c5ccc2[nH]5)C=C4)C=C3)cc1
REMARK SMILES IDX 5 1 4 2 3 3 1 4 2 5 28 7 29 8 75 9 30 10 74 11 31 12 32 13
REMARK SMILES IDX 33 14 68 15 34 16 73 17 67 18 69 19 35 20 72 21 66 22 65 23
REMARK SMILES IDX 36 25 58 26 43 27 57 28 44 29 47 30 56 31 70 32 45 33 46 34
REMARK SMILES IDX 55 36 71 37 48 38 37 39 38 40 42 41 39 42 41 43 40 44 59 45
REMARK SMILES IDX 60 46 64 47 61 48 63 49 62 50 49 51 50 52 54 53 51 54 53 55
REMARK SMILES IDX 52 56 6 57 7 58 8 59 9 61 10 62 11 63 15 64 12 65 14 66
REMARK SMILES IDX 13 67 16 68 17 69 18 70 19 72 20 73 27 74 21 75 22 76 26 77
REMARK SMILES IDX 23 79 25 80 24 81
REMARK H PARENT 3 6 69 24 47 35 7 60 18 71 21 78
REMARK Flexibility Score: inf
ROOT
ATOM      1  C   UNL A   1      32.306  28.104  27.313  1.00  0.00     0.042 C 
ENDROOT
BRANCH   1   2
ATOM      2  C   UNL A   1      33.787  28.962  27.225  1.00  0.00     0.118 C 
BRANCH   2   3
ATOM      3  N   UNL A   1      33.822  30.321  27.763  1.00  0.00    -0.352 N 
ATOM      4  O   UNL A   1      34.442  32.034  29.093  1.00  0.00    -0.269 OA
ATOM      5  C   UNL A   1      34.729  30.980  28.537  1.00  0.00     0.251 C 
ATOM      6  H   UNL A   1      33.038  30.865  27.520  1.00  0.00     0.163 HD
BRANCH   5   7
ATOM      7  C   UNL A   1      36.058  30.379  28.719  1.00  0.00     0.039 A 
ATOM      8  C   UNL A   1      36.993  30.459  27.688  1.00  0.00     0.014 A 
ATOM      9  C   UNL A   1      36.365  29.729  29.915  1.00  0.00     0.014 A 
ATOM     10  C   UNL A   1      38.167  29.746  27.773  1.00  0.00     0.010 A 
ATOM     11  C   UNL A   1      37.621  29.150  30.067  1.00  0.00     0.010 A 
ATOM     12  C   UNL A   1      38.526  29.162  28.994  1.00  0.00    -0.014 A 
BRANCH  12  13
ATOM     13  C   UNL A   1      39.933  28.763  29.169  1.00  0.00     0.031 A 
ATOM     14  C   UNL A   1      40.949  29.710  29.716  1.00  0.00     0.074 A 
ATOM     15  C   UNL A   1      40.254  27.500  28.820  1.00  0.00     0.049 A 
ATOM     16  N   UNL A   1      42.227  29.509  29.897  1.00  0.00    -0.248 NA
ATOM     17  C   UNL A   1      40.487  31.053  30.102  1.00  0.00     0.031 C 
ATOM     18  C   UNL A   1      39.314  26.509  28.274  1.00  0.00     0.029 A 
ATOM     19  N   UNL A   1      41.438  26.821  28.885  1.00  0.00    -0.354 N 
ATOM     20  C   UNL A   1      42.731  30.705  30.387  1.00  0.00     0.074 A 
ATOM     21  C   UNL A   1      41.623  31.632  30.471  1.00  0.00     0.031 C 
ATOM     22  C   UNL A   1      39.944  25.341  28.109  1.00  0.00     0.029 A 
ATOM     23  C   UNL A   1      41.350  25.529  28.424  1.00  0.00     0.049 A 
ATOM     24  H   UNL A   1      42.271  27.217  29.228  1.00  0.00     0.167 HD
ATOM     25  C   UNL A   1      44.010  30.989  30.719  1.00  0.00     0.031 A 
ATOM     26  C   UNL A   1      42.308  24.611  28.221  1.00  0.00     0.031 A 
ATOM     27  C   UNL A   1      45.091  30.042  30.620  1.00  0.00     0.049 A 
ATOM     28  C   UNL A   1      43.720  24.990  28.546  1.00  0.00     0.074 A 
ATOM     29  C   UNL A   1      46.416  30.213  30.978  1.00  0.00     0.029 A 
ATOM     30  N   UNL A   1      44.974  28.756  30.112  1.00  0.00    -0.354 N 
ATOM     31  N   UNL A   1      44.173  26.103  29.071  1.00  0.00    -0.248 NA
ATOM     32  C   UNL A   1      44.754  23.997  28.242  1.00  0.00     0.031 C 
ATOM     33  C   UNL A   1      47.117  29.064  30.607  1.00  0.00     0.029 A 
ATOM     34  C   UNL A   1      46.215  28.144  30.093  1.00  0.00     0.049 A 
ATOM     35  H   UNL A   1      44.134  28.342  29.809  1.00  0.00     0.167 HD
ATOM     36  C   UNL A   1      45.544  25.938  29.173  1.00  0.00     0.074 A 
ATOM     37  C   UNL A   1      45.841  24.602  28.694  1.00  0.00     0.031 C 
ATOM     38  C   UNL A   1      46.480  26.815  29.609  1.00  0.00     0.031 A 
BRANCH  25  39
ATOM     39  C   UNL A   1      44.337  32.383  31.174  1.00  0.00    -0.014 A 
ATOM     40  C   UNL A   1      44.344  32.733  32.531  1.00  0.00     0.009 A 
ATOM     41  C   UNL A   1      44.745  33.334  30.224  1.00  0.00     0.009 A 
ATOM     42  C   UNL A   1      44.745  34.012  32.927  1.00  0.00     0.001 A 
ATOM     43  C   UNL A   1      45.173  34.600  30.624  1.00  0.00     0.001 A 
ATOM     44  C   UNL A   1      45.170  34.939  31.974  1.00  0.00     0.000 A 
ENDBRANCH  25  39
BRANCH  26  45
ATOM     45  C   UNL A   1      41.977  23.300  27.605  1.00  0.00    -0.014 A 
ATOM     46  C   UNL A   1      41.477  22.244  28.380  1.00  0.00     0.009 A 
ATOM     47  C   UNL A   1      42.197  23.086  26.232  1.00  0.00     0.009 A 
ATOM     48  C   UNL A   1      41.254  20.991  27.806  1.00  0.00     0.001 A 
ATOM     49  C   UNL A   1      41.930  21.847  25.652  1.00  0.00     0.001 A 
ATOM     50  C   UNL A   1      41.479  20.794  26.444  1.00  0.00     0.000 A 
ENDBRANCH  26  45
BRANCH  38  51
ATOM     51  C   UNL A   1      47.904  26.341  29.603  1.00  0.00    -0.014 A 
ATOM     52  C   UNL A   1      48.713  26.490  28.467  1.00  0.00     0.009 A 
ATOM     53  C   UNL A   1      48.452  25.775  30.765  1.00  0.00     0.009 A 
ATOM     54  C   UNL A   1      50.037  26.050  28.483  1.00  0.00     0.001 A 
ATOM     55  C   UNL A   1      49.786  25.373  30.791  1.00  0.00     0.001 A 
ATOM     56  C   UNL A   1      50.575  25.501  29.647  1.00  0.00     0.000 A 
ENDBRANCH  38  51
ENDBRANCH  12  13
ENDBRANCH   5   7
ENDBRANCH   2   3
ENDBRANCH   1   2
BRANCH   1  57
ATOM     57  C   UNL A   1      31.517  26.363  26.214  1.00  0.00     0.118 C 
BRANCH  57  58
ATOM     58  N   UNL A   1      31.113  24.887  26.700  1.00  0.00    -0.351 N 
ATOM     59  C   UNL A   1      31.646  23.665  26.342  1.00  0.00     0.272 C 
ATOM     60  H   UNL A   1      30.376  24.848  27.351  1.00  0.00     0.163 HD
ATOM     61  O   UNL A   1      31.096  22.610  26.631  1.00  0.00    -0.267 OA
BRANCH  59  62
ATOM     62  C   UNL A   1      32.923  23.684  25.613  1.00  0.00     0.159 A 
ATOM     63  N   UNL A   1      34.000  23.885  26.444  1.00  0.00    -0.247 NA
ATOM     64  C   UNL A   1      33.035  23.599  24.232  1.00  0.00     0.159 A 
ATOM     65  C   UNL A   1      35.203  23.950  25.848  1.00  0.00     0.132 A 
ATOM     66  N   UNL A   1      34.274  23.692  23.649  1.00  0.00    -0.247 NA
ATOM     67  C   UNL A   1      35.336  23.848  24.478  1.00  0.00     0.132 A 
BRANCH  64  68
ATOM     68  C   UNL A   1      31.929  23.335  23.256  1.00  0.00     0.277 C 
ATOM     69  O   UNL A   1      31.729  22.160  22.927  1.00  0.00    -0.267 OA
ATOM     70  N   UNL A   1      31.094  24.291  22.721  1.00  0.00    -0.303 N 
ATOM     71  H   UNL A   1      30.325  23.931  22.222  1.00  0.00     0.172 HD
BRANCH  70  72
ATOM     72  C   UNL A   1      31.156  25.656  22.770  1.00  0.00     0.164 A 
ATOM     73  N   UNL A   1      32.309  26.249  22.413  1.00  0.00    -0.155 NA
ATOM     74  C   UNL A   1      30.119  26.566  23.052  1.00  0.00     0.063 A 
ATOM     75  N   UNL A   1      32.050  27.525  22.005  1.00  0.00    -0.259 N 
ATOM     76  C   UNL A   1      30.783  27.962  22.268  1.00  0.00     0.157 A 
ATOM     77  C   UNL A   1      28.460  26.674  23.715  1.00  0.00     0.017 A 
ATOM     78  H   UNL A   1      32.723  28.087  21.556  1.00  0.00     0.192 HD
ATOM     79  N   UNL A   1      29.883  29.416  21.953  1.00  0.00    -0.237 NA
ATOM     80  C   UNL A   1      27.486  28.150  23.502  1.00  0.00     0.021 A 
ATOM     81  C   UNL A   1      28.237  29.500  22.664  1.00  0.00     0.113 A 
ENDBRANCH  70  72
ENDBRANCH  64  68
ENDBRANCH  59  62
ENDBRANCH  57  58
ENDBRANCH   1  57
TORSDOF 12
ENDMDL
