MODEL 1
REMARK VINA RESULT:     -13.0      0.000      0.000
REMARK SMILES CC1=C[C@H](C)[C@H](CN2C[C@]34C=C[C@@H](O3)[C@H](C(=O)NCCCNC(=O)c3ccc(-c5c6nc(c(-c7ccccc7)c7ccc([nH]7)c(-c7ccccc7)c7nc(c(-c8ccccc8)c8ccc5[nH]8)C=C7)C=C6)cc3)[C@@H]4C2=O)[C@H](C)C1
REMARK SMILES IDX 20 1 19 2 18 3 16 4 17 5 15 7 8 8 9 9 74 10 10 11 73 12
REMARK SMILES IDX 75 13 11 14 14 15 12 16 13 17 7 18 6 19 1 20 2 21 3 22 78 23
REMARK SMILES IDX 4 24 76 25 5 26 77 27 21 28 22 29 23 30 24 32 25 33 26 34
REMARK SMILES IDX 72 35 27 36 71 37 28 38 29 39 30 40 65 41 31 42 70 43 64 44
REMARK SMILES IDX 66 45 32 46 69 47 63 48 62 49 33 51 55 52 40 53 54 54 41 55
REMARK SMILES IDX 44 56 53 57 67 58 42 59 43 60 52 62 68 63 45 64 34 65 35 66
REMARK SMILES IDX 39 67 36 68 38 69 37 70 56 71 57 72 61 73 58 74 60 75 59 76
REMARK SMILES IDX 46 77 47 78 51 79 48 80 50 81 49 82
REMARK H PARENT 18 6 22 31 66 50 44 61
REMARK Flexibility Score: inf
ROOT
ATOM      1  C   UNL A   1      39.537  21.285  26.053  1.00  0.00     0.042 C 
ENDROOT
BRANCH   1   2
ATOM      2  C   UNL A   1      38.798  22.618  26.084  1.00  0.00     0.117 C 
BRANCH   2   3
ATOM      3  N   UNL A   1      37.671  22.709  25.160  1.00  0.00    -0.356 N 
ATOM      4  C   UNL A   1      36.406  22.969  25.656  1.00  0.00     0.227 C 
ATOM      5  O   UNL A   1      36.150  24.078  26.121  1.00  0.00    -0.275 OA
ATOM      6  H   UNL A   1      37.811  22.585  24.193  1.00  0.00     0.163 HD
BRANCH   4   7
ATOM      7  C   UNL A   1      35.319  21.926  25.423  1.00  0.00     0.127 C 
ATOM      8  N   UNL A   1      33.537  24.325  23.787  1.00  0.00    -0.339 N 
ATOM      9  C   UNL A   1      33.238  24.042  25.150  1.00  0.00     0.160 C 
ATOM     10  C   UNL A   1      34.120  23.199  23.265  1.00  0.00     0.230 C 
ATOM     11  C   UNL A   1      32.892  22.492  25.340  1.00  0.00     0.117 C 
ATOM     12  C   UNL A   1      34.173  22.170  24.390  1.00  0.00     0.132 C 
ATOM     13  O   UNL A   1      34.405  22.995  22.098  1.00  0.00    -0.274 OA
ATOM     14  C   UNL A   1      32.786  22.892  26.854  1.00  0.00     0.009 C 
ATOM     15  O   UNL A   1      33.265  21.179  25.918  1.00  0.00    -0.360 OA
ATOM     16  C   UNL A   1      33.838  22.432  27.543  1.00  0.00     0.004 C 
ATOM     17  C   UNL A   1      34.499  21.478  26.633  1.00  0.00     0.155 C 
BRANCH   8  18
ATOM     18  C   UNL A   1      33.138  25.605  23.142  1.00  0.00     0.124 C 
BRANCH  18  19
ATOM     19  C   UNL A   1      32.929  26.835  24.089  1.00  0.00     0.018 C 
ATOM     20  C   UNL A   1      31.685  30.551  26.156  1.00  0.00     0.039 C 
ATOM     21  C   UNL A   1      32.201  29.343  25.422  1.00  0.00    -0.077 C 
ATOM     22  C   UNL A   1      33.323  29.327  24.674  1.00  0.00    -0.025 C 
ATOM     23  C   UNL A   1      31.325  28.132  25.496  1.00  0.00     0.034 C 
ATOM     24  C   UNL A   1      33.807  28.120  23.850  1.00  0.00     0.014 C 
ATOM     25  C   UNL A   1      31.463  27.264  24.241  1.00  0.00    -0.005 C 
ATOM     26  C   UNL A   1      33.951  28.564  22.380  1.00  0.00     0.012 C 
ATOM     27  C   UNL A   1      30.902  27.961  22.985  1.00  0.00     0.008 C 
ENDBRANCH  18  19
ENDBRANCH   8  18
ENDBRANCH   4   7
ENDBRANCH   2   3
ENDBRANCH   1   2
BRANCH   1  28
ATOM     28  C   UNL A   1      40.986  21.341  26.551  1.00  0.00     0.118 C 
BRANCH  28  29
ATOM     29  N   UNL A   1      41.976  21.773  25.567  1.00  0.00    -0.352 N 
ATOM     30  C   UNL A   1      42.652  22.957  25.394  1.00  0.00     0.251 C 
ATOM     31  H   UNL A   1      42.201  21.084  24.900  1.00  0.00     0.163 HD
ATOM     32  O   UNL A   1      43.344  23.142  24.391  1.00  0.00    -0.269 OA
BRANCH  30  33
ATOM     33  C   UNL A   1      42.583  24.033  26.388  1.00  0.00     0.039 A 
ATOM     34  C   UNL A   1      43.148  25.285  26.107  1.00  0.00     0.014 A 
ATOM     35  C   UNL A   1      42.001  23.783  27.625  1.00  0.00     0.014 A 
ATOM     36  C   UNL A   1      43.031  26.318  27.036  1.00  0.00     0.010 A 
ATOM     37  C   UNL A   1      41.778  24.834  28.489  1.00  0.00     0.010 A 
ATOM     38  C   UNL A   1      42.289  26.109  28.203  1.00  0.00    -0.014 A 
BRANCH  38  39
ATOM     39  C   UNL A   1      41.986  27.173  29.181  1.00  0.00     0.031 A 
ATOM     40  C   UNL A   1      42.738  27.178  30.480  1.00  0.00     0.074 A 
ATOM     41  C   UNL A   1      40.907  27.953  28.980  1.00  0.00     0.049 A 
ATOM     42  N   UNL A   1      42.427  27.749  31.612  1.00  0.00    -0.248 NA
ATOM     43  C   UNL A   1      43.967  26.362  30.533  1.00  0.00     0.031 C 
ATOM     44  C   UNL A   1      40.087  27.981  27.765  1.00  0.00     0.029 A 
ATOM     45  N   UNL A   1      40.282  28.838  29.819  1.00  0.00    -0.354 N 
ATOM     46  C   UNL A   1      43.384  27.315  32.522  1.00  0.00     0.074 A 
ATOM     47  C   UNL A   1      44.258  26.400  31.824  1.00  0.00     0.031 C 
ATOM     48  C   UNL A   1      39.070  28.837  27.937  1.00  0.00     0.029 A 
ATOM     49  C   UNL A   1      39.128  29.368  29.292  1.00  0.00     0.049 A 
ATOM     50  H   UNL A   1      40.625  29.071  30.712  1.00  0.00     0.167 HD
ATOM     51  C   UNL A   1      43.515  27.660  33.822  1.00  0.00     0.031 A 
ATOM     52  C   UNL A   1      38.203  30.164  29.860  1.00  0.00     0.031 A 
ATOM     53  C   UNL A   1      42.648  28.603  34.472  1.00  0.00     0.049 A 
ATOM     54  C   UNL A   1      38.399  30.567  31.294  1.00  0.00     0.074 A 
ATOM     55  C   UNL A   1      42.727  29.104  35.757  1.00  0.00     0.029 A 
ATOM     56  N   UNL A   1      41.547  29.196  33.871  1.00  0.00    -0.354 N 
ATOM     57  N   UNL A   1      39.340  30.199  32.131  1.00  0.00    -0.248 NA
ATOM     58  C   UNL A   1      37.417  31.499  31.862  1.00  0.00     0.031 C 
ATOM     59  C   UNL A   1      41.645  29.967  35.948  1.00  0.00     0.029 A 
ATOM     60  C   UNL A   1      40.932  30.052  34.762  1.00  0.00     0.049 A 
ATOM     61  H   UNL A   1      41.250  29.031  32.946  1.00  0.00     0.167 HD
ATOM     62  C   UNL A   1      39.092  30.889  33.309  1.00  0.00     0.074 A 
ATOM     63  C   UNL A   1      37.912  31.698  33.077  1.00  0.00     0.031 C 
ATOM     64  C   UNL A   1      39.777  30.864  34.477  1.00  0.00     0.031 A 
BRANCH  51  65
ATOM     65  C   UNL A   1      44.624  27.026  34.615  1.00  0.00    -0.014 A 
ATOM     66  C   UNL A   1      45.894  27.618  34.702  1.00  0.00     0.009 A 
ATOM     67  C   UNL A   1      44.383  25.839  35.325  1.00  0.00     0.009 A 
ATOM     68  C   UNL A   1      46.907  27.018  35.453  1.00  0.00     0.001 A 
ATOM     69  C   UNL A   1      45.387  25.259  36.103  1.00  0.00     0.001 A 
ATOM     70  C   UNL A   1      46.651  25.844  36.158  1.00  0.00     0.000 A 
ENDBRANCH  51  65
BRANCH  52  71
ATOM     71  C   UNL A   1      37.029  30.635  29.076  1.00  0.00    -0.014 A 
ATOM     72  C   UNL A   1      36.926  31.984  28.699  1.00  0.00     0.009 A 
ATOM     73  C   UNL A   1      36.008  29.750  28.698  1.00  0.00     0.009 A 
ATOM     74  C   UNL A   1      35.808  32.442  27.996  1.00  0.00     0.001 A 
ATOM     75  C   UNL A   1      34.907  30.203  27.966  1.00  0.00     0.001 A 
ATOM     76  C   UNL A   1      34.801  31.551  27.628  1.00  0.00     0.000 A 
ENDBRANCH  52  71
BRANCH  64  77
ATOM     77  C   UNL A   1      39.319  31.789  35.565  1.00  0.00    -0.014 A 
ATOM     78  C   UNL A   1      39.808  33.098  35.667  1.00  0.00     0.009 A 
ATOM     79  C   UNL A   1      38.306  31.363  36.439  1.00  0.00     0.009 A 
ATOM     80  C   UNL A   1      39.300  33.961  36.639  1.00  0.00     0.001 A 
ATOM     81  C   UNL A   1      37.778  32.236  37.387  1.00  0.00     0.001 A 
ATOM     82  C   UNL A   1      38.279  33.533  37.490  1.00  0.00     0.000 A 
ENDBRANCH  64  77
ENDBRANCH  38  39
ENDBRANCH  30  33
ENDBRANCH  28  29
ENDBRANCH   1  28
TORSDOF 12
ENDMDL
MODEL 2
REMARK VINA RESULT:     -12.9      3.597      8.262
REMARK SMILES CC1=C[C@H](C)[C@H](CN2C[C@]34C=C[C@@H](O3)[C@H](C(=O)NCCCNC(=O)c3ccc(-c5c6nc(c(-c7ccccc7)c7ccc([nH]7)c(-c7ccccc7)c7nc(c(-c8ccccc8)c8ccc5[nH]8)C=C7)C=C6)cc3)[C@@H]4C2=O)[C@H](C)C1
REMARK SMILES IDX 20 1 19 2 18 3 16 4 17 5 15 7 8 8 9 9 74 10 10 11 73 12
REMARK SMILES IDX 75 13 11 14 14 15 12 16 13 17 7 18 6 19 1 20 2 21 3 22 78 23
REMARK SMILES IDX 4 24 76 25 5 26 77 27 21 28 22 29 23 30 24 32 25 33 26 34
REMARK SMILES IDX 72 35 27 36 71 37 28 38 29 39 30 40 65 41 31 42 70 43 64 44
REMARK SMILES IDX 66 45 32 46 69 47 63 48 62 49 33 51 55 52 40 53 54 54 41 55
REMARK SMILES IDX 44 56 53 57 67 58 42 59 43 60 52 62 68 63 45 64 34 65 35 66
REMARK SMILES IDX 39 67 36 68 38 69 37 70 56 71 57 72 61 73 58 74 60 75 59 76
REMARK SMILES IDX 46 77 47 78 51 79 48 80 50 81 49 82
REMARK H PARENT 18 6 22 31 66 50 44 61
REMARK Flexibility Score: inf
ROOT
ATOM      1  C   UNL A   1      33.498  28.558  27.561  1.00  0.00     0.042 C 
ENDROOT
BRANCH   1   2
ATOM      2  C   UNL A   1      32.930  27.567  26.552  1.00  0.00     0.117 C 
BRANCH   2   3
ATOM      3  N   UNL A   1      31.526  27.782  26.214  1.00  0.00    -0.356 N 
ATOM      4  C   UNL A   1      30.809  26.765  25.609  1.00  0.00     0.227 C 
ATOM      5  O   UNL A   1      30.530  25.754  26.249  1.00  0.00    -0.275 OA
ATOM      6  H   UNL A   1      31.093  28.644  26.414  1.00  0.00     0.163 HD
BRANCH   4   7
ATOM      7  C   UNL A   1      30.224  27.029  24.226  1.00  0.00     0.127 C 
ATOM      8  N   UNL A   1      32.314  24.625  23.017  1.00  0.00    -0.339 N 
ATOM      9  C   UNL A   1      32.686  25.994  22.902  1.00  0.00     0.160 C 
ATOM     10  C   UNL A   1      30.947  24.591  23.109  1.00  0.00     0.230 C 
ATOM     11  C   UNL A   1      31.557  26.822  22.129  1.00  0.00     0.117 C 
ATOM     12  C   UNL A   1      30.464  26.037  23.044  1.00  0.00     0.132 C 
ATOM     13  O   UNL A   1      30.235  23.601  23.095  1.00  0.00    -0.274 OA
ATOM     14  C   UNL A   1      32.498  28.039  22.436  1.00  0.00     0.009 C 
ATOM     15  O   UNL A   1      30.514  27.874  22.171  1.00  0.00    -0.360 OA
ATOM     16  C   UNL A   1      31.981  28.811  23.399  1.00  0.00     0.004 C 
ATOM     17  C   UNL A   1      30.587  28.349  23.546  1.00  0.00     0.155 C 
BRANCH   8  18
ATOM     18  C   UNL A   1      33.313  23.527  22.927  1.00  0.00     0.124 C 
BRANCH  18  19
ATOM     19  C   UNL A   1      34.655  23.730  23.709  1.00  0.00     0.018 C 
ATOM     20  C   UNL A   1      38.328  23.423  26.168  1.00  0.00     0.039 C 
ATOM     21  C   UNL A   1      37.036  23.590  25.416  1.00  0.00    -0.077 C 
ATOM     22  C   UNL A   1      35.939  24.199  25.910  1.00  0.00    -0.025 C 
ATOM     23  C   UNL A   1      36.997  22.943  24.067  1.00  0.00     0.034 C 
ATOM     24  C   UNL A   1      34.586  24.293  25.178  1.00  0.00     0.014 C 
ATOM     25  C   UNL A   1      35.577  22.503  23.697  1.00  0.00    -0.005 C 
ATOM     26  C   UNL A   1      33.504  23.669  26.081  1.00  0.00     0.012 C 
ATOM     27  C   UNL A   1      35.070  21.355  24.592  1.00  0.00     0.008 C 
ENDBRANCH  18  19
ENDBRANCH   8  18
ENDBRANCH   4   7
ENDBRANCH   2   3
ENDBRANCH   1   2
BRANCH   1  28
ATOM     28  C   UNL A   1      33.949  29.896  26.965  1.00  0.00     0.118 C 
BRANCH  28  29
ATOM     29  N   UNL A   1      34.010  31.016  27.901  1.00  0.00    -0.352 N 
ATOM     30  C   UNL A   1      34.919  31.360  28.873  1.00  0.00     0.251 C 
ATOM     31  H   UNL A   1      33.255  31.645  27.820  1.00  0.00     0.163 HD
ATOM     32  O   UNL A   1      34.684  32.288  29.649  1.00  0.00    -0.269 OA
BRANCH  30  33
ATOM     33  C   UNL A   1      36.193  30.650  29.019  1.00  0.00     0.039 A 
ATOM     34  C   UNL A   1      37.170  30.748  28.018  1.00  0.00     0.014 A 
ATOM     35  C   UNL A   1      36.400  29.841  30.129  1.00  0.00     0.014 A 
ATOM     36  C   UNL A   1      38.399  30.114  28.189  1.00  0.00     0.010 A 
ATOM     37  C   UNL A   1      37.655  29.317  30.356  1.00  0.00     0.010 A 
ATOM     38  C   UNL A   1      38.664  29.448  29.391  1.00  0.00    -0.014 A 
BRANCH  38  39
ATOM     39  C   UNL A   1      39.978  28.865  29.729  1.00  0.00     0.031 A 
ATOM     40  C   UNL A   1      41.025  29.767  30.318  1.00  0.00     0.074 A 
ATOM     41  C   UNL A   1      40.270  27.624  29.296  1.00  0.00     0.049 A 
ATOM     42  N   UNL A   1      42.319  29.609  30.364  1.00  0.00    -0.248 NA
ATOM     43  C   UNL A   1      40.554  31.058  30.856  1.00  0.00     0.031 C 
ATOM     44  C   UNL A   1      39.325  26.694  28.669  1.00  0.00     0.029 A 
ATOM     45  N   UNL A   1      41.462  26.949  29.271  1.00  0.00    -0.354 N 
ATOM     46  C   UNL A   1      42.820  30.799  30.878  1.00  0.00     0.074 A 
ATOM     47  C   UNL A   1      41.697  31.685  31.087  1.00  0.00     0.031 C 
ATOM     48  C   UNL A   1      39.974  25.573  28.321  1.00  0.00     0.029 A 
ATOM     49  C   UNL A   1      41.386  25.730  28.641  1.00  0.00     0.049 A 
ATOM     50  H   UNL A   1      42.292  27.303  29.665  1.00  0.00     0.167 HD
ATOM     51  C   UNL A   1      44.106  31.113  31.152  1.00  0.00     0.031 A 
ATOM     52  C   UNL A   1      42.360  24.856  28.325  1.00  0.00     0.031 A 
ATOM     53  C   UNL A   1      45.192  30.192  30.966  1.00  0.00     0.049 A 
ATOM     54  C   UNL A   1      43.776  25.214  28.684  1.00  0.00     0.074 A 
ATOM     55  C   UNL A   1      46.526  30.355  31.287  1.00  0.00     0.029 A 
ATOM     56  N   UNL A   1      45.058  28.924  30.418  1.00  0.00    -0.354 N 
ATOM     57  N   UNL A   1      44.234  26.317  29.225  1.00  0.00    -0.248 NA
ATOM     58  C   UNL A   1      44.806  24.208  28.399  1.00  0.00     0.031 C 
ATOM     59  C   UNL A   1      47.207  29.202  30.891  1.00  0.00     0.029 A 
ATOM     60  C   UNL A   1      46.287  28.297  30.383  1.00  0.00     0.049 A 
ATOM     61  H   UNL A   1      44.211  28.532  30.101  1.00  0.00     0.167 HD
ATOM     62  C   UNL A   1      45.598  26.121  29.388  1.00  0.00     0.074 A 
ATOM     63  C   UNL A   1      45.890  24.792  28.889  1.00  0.00     0.031 C 
ATOM     64  C   UNL A   1      46.527  26.959  29.908  1.00  0.00     0.031 A 
BRANCH  51  65
ATOM     65  C   UNL A   1      44.401  32.490  31.679  1.00  0.00    -0.014 A 
ATOM     66  C   UNL A   1      44.412  32.760  33.056  1.00  0.00     0.009 A 
ATOM     67  C   UNL A   1      44.722  33.525  30.786  1.00  0.00     0.009 A 
ATOM     68  C   UNL A   1      44.700  34.044  33.526  1.00  0.00     0.001 A 
ATOM     69  C   UNL A   1      45.043  34.799  31.259  1.00  0.00     0.001 A 
ATOM     70  C   UNL A   1      45.023  35.059  32.628  1.00  0.00     0.000 A 
ENDBRANCH  51  65
BRANCH  52  71
ATOM     71  C   UNL A   1      42.032  23.570  27.652  1.00  0.00    -0.014 A 
ATOM     72  C   UNL A   1      41.473  22.511  28.383  1.00  0.00     0.009 A 
ATOM     73  C   UNL A   1      42.271  23.390  26.280  1.00  0.00     0.009 A 
ATOM     74  C   UNL A   1      41.197  21.288  27.765  1.00  0.00     0.001 A 
ATOM     75  C   UNL A   1      41.963  22.178  25.658  1.00  0.00     0.001 A 
ATOM     76  C   UNL A   1      41.440  21.123  26.404  1.00  0.00     0.000 A 
ENDBRANCH  52  71
BRANCH  64  77
ATOM     77  C   UNL A   1      47.927  26.440  30.036  1.00  0.00    -0.014 A 
ATOM     78  C   UNL A   1      48.397  25.887  31.236  1.00  0.00     0.009 A 
ATOM     79  C   UNL A   1      48.753  26.420  28.901  1.00  0.00     0.009 A 
ATOM     80  C   UNL A   1      49.677  25.337  31.299  1.00  0.00     0.001 A 
ATOM     81  C   UNL A   1      50.019  25.841  28.958  1.00  0.00     0.001 A 
ATOM     82  C   UNL A   1      50.482  25.304  30.158  1.00  0.00     0.000 A 
ENDBRANCH  64  77
ENDBRANCH  38  39
ENDBRANCH  30  33
ENDBRANCH  28  29
ENDBRANCH   1  28
TORSDOF 12
ENDMDL
MODEL 3
REMARK VINA RESULT:     -12.9      2.687      8.249
REMARK SMILES CC1=C[C@H](C)[C@H](CN2C[C@]34C=C[C@@H](O3)[C@H](C(=O)NCCCNC(=O)c3ccc(-c5c6nc(c(-c7ccccc7)c7ccc([nH]7)c(-c7ccccc7)c7nc(c(-c8ccccc8)c8ccc5[nH]8)C=C7)C=C6)cc3)[C@@H]4C2=O)[C@H](C)C1
REMARK SMILES IDX 20 1 19 2 18 3 16 4 17 5 15 7 8 8 9 9 74 10 10 11 73 12
REMARK SMILES IDX 75 13 11 14 14 15 12 16 13 17 7 18 6 19 1 20 2 21 3 22 78 23
REMARK SMILES IDX 4 24 76 25 5 26 77 27 21 28 22 29 23 30 24 32 25 33 26 34
REMARK SMILES IDX 72 35 27 36 71 37 28 38 29 39 30 40 65 41 31 42 70 43 64 44
REMARK SMILES IDX 66 45 32 46 69 47 63 48 62 49 33 51 55 52 40 53 54 54 41 55
REMARK SMILES IDX 44 56 53 57 67 58 42 59 43 60 52 62 68 63 45 64 34 65 35 66
REMARK SMILES IDX 39 67 36 68 38 69 37 70 56 71 57 72 61 73 58 74 60 75 59 76
REMARK SMILES IDX 46 77 47 78 51 79 48 80 50 81 49 82
REMARK H PARENT 18 6 22 31 66 50 44 61
REMARK Flexibility Score: inf
ROOT
ATOM      1  C   UNL A   1      33.924  30.897  26.895  1.00  0.00     0.042 C 
ENDROOT
BRANCH   1   2
ATOM      2  C   UNL A   1      34.422  29.642  27.603  1.00  0.00     0.117 C 
BRANCH   2   3
ATOM      3  N   UNL A   1      33.455  28.548  27.651  1.00  0.00    -0.356 N 
ATOM      4  C   UNL A   1      33.143  27.867  26.488  1.00  0.00     0.227 C 
ATOM      5  O   UNL A   1      33.983  27.139  25.965  1.00  0.00    -0.275 OA
ATOM      6  H   UNL A   1      33.030  28.299  28.503  1.00  0.00     0.163 HD
BRANCH   4   7
ATOM      7  C   UNL A   1      31.695  27.895  26.012  1.00  0.00     0.127 C 
ATOM      8  N   UNL A   1      32.150  24.732  24.831  1.00  0.00    -0.339 N 
ATOM      9  C   UNL A   1      32.257  25.832  23.934  1.00  0.00     0.160 C 
ATOM     10  C   UNL A   1      31.357  25.142  25.871  1.00  0.00     0.230 C 
ATOM     11  C   UNL A   1      30.921  26.710  23.958  1.00  0.00     0.117 C 
ATOM     12  C   UNL A   1      30.961  26.586  25.580  1.00  0.00     0.132 C 
ATOM     13  O   UNL A   1      30.924  24.453  26.779  1.00  0.00    -0.274 OA
ATOM     14  C   UNL A   1      31.720  27.619  22.959  1.00  0.00     0.009 C 
ATOM     15  O   UNL A   1      30.264  27.997  24.290  1.00  0.00    -0.360 OA
ATOM     16  C   UNL A   1      32.115  28.750  23.554  1.00  0.00     0.004 C 
ATOM     17  C   UNL A   1      31.361  28.795  24.821  1.00  0.00     0.155 C 
BRANCH   8  18
ATOM     18  C   UNL A   1      32.744  23.403  24.523  1.00  0.00     0.124 C 
BRANCH  18  19
ATOM     19  C   UNL A   1      34.286  23.251  24.752  1.00  0.00     0.018 C 
ATOM     20  C   UNL A   1      38.439  21.934  25.558  1.00  0.00     0.039 C 
ATOM     21  C   UNL A   1      37.030  22.432  25.386  1.00  0.00    -0.077 C 
ATOM     22  C   UNL A   1      36.328  23.080  26.337  1.00  0.00    -0.025 C 
ATOM     23  C   UNL A   1      36.387  22.080  24.081  1.00  0.00     0.034 C 
ATOM     24  C   UNL A   1      34.856  23.513  26.197  1.00  0.00     0.014 C 
ATOM     25  C   UNL A   1      34.869  21.932  24.226  1.00  0.00    -0.005 C 
ATOM     26  C   UNL A   1      34.055  22.882  27.353  1.00  0.00     0.012 C 
ATOM     27  C   UNL A   1      34.482  20.713  25.086  1.00  0.00     0.008 C 
ENDBRANCH  18  19
ENDBRANCH   8  18
ENDBRANCH   4   7
ENDBRANCH   2   3
ENDBRANCH   1   2
BRANCH   1  28
ATOM     28  C   UNL A   1      32.505  31.331  27.280  1.00  0.00     0.118 C 
BRANCH  28  29
ATOM     29  N   UNL A   1      32.306  32.770  27.436  1.00  0.00    -0.352 N 
ATOM     30  C   UNL A   1      33.009  33.731  28.122  1.00  0.00     0.251 C 
ATOM     31  H   UNL A   1      31.517  33.117  26.958  1.00  0.00     0.163 HD
ATOM     32  O   UNL A   1      32.564  34.876  28.228  1.00  0.00    -0.269 OA
BRANCH  30  33
ATOM     33  C   UNL A   1      34.305  33.439  28.742  1.00  0.00     0.039 A 
ATOM     34  C   UNL A   1      34.364  32.696  29.929  1.00  0.00     0.014 A 
ATOM     35  C   UNL A   1      35.465  33.947  28.170  1.00  0.00     0.014 A 
ATOM     36  C   UNL A   1      35.603  32.376  30.483  1.00  0.00     0.010 A 
ATOM     37  C   UNL A   1      36.690  33.529  28.646  1.00  0.00     0.010 A 
ATOM     38  C   UNL A   1      36.770  32.741  29.803  1.00  0.00    -0.014 A 
BRANCH  38  39
ATOM     39  C   UNL A   1      38.124  32.331  30.228  1.00  0.00     0.031 A 
ATOM     40  C   UNL A   1      38.698  31.070  29.652  1.00  0.00     0.074 A 
ATOM     41  C   UNL A   1      38.698  32.963  31.270  1.00  0.00     0.049 A 
ATOM     42  N   UNL A   1      39.665  30.320  30.106  1.00  0.00    -0.248 NA
ATOM     43  C   UNL A   1      38.039  30.539  28.442  1.00  0.00     0.031 C 
ATOM     44  C   UNL A   1      38.184  34.171  31.924  1.00  0.00     0.029 A 
ATOM     45  N   UNL A   1      39.814  32.644  31.997  1.00  0.00    -0.354 N 
ATOM     46  C   UNL A   1      39.689  29.205  29.277  1.00  0.00     0.074 A 
ATOM     47  C   UNL A   1      38.616  29.354  28.321  1.00  0.00     0.031 C 
ATOM     48  C   UNL A   1      38.983  34.489  32.954  1.00  0.00     0.029 A 
ATOM     49  C   UNL A   1      40.023  33.477  33.071  1.00  0.00     0.049 A 
ATOM     50  H   UNL A   1      40.409  31.893  31.772  1.00  0.00     0.167 HD
ATOM     51  C   UNL A   1      40.542  28.157  29.315  1.00  0.00     0.031 A 
ATOM     52  C   UNL A   1      40.933  33.403  34.060  1.00  0.00     0.031 A 
ATOM     53  C   UNL A   1      41.622  28.061  30.257  1.00  0.00     0.049 A 
ATOM     54  C   UNL A   1      41.896  32.249  34.051  1.00  0.00     0.074 A 
ATOM     55  C   UNL A   1      42.608  27.097  30.345  1.00  0.00     0.029 A 
ATOM     56  N   UNL A   1      41.861  28.981  31.269  1.00  0.00    -0.354 N 
ATOM     57  N   UNL A   1      41.951  31.229  33.228  1.00  0.00    -0.248 NA
ATOM     58  C   UNL A   1      42.927  32.237  35.096  1.00  0.00     0.031 C 
ATOM     59  C   UNL A   1      43.417  27.409  31.440  1.00  0.00     0.029 A 
ATOM     60  C   UNL A   1      42.974  28.601  31.993  1.00  0.00     0.049 A 
ATOM     61  H   UNL A   1      41.317  29.783  31.444  1.00  0.00     0.167 HD
ATOM     62  C   UNL A   1      43.048  30.479  33.626  1.00  0.00     0.074 A 
ATOM     63  C   UNL A   1      43.630  31.163  34.764  1.00  0.00     0.031 C 
ATOM     64  C   UNL A   1      43.538  29.331  33.099  1.00  0.00     0.031 A 
BRANCH  51  65
ATOM     65  C   UNL A   1      40.345  27.046  28.320  1.00  0.00    -0.014 A 
ATOM     66  C   UNL A   1      39.531  25.940  28.609  1.00  0.00     0.009 A 
ATOM     67  C   UNL A   1      40.945  27.130  27.054  1.00  0.00     0.009 A 
ATOM     68  C   UNL A   1      39.351  24.925  27.667  1.00  0.00     0.001 A 
ATOM     69  C   UNL A   1      40.737  26.130  26.101  1.00  0.00     0.001 A 
ATOM     70  C   UNL A   1      39.948  25.024  26.412  1.00  0.00     0.000 A 
ENDBRANCH  51  65
BRANCH  52  71
ATOM     71  C   UNL A   1      40.982  34.445  35.121  1.00  0.00    -0.014 A 
ATOM     72  C   UNL A   1      40.236  34.289  36.300  1.00  0.00     0.009 A 
ATOM     73  C   UNL A   1      41.770  35.596  34.968  1.00  0.00     0.009 A 
ATOM     74  C   UNL A   1      40.248  35.282  37.284  1.00  0.00     0.001 A 
ATOM     75  C   UNL A   1      41.806  36.571  35.969  1.00  0.00     0.001 A 
ATOM     76  C   UNL A   1      41.034  36.420  37.120  1.00  0.00     0.000 A 
ENDBRANCH  52  71
BRANCH  64  77
ATOM     77  C   UNL A   1      44.801  28.784  33.692  1.00  0.00    -0.014 A 
ATOM     78  C   UNL A   1      46.062  29.208  33.250  1.00  0.00     0.009 A 
ATOM     79  C   UNL A   1      44.715  27.901  34.780  1.00  0.00     0.009 A 
ATOM     80  C   UNL A   1      47.217  28.743  33.880  1.00  0.00     0.001 A 
ATOM     81  C   UNL A   1      45.869  27.462  35.427  1.00  0.00     0.001 A 
ATOM     82  C   UNL A   1      47.119  27.880  34.973  1.00  0.00     0.000 A 
ENDBRANCH  64  77
ENDBRANCH  38  39
ENDBRANCH  30  33
ENDBRANCH  28  29
ENDBRANCH   1  28
TORSDOF 12
ENDMDL
