MODEL 1
REMARK VINA RESULT:     -11.2      0.000      0.000
REMARK SMILES O=C(NCCCNC(=O)[C@@H]1CS[C@H](c2ncc(-c3ccccc3)s2)[NH2+]1)c1ccc(-c2c3nc(c(-c4ccccc4)c4ccc([nH]4)c(-c4ccccc4)c4nc(c(-c5ccccc5)c5ccc2[nH]5)C=C4)C=C3)cc1
REMARK SMILES IDX 5 1 4 2 3 3 1 4 2 5 26 7 27 8 73 9 28 10 72 11 29 12 30 13
REMARK SMILES IDX 31 14 66 15 32 16 71 17 65 18 67 19 33 20 70 21 64 22 63 23
REMARK SMILES IDX 34 25 56 26 41 27 55 28 42 29 45 30 54 31 68 32 43 33 44 34
REMARK SMILES IDX 53 36 69 37 46 38 35 39 36 40 40 41 37 42 39 43 38 44 57 45
REMARK SMILES IDX 58 46 62 47 59 48 61 49 60 50 47 51 48 52 52 53 49 54 51 55
REMARK SMILES IDX 50 56 6 57 7 58 8 59 9 61 10 62 11 63 25 64 12 65 13 66
REMARK SMILES IDX 14 69 15 70 24 71 16 72 17 73 18 74 19 75 23 76 20 77 22 78
REMARK SMILES IDX 21 79
REMARK H PARENT 3 6 67 24 45 35 7 60 25 67 25 68
REMARK Flexibility Score: inf
ROOT
ATOM      1  C   UNL A   1      33.999  28.131  26.070  1.00  0.00     0.042 C 
ENDROOT
BRANCH   1   2
ATOM      2  C   UNL A   1      33.525  28.529  27.468  1.00  0.00     0.118 C 
BRANCH   2   3
ATOM      3  N   UNL A   1      33.530  29.971  27.672  1.00  0.00    -0.352 N 
ATOM      4  O   UNL A   1      34.241  31.955  28.466  1.00  0.00    -0.269 OA
ATOM      5  C   UNL A   1      34.506  30.782  28.189  1.00  0.00     0.251 C 
ATOM      6  H   UNL A   1      32.706  30.434  27.396  1.00  0.00     0.163 HD
BRANCH   5   7
ATOM      7  C   UNL A   1      35.868  30.264  28.424  1.00  0.00     0.039 A 
ATOM      8  C   UNL A   1      36.835  30.322  27.418  1.00  0.00     0.014 A 
ATOM      9  C   UNL A   1      36.202  29.771  29.689  1.00  0.00     0.014 A 
ATOM     10  C   UNL A   1      38.099  29.786  27.642  1.00  0.00     0.010 A 
ATOM     11  C   UNL A   1      37.494  29.299  29.934  1.00  0.00     0.010 A 
ATOM     12  C   UNL A   1      38.449  29.286  28.906  1.00  0.00    -0.014 A 
BRANCH  12  13
ATOM     13  C   UNL A   1      39.844  28.843  29.157  1.00  0.00     0.031 A 
ATOM     14  C   UNL A   1      40.850  29.756  29.798  1.00  0.00     0.074 A 
ATOM     15  C   UNL A   1      40.197  27.593  28.796  1.00  0.00     0.049 A 
ATOM     16  N   UNL A   1      42.111  29.527  30.069  1.00  0.00    -0.248 NA
ATOM     17  C   UNL A   1      40.390  31.099  30.183  1.00  0.00     0.031 C 
ATOM     18  C   UNL A   1      39.309  26.616  28.159  1.00  0.00     0.029 A 
ATOM     19  N   UNL A   1      41.390  26.928  28.915  1.00  0.00    -0.354 N 
ATOM     20  C   UNL A   1      42.601  30.700  30.629  1.00  0.00     0.074 A 
ATOM     21  C   UNL A   1      41.505  31.646  30.648  1.00  0.00     0.031 C 
ATOM     22  C   UNL A   1      39.977  25.469  27.975  1.00  0.00     0.029 A 
ATOM     23  C   UNL A   1      41.356  25.650  28.411  1.00  0.00     0.049 A 
ATOM     24  H   UNL A   1      42.194  27.327  29.321  1.00  0.00     0.167 HD
ATOM     25  C   UNL A   1      43.849  30.960  31.086  1.00  0.00     0.031 A 
ATOM     26  C   UNL A   1      42.331  24.733  28.278  1.00  0.00     0.031 A 
ATOM     27  C   UNL A   1      44.935  30.013  31.065  1.00  0.00     0.049 A 
ATOM     28  C   UNL A   1      43.717  25.071  28.746  1.00  0.00     0.074 A 
ATOM     29  C   UNL A   1      46.221  30.169  31.555  1.00  0.00     0.029 A 
ATOM     30  N   UNL A   1      44.868  28.743  30.515  1.00  0.00    -0.354 N 
ATOM     31  N   UNL A   1      44.146  26.164  29.329  1.00  0.00    -0.248 NA
ATOM     32  C   UNL A   1      44.753  24.052  28.534  1.00  0.00     0.031 C 
ATOM     33  C   UNL A   1      46.951  29.019  31.240  1.00  0.00     0.029 A 
ATOM     34  C   UNL A   1      46.102  28.121  30.614  1.00  0.00     0.049 A 
ATOM     35  H   UNL A   1      44.063  28.343  30.114  1.00  0.00     0.167 HD
ATOM     36  C   UNL A   1      45.498  25.957  29.567  1.00  0.00     0.074 A 
ATOM     37  C   UNL A   1      45.810  24.626  29.090  1.00  0.00     0.031 C 
ATOM     38  C   UNL A   1      46.400  26.798  30.128  1.00  0.00     0.031 A 
BRANCH  25  39
ATOM     39  C   UNL A   1      44.132  32.339  31.617  1.00  0.00    -0.014 A 
ATOM     40  C   UNL A   1      44.556  33.379  30.775  1.00  0.00     0.009 A 
ATOM     41  C   UNL A   1      43.897  32.619  32.974  1.00  0.00     0.009 A 
ATOM     42  C   UNL A   1      44.765  34.662  31.288  1.00  0.00     0.001 A 
ATOM     43  C   UNL A   1      44.081  33.907  33.477  1.00  0.00     0.001 A 
ATOM     44  C   UNL A   1      44.522  34.927  32.635  1.00  0.00     0.000 A 
ENDBRANCH  25  39
BRANCH  26  45
ATOM     45  C   UNL A   1      42.039  23.425  27.635  1.00  0.00    -0.014 A 
ATOM     46  C   UNL A   1      41.483  22.370  28.371  1.00  0.00     0.009 A 
ATOM     47  C   UNL A   1      42.319  23.230  26.272  1.00  0.00     0.009 A 
ATOM     48  C   UNL A   1      41.240  21.135  27.763  1.00  0.00     0.001 A 
ATOM     49  C   UNL A   1      42.041  22.007  25.658  1.00  0.00     0.001 A 
ATOM     50  C   UNL A   1      41.513  20.958  26.407  1.00  0.00     0.000 A 
ENDBRANCH  26  45
BRANCH  38  51
ATOM     51  C   UNL A   1      47.807  26.293  30.277  1.00  0.00    -0.014 A 
ATOM     52  C   UNL A   1      48.259  25.747  31.487  1.00  0.00     0.009 A 
ATOM     53  C   UNL A   1      48.678  26.327  29.177  1.00  0.00     0.009 A 
ATOM     54  C   UNL A   1      49.568  25.272  31.601  1.00  0.00     0.001 A 
ATOM     55  C   UNL A   1      49.975  25.824  29.285  1.00  0.00     0.001 A 
ATOM     56  C   UNL A   1      50.421  25.305  30.499  1.00  0.00     0.000 A 
ENDBRANCH  38  51
ENDBRANCH  12  13
ENDBRANCH   5   7
ENDBRANCH   2   3
ENDBRANCH   1   2
BRANCH   1  57
ATOM     57  C   UNL A   1      33.645  29.141  24.982  1.00  0.00     0.118 C 
BRANCH  57  58
ATOM     58  N   UNL A   1      34.038  28.678  23.666  1.00  0.00    -0.351 N 
ATOM     59  C   UNL A   1      33.421  28.003  22.667  1.00  0.00     0.279 C 
ATOM     60  H   UNL A   1      34.970  28.907  23.448  1.00  0.00     0.163 HD
ATOM     61  O   UNL A   1      34.116  27.854  21.653  1.00  0.00    -0.268 OA
BRANCH  59  62
ATOM     62  C   UNL A   1      31.949  27.513  22.694  1.00  0.00     0.284 C 
ATOM     63  C   UNL A   1      31.255  27.338  24.041  1.00  0.00     0.151 C 
ATOM     64  N   UNL A   1      31.871  26.239  21.896  1.00  0.00    -0.319 N 
ATOM     65  S   UNL A   1      30.095  25.992  23.774  1.00  0.00    -0.085 SA
ATOM     66  C   UNL A   1      31.291  25.156  22.700  1.00  0.00     0.303 C 
ATOM     67  H   UNL A   1      32.810  25.972  21.601  1.00  0.00     0.348 HD
ATOM     68  H   UNL A   1      31.275  26.399  21.083  1.00  0.00     0.348 HD
BRANCH  66  69
ATOM     69  C   UNL A   1      32.281  24.340  23.531  1.00  0.00     0.162 A 
ATOM     70  N   UNL A   1      31.940  23.652  24.608  1.00  0.00    -0.242 NA
ATOM     71  S   UNL A   1      33.966  24.268  23.154  1.00  0.00    -0.112 S 
ATOM     72  C   UNL A   1      33.063  23.111  25.206  1.00  0.00     0.132 A 
ATOM     73  C   UNL A   1      34.262  23.378  24.583  1.00  0.00     0.055 A 
BRANCH  73  74
ATOM     74  C   UNL A   1      35.622  23.009  24.955  1.00  0.00    -0.007 A 
ATOM     75  C   UNL A   1      36.430  23.903  25.669  1.00  0.00     0.009 A 
ATOM     76  C   UNL A   1      36.134  21.751  24.615  1.00  0.00     0.009 A 
ATOM     77  C   UNL A   1      37.733  23.551  26.025  1.00  0.00     0.001 A 
ATOM     78  C   UNL A   1      37.439  21.402  24.969  1.00  0.00     0.001 A 
ATOM     79  C   UNL A   1      38.238  22.302  25.672  1.00  0.00     0.000 A 
ENDBRANCH  73  74
ENDBRANCH  66  69
ENDBRANCH  59  62
ENDBRANCH  57  58
ENDBRANCH   1  57
TORSDOF 12
ENDMDL
MODEL 2
REMARK VINA RESULT:     -11.2      1.627      3.958
REMARK SMILES O=C(NCCCNC(=O)[C@@H]1CS[C@H](c2ncc(-c3ccccc3)s2)[NH2+]1)c1ccc(-c2c3nc(c(-c4ccccc4)c4ccc([nH]4)c(-c4ccccc4)c4nc(c(-c5ccccc5)c5ccc2[nH]5)C=C4)C=C3)cc1
REMARK SMILES IDX 5 1 4 2 3 3 1 4 2 5 26 7 27 8 73 9 28 10 72 11 29 12 30 13
REMARK SMILES IDX 31 14 66 15 32 16 71 17 65 18 67 19 33 20 70 21 64 22 63 23
REMARK SMILES IDX 34 25 56 26 41 27 55 28 42 29 45 30 54 31 68 32 43 33 44 34
REMARK SMILES IDX 53 36 69 37 46 38 35 39 36 40 40 41 37 42 39 43 38 44 57 45
REMARK SMILES IDX 58 46 62 47 59 48 61 49 60 50 47 51 48 52 52 53 49 54 51 55
REMARK SMILES IDX 50 56 6 57 7 58 8 59 9 61 10 62 11 63 25 64 12 65 13 66
REMARK SMILES IDX 14 69 15 70 24 71 16 72 17 73 18 74 19 75 23 76 20 77 22 78
REMARK SMILES IDX 21 79
REMARK H PARENT 3 6 67 24 45 35 7 60 25 67 25 68
REMARK Flexibility Score: inf
ROOT
ATOM      1  C   UNL A   1      32.257  27.959  27.487  1.00  0.00     0.042 C 
ENDROOT
BRANCH   1   2
ATOM      2  C   UNL A   1      33.618  28.628  27.295  1.00  0.00     0.118 C 
BRANCH   2   3
ATOM      3  N   UNL A   1      33.599  30.044  27.634  1.00  0.00    -0.352 N 
ATOM      4  O   UNL A   1      34.264  31.950  28.632  1.00  0.00    -0.269 OA
ATOM      5  C   UNL A   1      34.550  30.811  28.255  1.00  0.00     0.251 C 
ATOM      6  H   UNL A   1      32.779  30.523  27.376  1.00  0.00     0.163 HD
BRANCH   5   7
ATOM      7  C   UNL A   1      35.910  30.285  28.483  1.00  0.00     0.039 A 
ATOM      8  C   UNL A   1      36.873  30.339  27.473  1.00  0.00     0.014 A 
ATOM      9  C   UNL A   1      36.247  29.788  29.746  1.00  0.00     0.014 A 
ATOM     10  C   UNL A   1      38.135  29.796  27.691  1.00  0.00     0.010 A 
ATOM     11  C   UNL A   1      37.537  29.308  29.984  1.00  0.00     0.010 A 
ATOM     12  C   UNL A   1      38.487  29.292  28.952  1.00  0.00    -0.014 A 
BRANCH  12  13
ATOM     13  C   UNL A   1      39.881  28.840  29.196  1.00  0.00     0.031 A 
ATOM     14  C   UNL A   1      40.894  29.745  29.840  1.00  0.00     0.074 A 
ATOM     15  C   UNL A   1      40.227  27.591  28.828  1.00  0.00     0.049 A 
ATOM     16  N   UNL A   1      42.154  29.507  30.105  1.00  0.00    -0.248 NA
ATOM     17  C   UNL A   1      40.441  31.088  30.233  1.00  0.00     0.031 C 
ATOM     18  C   UNL A   1      39.332  26.622  28.188  1.00  0.00     0.029 A 
ATOM     19  N   UNL A   1      41.417  26.919  28.939  1.00  0.00    -0.354 N 
ATOM     20  C   UNL A   1      42.652  30.675  30.671  1.00  0.00     0.074 A 
ATOM     21  C   UNL A   1      41.561  31.626  30.698  1.00  0.00     0.031 C 
ATOM     22  C   UNL A   1      39.994  25.472  27.996  1.00  0.00     0.029 A 
ATOM     23  C   UNL A   1      41.375  25.644  28.428  1.00  0.00     0.049 A 
ATOM     24  H   UNL A   1      42.223  27.311  29.345  1.00  0.00     0.167 HD
ATOM     25  C   UNL A   1      43.903  30.926  31.125  1.00  0.00     0.031 A 
ATOM     26  C   UNL A   1      42.345  24.723  28.287  1.00  0.00     0.031 A 
ATOM     27  C   UNL A   1      44.984  29.974  31.095  1.00  0.00     0.049 A 
ATOM     28  C   UNL A   1      43.734  25.051  28.753  1.00  0.00     0.074 A 
ATOM     29  C   UNL A   1      46.272  30.121  31.582  1.00  0.00     0.029 A 
ATOM     30  N   UNL A   1      44.909  28.707  30.539  1.00  0.00    -0.354 N 
ATOM     31  N   UNL A   1      44.170  26.139  29.340  1.00  0.00    -0.248 NA
ATOM     32  C   UNL A   1      44.764  24.028  28.532  1.00  0.00     0.031 C 
ATOM     33  C   UNL A   1      46.995  28.969  31.258  1.00  0.00     0.029 A 
ATOM     34  C   UNL A   1      46.140  28.079  30.630  1.00  0.00     0.049 A 
ATOM     35  H   UNL A   1      44.101  28.313  30.138  1.00  0.00     0.167 HD
ATOM     36  C   UNL A   1      45.521  25.924  29.574  1.00  0.00     0.074 A 
ATOM     37  C   UNL A   1      45.825  24.594  29.087  1.00  0.00     0.031 C 
ATOM     38  C   UNL A   1      46.430  26.757  30.136  1.00  0.00     0.031 A 
BRANCH  25  39
ATOM     39  C   UNL A   1      44.194  32.301  31.662  1.00  0.00    -0.014 A 
ATOM     40  C   UNL A   1      44.052  32.603  33.025  1.00  0.00     0.009 A 
ATOM     41  C   UNL A   1      44.690  33.291  30.797  1.00  0.00     0.009 A 
ATOM     42  C   UNL A   1      44.375  33.876  33.505  1.00  0.00     0.001 A 
ATOM     43  C   UNL A   1      45.037  34.552  31.283  1.00  0.00     0.001 A 
ATOM     44  C   UNL A   1      44.872  34.847  32.635  1.00  0.00     0.000 A 
ENDBRANCH  25  39
BRANCH  26  45
ATOM     45  C   UNL A   1      42.044  23.420  27.638  1.00  0.00    -0.014 A 
ATOM     46  C   UNL A   1      41.483  22.364  28.369  1.00  0.00     0.009 A 
ATOM     47  C   UNL A   1      42.322  23.229  26.274  1.00  0.00     0.009 A 
ATOM     48  C   UNL A   1      41.231  21.134  27.755  1.00  0.00     0.001 A 
ATOM     49  C   UNL A   1      42.036  22.012  25.654  1.00  0.00     0.001 A 
ATOM     50  C   UNL A   1      41.502  20.962  26.398  1.00  0.00     0.000 A 
ENDBRANCH  26  45
BRANCH  38  51
ATOM     51  C   UNL A   1      47.835  26.244  30.278  1.00  0.00    -0.014 A 
ATOM     52  C   UNL A   1      48.751  26.332  29.218  1.00  0.00     0.009 A 
ATOM     53  C   UNL A   1      48.258  25.703  31.502  1.00  0.00     0.009 A 
ATOM     54  C   UNL A   1      50.056  25.861  29.374  1.00  0.00     0.001 A 
ATOM     55  C   UNL A   1      49.571  25.261  31.663  1.00  0.00     0.001 A 
ATOM     56  C   UNL A   1      50.466  25.332  30.596  1.00  0.00     0.000 A 
ENDBRANCH  38  51
ENDBRANCH  12  13
ENDBRANCH   5   7
ENDBRANCH   2   3
ENDBRANCH   1   2
BRANCH   1  57
ATOM     57  C   UNL A   1      31.877  26.991  26.368  1.00  0.00     0.118 C 
BRANCH  57  58
ATOM     58  N   UNL A   1      31.367  25.738  26.888  1.00  0.00    -0.351 N 
ATOM     59  C   UNL A   1      31.557  24.431  26.586  1.00  0.00     0.279 C 
ATOM     60  H   UNL A   1      30.738  25.866  27.633  1.00  0.00     0.163 HD
ATOM     61  O   UNL A   1      30.957  23.647  27.334  1.00  0.00    -0.268 OA
BRANCH  59  62
ATOM     62  C   UNL A   1      32.499  23.896  25.475  1.00  0.00     0.284 C 
ATOM     63  C   UNL A   1      33.775  24.668  25.156  1.00  0.00     0.151 C 
ATOM     64  N   UNL A   1      31.679  23.703  24.227  1.00  0.00    -0.319 N 
ATOM     65  S   UNL A   1      34.047  24.376  23.404  1.00  0.00    -0.085 SA
ATOM     66  C   UNL A   1      32.262  24.443  23.102  1.00  0.00     0.303 C 
ATOM     67  H   UNL A   1      30.731  24.040  24.395  1.00  0.00     0.348 HD
ATOM     68  H   UNL A   1      31.666  22.710  23.995  1.00  0.00     0.348 HD
BRANCH  66  69
ATOM     69  C   UNL A   1      31.797  25.890  22.943  1.00  0.00     0.162 A 
ATOM     70  N   UNL A   1      32.602  26.886  22.610  1.00  0.00    -0.242 NA
ATOM     71  S   UNL A   1      30.161  26.372  23.221  1.00  0.00    -0.112 S 
ATOM     72  C   UNL A   1      31.922  28.088  22.653  1.00  0.00     0.132 A 
ATOM     73  C   UNL A   1      30.593  28.012  23.011  1.00  0.00     0.055 A 
BRANCH  73  74
ATOM     74  C   UNL A   1      29.604  29.066  23.194  1.00  0.00    -0.007 A 
ATOM     75  C   UNL A   1      29.980  30.307  23.727  1.00  0.00     0.009 A 
ATOM     76  C   UNL A   1      28.269  28.858  22.831  1.00  0.00     0.009 A 
ATOM     77  C   UNL A   1      29.033  31.317  23.904  1.00  0.00     0.001 A 
ATOM     78  C   UNL A   1      27.322  29.868  23.013  1.00  0.00     0.001 A 
ATOM     79  C   UNL A   1      27.704  31.096  23.551  1.00  0.00     0.000 A 
ENDBRANCH  73  74
ENDBRANCH  66  69
ENDBRANCH  59  62
ENDBRANCH  57  58
ENDBRANCH   1  57
TORSDOF 12
ENDMDL
MODEL 3
REMARK VINA RESULT:     -11.1      2.644      7.825
REMARK SMILES O=C(NCCCNC(=O)[C@@H]1CS[C@H](c2ncc(-c3ccccc3)s2)[NH2+]1)c1ccc(-c2c3nc(c(-c4ccccc4)c4ccc([nH]4)c(-c4ccccc4)c4nc(c(-c5ccccc5)c5ccc2[nH]5)C=C4)C=C3)cc1
REMARK SMILES IDX 5 1 4 2 3 3 1 4 2 5 26 7 27 8 73 9 28 10 72 11 29 12 30 13
REMARK SMILES IDX 31 14 66 15 32 16 71 17 65 18 67 19 33 20 70 21 64 22 63 23
REMARK SMILES IDX 34 25 56 26 41 27 55 28 42 29 45 30 54 31 68 32 43 33 44 34
REMARK SMILES IDX 53 36 69 37 46 38 35 39 36 40 40 41 37 42 39 43 38 44 57 45
REMARK SMILES IDX 58 46 62 47 59 48 61 49 60 50 47 51 48 52 52 53 49 54 51 55
REMARK SMILES IDX 50 56 6 57 7 58 8 59 9 61 10 62 11 63 25 64 12 65 13 66
REMARK SMILES IDX 14 69 15 70 24 71 16 72 17 73 18 74 19 75 23 76 20 77 22 78
REMARK SMILES IDX 21 79
REMARK H PARENT 3 6 67 24 45 35 7 60 25 67 25 68
REMARK Flexibility Score: inf
ROOT
ATOM      1  C   UNL A   1      35.995  23.808  25.940  1.00  0.00     0.042 C 
ENDROOT
BRANCH   1   2
ATOM      2  C   UNL A   1      37.182  23.711  24.983  1.00  0.00     0.118 C 
BRANCH   2   3
ATOM      3  N   UNL A   1      38.167  22.727  25.409  1.00  0.00    -0.352 N 
ATOM      4  O   UNL A   1      40.124  21.964  26.222  1.00  0.00    -0.269 OA
ATOM      5  C   UNL A   1      39.318  22.893  26.135  1.00  0.00     0.251 C 
ATOM      6  H   UNL A   1      37.979  21.801  25.133  1.00  0.00     0.163 HD
BRANCH   5   7
ATOM      7  C   UNL A   1      39.603  24.175  26.809  1.00  0.00     0.039 A 
ATOM      8  C   UNL A   1      39.184  24.397  28.123  1.00  0.00     0.014 A 
ATOM      9  C   UNL A   1      40.355  25.145  26.140  1.00  0.00     0.014 A 
ATOM     10  C   UNL A   1      39.421  25.630  28.725  1.00  0.00     0.010 A 
ATOM     11  C   UNL A   1      40.654  26.355  26.773  1.00  0.00     0.010 A 
ATOM     12  C   UNL A   1      40.173  26.613  28.065  1.00  0.00    -0.014 A 
BRANCH  12  13
ATOM     13  C   UNL A   1      40.525  27.867  28.780  1.00  0.00     0.031 A 
ATOM     14  C   UNL A   1      41.867  28.043  29.433  1.00  0.00     0.074 A 
ATOM     15  C   UNL A   1      39.611  28.855  28.835  1.00  0.00     0.049 A 
ATOM     16  N   UNL A   1      42.321  29.068  30.111  1.00  0.00    -0.248 NA
ATOM     17  C   UNL A   1      42.822  26.931  29.318  1.00  0.00     0.031 C 
ATOM     18  C   UNL A   1      38.271  28.799  28.244  1.00  0.00     0.029 A 
ATOM     19  N   UNL A   1      39.667  30.100  29.408  1.00  0.00    -0.354 N 
ATOM     20  C   UNL A   1      43.600  28.716  30.523  1.00  0.00     0.074 A 
ATOM     21  C   UNL A   1      43.846  27.377  30.033  1.00  0.00     0.031 C 
ATOM     22  C   UNL A   1      37.646  29.966  28.455  1.00  0.00     0.029 A 
ATOM     23  C   UNL A   1      38.509  30.824  29.257  1.00  0.00     0.049 A 
ATOM     24  H   UNL A   1      40.459  30.442  29.882  1.00  0.00     0.167 HD
ATOM     25  C   UNL A   1      44.485  29.445  31.244  1.00  0.00     0.031 A 
ATOM     26  C   UNL A   1      38.160  32.031  29.738  1.00  0.00     0.031 A 
ATOM     27  C   UNL A   1      44.235  30.779  31.729  1.00  0.00     0.049 A 
ATOM     28  C   UNL A   1      39.145  32.792  30.578  1.00  0.00     0.074 A 
ATOM     29  C   UNL A   1      45.091  31.618  32.422  1.00  0.00     0.029 A 
ATOM     30  N   UNL A   1      43.037  31.462  31.584  1.00  0.00    -0.354 N 
ATOM     31  N   UNL A   1      40.371  32.468  30.907  1.00  0.00    -0.248 NA
ATOM     32  C   UNL A   1      38.694  34.082  31.116  1.00  0.00     0.031 C 
ATOM     33  C   UNL A   1      44.390  32.780  32.756  1.00  0.00     0.029 A 
ATOM     34  C   UNL A   1      43.118  32.693  32.214  1.00  0.00     0.049 A 
ATOM     35  H   UNL A   1      42.247  31.122  31.105  1.00  0.00     0.167 HD
ATOM     36  C   UNL A   1      40.845  33.521  31.677  1.00  0.00     0.074 A 
ATOM     37  C   UNL A   1      39.783  34.503  31.744  1.00  0.00     0.031 C 
ATOM     38  C   UNL A   1      42.051  33.659  32.278  1.00  0.00     0.031 A 
BRANCH  25  39
ATOM     39  C   UNL A   1      45.803  28.809  31.593  1.00  0.00    -0.014 A 
ATOM     40  C   UNL A   1      46.931  28.955  30.771  1.00  0.00     0.009 A 
ATOM     41  C   UNL A   1      45.934  28.112  32.807  1.00  0.00     0.009 A 
ATOM     42  C   UNL A   1      48.155  28.393  31.144  1.00  0.00     0.001 A 
ATOM     43  C   UNL A   1      47.165  27.575  33.189  1.00  0.00     0.001 A 
ATOM     44  C   UNL A   1      48.273  27.709  32.354  1.00  0.00     0.000 A 
ENDBRANCH  25  39
BRANCH  26  45
ATOM     45  C   UNL A   1      36.801  32.572  29.473  1.00  0.00    -0.014 A 
ATOM     46  C   UNL A   1      36.527  33.283  28.296  1.00  0.00     0.009 A 
ATOM     47  C   UNL A   1      35.769  32.377  30.405  1.00  0.00     0.009 A 
ATOM     48  C   UNL A   1      35.253  33.812  28.071  1.00  0.00     0.001 A 
ATOM     49  C   UNL A   1      34.488  32.876  30.162  1.00  0.00     0.001 A 
ATOM     50  C   UNL A   1      34.235  33.602  29.001  1.00  0.00     0.000 A 
ENDBRANCH  26  45
BRANCH  38  51
ATOM     51  C   UNL A   1      42.295  34.929  33.042  1.00  0.00    -0.014 A 
ATOM     52  C   UNL A   1      41.781  35.109  34.336  1.00  0.00     0.009 A 
ATOM     53  C   UNL A   1      43.084  35.942  32.475  1.00  0.00     0.009 A 
ATOM     54  C   UNL A   1      42.029  36.292  35.034  1.00  0.00     0.001 A 
ATOM     55  C   UNL A   1      43.355  37.110  33.188  1.00  0.00     0.001 A 
ATOM     56  C   UNL A   1      42.820  37.287  34.463  1.00  0.00     0.000 A 
ENDBRANCH  38  51
ENDBRANCH  12  13
ENDBRANCH   5   7
ENDBRANCH   2   3
ENDBRANCH   1   2
BRANCH   1  57
ATOM     57  C   UNL A   1      35.590  22.475  26.566  1.00  0.00     0.118 C 
BRANCH  57  58
ATOM     58  N   UNL A   1      34.402  22.602  27.386  1.00  0.00    -0.351 N 
ATOM     59  C   UNL A   1      33.074  22.431  27.178  1.00  0.00     0.279 C 
ATOM     60  H   UNL A   1      34.607  22.878  28.308  1.00  0.00     0.163 HD
ATOM     61  O   UNL A   1      32.379  22.591  28.191  1.00  0.00    -0.268 OA
BRANCH  59  62
ATOM     62  C   UNL A   1      32.429  21.985  25.839  1.00  0.00     0.284 C 
ATOM     63  C   UNL A   1      33.212  22.173  24.544  1.00  0.00     0.151 C 
ATOM     64  N   UNL A   1      31.079  22.644  25.735  1.00  0.00    -0.319 N 
ATOM     65  S   UNL A   1      31.950  22.456  23.297  1.00  0.00    -0.085 SA
ATOM     66  C   UNL A   1      30.968  23.406  24.486  1.00  0.00     0.303 C 
ATOM     67  H   UNL A   1      30.954  23.276  26.526  1.00  0.00     0.348 HD
ATOM     68  H   UNL A   1      30.361  21.920  25.743  1.00  0.00     0.348 HD
BRANCH  66  69
ATOM     69  C   UNL A   1      31.449  24.856  24.545  1.00  0.00     0.162 A 
ATOM     70  N   UNL A   1      31.911  25.517  23.496  1.00  0.00    -0.242 NA
ATOM     71  S   UNL A   1      31.466  25.766  26.013  1.00  0.00    -0.112 S 
ATOM     72  C   UNL A   1      32.371  26.763  23.879  1.00  0.00     0.132 A 
ATOM     73  C   UNL A   1      32.253  27.059  25.220  1.00  0.00     0.055 A 
BRANCH  73  74
ATOM     74  C   UNL A   1      32.666  28.241  25.964  1.00  0.00    -0.007 A 
ATOM     75  C   UNL A   1      31.786  29.319  26.130  1.00  0.00     0.009 A 
ATOM     76  C   UNL A   1      33.943  28.312  26.532  1.00  0.00     0.009 A 
ATOM     77  C   UNL A   1      32.180  30.453  26.841  1.00  0.00     0.001 A 
ATOM     78  C   UNL A   1      34.337  29.449  27.241  1.00  0.00     0.001 A 
ATOM     79  C   UNL A   1      33.458  30.519  27.393  1.00  0.00     0.000 A 
ENDBRANCH  73  74
ENDBRANCH  66  69
ENDBRANCH  59  62
ENDBRANCH  57  58
ENDBRANCH   1  57
TORSDOF 12
ENDMDL
