MODEL 1
REMARK VINA RESULT:     -11.4      0.000      0.000
REMARK SMILES CCOc1cnc(C(=O)c2[nH]c3cc(Cl)ccc3c2CC(=O)NCCCNC(=O)c2ccc(-c3c4nc(c(-c5ccccc5)c5ccc([nH]5)c(-c5ccccc5)c5nc(c(-c6ccccc6)c6ccc3[nH]6)C=C5)C=C4)cc2)cc1CC
REMARK SMILES IDX 21 1 22 2 23 3 20 5 19 6 10 7 11 8 12 9 18 11 13 12 17 13
REMARK SMILES IDX 14 14 16 15 15 16 8 17 9 18 7 19 4 20 5 21 79 22 6 23 78 24
REMARK SMILES IDX 3 25 2 26 1 27 80 28 81 29 24 30 25 31 26 32 27 33 28 34
REMARK SMILES IDX 29 36 30 37 31 38 77 39 32 40 76 41 33 42 34 43 35 44 70 45
REMARK SMILES IDX 36 46 75 47 69 48 71 49 37 50 74 51 68 52 67 53 38 55 60 56
REMARK SMILES IDX 45 57 59 58 46 59 49 60 58 61 72 62 47 63 48 64 57 66 73 67
REMARK SMILES IDX 50 68 39 69 40 70 44 71 41 72 43 73 42 74 61 75 62 76 66 77
REMARK SMILES IDX 63 78 65 79 64 80 51 81 52 82 56 83 53 84 55 85 54 86
REMARK H PARENT 23 4 11 10 27 35 71 54 49 65
REMARK Flexibility Score: inf
ROOT
ATOM      1  C   UNL A   1      36.383  22.936  24.800  1.00  0.00     0.224 C 
ATOM      2  O   UNL A   1      35.972  23.716  23.937  1.00  0.00    -0.275 OA
ATOM      3  N   UNL A   1      37.673  22.499  24.695  1.00  0.00    -0.356 N 
ATOM      4  H   UNL A   1      38.127  22.732  23.854  1.00  0.00     0.163 HD
ENDROOT
BRANCH   1   5
ATOM      5  C   UNL A   1      35.525  22.572  26.004  1.00  0.00     0.138 C 
BRANCH   5   6
ATOM      6  C   UNL A   1      34.337  21.712  25.684  1.00  0.00    -0.002 A 
ATOM      7  C   UNL A   1      32.997  22.013  25.905  1.00  0.00     0.093 A 
ATOM      8  N   UNL A   1      32.255  21.011  25.319  1.00  0.00    -0.351 N 
ATOM      9  C   UNL A   1      33.062  19.955  24.978  1.00  0.00     0.048 A 
ATOM     10  H   UNL A   1      31.283  21.048  25.168  1.00  0.00     0.167 HD
ATOM     11  C   UNL A   1      34.377  20.362  25.195  1.00  0.00     0.004 A 
ATOM     12  C   UNL A   1      32.728  18.684  24.491  1.00  0.00     0.047 A 
ATOM     13  C   UNL A   1      35.416  19.447  24.915  1.00  0.00     0.012 A 
ATOM     14  C   UNL A   1      33.777  17.800  24.233  1.00  0.00     0.043 A 
ATOM     15  C   UNL A   1      35.103  18.168  24.439  1.00  0.00     0.021 A 
ATOM     16  Cl  UNL A   1      33.418  16.219  23.652  1.00  0.00    -0.084 Cl
BRANCH   7  17
ATOM     17  C   UNL A   1      32.407  23.157  26.583  1.00  0.00     0.227 C 
ATOM     18  O   UNL A   1      31.988  23.072  27.730  1.00  0.00    -0.285 OA
BRANCH  17  19
ATOM     19  C   UNL A   1      32.358  24.472  25.825  1.00  0.00     0.113 A 
ATOM     20  C   UNL A   1      32.111  26.878  24.510  1.00  0.00     0.140 A 
ATOM     21  C   UNL A   1      31.330  25.766  24.208  1.00  0.00     0.158 A 
ATOM     22  C   UNL A   1      33.031  26.786  25.553  1.00  0.00    -0.002 A 
ATOM     23  N   UNL A   1      31.421  24.577  24.852  1.00  0.00    -0.249 NA
ATOM     24  C   UNL A   1      33.200  25.535  26.160  1.00  0.00     0.040 A 
BRANCH  20  25
ATOM     25  O   UNL A   1      31.904  28.061  23.863  1.00  0.00    -0.492 OA
BRANCH  25  26
ATOM     26  C   UNL A   1      30.577  28.565  24.072  1.00  0.00     0.226 C 
ATOM     27  C   UNL A   1      30.161  29.415  22.882  1.00  0.00     0.049 C 
ENDBRANCH  25  26
ENDBRANCH  20  25
BRANCH  22  28
ATOM     28  C   UNL A   1      33.830  27.970  26.042  1.00  0.00     0.036 C 
ATOM     29  C   UNL A   1      33.046  28.861  27.001  1.00  0.00     0.009 C 
ENDBRANCH  22  28
ENDBRANCH  17  19
ENDBRANCH   7  17
ENDBRANCH   5   6
ENDBRANCH   1   5
BRANCH   3  30
ATOM     30  C   UNL A   1      38.474  21.743  25.638  1.00  0.00     0.117 C 
BRANCH  30  31
ATOM     31  C   UNL A   1      38.876  20.368  25.114  1.00  0.00     0.042 C 
BRANCH  31  32
ATOM     32  C   UNL A   1      39.452  19.432  26.174  1.00  0.00     0.118 C 
BRANCH  32  33
ATOM     33  N   UNL A   1      40.793  18.963  25.847  1.00  0.00    -0.352 N 
ATOM     34  C   UNL A   1      42.000  19.614  25.859  1.00  0.00     0.251 C 
ATOM     35  H   UNL A   1      40.840  18.020  25.571  1.00  0.00     0.163 HD
ATOM     36  O   UNL A   1      42.985  19.072  25.366  1.00  0.00    -0.269 OA
BRANCH  34  37
ATOM     37  C   UNL A   1      42.132  20.971  26.436  1.00  0.00     0.039 A 
ATOM     38  C   UNL A   1      41.971  21.131  27.816  1.00  0.00     0.014 A 
ATOM     39  C   UNL A   1      42.372  22.086  25.629  1.00  0.00     0.014 A 
ATOM     40  C   UNL A   1      42.139  22.390  28.398  1.00  0.00     0.010 A 
ATOM     41  C   UNL A   1      42.598  23.330  26.215  1.00  0.00     0.010 A 
ATOM     42  C   UNL A   1      42.501  23.491  27.606  1.00  0.00    -0.014 A 
BRANCH  42  43
ATOM     43  C   UNL A   1      42.846  24.801  28.211  1.00  0.00     0.031 A 
ATOM     44  C   UNL A   1      41.793  25.851  28.423  1.00  0.00     0.074 A 
ATOM     45  C   UNL A   1      44.137  25.086  28.467  1.00  0.00     0.049 A 
ATOM     46  N   UNL A   1      41.933  27.091  28.818  1.00  0.00    -0.248 NA
ATOM     47  C   UNL A   1      40.405  25.462  28.131  1.00  0.00     0.031 C 
ATOM     48  C   UNL A   1      45.261  24.168  28.267  1.00  0.00     0.029 A 
ATOM     49  N   UNL A   1      44.724  26.239  28.924  1.00  0.00    -0.354 N 
ATOM     50  C   UNL A   1      40.658  27.638  28.803  1.00  0.00     0.074 A 
ATOM     51  C   UNL A   1      39.761  26.603  28.330  1.00  0.00     0.031 C 
ATOM     52  C   UNL A   1      46.402  24.795  28.595  1.00  0.00     0.029 A 
ATOM     53  C   UNL A   1      46.094  26.166  28.987  1.00  0.00     0.049 A 
ATOM     54  H   UNL A   1      44.214  27.040  29.182  1.00  0.00     0.167 HD
ATOM     55  C   UNL A   1      40.267  28.886  29.157  1.00  0.00     0.031 A 
ATOM     56  C   UNL A   1      47.010  27.105  29.295  1.00  0.00     0.031 A 
ATOM     57  C   UNL A   1      41.156  29.914  29.629  1.00  0.00     0.049 A 
ATOM     58  C   UNL A   1      46.558  28.489  29.655  1.00  0.00     0.074 A 
ATOM     59  C   UNL A   1      40.843  31.179  30.094  1.00  0.00     0.029 A 
ATOM     60  N   UNL A   1      42.537  29.799  29.683  1.00  0.00    -0.354 N 
ATOM     61  N   UNL A   1      45.339  28.967  29.712  1.00  0.00    -0.248 NA
ATOM     62  C   UNL A   1      47.606  29.462  29.992  1.00  0.00     0.031 C 
ATOM     63  C   UNL A   1      42.038  31.851  30.376  1.00  0.00     0.029 A 
ATOM     64  C   UNL A   1      43.093  30.986  30.131  1.00  0.00     0.049 A 
ATOM     65  H   UNL A   1      43.046  28.992  29.438  1.00  0.00     0.167 HD
ATOM     66  C   UNL A   1      45.472  30.295  30.097  1.00  0.00     0.074 A 
ATOM     67  C   UNL A   1      46.889  30.540  30.278  1.00  0.00     0.031 C 
ATOM     68  C   UNL A   1      44.505  31.225  30.282  1.00  0.00     0.031 A 
BRANCH  55  69
ATOM     69  C   UNL A   1      38.806  29.212  29.024  1.00  0.00    -0.014 A 
ATOM     70  C   UNL A   1      38.257  29.612  27.795  1.00  0.00     0.009 A 
ATOM     71  C   UNL A   1      37.963  29.097  30.140  1.00  0.00     0.009 A 
ATOM     72  C   UNL A   1      36.902  29.931  27.697  1.00  0.00     0.001 A 
ATOM     73  C   UNL A   1      36.603  29.393  30.033  1.00  0.00     0.001 A 
ATOM     74  C   UNL A   1      36.075  29.820  28.815  1.00  0.00     0.000 A 
ENDBRANCH  55  69
BRANCH  56  75
ATOM     75  C   UNL A   1      48.451  26.758  29.250  1.00  0.00    -0.014 A 
ATOM     76  C   UNL A   1      49.086  26.202  30.370  1.00  0.00     0.009 A 
ATOM     77  C   UNL A   1      49.190  26.947  28.070  1.00  0.00     0.009 A 
ATOM     78  C   UNL A   1      50.436  25.850  30.312  1.00  0.00     0.001 A 
ATOM     79  C   UNL A   1      50.533  26.571  28.009  1.00  0.00     0.001 A 
ATOM     80  C   UNL A   1      51.156  26.027  29.131  1.00  0.00     0.000 A 
ENDBRANCH  56  75
BRANCH  68  81
ATOM     81  C   UNL A   1      44.947  32.599  30.695  1.00  0.00    -0.014 A 
ATOM     82  C   UNL A   1      45.125  32.921  32.049  1.00  0.00     0.009 A 
ATOM     83  C   UNL A   1      45.229  33.568  29.719  1.00  0.00     0.009 A 
ATOM     84  C   UNL A   1      45.560  34.196  32.419  1.00  0.00     0.001 A 
ATOM     85  C   UNL A   1      45.684  34.833  30.092  1.00  0.00     0.001 A 
ATOM     86  C   UNL A   1      45.843  35.148  31.440  1.00  0.00     0.000 A 
ENDBRANCH  68  81
ENDBRANCH  42  43
ENDBRANCH  34  37
ENDBRANCH  32  33
ENDBRANCH  31  32
ENDBRANCH  30  31
ENDBRANCH   3  30
TORSDOF 16
ENDMDL
MODEL 2
REMARK VINA RESULT:     -11.2      2.662      7.232
REMARK SMILES CCOc1cnc(C(=O)c2[nH]c3cc(Cl)ccc3c2CC(=O)NCCCNC(=O)c2ccc(-c3c4nc(c(-c5ccccc5)c5ccc([nH]5)c(-c5ccccc5)c5nc(c(-c6ccccc6)c6ccc3[nH]6)C=C5)C=C4)cc2)cc1CC
REMARK SMILES IDX 21 1 22 2 23 3 20 5 19 6 10 7 11 8 12 9 18 11 13 12 17 13
REMARK SMILES IDX 14 14 16 15 15 16 8 17 9 18 7 19 4 20 5 21 79 22 6 23 78 24
REMARK SMILES IDX 3 25 2 26 1 27 80 28 81 29 24 30 25 31 26 32 27 33 28 34
REMARK SMILES IDX 29 36 30 37 31 38 77 39 32 40 76 41 33 42 34 43 35 44 70 45
REMARK SMILES IDX 36 46 75 47 69 48 71 49 37 50 74 51 68 52 67 53 38 55 60 56
REMARK SMILES IDX 45 57 59 58 46 59 49 60 58 61 72 62 47 63 48 64 57 66 73 67
REMARK SMILES IDX 50 68 39 69 40 70 44 71 41 72 43 73 42 74 61 75 62 76 66 77
REMARK SMILES IDX 63 78 65 79 64 80 51 81 52 82 56 83 53 84 55 85 54 86
REMARK H PARENT 23 4 11 10 27 35 71 54 49 65
REMARK Flexibility Score: inf
ROOT
ATOM      1  C   UNL A   1      30.980  24.650  26.417  1.00  0.00     0.224 C 
ATOM      2  O   UNL A   1      30.753  23.745  27.224  1.00  0.00    -0.275 OA
ATOM      3  N   UNL A   1      31.188  25.905  26.915  1.00  0.00    -0.356 N 
ATOM      4  H   UNL A   1      30.996  26.012  27.875  1.00  0.00     0.163 HD
ENDROOT
BRANCH   1   5
ATOM      5  C   UNL A   1      31.146  24.356  24.933  1.00  0.00     0.138 C 
BRANCH   5   6
ATOM      6  C   UNL A   1      32.557  24.464  24.431  1.00  0.00    -0.002 A 
ATOM      7  C   UNL A   1      32.996  25.140  23.296  1.00  0.00     0.093 A 
ATOM      8  N   UNL A   1      34.373  25.104  23.311  1.00  0.00    -0.351 N 
ATOM      9  C   UNL A   1      34.818  24.208  24.251  1.00  0.00     0.048 A 
ATOM     10  H   UNL A   1      34.954  25.645  22.729  1.00  0.00     0.167 HD
ATOM     11  C   UNL A   1      33.702  23.786  24.972  1.00  0.00     0.004 A 
ATOM     12  C   UNL A   1      36.115  23.749  24.516  1.00  0.00     0.047 A 
ATOM     13  C   UNL A   1      33.891  22.851  26.012  1.00  0.00     0.012 A 
ATOM     14  C   UNL A   1      36.267  22.818  25.546  1.00  0.00     0.043 A 
ATOM     15  C   UNL A   1      35.178  22.372  26.287  1.00  0.00     0.021 A 
ATOM     16  Cl  UNL A   1      37.839  22.208  25.899  1.00  0.00    -0.084 Cl
BRANCH   7  17
ATOM     17  C   UNL A   1      32.221  25.810  22.263  1.00  0.00     0.227 C 
ATOM     18  O   UNL A   1      32.184  25.384  21.117  1.00  0.00    -0.285 OA
BRANCH  17  19
ATOM     19  C   UNL A   1      31.433  27.043  22.667  1.00  0.00     0.113 A 
ATOM     20  C   UNL A   1      30.032  29.341  23.243  1.00  0.00     0.140 A 
ATOM     21  C   UNL A   1      31.393  29.337  22.957  1.00  0.00     0.158 A 
ATOM     22  C   UNL A   1      29.333  28.136  23.195  1.00  0.00    -0.002 A 
ATOM     23  N   UNL A   1      32.102  28.222  22.655  1.00  0.00    -0.249 NA
ATOM     24  C   UNL A   1      30.073  26.967  22.976  1.00  0.00     0.040 A 
BRANCH  20  25
ATOM     25  O   UNL A   1      29.378  30.518  23.465  1.00  0.00    -0.492 OA
BRANCH  25  26
ATOM     26  C   UNL A   1      29.132  31.237  22.247  1.00  0.00     0.226 C 
ATOM     27  C   UNL A   1      28.695  32.656  22.572  1.00  0.00     0.049 C 
ENDBRANCH  25  26
ENDBRANCH  20  25
BRANCH  22  28
ATOM     28  C   UNL A   1      27.834  28.054  23.358  1.00  0.00     0.036 C 
ATOM     29  C   UNL A   1      27.369  26.715  23.922  1.00  0.00     0.009 C 
ENDBRANCH  22  28
ENDBRANCH  17  19
ENDBRANCH   7  17
ENDBRANCH   5   6
ENDBRANCH   1   5
BRANCH   3  30
ATOM     30  C   UNL A   1      31.649  27.103  26.242  1.00  0.00     0.117 C 
BRANCH  30  31
ATOM     31  C   UNL A   1      31.886  28.272  27.195  1.00  0.00     0.042 C 
BRANCH  31  32
ATOM     32  C   UNL A   1      33.339  28.731  27.282  1.00  0.00     0.118 C 
BRANCH  32  33
ATOM     33  N   UNL A   1      33.468  30.138  27.640  1.00  0.00    -0.352 N 
ATOM     34  C   UNL A   1      34.490  30.821  28.250  1.00  0.00     0.251 C 
ATOM     35  H   UNL A   1      32.689  30.692  27.406  1.00  0.00     0.163 HD
ATOM     36  O   UNL A   1      34.308  31.976  28.623  1.00  0.00    -0.269 OA
BRANCH  34  37
ATOM     37  C   UNL A   1      35.803  30.180  28.486  1.00  0.00     0.039 A 
ATOM     38  C   UNL A   1      36.714  30.107  27.426  1.00  0.00     0.014 A 
ATOM     39  C   UNL A   1      36.129  29.619  29.723  1.00  0.00     0.014 A 
ATOM     40  C   UNL A   1      37.981  29.554  27.631  1.00  0.00     0.010 A 
ATOM     41  C   UNL A   1      37.412  29.122  29.943  1.00  0.00     0.010 A 
ATOM     42  C   UNL A   1      38.355  29.100  28.904  1.00  0.00    -0.014 A 
BRANCH  42  43
ATOM     43  C   UNL A   1      39.743  28.660  29.193  1.00  0.00     0.031 A 
ATOM     44  C   UNL A   1      40.753  29.619  29.753  1.00  0.00     0.074 A 
ATOM     45  C   UNL A   1      40.122  27.416  28.843  1.00  0.00     0.049 A 
ATOM     46  N   UNL A   1      42.036  29.445  29.947  1.00  0.00    -0.248 NA
ATOM     47  C   UNL A   1      40.261  30.955  30.121  1.00  0.00     0.031 C 
ATOM     48  C   UNL A   1      39.248  26.399  28.252  1.00  0.00     0.029 A 
ATOM     49  N   UNL A   1      41.349  26.804  28.906  1.00  0.00    -0.354 N 
ATOM     50  C   UNL A   1      42.510  30.653  30.440  1.00  0.00     0.074 A 
ATOM     51  C   UNL A   1      41.383  31.561  30.486  1.00  0.00     0.031 C 
ATOM     52  C   UNL A   1      39.967  25.294  28.004  1.00  0.00     0.029 A 
ATOM     53  C   UNL A   1      41.356  25.537  28.377  1.00  0.00     0.049 A 
ATOM     54  H   UNL A   1      42.146  27.232  29.293  1.00  0.00     0.167 HD
ATOM     55  C   UNL A   1      43.768  30.975  30.825  1.00  0.00     0.031 A 
ATOM     56  C   UNL A   1      42.371  24.673  28.183  1.00  0.00     0.031 A 
ATOM     57  C   UNL A   1      44.889  30.074  30.782  1.00  0.00     0.049 A 
ATOM     58  C   UNL A   1      43.761  25.061  28.589  1.00  0.00     0.074 A 
ATOM     59  C   UNL A   1      46.181  30.281  31.232  1.00  0.00     0.029 A 
ATOM     60  N   UNL A   1      44.853  28.796  30.243  1.00  0.00    -0.354 N 
ATOM     61  N   UNL A   1      44.178  26.180  29.128  1.00  0.00    -0.248 NA
ATOM     62  C   UNL A   1      44.820  24.068  28.360  1.00  0.00     0.031 C 
ATOM     63  C   UNL A   1      46.942  29.150  30.916  1.00  0.00     0.029 A 
ATOM     64  C   UNL A   1      46.111  28.221  30.310  1.00  0.00     0.049 A 
ATOM     65  H   UNL A   1      44.052  28.363  29.869  1.00  0.00     0.167 HD
ATOM     66  C   UNL A   1      45.547  26.025  29.308  1.00  0.00     0.074 A 
ATOM     67  C   UNL A   1      45.884  24.697  28.839  1.00  0.00     0.031 C 
ATOM     68  C   UNL A   1      46.440  26.908  29.817  1.00  0.00     0.031 A 
BRANCH  55  69
ATOM     69  C   UNL A   1      44.000  32.379  31.309  1.00  0.00    -0.014 A 
ATOM     70  C   UNL A   1      44.163  33.443  30.409  1.00  0.00     0.009 A 
ATOM     71  C   UNL A   1      44.035  32.643  32.688  1.00  0.00     0.009 A 
ATOM     72  C   UNL A   1      44.399  34.737  30.879  1.00  0.00     0.001 A 
ATOM     73  C   UNL A   1      44.245  33.941  33.155  1.00  0.00     0.001 A 
ATOM     74  C   UNL A   1      44.438  34.985  32.251  1.00  0.00     0.000 A 
ENDBRANCH  55  69
BRANCH  56  75
ATOM     75  C   UNL A   1      42.097  23.360  27.548  1.00  0.00    -0.014 A 
ATOM     76  C   UNL A   1      42.369  23.155  26.189  1.00  0.00     0.009 A 
ATOM     77  C   UNL A   1      41.595  22.293  28.312  1.00  0.00     0.009 A 
ATOM     78  C   UNL A   1      42.137  21.909  25.604  1.00  0.00     0.001 A 
ATOM     79  C   UNL A   1      41.387  21.042  27.729  1.00  0.00     0.001 A 
ATOM     80  C   UNL A   1      41.654  20.852  26.374  1.00  0.00     0.000 A 
ENDBRANCH  56  75
BRANCH  68  81
ATOM     81  C   UNL A   1      47.873  26.468  29.885  1.00  0.00    -0.014 A 
ATOM     82  C   UNL A   1      48.379  25.840  31.034  1.00  0.00     0.009 A 
ATOM     83  C   UNL A   1      48.715  26.644  28.776  1.00  0.00     0.009 A 
ATOM     84  C   UNL A   1      49.708  25.413  31.077  1.00  0.00     0.001 A 
ATOM     85  C   UNL A   1      50.036  26.196  28.815  1.00  0.00     0.001 A 
ATOM     86  C   UNL A   1      50.533  25.588  29.966  1.00  0.00     0.000 A 
ENDBRANCH  68  81
ENDBRANCH  42  43
ENDBRANCH  34  37
ENDBRANCH  32  33
ENDBRANCH  31  32
ENDBRANCH  30  31
ENDBRANCH   3  30
TORSDOF 16
ENDMDL
MODEL 3
REMARK VINA RESULT:     -11.1      2.002      6.834
REMARK SMILES CCOc1cnc(C(=O)c2[nH]c3cc(Cl)ccc3c2CC(=O)NCCCNC(=O)c2ccc(-c3c4nc(c(-c5ccccc5)c5ccc([nH]5)c(-c5ccccc5)c5nc(c(-c6ccccc6)c6ccc3[nH]6)C=C5)C=C4)cc2)cc1CC
REMARK SMILES IDX 21 1 22 2 23 3 20 5 19 6 10 7 11 8 12 9 18 11 13 12 17 13
REMARK SMILES IDX 14 14 16 15 15 16 8 17 9 18 7 19 4 20 5 21 79 22 6 23 78 24
REMARK SMILES IDX 3 25 2 26 1 27 80 28 81 29 24 30 25 31 26 32 27 33 28 34
REMARK SMILES IDX 29 36 30 37 31 38 77 39 32 40 76 41 33 42 34 43 35 44 70 45
REMARK SMILES IDX 36 46 75 47 69 48 71 49 37 50 74 51 68 52 67 53 38 55 60 56
REMARK SMILES IDX 45 57 59 58 46 59 49 60 58 61 72 62 47 63 48 64 57 66 73 67
REMARK SMILES IDX 50 68 39 69 40 70 44 71 41 72 43 73 42 74 61 75 62 76 66 77
REMARK SMILES IDX 63 78 65 79 64 80 51 81 52 82 56 83 53 84 55 85 54 86
REMARK H PARENT 23 4 11 10 27 35 71 54 49 65
REMARK Flexibility Score: inf
ROOT
ATOM      1  C   UNL A   1      34.330  25.182  25.173  1.00  0.00     0.224 C 
ATOM      2  O   UNL A   1      34.950  24.933  24.136  1.00  0.00    -0.275 OA
ATOM      3  N   UNL A   1      33.850  26.450  25.335  1.00  0.00    -0.356 N 
ATOM      4  H   UNL A   1      34.164  27.105  24.671  1.00  0.00     0.163 HD
ENDROOT
BRANCH   1   5
ATOM      5  C   UNL A   1      34.005  24.084  26.176  1.00  0.00     0.138 C 
BRANCH   5   6
ATOM      6  C   UNL A   1      33.223  22.934  25.610  1.00  0.00    -0.002 A 
ATOM      7  C   UNL A   1      31.849  22.877  25.396  1.00  0.00     0.093 A 
ATOM      8  N   UNL A   1      31.593  21.703  24.722  1.00  0.00    -0.351 N 
ATOM      9  C   UNL A   1      32.699  20.890  24.741  1.00  0.00     0.048 A 
ATOM     10  H   UNL A   1      30.738  21.479  24.289  1.00  0.00     0.167 HD
ATOM     11  C   UNL A   1      33.741  21.633  25.293  1.00  0.00     0.004 A 
ATOM     12  C   UNL A   1      32.853  19.566  24.309  1.00  0.00     0.047 A 
ATOM     13  C   UNL A   1      35.005  21.018  25.425  1.00  0.00     0.012 A 
ATOM     14  C   UNL A   1      34.113  18.984  24.461  1.00  0.00     0.043 A 
ATOM     15  C   UNL A   1      35.177  19.693  25.009  1.00  0.00     0.021 A 
ATOM     16  Cl  UNL A   1      34.349  17.353  23.963  1.00  0.00    -0.084 Cl
BRANCH   7  17
ATOM     17  C   UNL A   1      30.817  23.839  25.752  1.00  0.00     0.227 C 
ATOM     18  O   UNL A   1      30.217  23.766  26.816  1.00  0.00    -0.285 OA
BRANCH  17  19
ATOM     19  C   UNL A   1      30.534  24.959  24.767  1.00  0.00     0.113 A 
ATOM     20  C   UNL A   1      30.089  27.099  23.094  1.00  0.00     0.140 A 
ATOM     21  C   UNL A   1      29.459  26.958  24.326  1.00  0.00     0.158 A 
ATOM     22  C   UNL A   1      31.020  26.138  22.703  1.00  0.00    -0.002 A 
ATOM     23  N   UNL A   1      29.673  25.924  25.175  1.00  0.00    -0.249 NA
ATOM     24  C   UNL A   1      31.178  25.017  23.528  1.00  0.00     0.040 A 
BRANCH  20  25
ATOM     25  O   UNL A   1      29.872  28.210  22.333  1.00  0.00    -0.492 OA
BRANCH  25  26
ATOM     26  C   UNL A   1      28.694  28.922  22.740  1.00  0.00     0.226 C 
ATOM     27  C   UNL A   1      29.055  30.362  23.068  1.00  0.00     0.049 C 
ENDBRANCH  25  26
ENDBRANCH  20  25
BRANCH  22  28
ATOM     28  C   UNL A   1      31.850  26.269  21.449  1.00  0.00     0.036 C 
ATOM     29  C   UNL A   1      32.815  25.104  21.250  1.00  0.00     0.009 C 
ENDBRANCH  22  28
ENDBRANCH  17  19
ENDBRANCH   7  17
ENDBRANCH   5   6
ENDBRANCH   1   5
BRANCH   3  30
ATOM     30  C   UNL A   1      32.946  26.976  26.339  1.00  0.00     0.117 C 
BRANCH  30  31
ATOM     31  C   UNL A   1      33.550  28.122  27.147  1.00  0.00     0.042 C 
BRANCH  31  32
ATOM     32  C   UNL A   1      33.867  29.372  26.330  1.00  0.00     0.118 C 
BRANCH  32  33
ATOM     33  N   UNL A   1      33.842  30.591  27.128  1.00  0.00    -0.352 N 
ATOM     34  C   UNL A   1      34.694  31.045  28.103  1.00  0.00     0.251 C 
ATOM     35  H   UNL A   1      33.085  31.190  26.936  1.00  0.00     0.163 HD
ATOM     36  O   UNL A   1      34.377  32.021  28.778  1.00  0.00    -0.269 OA
BRANCH  34  37
ATOM     37  C   UNL A   1      35.980  30.365  28.371  1.00  0.00     0.039 A 
ATOM     38  C   UNL A   1      36.953  30.349  27.366  1.00  0.00     0.014 A 
ATOM     39  C   UNL A   1      36.221  29.711  29.582  1.00  0.00     0.014 A 
ATOM     40  C   UNL A   1      38.197  29.760  27.606  1.00  0.00     0.010 A 
ATOM     41  C   UNL A   1      37.481  29.175  29.844  1.00  0.00     0.010 A 
ATOM     42  C   UNL A   1      38.485  29.209  28.864  1.00  0.00    -0.014 A 
BRANCH  42  43
ATOM     43  C   UNL A   1      39.846  28.723  29.204  1.00  0.00     0.031 A 
ATOM     44  C   UNL A   1      40.860  29.643  29.821  1.00  0.00     0.074 A 
ATOM     45  C   UNL A   1      40.203  27.474  28.849  1.00  0.00     0.049 A 
ATOM     46  N   UNL A   1      42.127  29.428  30.066  1.00  0.00    -0.248 NA
ATOM     47  C   UNL A   1      40.392  30.988  30.191  1.00  0.00     0.031 C 
ATOM     48  C   UNL A   1      39.325  26.493  28.206  1.00  0.00     0.029 A 
ATOM     49  N   UNL A   1      41.408  26.825  28.954  1.00  0.00    -0.354 N 
ATOM     50  C   UNL A   1      42.615  30.613  30.598  1.00  0.00     0.074 A 
ATOM     51  C   UNL A   1      41.514  31.554  30.611  1.00  0.00     0.031 C 
ATOM     52  C   UNL A   1      40.022  25.371  27.970  1.00  0.00     0.029 A 
ATOM     53  C   UNL A   1      41.401  25.566  28.405  1.00  0.00     0.049 A 
ATOM     54  H   UNL A   1      42.201  27.223  29.381  1.00  0.00     0.167 HD
ATOM     55  C   UNL A   1      43.865  30.892  31.041  1.00  0.00     0.031 A 
ATOM     56  C   UNL A   1      42.397  24.675  28.239  1.00  0.00     0.031 A 
ATOM     57  C   UNL A   1      44.959  29.958  31.030  1.00  0.00     0.049 A 
ATOM     58  C   UNL A   1      43.780  25.015  28.710  1.00  0.00     0.074 A 
ATOM     59  C   UNL A   1      46.237  30.120  31.537  1.00  0.00     0.029 A 
ATOM     60  N   UNL A   1      44.909  28.691  30.470  1.00  0.00    -0.354 N 
ATOM     61  N   UNL A   1      44.206  26.113  29.284  1.00  0.00    -0.248 NA
ATOM     62  C   UNL A   1      44.818  23.995  28.510  1.00  0.00     0.031 C 
ATOM     63  C   UNL A   1      46.977  28.971  31.235  1.00  0.00     0.029 A 
ATOM     64  C   UNL A   1      46.146  28.077  30.580  1.00  0.00     0.049 A 
ATOM     65  H   UNL A   1      44.112  28.288  30.055  1.00  0.00     0.167 HD
ATOM     66  C   UNL A   1      45.560  25.915  29.519  1.00  0.00     0.074 A 
ATOM     67  C   UNL A   1      45.879  24.584  29.043  1.00  0.00     0.031 C 
ATOM     68  C   UNL A   1      46.456  26.762  30.079  1.00  0.00     0.031 A 
BRANCH  55  69
ATOM     69  C   UNL A   1      44.117  32.281  31.558  1.00  0.00    -0.014 A 
ATOM     70  C   UNL A   1      43.944  32.597  32.914  1.00  0.00     0.009 A 
ATOM     71  C   UNL A   1      44.555  33.282  30.677  1.00  0.00     0.009 A 
ATOM     72  C   UNL A   1      44.163  33.898  33.371  1.00  0.00     0.001 A 
ATOM     73  C   UNL A   1      44.798  34.576  31.140  1.00  0.00     0.001 A 
ATOM     74  C   UNL A   1      44.591  34.886  32.484  1.00  0.00     0.000 A 
ENDBRANCH  55  69
BRANCH  56  75
ATOM     75  C   UNL A   1      42.112  23.381  27.572  1.00  0.00    -0.014 A 
ATOM     76  C   UNL A   1      42.430  23.191  26.221  1.00  0.00     0.009 A 
ATOM     77  C   UNL A   1      41.553  22.316  28.299  1.00  0.00     0.009 A 
ATOM     78  C   UNL A   1      42.187  21.961  25.606  1.00  0.00     0.001 A 
ATOM     79  C   UNL A   1      41.333  21.081  27.687  1.00  0.00     0.001 A 
ATOM     80  C   UNL A   1      41.646  20.905  26.340  1.00  0.00     0.000 A 
ENDBRANCH  56  75
BRANCH  68  81
ATOM     81  C   UNL A   1      47.872  26.279  30.200  1.00  0.00    -0.014 A 
ATOM     82  C   UNL A   1      48.769  26.402  29.128  1.00  0.00     0.009 A 
ATOM     83  C   UNL A   1      48.327  25.734  31.412  1.00  0.00     0.009 A 
ATOM     84  C   UNL A   1      50.091  25.970  29.261  1.00  0.00     0.001 A 
ATOM     85  C   UNL A   1      49.653  25.325  31.548  1.00  0.00     0.001 A 
ATOM     86  C   UNL A   1      50.532  25.437  30.471  1.00  0.00     0.000 A 
ENDBRANCH  68  81
ENDBRANCH  42  43
ENDBRANCH  34  37
ENDBRANCH  32  33
ENDBRANCH  31  32
ENDBRANCH  30  31
ENDBRANCH   3  30
TORSDOF 16
ENDMDL
