MODEL 1
REMARK VINA RESULT:     -12.4      0.000      0.000
REMARK SMILES Cc1ccc([N+](=O)[O-])c(NCc2ccc(C(=O)NCCCNC(=O)c3ccc(-c4c5nc(c(-c6ccccc6)c6ccc([nH]6)c(-c6ccccc6)c6nc(c(-c7ccccc7)c7ccc4[nH]7)C=C6)C=C5)cc3)cc2)c1
REMARK SMILES IDX 19 1 18 2 16 3 17 4 15 6 12 7 13 8 74 9 14 10 73 11 11 12
REMARK SMILES IDX 10 13 9 15 1 16 2 17 3 18 75 19 4 20 5 21 6 22 7 23 8 24
REMARK SMILES IDX 20 25 21 26 22 27 23 28 24 30 25 31 26 32 72 33 27 34 71 35
REMARK SMILES IDX 28 36 29 37 30 38 65 39 31 40 70 41 64 42 66 43 32 44 69 45
REMARK SMILES IDX 63 46 62 47 33 49 55 50 40 51 54 52 41 53 44 54 53 55 67 56
REMARK SMILES IDX 42 57 43 58 52 60 68 61 45 62 34 63 35 64 39 65 36 66 38 67
REMARK SMILES IDX 37 68 56 69 57 70 61 71 58 72 60 73 59 74 46 75 47 76 51 77
REMARK SMILES IDX 48 78 50 79 49 80
REMARK H PARENT 18 5 10 14 22 29 66 48 44 59
REMARK Flexibility Score: inf
ROOT
ATOM      1  C   UNL A   1      32.657  29.709  25.444  1.00  0.00     0.118 C 
ENDROOT
BRANCH   1   2
ATOM      2  N   UNL A   1      31.492  29.963  24.611  1.00  0.00    -0.352 N 
ATOM      3  C   UNL A   1      30.635  29.123  23.936  1.00  0.00     0.251 C 
ATOM      4  O   UNL A   1      29.640  29.638  23.424  1.00  0.00    -0.269 OA
ATOM      5  H   UNL A   1      31.275  30.918  24.511  1.00  0.00     0.163 HD
BRANCH   3   6
ATOM      6  C   UNL A   1      30.833  27.646  23.791  1.00  0.00     0.039 A 
ATOM      7  C   UNL A   1      30.989  24.815  23.478  1.00  0.00    -0.029 A 
ATOM      8  C   UNL A   1      29.962  25.403  24.232  1.00  0.00     0.006 A 
ATOM      9  C   UNL A   1      31.904  25.665  22.853  1.00  0.00     0.006 A 
ATOM     10  C   UNL A   1      29.884  26.798  24.380  1.00  0.00     0.014 A 
ATOM     11  C   UNL A   1      31.833  27.051  23.025  1.00  0.00     0.014 A 
BRANCH   7  12
ATOM     12  C   UNL A   1      31.017  23.309  23.273  1.00  0.00     0.149 C 
BRANCH  12  13
ATOM     13  N   UNL A   1      31.700  22.626  24.363  1.00  0.00    -0.375 N 
ATOM     14  H   UNL A   1      31.194  21.900  24.793  1.00  0.00     0.161 HD
BRANCH  13  15
ATOM     15  C   UNL A   1      32.963  22.859  24.875  1.00  0.00     0.114 A 
ATOM     16  C   UNL A   1      36.450  22.949  23.244  1.00  0.00     0.044 C 
ATOM     17  C   UNL A   1      35.369  23.013  24.283  1.00  0.00    -0.049 A 
ATOM     18  C   UNL A   1      35.692  23.311  25.606  1.00  0.00     0.010 A 
ATOM     19  C   UNL A   1      34.021  22.795  23.940  1.00  0.00     0.036 A 
ATOM     20  C   UNL A   1      34.689  23.352  26.568  1.00  0.00     0.088 A 
ATOM     21  C   UNL A   1      33.351  23.106  26.201  1.00  0.00     0.292 A 
BRANCH  21  22
ATOM     22  N   UNL A   1      32.393  23.222  27.278  1.00  0.00     0.064 N 
ATOM     23  O   UNL A   1      31.511  24.085  27.157  1.00  0.00    -0.258 OA
ATOM     24  O   UNL A   1      32.556  22.500  28.271  1.00  0.00    -0.258 OA
ENDBRANCH  21  22
ENDBRANCH  13  15
ENDBRANCH  12  13
ENDBRANCH   7  12
ENDBRANCH   3   6
ENDBRANCH   1   2
BRANCH   1  25
ATOM     25  C   UNL A   1      32.729  30.659  26.640  1.00  0.00     0.042 C 
BRANCH  25  26
ATOM     26  C   UNL A   1      33.685  30.230  27.736  1.00  0.00     0.118 C 
BRANCH  26  27
ATOM     27  N   UNL A   1      34.376  31.340  28.386  1.00  0.00    -0.352 N 
ATOM     28  C   UNL A   1      35.671  31.370  28.880  1.00  0.00     0.251 C 
ATOM     29  H   UNL A   1      33.858  32.171  28.486  1.00  0.00     0.163 HD
ATOM     30  O   UNL A   1      36.129  32.379  29.388  1.00  0.00    -0.269 OA
BRANCH  28  31
ATOM     31  C   UNL A   1      36.527  30.185  28.647  1.00  0.00     0.039 A 
ATOM     32  C   UNL A   1      36.750  29.339  29.736  1.00  0.00     0.014 A 
ATOM     33  C   UNL A   1      37.324  30.114  27.508  1.00  0.00     0.014 A 
ATOM     34  C   UNL A   1      37.938  28.621  29.792  1.00  0.00     0.010 A 
ATOM     35  C   UNL A   1      38.549  29.489  27.610  1.00  0.00     0.010 A 
ATOM     36  C   UNL A   1      38.884  28.809  28.786  1.00  0.00    -0.014 A 
BRANCH  36  37
ATOM     37  C   UNL A   1      40.285  28.436  28.947  1.00  0.00     0.031 A 
ATOM     38  C   UNL A   1      40.773  27.149  28.426  1.00  0.00     0.074 A 
ATOM     39  C   UNL A   1      41.144  29.285  29.551  1.00  0.00     0.049 A 
ATOM     40  N   UNL A   1      41.835  26.553  28.852  1.00  0.00    -0.248 NA
ATOM     41  C   UNL A   1      40.045  26.390  27.419  1.00  0.00     0.031 C 
ATOM     42  C   UNL A   1      42.602  29.209  29.586  1.00  0.00     0.029 A 
ATOM     43  N   UNL A   1      40.826  30.275  30.484  1.00  0.00    -0.354 N 
ATOM     44  C   UNL A   1      42.088  25.509  27.998  1.00  0.00     0.074 A 
ATOM     45  C   UNL A   1      40.900  25.392  27.183  1.00  0.00     0.031 C 
ATOM     46  C   UNL A   1      43.044  29.890  30.656  1.00  0.00     0.029 A 
ATOM     47  C   UNL A   1      41.877  30.288  31.424  1.00  0.00     0.049 A 
ATOM     48  H   UNL A   1      40.027  30.850  30.485  1.00  0.00     0.167 HD
ATOM     49  C   UNL A   1      43.327  24.942  27.987  1.00  0.00     0.031 A 
ATOM     50  C   UNL A   1      41.647  29.960  32.729  1.00  0.00     0.031 A 
ATOM     51  C   UNL A   1      44.186  25.461  29.052  1.00  0.00     0.049 A 
ATOM     52  C   UNL A   1      42.423  28.754  33.228  1.00  0.00     0.074 A 
ATOM     53  C   UNL A   1      45.263  26.333  29.101  1.00  0.00     0.029 A 
ATOM     54  N   UNL A   1      43.789  25.278  30.368  1.00  0.00    -0.354 N 
ATOM     55  N   UNL A   1      43.183  27.996  32.486  1.00  0.00    -0.248 NA
ATOM     56  C   UNL A   1      42.299  28.243  34.596  1.00  0.00     0.031 C 
ATOM     57  C   UNL A   1      45.511  26.661  30.467  1.00  0.00     0.029 A 
ATOM     58  C   UNL A   1      44.594  25.980  31.243  1.00  0.00     0.049 A 
ATOM     59  H   UNL A   1      43.028  24.717  30.643  1.00  0.00     0.167 HD
ATOM     60  C   UNL A   1      43.586  26.905  33.212  1.00  0.00     0.074 A 
ATOM     61  C   UNL A   1      43.009  27.104  34.528  1.00  0.00     0.031 C 
ATOM     62  C   UNL A   1      44.314  25.887  32.666  1.00  0.00     0.031 A 
BRANCH  49  63
ATOM     63  C   UNL A   1      43.831  24.085  26.849  1.00  0.00    -0.014 A 
ATOM     64  C   UNL A   1      43.235  24.193  25.580  1.00  0.00     0.009 A 
ATOM     65  C   UNL A   1      44.840  23.113  26.968  1.00  0.00     0.009 A 
ATOM     66  C   UNL A   1      43.550  23.317  24.532  1.00  0.00     0.001 A 
ATOM     67  C   UNL A   1      45.131  22.205  25.940  1.00  0.00     0.001 A 
ATOM     68  C   UNL A   1      44.476  22.300  24.724  1.00  0.00     0.000 A 
ENDBRANCH  49  63
BRANCH  50  69
ATOM     69  C   UNL A   1      40.282  30.328  33.205  1.00  0.00    -0.014 A 
ATOM     70  C   UNL A   1      39.974  31.691  33.390  1.00  0.00     0.009 A 
ATOM     71  C   UNL A   1      39.228  29.406  33.154  1.00  0.00     0.009 A 
ATOM     72  C   UNL A   1      38.649  32.131  33.403  1.00  0.00     0.001 A 
ATOM     73  C   UNL A   1      37.900  29.849  33.188  1.00  0.00     0.001 A 
ATOM     74  C   UNL A   1      37.612  31.210  33.276  1.00  0.00     0.000 A 
ENDBRANCH  50  69
BRANCH  62  75
ATOM     75  C   UNL A   1      44.776  24.669  33.424  1.00  0.00    -0.014 A 
ATOM     76  C   UNL A   1      46.098  24.486  33.853  1.00  0.00     0.009 A 
ATOM     77  C   UNL A   1      43.885  23.594  33.634  1.00  0.00     0.009 A 
ATOM     78  C   UNL A   1      46.487  23.322  34.530  1.00  0.00     0.001 A 
ATOM     79  C   UNL A   1      44.276  22.422  34.286  1.00  0.00     0.001 A 
ATOM     80  C   UNL A   1      45.575  22.293  34.750  1.00  0.00     0.000 A 
ENDBRANCH  62  75
ENDBRANCH  36  37
ENDBRANCH  28  31
ENDBRANCH  26  27
ENDBRANCH  25  26
ENDBRANCH   1  25
TORSDOF 14
ENDMDL
MODEL 2
REMARK VINA RESULT:     -12.0      3.309      8.759
REMARK SMILES Cc1ccc([N+](=O)[O-])c(NCc2ccc(C(=O)NCCCNC(=O)c3ccc(-c4c5nc(c(-c6ccccc6)c6ccc([nH]6)c(-c6ccccc6)c6nc(c(-c7ccccc7)c7ccc4[nH]7)C=C6)C=C5)cc3)cc2)c1
REMARK SMILES IDX 19 1 18 2 16 3 17 4 15 6 12 7 13 8 74 9 14 10 73 11 11 12
REMARK SMILES IDX 10 13 9 15 1 16 2 17 3 18 75 19 4 20 5 21 6 22 7 23 8 24
REMARK SMILES IDX 20 25 21 26 22 27 23 28 24 30 25 31 26 32 72 33 27 34 71 35
REMARK SMILES IDX 28 36 29 37 30 38 65 39 31 40 70 41 64 42 66 43 32 44 69 45
REMARK SMILES IDX 63 46 62 47 33 49 55 50 40 51 54 52 41 53 44 54 53 55 67 56
REMARK SMILES IDX 42 57 43 58 52 60 68 61 45 62 34 63 35 64 39 65 36 66 38 67
REMARK SMILES IDX 37 68 56 69 57 70 61 71 58 72 60 73 59 74 46 75 47 76 51 77
REMARK SMILES IDX 48 78 50 79 49 80
REMARK H PARENT 18 5 10 14 22 29 66 48 44 59
REMARK Flexibility Score: inf
ROOT
ATOM      1  C   UNL A   1      36.314  21.223  24.637  1.00  0.00     0.118 C 
ENDROOT
BRANCH   1   2
ATOM      2  N   UNL A   1      35.436  20.097  24.922  1.00  0.00    -0.352 N 
ATOM      3  C   UNL A   1      34.066  19.978  24.959  1.00  0.00     0.251 C 
ATOM      4  O   UNL A   1      33.610  18.841  25.093  1.00  0.00    -0.269 OA
ATOM      5  H   UNL A   1      35.915  19.262  25.126  1.00  0.00     0.163 HD
BRANCH   3   6
ATOM      6  C   UNL A   1      33.111  21.125  24.847  1.00  0.00     0.039 A 
ATOM      7  C   UNL A   1      31.422  23.424  24.781  1.00  0.00    -0.029 A 
ATOM      8  C   UNL A   1      31.937  22.940  25.993  1.00  0.00     0.006 A 
ATOM      9  C   UNL A   1      31.801  22.767  23.608  1.00  0.00     0.006 A 
ATOM     10  C   UNL A   1      32.773  21.811  26.024  1.00  0.00     0.014 A 
ATOM     11  C   UNL A   1      32.613  21.630  23.648  1.00  0.00     0.014 A 
BRANCH   7  12
ATOM     12  C   UNL A   1      30.576  24.687  24.762  1.00  0.00     0.149 C 
BRANCH  12  13
ATOM     13  N   UNL A   1      31.247  25.777  24.067  1.00  0.00    -0.375 N 
ATOM     14  H   UNL A   1      31.613  25.554  23.180  1.00  0.00     0.161 HD
BRANCH  13  15
ATOM     15  C   UNL A   1      31.440  27.081  24.482  1.00  0.00     0.114 A 
ATOM     16  C   UNL A   1      33.833  28.661  27.053  1.00  0.00     0.044 C 
ATOM     17  C   UNL A   1      32.762  28.524  26.010  1.00  0.00    -0.049 A 
ATOM     18  C   UNL A   1      32.097  29.657  25.543  1.00  0.00     0.010 A 
ATOM     19  C   UNL A   1      32.428  27.265  25.477  1.00  0.00     0.036 A 
ATOM     20  C   UNL A   1      31.094  29.522  24.589  1.00  0.00     0.088 A 
ATOM     21  C   UNL A   1      30.763  28.247  24.090  1.00  0.00     0.292 A 
BRANCH  21  22
ATOM     22  N   UNL A   1      29.738  28.238  23.070  1.00  0.00     0.064 N 
ATOM     23  O   UNL A   1      28.754  27.511  23.266  1.00  0.00    -0.258 OA
ATOM     24  O   UNL A   1      29.942  28.906  22.046  1.00  0.00    -0.258 OA
ENDBRANCH  21  22
ENDBRANCH  13  15
ENDBRANCH  12  13
ENDBRANCH   7  12
ENDBRANCH   3   6
ENDBRANCH   1   2
BRANCH   1  25
ATOM     25  C   UNL A   1      37.675  21.078  25.319  1.00  0.00     0.042 C 
BRANCH  25  26
ATOM     26  C   UNL A   1      38.309  22.386  25.753  1.00  0.00     0.118 C 
BRANCH  26  27
ATOM     27  N   UNL A   1      39.714  22.264  26.131  1.00  0.00    -0.352 N 
ATOM     28  C   UNL A   1      40.547  23.240  26.657  1.00  0.00     0.251 C 
ATOM     29  H   UNL A   1      40.122  21.379  25.995  1.00  0.00     0.163 HD
ATOM     30  O   UNL A   1      41.706  22.994  26.944  1.00  0.00    -0.269 OA
BRANCH  28  31
ATOM     31  C   UNL A   1      39.948  24.553  26.989  1.00  0.00     0.039 A 
ATOM     32  C   UNL A   1      40.424  25.664  26.289  1.00  0.00     0.014 A 
ATOM     33  C   UNL A   1      39.206  24.705  28.157  1.00  0.00     0.014 A 
ATOM     34  C   UNL A   1      40.395  26.907  26.909  1.00  0.00     0.010 A 
ATOM     35  C   UNL A   1      39.273  25.914  28.818  1.00  0.00     0.010 A 
ATOM     36  C   UNL A   1      39.939  26.992  28.223  1.00  0.00    -0.014 A 
BRANCH  36  37
ATOM     37  C   UNL A   1      40.235  28.130  29.084  1.00  0.00     0.031 A 
ATOM     38  C   UNL A   1      39.237  29.195  29.275  1.00  0.00     0.074 A 
ATOM     39  C   UNL A   1      41.418  28.197  29.732  1.00  0.00     0.049 A 
ATOM     40  N   UNL A   1      39.522  30.394  29.655  1.00  0.00    -0.248 NA
ATOM     41  C   UNL A   1      37.825  29.001  28.973  1.00  0.00     0.031 C 
ATOM     42  C   UNL A   1      41.799  29.105  30.810  1.00  0.00     0.029 A 
ATOM     43  N   UNL A   1      42.617  27.591  29.349  1.00  0.00    -0.354 N 
ATOM     44  C   UNL A   1      38.336  31.030  29.927  1.00  0.00     0.074 A 
ATOM     45  C   UNL A   1      37.312  30.158  29.399  1.00  0.00     0.031 C 
ATOM     46  C   UNL A   1      43.138  29.213  30.830  1.00  0.00     0.029 A 
ATOM     47  C   UNL A   1      43.644  28.503  29.668  1.00  0.00     0.049 A 
ATOM     48  H   UNL A   1      42.725  26.702  28.939  1.00  0.00     0.167 HD
ATOM     49  C   UNL A   1      38.345  32.162  30.686  1.00  0.00     0.031 A 
ATOM     50  C   UNL A   1      44.415  29.056  28.686  1.00  0.00     0.031 A 
ATOM     51  C   UNL A   1      39.702  32.629  30.972  1.00  0.00     0.049 A 
ATOM     52  C   UNL A   1      44.335  30.569  28.590  1.00  0.00     0.074 A 
ATOM     53  C   UNL A   1      40.524  32.616  32.088  1.00  0.00     0.029 A 
ATOM     54  N   UNL A   1      40.517  32.979  29.907  1.00  0.00    -0.354 N 
ATOM     55  N   UNL A   1      43.536  31.321  29.295  1.00  0.00    -0.248 NA
ATOM     56  C   UNL A   1      45.080  31.338  27.590  1.00  0.00     0.031 C 
ATOM     57  C   UNL A   1      41.842  32.975  31.677  1.00  0.00     0.029 A 
ATOM     58  C   UNL A   1      41.814  33.216  30.317  1.00  0.00     0.049 A 
ATOM     59  H   UNL A   1      40.209  33.052  28.975  1.00  0.00     0.167 HD
ATOM     60  C   UNL A   1      43.597  32.610  28.833  1.00  0.00     0.074 A 
ATOM     61  C   UNL A   1      44.579  32.573  27.766  1.00  0.00     0.031 C 
ATOM     62  C   UNL A   1      42.796  33.603  29.317  1.00  0.00     0.031 A 
BRANCH  49  63
ATOM     63  C   UNL A   1      37.111  32.707  31.367  1.00  0.00    -0.014 A 
ATOM     64  C   UNL A   1      36.813  32.312  32.683  1.00  0.00     0.009 A 
ATOM     65  C   UNL A   1      36.173  33.558  30.758  1.00  0.00     0.009 A 
ATOM     66  C   UNL A   1      35.606  32.657  33.309  1.00  0.00     0.001 A 
ATOM     67  C   UNL A   1      34.945  33.873  31.357  1.00  0.00     0.001 A 
ATOM     68  C   UNL A   1      34.656  33.411  32.631  1.00  0.00     0.000 A 
ENDBRANCH  49  63
BRANCH  50  69
ATOM     69  C   UNL A   1      44.622  28.155  27.515  1.00  0.00    -0.014 A 
ATOM     70  C   UNL A   1      45.377  26.978  27.690  1.00  0.00     0.009 A 
ATOM     71  C   UNL A   1      43.831  28.276  26.364  1.00  0.00     0.009 A 
ATOM     72  C   UNL A   1      45.252  25.906  26.803  1.00  0.00     0.001 A 
ATOM     73  C   UNL A   1      43.724  27.207  25.466  1.00  0.00     0.001 A 
ATOM     74  C   UNL A   1      44.403  26.014  25.704  1.00  0.00     0.000 A 
ENDBRANCH  50  69
BRANCH  62  75
ATOM     75  C   UNL A   1      42.827  35.032  28.839  1.00  0.00    -0.014 A 
ATOM     76  C   UNL A   1      43.277  36.098  29.629  1.00  0.00     0.009 A 
ATOM     77  C   UNL A   1      42.283  35.361  27.578  1.00  0.00     0.009 A 
ATOM     78  C   UNL A   1      43.260  37.416  29.150  1.00  0.00     0.001 A 
ATOM     79  C   UNL A   1      42.240  36.675  27.107  1.00  0.00     0.001 A 
ATOM     80  C   UNL A   1      42.746  37.703  27.888  1.00  0.00     0.000 A 
ENDBRANCH  62  75
ENDBRANCH  36  37
ENDBRANCH  28  31
ENDBRANCH  26  27
ENDBRANCH  25  26
ENDBRANCH   1  25
TORSDOF 14
ENDMDL
MODEL 3
REMARK VINA RESULT:     -12.0      2.493      3.847
REMARK SMILES Cc1ccc([N+](=O)[O-])c(NCc2ccc(C(=O)NCCCNC(=O)c3ccc(-c4c5nc(c(-c6ccccc6)c6ccc([nH]6)c(-c6ccccc6)c6nc(c(-c7ccccc7)c7ccc4[nH]7)C=C6)C=C5)cc3)cc2)c1
REMARK SMILES IDX 19 1 18 2 16 3 17 4 15 6 12 7 13 8 74 9 14 10 73 11 11 12
REMARK SMILES IDX 10 13 9 15 1 16 2 17 3 18 75 19 4 20 5 21 6 22 7 23 8 24
REMARK SMILES IDX 20 25 21 26 22 27 23 28 24 30 25 31 26 32 72 33 27 34 71 35
REMARK SMILES IDX 28 36 29 37 30 38 65 39 31 40 70 41 64 42 66 43 32 44 69 45
REMARK SMILES IDX 63 46 62 47 33 49 55 50 40 51 54 52 41 53 44 54 53 55 67 56
REMARK SMILES IDX 42 57 43 58 52 60 68 61 45 62 34 63 35 64 39 65 36 66 38 67
REMARK SMILES IDX 37 68 56 69 57 70 61 71 58 72 60 73 59 74 46 75 47 76 51 77
REMARK SMILES IDX 48 78 50 79 49 80
REMARK H PARENT 18 5 10 14 22 29 66 48 44 59
REMARK Flexibility Score: inf
ROOT
ATOM      1  C   UNL A   1      35.002  29.083  27.337  1.00  0.00     0.118 C 
ENDROOT
BRANCH   1   2
ATOM      2  N   UNL A   1      34.331  29.370  26.079  1.00  0.00    -0.352 N 
ATOM      3  C   UNL A   1      33.443  28.646  25.316  1.00  0.00     0.251 C 
ATOM      4  O   UNL A   1      32.932  29.226  24.356  1.00  0.00    -0.269 OA
ATOM      5  H   UNL A   1      34.554  30.252  25.702  1.00  0.00     0.163 HD
BRANCH   3   6
ATOM      6  C   UNL A   1      33.065  27.221  25.578  1.00  0.00     0.039 A 
ATOM      7  C   UNL A   1      32.554  24.476  26.162  1.00  0.00    -0.029 A 
ATOM      8  C   UNL A   1      33.771  24.879  25.593  1.00  0.00     0.006 A 
ATOM      9  C   UNL A   1      31.622  25.470  26.472  1.00  0.00     0.006 A 
ATOM     10  C   UNL A   1      34.024  26.231  25.310  1.00  0.00     0.014 A 
ATOM     11  C   UNL A   1      31.872  26.811  26.166  1.00  0.00     0.014 A 
BRANCH   7  12
ATOM     12  C   UNL A   1      32.327  23.017  26.524  1.00  0.00     0.149 C 
BRANCH  12  13
ATOM     13  N   UNL A   1      33.196  22.130  25.762  1.00  0.00    -0.375 N 
ATOM     14  H   UNL A   1      34.161  22.233  25.930  1.00  0.00     0.161 HD
BRANCH  13  15
ATOM     15  C   UNL A   1      32.850  21.163  24.837  1.00  0.00     0.114 A 
ATOM     16  C   UNL A   1      32.603  17.327  25.061  1.00  0.00     0.044 C 
ATOM     17  C   UNL A   1      32.561  18.720  24.504  1.00  0.00    -0.049 A 
ATOM     18  C   UNL A   1      32.175  18.928  23.182  1.00  0.00     0.010 A 
ATOM     19  C   UNL A   1      32.889  19.829  25.306  1.00  0.00     0.036 A 
ATOM     20  C   UNL A   1      32.153  20.220  22.666  1.00  0.00     0.088 A 
ATOM     21  C   UNL A   1      32.509  21.311  23.483  1.00  0.00     0.292 A 
BRANCH  21  22
ATOM     22  N   UNL A   1      32.405  22.607  22.850  1.00  0.00     0.064 N 
ATOM     23  O   UNL A   1      33.344  22.955  22.121  1.00  0.00    -0.258 OA
ATOM     24  O   UNL A   1      31.419  23.304  23.130  1.00  0.00    -0.258 OA
ENDBRANCH  21  22
ENDBRANCH  13  15
ENDBRANCH  12  13
ENDBRANCH   7  12
ENDBRANCH   3   6
ENDBRANCH   1   2
BRANCH   1  25
ATOM     25  C   UNL A   1      34.965  30.274  28.296  1.00  0.00     0.042 C 
BRANCH  25  26
ATOM     26  C   UNL A   1      35.030  31.632  27.623  1.00  0.00     0.118 C 
BRANCH  26  27
ATOM     27  N   UNL A   1      34.032  32.581  28.111  1.00  0.00    -0.352 N 
ATOM     28  C   UNL A   1      34.129  33.447  29.188  1.00  0.00     0.251 C 
ATOM     29  H   UNL A   1      33.184  32.608  27.612  1.00  0.00     0.163 HD
ATOM     30  O   UNL A   1      33.217  34.203  29.475  1.00  0.00    -0.269 OA
BRANCH  28  31
ATOM     31  C   UNL A   1      35.428  33.525  29.896  1.00  0.00     0.039 A 
ATOM     32  C   UNL A   1      36.479  34.155  29.226  1.00  0.00     0.014 A 
ATOM     33  C   UNL A   1      35.665  32.723  31.009  1.00  0.00     0.014 A 
ATOM     34  C   UNL A   1      37.782  33.758  29.502  1.00  0.00     0.010 A 
ATOM     35  C   UNL A   1      36.945  32.249  31.208  1.00  0.00     0.010 A 
ATOM     36  C   UNL A   1      37.988  32.711  30.398  1.00  0.00    -0.014 A 
BRANCH  36  37
ATOM     37  C   UNL A   1      39.238  31.961  30.454  1.00  0.00     0.031 A 
ATOM     38  C   UNL A   1      39.356  30.667  29.763  1.00  0.00     0.074 A 
ATOM     39  C   UNL A   1      40.299  32.466  31.119  1.00  0.00     0.049 A 
ATOM     40  N   UNL A   1      40.221  29.760  30.069  1.00  0.00    -0.248 NA
ATOM     41  C   UNL A   1      38.442  30.264  28.703  1.00  0.00     0.031 C 
ATOM     42  C   UNL A   1      41.683  32.001  31.082  1.00  0.00     0.029 A 
ATOM     43  N   UNL A   1      40.268  33.379  32.176  1.00  0.00    -0.354 N 
ATOM     44  C   UNL A   1      40.176  28.803  29.086  1.00  0.00     0.074 A 
ATOM     45  C   UNL A   1      38.994  29.112  28.314  1.00  0.00     0.031 C 
ATOM     46  C   UNL A   1      42.301  32.399  32.207  1.00  0.00     0.029 A 
ATOM     47  C   UNL A   1      41.291  32.992  33.066  1.00  0.00     0.049 A 
ATOM     48  H   UNL A   1      39.654  34.142  32.279  1.00  0.00     0.167 HD
ATOM     49  C   UNL A   1      41.216  27.933  28.955  1.00  0.00     0.031 A 
ATOM     50  C   UNL A   1      40.992  32.574  34.331  1.00  0.00     0.031 A 
ATOM     51  C   UNL A   1      42.192  28.065  30.037  1.00  0.00     0.049 A 
ATOM     52  C   UNL A   1      41.418  31.152  34.648  1.00  0.00     0.074 A 
ATOM     53  C   UNL A   1      43.465  28.605  30.144  1.00  0.00     0.029 A 
ATOM     54  N   UNL A   1      41.771  27.830  31.337  1.00  0.00    -0.354 N 
ATOM     55  N   UNL A   1      41.939  30.319  33.790  1.00  0.00    -0.248 NA
ATOM     56  C   UNL A   1      41.172  30.524  35.949  1.00  0.00     0.031 C 
ATOM     57  C   UNL A   1      43.804  28.679  31.529  1.00  0.00     0.029 A 
ATOM     58  C   UNL A   1      42.743  28.175  32.255  1.00  0.00     0.049 A 
ATOM     59  H   UNL A   1      40.890  27.462  31.575  1.00  0.00     0.167 HD
ATOM     60  C   UNL A   1      42.039  29.077  34.361  1.00  0.00     0.074 A 
ATOM     61  C   UNL A   1      41.549  29.255  35.715  1.00  0.00     0.031 C 
ATOM     62  C   UNL A   1      42.460  27.980  33.668  1.00  0.00     0.031 A 
BRANCH  49  63
ATOM     63  C   UNL A   1      41.461  27.124  27.702  1.00  0.00    -0.014 A 
ATOM     64  C   UNL A   1      41.325  25.724  27.742  1.00  0.00     0.009 A 
ATOM     65  C   UNL A   1      41.883  27.661  26.474  1.00  0.00     0.009 A 
ATOM     66  C   UNL A   1      41.690  24.910  26.661  1.00  0.00     0.001 A 
ATOM     67  C   UNL A   1      42.291  26.854  25.403  1.00  0.00     0.001 A 
ATOM     68  C   UNL A   1      42.206  25.474  25.502  1.00  0.00     0.000 A 
ENDBRANCH  49  63
BRANCH  50  69
ATOM     69  C   UNL A   1      39.781  33.230  34.904  1.00  0.00    -0.014 A 
ATOM     70  C   UNL A   1      38.519  32.652  34.661  1.00  0.00     0.009 A 
ATOM     71  C   UNL A   1      39.893  34.185  35.924  1.00  0.00     0.009 A 
ATOM     72  C   UNL A   1      37.430  32.933  35.489  1.00  0.00     0.001 A 
ATOM     73  C   UNL A   1      38.794  34.479  36.739  1.00  0.00     0.001 A 
ATOM     74  C   UNL A   1      37.577  33.828  36.546  1.00  0.00     0.000 A 
ENDBRANCH  50  69
BRANCH  62  75
ATOM     75  C   UNL A   1      42.583  26.598  34.254  1.00  0.00    -0.014 A 
ATOM     76  C   UNL A   1      43.659  25.741  33.984  1.00  0.00     0.009 A 
ATOM     77  C   UNL A   1      41.530  26.069  35.031  1.00  0.00     0.009 A 
ATOM     78  C   UNL A   1      43.715  24.451  34.531  1.00  0.00     0.001 A 
ATOM     79  C   UNL A   1      41.570  24.775  35.557  1.00  0.00     0.001 A 
ATOM     80  C   UNL A   1      42.674  23.971  35.320  1.00  0.00     0.000 A 
ENDBRANCH  62  75
ENDBRANCH  36  37
ENDBRANCH  28  31
ENDBRANCH  26  27
ENDBRANCH  25  26
ENDBRANCH   1  25
TORSDOF 14
ENDMDL
