MODEL 1
REMARK VINA RESULT:     -10.6      0.000      0.000
REMARK SMILES CC(C)Cc1ccc([C@H](CC(=O)NCCCNC(=O)c2ccc(-c3c4nc(c(-c5ccccc5)c5ccc([nH]5)c(-c5ccccc5)c5nc(c(-c6ccccc6)c6ccc3[nH]6)C=C5)C=C4)cc2)NC=O)cc1
REMARK SMILES IDX 14 1 13 2 11 3 12 4 10 6 9 7 8 8 5 9 6 10 72 11 7 12 71 13
REMARK SMILES IDX 4 14 2 15 1 16 3 17 68 18 69 19 70 21 15 22 16 23 17 24
REMARK SMILES IDX 18 25 19 27 20 28 21 29 67 30 22 31 66 32 23 33 24 34 25 35
REMARK SMILES IDX 60 36 26 37 65 38 59 39 61 40 27 41 64 42 58 43 57 44 28 46
REMARK SMILES IDX 50 47 35 48 49 49 36 50 39 51 48 52 62 53 37 54 38 55 47 57
REMARK SMILES IDX 63 58 40 59 29 60 30 61 34 62 31 63 33 64 32 65 51 66 52 67
REMARK SMILES IDX 56 68 53 69 55 70 54 71 41 72 42 73 46 74 43 75 45 76 44 77
REMARK H PARENT 13 5 68 20 17 26 61 45 39 56
REMARK Flexibility Score: inf
ROOT
ATOM      1  C   UNL A   1      37.303  20.800  25.096  1.00  0.00     0.117 C 
ENDROOT
BRANCH   1   2
ATOM      2  N   UNL A   1      37.128  21.638  23.928  1.00  0.00    -0.356 N 
ATOM      3  C   UNL A   1      36.379  22.754  23.747  1.00  0.00     0.222 C 
ATOM      4  O   UNL A   1      36.338  23.244  22.617  1.00  0.00    -0.275 OA
ATOM      5  H   UNL A   1      37.636  21.350  23.136  1.00  0.00     0.163 HD
BRANCH   3   6
ATOM      6  C   UNL A   1      35.659  23.413  24.897  1.00  0.00     0.129 C 
BRANCH   6   7
ATOM      7  C   UNL A   1      34.128  23.405  24.795  1.00  0.00     0.121 C 
BRANCH   7   8
ATOM      8  C   UNL A   1      33.511  22.012  24.673  1.00  0.00    -0.025 A 
ATOM      9  C   UNL A   1      32.591  19.340  24.443  1.00  0.00    -0.048 A 
ATOM     10  C   UNL A   1      32.357  20.265  23.423  1.00  0.00     0.004 A 
ATOM     11  C   UNL A   1      33.231  19.770  25.608  1.00  0.00     0.004 A 
ATOM     12  C   UNL A   1      32.813  21.579  23.535  1.00  0.00     0.006 A 
ATOM     13  C   UNL A   1      33.684  21.088  25.721  1.00  0.00     0.006 A 
BRANCH   9  14
ATOM     14  C   UNL A   1      32.244  17.885  24.239  1.00  0.00     0.038 C 
BRANCH  14  15
ATOM     15  C   UNL A   1      33.466  16.962  24.439  1.00  0.00    -0.013 C 
ATOM     16  C   UNL A   1      33.077  15.619  25.063  1.00  0.00     0.008 C 
ATOM     17  C   UNL A   1      34.176  16.728  23.106  1.00  0.00     0.008 C 
ENDBRANCH  14  15
ENDBRANCH   9  14
ENDBRANCH   7   8
BRANCH   7  18
ATOM     18  N   UNL A   1      33.522  24.106  25.918  1.00  0.00    -0.351 N 
ATOM     19  C   UNL A   1      32.198  24.417  26.018  1.00  0.00     0.337 C 
ATOM     20  H   UNL A   1      34.111  24.376  26.660  1.00  0.00     0.163 HD
ATOM     21  O   UNL A   1      31.719  25.046  26.948  1.00  0.00    -0.279 OA
ENDBRANCH   7  18
ENDBRANCH   6   7
ENDBRANCH   3   6
ENDBRANCH   1   2
BRANCH   1  22
ATOM     22  C   UNL A   1      38.471  19.832  24.929  1.00  0.00     0.042 C 
BRANCH  22  23
ATOM     23  C   UNL A   1      39.343  19.666  26.170  1.00  0.00     0.118 C 
BRANCH  23  24
ATOM     24  N   UNL A   1      40.629  19.059  25.869  1.00  0.00    -0.352 N 
ATOM     25  C   UNL A   1      41.883  19.618  25.865  1.00  0.00     0.251 C 
ATOM     26  H   UNL A   1      40.597  18.103  25.633  1.00  0.00     0.163 HD
ATOM     27  O   UNL A   1      42.827  18.984  25.401  1.00  0.00    -0.269 OA
BRANCH  25  28
ATOM     28  C   UNL A   1      42.106  20.982  26.396  1.00  0.00     0.039 A 
ATOM     29  C   UNL A   1      41.907  21.208  27.761  1.00  0.00     0.014 A 
ATOM     30  C   UNL A   1      42.466  22.042  25.559  1.00  0.00     0.014 A 
ATOM     31  C   UNL A   1      42.116  22.483  28.295  1.00  0.00     0.010 A 
ATOM     32  C   UNL A   1      42.736  23.297  26.102  1.00  0.00     0.010 A 
ATOM     33  C   UNL A   1      42.557  23.533  27.473  1.00  0.00    -0.014 A 
BRANCH  33  34
ATOM     34  C   UNL A   1      42.829  24.881  28.035  1.00  0.00     0.031 A 
ATOM     35  C   UNL A   1      44.212  25.244  28.506  1.00  0.00     0.074 A 
ATOM     36  C   UNL A   1      41.818  25.762  28.177  1.00  0.00     0.049 A 
ATOM     37  N   UNL A   1      44.626  26.353  29.068  1.00  0.00    -0.248 NA
ATOM     38  C   UNL A   1      45.260  24.225  28.346  1.00  0.00     0.031 C 
ATOM     39  C   UNL A   1      40.423  25.521  27.801  1.00  0.00     0.029 A 
ATOM     40  N   UNL A   1      41.808  27.036  28.688  1.00  0.00    -0.354 N 
ATOM     41  C   UNL A   1      45.972  26.152  29.353  1.00  0.00     0.074 A 
ATOM     42  C   UNL A   1      46.298  24.807  28.930  1.00  0.00     0.031 C 
ATOM     43  C   UNL A   1      39.697  26.616  28.081  1.00  0.00     0.029 A 
ATOM     44  C   UNL A   1      40.565  27.621  28.687  1.00  0.00     0.049 A 
ATOM     45  H   UNL A   1      42.616  27.487  29.025  1.00  0.00     0.167 HD
ATOM     46  C   UNL A   1      46.859  27.013  29.906  1.00  0.00     0.031 A 
ATOM     47  C   UNL A   1      40.165  28.826  29.133  1.00  0.00     0.031 A 
ATOM     48  C   UNL A   1      46.546  28.361  30.298  1.00  0.00     0.049 A 
ATOM     49  C   UNL A   1      41.175  29.766  29.731  1.00  0.00     0.074 A 
ATOM     50  C   UNL A   1      47.402  29.335  30.784  1.00  0.00     0.029 A 
ATOM     51  N   UNL A   1      45.282  28.923  30.255  1.00  0.00    -0.354 N 
ATOM     52  N   UNL A   1      42.462  29.593  29.905  1.00  0.00    -0.248 NA
ATOM     53  C   UNL A   1      40.677  31.073  30.185  1.00  0.00     0.031 C 
ATOM     54  C   UNL A   1      46.645  30.472  31.082  1.00  0.00     0.029 A 
ATOM     55  C   UNL A   1      45.329  30.221  30.734  1.00  0.00     0.049 A 
ATOM     56  H   UNL A   1      44.470  28.467  29.934  1.00  0.00     0.167 HD
ATOM     57  C   UNL A   1      42.932  30.776  30.459  1.00  0.00     0.074 A 
ATOM     58  C   UNL A   1      41.795  31.665  30.578  1.00  0.00     0.031 C 
ATOM     59  C   UNL A   1      44.192  31.098  30.838  1.00  0.00     0.031 A 
BRANCH  46  60
ATOM     60  C   UNL A   1      48.262  26.526  30.129  1.00  0.00    -0.014 A 
ATOM     61  C   UNL A   1      48.632  25.890  31.324  1.00  0.00     0.009 A 
ATOM     62  C   UNL A   1      49.211  26.645  29.100  1.00  0.00     0.009 A 
ATOM     63  C   UNL A   1      49.931  25.404  31.493  1.00  0.00     0.001 A 
ATOM     64  C   UNL A   1      50.501  26.138  29.263  1.00  0.00     0.001 A 
ATOM     65  C   UNL A   1      50.861  25.523  30.461  1.00  0.00     0.000 A 
ENDBRANCH  46  60
BRANCH  47  66
ATOM     66  C   UNL A   1      38.737  29.227  29.033  1.00  0.00    -0.014 A 
ATOM     67  C   UNL A   1      37.873  29.065  30.128  1.00  0.00     0.009 A 
ATOM     68  C   UNL A   1      38.224  29.742  27.833  1.00  0.00     0.009 A 
ATOM     69  C   UNL A   1      36.516  29.378  30.009  1.00  0.00     0.001 A 
ATOM     70  C   UNL A   1      36.874  30.082  27.727  1.00  0.00     0.001 A 
ATOM     71  C   UNL A   1      36.019  29.889  28.811  1.00  0.00     0.000 A 
ENDBRANCH  47  66
BRANCH  59  72
ATOM     72  C   UNL A   1      44.417  32.480  31.379  1.00  0.00    -0.014 A 
ATOM     73  C   UNL A   1      44.688  33.561  30.528  1.00  0.00     0.009 A 
ATOM     74  C   UNL A   1      44.315  32.708  32.761  1.00  0.00     0.009 A 
ATOM     75  C   UNL A   1      44.884  34.840  31.053  1.00  0.00     0.001 A 
ATOM     76  C   UNL A   1      44.484  33.992  33.280  1.00  0.00     0.001 A 
ATOM     77  C   UNL A   1      44.777  35.055  32.427  1.00  0.00     0.000 A 
ENDBRANCH  59  72
ENDBRANCH  33  34
ENDBRANCH  25  28
ENDBRANCH  23  24
ENDBRANCH  22  23
ENDBRANCH   1  22
TORSDOF 15
ENDMDL
MODEL 2
REMARK VINA RESULT:     -10.6      4.972     11.014
REMARK SMILES CC(C)Cc1ccc([C@H](CC(=O)NCCCNC(=O)c2ccc(-c3c4nc(c(-c5ccccc5)c5ccc([nH]5)c(-c5ccccc5)c5nc(c(-c6ccccc6)c6ccc3[nH]6)C=C5)C=C4)cc2)NC=O)cc1
REMARK SMILES IDX 14 1 13 2 11 3 12 4 10 6 9 7 8 8 5 9 6 10 72 11 7 12 71 13
REMARK SMILES IDX 4 14 2 15 1 16 3 17 68 18 69 19 70 21 15 22 16 23 17 24
REMARK SMILES IDX 18 25 19 27 20 28 21 29 67 30 22 31 66 32 23 33 24 34 25 35
REMARK SMILES IDX 60 36 26 37 65 38 59 39 61 40 27 41 64 42 58 43 57 44 28 46
REMARK SMILES IDX 50 47 35 48 49 49 36 50 39 51 48 52 62 53 37 54 38 55 47 57
REMARK SMILES IDX 63 58 40 59 29 60 30 61 34 62 31 63 33 64 32 65 51 66 52 67
REMARK SMILES IDX 56 68 53 69 55 70 54 71 41 72 42 73 46 74 43 75 45 76 44 77
REMARK H PARENT 13 5 68 20 17 26 61 45 39 56
REMARK Flexibility Score: inf
ROOT
ATOM      1  C   UNL A   1      33.312  34.503  29.207  1.00  0.00     0.117 C 
ENDROOT
BRANCH   1   2
ATOM      2  N   UNL A   1      33.757  35.027  30.481  1.00  0.00    -0.356 N 
ATOM      3  C   UNL A   1      34.318  34.400  31.546  1.00  0.00     0.222 C 
ATOM      4  O   UNL A   1      34.536  35.067  32.559  1.00  0.00    -0.275 OA
ATOM      5  H   UNL A   1      33.631  35.996  30.594  1.00  0.00     0.163 HD
BRANCH   3   6
ATOM      6  C   UNL A   1      34.715  32.946  31.482  1.00  0.00     0.129 C 
BRANCH   6   7
ATOM      7  C   UNL A   1      36.109  32.628  32.041  1.00  0.00     0.121 C 
BRANCH   7   8
ATOM      8  C   UNL A   1      37.254  33.344  31.326  1.00  0.00    -0.025 A 
ATOM      9  C   UNL A   1      39.475  34.454  29.958  1.00  0.00    -0.048 A 
ATOM     10  C   UNL A   1      39.276  34.707  31.317  1.00  0.00     0.004 A 
ATOM     11  C   UNL A   1      38.527  33.695  29.268  1.00  0.00     0.004 A 
ATOM     12  C   UNL A   1      38.184  34.157  31.991  1.00  0.00     0.006 A 
ATOM     13  C   UNL A   1      37.431  33.149  29.943  1.00  0.00     0.006 A 
BRANCH   9  14
ATOM     14  C   UNL A   1      40.745  34.912  29.282  1.00  0.00     0.038 C 
BRANCH  14  15
ATOM     15  C   UNL A   1      42.005  34.518  30.084  1.00  0.00    -0.013 C 
ATOM     16  C   UNL A   1      42.721  33.309  29.473  1.00  0.00     0.008 C 
ATOM     17  C   UNL A   1      42.969  35.701  30.171  1.00  0.00     0.008 C 
ENDBRANCH  14  15
ENDBRANCH   9  14
ENDBRANCH   7   8
BRANCH   7  18
ATOM     18  N   UNL A   1      36.179  32.909  33.469  1.00  0.00    -0.351 N 
ATOM     19  C   UNL A   1      37.078  32.349  34.327  1.00  0.00     0.337 C 
ATOM     20  H   UNL A   1      35.530  33.549  33.841  1.00  0.00     0.163 HD
ATOM     21  O   UNL A   1      37.090  32.564  35.529  1.00  0.00    -0.279 OA
ENDBRANCH   7  18
ENDBRANCH   6   7
ENDBRANCH   3   6
ENDBRANCH   1   2
BRANCH   1  22
ATOM     22  C   UNL A   1      34.407  34.591  28.146  1.00  0.00     0.042 C 
BRANCH  22  23
ATOM     23  C   UNL A   1      35.157  33.285  27.897  1.00  0.00     0.118 C 
BRANCH  23  24
ATOM     24  N   UNL A   1      34.263  32.149  27.754  1.00  0.00    -0.352 N 
ATOM     25  C   UNL A   1      34.535  30.805  27.825  1.00  0.00     0.251 C 
ATOM     26  H   UNL A   1      33.321  32.376  27.581  1.00  0.00     0.163 HD
ATOM     27  O   UNL A   1      33.675  29.994  27.490  1.00  0.00    -0.269 OA
BRANCH  25  28
ATOM     28  C   UNL A   1      35.859  30.323  28.280  1.00  0.00     0.039 A 
ATOM     29  C   UNL A   1      35.968  29.787  29.567  1.00  0.00     0.014 A 
ATOM     30  C   UNL A   1      36.994  30.433  27.472  1.00  0.00     0.014 A 
ATOM     31  C   UNL A   1      37.202  29.316  30.023  1.00  0.00     0.010 A 
ATOM     32  C   UNL A   1      38.210  29.905  27.904  1.00  0.00     0.010 A 
ATOM     33  C   UNL A   1      38.329  29.348  29.186  1.00  0.00    -0.014 A 
BRANCH  33  34
ATOM     34  C   UNL A   1      39.637  28.809  29.641  1.00  0.00     0.031 A 
ATOM     35  C   UNL A   1      40.488  29.590  30.604  1.00  0.00     0.074 A 
ATOM     36  C   UNL A   1      40.087  27.640  29.141  1.00  0.00     0.049 A 
ATOM     37  N   UNL A   1      41.677  29.302  31.074  1.00  0.00    -0.248 NA
ATOM     38  C   UNL A   1      39.946  30.869  31.088  1.00  0.00     0.031 C 
ATOM     39  C   UNL A   1      39.381  26.804  28.167  1.00  0.00     0.029 A 
ATOM     40  N   UNL A   1      41.256  26.960  29.375  1.00  0.00    -0.354 N 
ATOM     41  C   UNL A   1      42.035  30.376  31.881  1.00  0.00     0.074 A 
ATOM     42  C   UNL A   1      40.952  31.333  31.816  1.00  0.00     0.031 C 
ATOM     43  C   UNL A   1      40.123  25.718  27.900  1.00  0.00     0.029 A 
ATOM     44  C   UNL A   1      41.371  25.796  28.653  1.00  0.00     0.049 A 
ATOM     45  H   UNL A   1      41.947  27.276  30.001  1.00  0.00     0.167 HD
ATOM     46  C   UNL A   1      43.157  30.544  32.619  1.00  0.00     0.031 A 
ATOM     47  C   UNL A   1      42.372  24.898  28.595  1.00  0.00     0.031 A 
ATOM     48  C   UNL A   1      44.221  29.581  32.712  1.00  0.00     0.049 A 
ATOM     49  C   UNL A   1      43.601  25.106  29.435  1.00  0.00     0.074 A 
ATOM     50  C   UNL A   1      45.355  29.626  33.504  1.00  0.00     0.029 A 
ATOM     51  N   UNL A   1      44.286  28.404  31.985  1.00  0.00    -0.354 N 
ATOM     52  N   UNL A   1      43.878  26.081  30.266  1.00  0.00    -0.248 NA
ATOM     53  C   UNL A   1      44.651  24.080  29.338  1.00  0.00     0.031 C 
ATOM     54  C   UNL A   1      46.131  28.499  33.221  1.00  0.00     0.029 A 
ATOM     55  C   UNL A   1      45.456  27.728  32.290  1.00  0.00     0.049 A 
ATOM     56  H   UNL A   1      43.603  28.095  31.347  1.00  0.00     0.167 HD
ATOM     57  C   UNL A   1      45.118  25.772  30.810  1.00  0.00     0.074 A 
ATOM     58  C   UNL A   1      45.532  24.513  30.229  1.00  0.00     0.031 C 
ATOM     59  C   UNL A   1      45.850  26.471  31.711  1.00  0.00     0.031 A 
BRANCH  46  60
ATOM     60  C   UNL A   1      43.303  31.825  33.390  1.00  0.00    -0.014 A 
ATOM     61  C   UNL A   1      43.937  32.945  32.830  1.00  0.00     0.009 A 
ATOM     62  C   UNL A   1      42.739  31.934  34.671  1.00  0.00     0.009 A 
ATOM     63  C   UNL A   1      44.022  34.141  33.547  1.00  0.00     0.001 A 
ATOM     64  C   UNL A   1      42.804  33.136  35.376  1.00  0.00     0.001 A 
ATOM     65  C   UNL A   1      43.451  34.237  34.816  1.00  0.00     0.000 A 
ENDBRANCH  46  60
BRANCH  47  66
ATOM     66  C   UNL A   1      42.263  23.710  27.708  1.00  0.00    -0.014 A 
ATOM     67  C   UNL A   1      41.721  22.508  28.189  1.00  0.00     0.009 A 
ATOM     68  C   UNL A   1      42.729  23.763  26.386  1.00  0.00     0.009 A 
ATOM     69  C   UNL A   1      41.682  21.373  27.374  1.00  0.00     0.001 A 
ATOM     70  C   UNL A   1      42.662  22.636  25.565  1.00  0.00     0.001 A 
ATOM     71  C   UNL A   1      42.150  21.439  26.063  1.00  0.00     0.000 A 
ENDBRANCH  47  66
BRANCH  59  72
ATOM     72  C   UNL A   1      47.154  25.872  32.153  1.00  0.00    -0.014 A 
ATOM     73  C   UNL A   1      47.242  25.099  33.320  1.00  0.00     0.009 A 
ATOM     74  C   UNL A   1      48.302  26.052  31.364  1.00  0.00     0.009 A 
ATOM     75  C   UNL A   1      48.464  24.543  33.706  1.00  0.00     0.001 A 
ATOM     76  C   UNL A   1      49.515  25.472  31.738  1.00  0.00     0.001 A 
ATOM     77  C   UNL A   1      49.596  24.726  32.913  1.00  0.00     0.000 A 
ENDBRANCH  59  72
ENDBRANCH  33  34
ENDBRANCH  25  28
ENDBRANCH  23  24
ENDBRANCH  22  23
ENDBRANCH   1  22
TORSDOF 15
ENDMDL
MODEL 3
REMARK VINA RESULT:     -10.6      3.501      8.688
REMARK SMILES CC(C)Cc1ccc([C@H](CC(=O)NCCCNC(=O)c2ccc(-c3c4nc(c(-c5ccccc5)c5ccc([nH]5)c(-c5ccccc5)c5nc(c(-c6ccccc6)c6ccc3[nH]6)C=C5)C=C4)cc2)NC=O)cc1
REMARK SMILES IDX 14 1 13 2 11 3 12 4 10 6 9 7 8 8 5 9 6 10 72 11 7 12 71 13
REMARK SMILES IDX 4 14 2 15 1 16 3 17 68 18 69 19 70 21 15 22 16 23 17 24
REMARK SMILES IDX 18 25 19 27 20 28 21 29 67 30 22 31 66 32 23 33 24 34 25 35
REMARK SMILES IDX 60 36 26 37 65 38 59 39 61 40 27 41 64 42 58 43 57 44 28 46
REMARK SMILES IDX 50 47 35 48 49 49 36 50 39 51 48 52 62 53 37 54 38 55 47 57
REMARK SMILES IDX 63 58 40 59 29 60 30 61 34 62 31 63 33 64 32 65 51 66 52 67
REMARK SMILES IDX 56 68 53 69 55 70 54 71 41 72 42 73 46 74 43 75 45 76 44 77
REMARK H PARENT 13 5 68 20 17 26 61 45 39 56
REMARK Flexibility Score: inf
ROOT
ATOM      1  C   UNL A   1      31.386  27.609  26.483  1.00  0.00     0.117 C 
ENDROOT
BRANCH   1   2
ATOM      2  N   UNL A   1      31.108  26.189  26.512  1.00  0.00    -0.356 N 
ATOM      3  C   UNL A   1      31.209  25.250  25.538  1.00  0.00     0.222 C 
ATOM      4  O   UNL A   1      30.830  24.106  25.797  1.00  0.00    -0.275 OA
ATOM      5  H   UNL A   1      30.793  25.848  27.380  1.00  0.00     0.163 HD
BRANCH   3   6
ATOM      6  C   UNL A   1      31.815  25.573  24.195  1.00  0.00     0.129 C 
BRANCH   6   7
ATOM      7  C   UNL A   1      30.805  25.752  23.053  1.00  0.00     0.121 C 
BRANCH   7   8
ATOM      8  C   UNL A   1      30.117  27.117  23.027  1.00  0.00    -0.025 A 
ATOM      9  C   UNL A   1      28.969  29.705  23.176  1.00  0.00    -0.048 A 
ATOM     10  C   UNL A   1      28.183  28.565  23.359  1.00  0.00     0.004 A 
ATOM     11  C   UNL A   1      30.320  29.548  22.857  1.00  0.00     0.004 A 
ATOM     12  C   UNL A   1      28.749  27.291  23.289  1.00  0.00     0.006 A 
ATOM     13  C   UNL A   1      30.885  28.271  22.782  1.00  0.00     0.006 A 
BRANCH   9  14
ATOM     14  C   UNL A   1      28.383  31.074  23.422  1.00  0.00     0.038 C 
BRANCH  14  15
ATOM     15  C   UNL A   1      28.914  32.122  22.419  1.00  0.00    -0.013 C 
ATOM     16  C   UNL A   1      28.043  32.210  21.163  1.00  0.00     0.008 C 
ATOM     17  C   UNL A   1      29.004  33.495  23.085  1.00  0.00     0.008 C 
ENDBRANCH  14  15
ENDBRANCH   9  14
ENDBRANCH   7   8
BRANCH   7  18
ATOM     18  N   UNL A   1      31.424  25.498  21.759  1.00  0.00    -0.351 N 
ATOM     19  C   UNL A   1      32.749  25.247  21.567  1.00  0.00     0.337 C 
ATOM     20  H   UNL A   1      30.842  25.509  20.964  1.00  0.00     0.163 HD
ATOM     21  O   UNL A   1      33.255  25.081  20.469  1.00  0.00    -0.279 OA
ENDBRANCH   7  18
ENDBRANCH   6   7
ENDBRANCH   3   6
ENDBRANCH   1   2
BRANCH   1  22
ATOM     22  C   UNL A   1      32.198  28.051  27.699  1.00  0.00     0.042 C 
BRANCH  22  23
ATOM     23  C   UNL A   1      33.540  28.698  27.366  1.00  0.00     0.118 C 
BRANCH  23  24
ATOM     24  N   UNL A   1      33.549  30.127  27.631  1.00  0.00    -0.352 N 
ATOM     25  C   UNL A   1      34.524  30.907  28.203  1.00  0.00     0.251 C 
ATOM     26  H   UNL A   1      32.734  30.609  27.361  1.00  0.00     0.163 HD
ATOM     27  O   UNL A   1      34.267  32.067  28.513  1.00  0.00    -0.269 OA
BRANCH  25  28
ATOM     28  C   UNL A   1      35.873  30.358  28.469  1.00  0.00     0.039 A 
ATOM     29  C   UNL A   1      36.829  30.412  27.450  1.00  0.00     0.014 A 
ATOM     30  C   UNL A   1      36.189  29.756  29.690  1.00  0.00     0.014 A 
ATOM     31  C   UNL A   1      38.114  29.910  27.671  1.00  0.00     0.010 A 
ATOM     32  C   UNL A   1      37.489  29.313  29.932  1.00  0.00     0.010 A 
ATOM     33  C   UNL A   1      38.463  29.379  28.924  1.00  0.00    -0.014 A 
BRANCH  33  34
ATOM     34  C   UNL A   1      39.839  28.884  29.189  1.00  0.00     0.031 A 
ATOM     35  C   UNL A   1      40.864  29.789  29.816  1.00  0.00     0.074 A 
ATOM     36  C   UNL A   1      40.184  27.637  28.811  1.00  0.00     0.049 A 
ATOM     37  N   UNL A   1      42.125  29.548  30.077  1.00  0.00    -0.248 NA
ATOM     38  C   UNL A   1      40.425  31.146  30.178  1.00  0.00     0.031 C 
ATOM     39  C   UNL A   1      39.299  26.673  28.154  1.00  0.00     0.029 A 
ATOM     40  N   UNL A   1      41.380  26.971  28.915  1.00  0.00    -0.354 N 
ATOM     41  C   UNL A   1      42.634  30.730  30.605  1.00  0.00     0.074 A 
ATOM     42  C   UNL A   1      41.556  31.694  30.600  1.00  0.00     0.031 C 
ATOM     43  C   UNL A   1      39.977  25.536  27.928  1.00  0.00     0.029 A 
ATOM     44  C   UNL A   1      41.352  25.702  28.390  1.00  0.00     0.049 A 
ATOM     45  H   UNL A   1      42.182  27.366  29.327  1.00  0.00     0.167 HD
ATOM     46  C   UNL A   1      43.882  30.985  31.063  1.00  0.00     0.031 A 
ATOM     47  C   UNL A   1      42.325  24.778  28.282  1.00  0.00     0.031 A 
ATOM     48  C   UNL A   1      44.948  30.020  31.099  1.00  0.00     0.049 A 
ATOM     49  C   UNL A   1      43.699  25.086  28.810  1.00  0.00     0.074 A 
ATOM     50  C   UNL A   1      46.220  30.162  31.627  1.00  0.00     0.029 A 
ATOM     51  N   UNL A   1      44.870  28.738  30.581  1.00  0.00    -0.354 N 
ATOM     52  N   UNL A   1      44.134  26.176  29.393  1.00  0.00    -0.248 NA
ATOM     53  C   UNL A   1      44.712  24.029  28.676  1.00  0.00     0.031 C 
ATOM     54  C   UNL A   1      46.928  28.982  31.385  1.00  0.00     0.029 A 
ATOM     55  C   UNL A   1      46.081  28.089  30.752  1.00  0.00     0.049 A 
ATOM     56  H   UNL A   1      44.073  28.347  30.155  1.00  0.00     0.167 HD
ATOM     57  C   UNL A   1      45.460  25.926  29.720  1.00  0.00     0.074 A 
ATOM     58  C   UNL A   1      45.753  24.576  29.286  1.00  0.00     0.031 C 
ATOM     59  C   UNL A   1      46.356  26.743  30.325  1.00  0.00     0.031 A 
BRANCH  46  60
ATOM     60  C   UNL A   1      44.175  32.371  31.563  1.00  0.00    -0.014 A 
ATOM     61  C   UNL A   1      44.016  32.707  32.917  1.00  0.00     0.009 A 
ATOM     62  C   UNL A   1      44.682  33.336  30.678  1.00  0.00     0.009 A 
ATOM     63  C   UNL A   1      44.337  33.989  33.369  1.00  0.00     0.001 A 
ATOM     64  C   UNL A   1      45.024  34.609  31.137  1.00  0.00     0.001 A 
ATOM     65  C   UNL A   1      44.846  34.936  32.480  1.00  0.00     0.000 A 
ENDBRANCH  46  60
BRANCH  47  66
ATOM     66  C   UNL A   1      42.044  23.463  27.647  1.00  0.00    -0.014 A 
ATOM     67  C   UNL A   1      42.322  23.254  26.287  1.00  0.00     0.009 A 
ATOM     68  C   UNL A   1      41.467  22.423  28.390  1.00  0.00     0.009 A 
ATOM     69  C   UNL A   1      41.993  22.040  25.677  1.00  0.00     0.001 A 
ATOM     70  C   UNL A   1      41.167  21.201  27.785  1.00  0.00     0.001 A 
ATOM     71  C   UNL A   1      41.419  21.015  26.427  1.00  0.00     0.000 A 
ENDBRANCH  47  66
BRANCH  59  72
ATOM     72  C   UNL A   1      47.726  26.187  30.588  1.00  0.00    -0.014 A 
ATOM     73  C   UNL A   1      48.708  26.163  29.587  1.00  0.00     0.009 A 
ATOM     74  C   UNL A   1      48.048  25.716  31.872  1.00  0.00     0.009 A 
ATOM     75  C   UNL A   1      49.978  25.650  29.858  1.00  0.00     0.001 A 
ATOM     76  C   UNL A   1      49.327  25.230  32.146  1.00  0.00     0.001 A 
ATOM     77  C   UNL A   1      50.287  25.189  31.137  1.00  0.00     0.000 A 
ENDBRANCH  59  72
ENDBRANCH  33  34
ENDBRANCH  25  28
ENDBRANCH  23  24
ENDBRANCH  22  23
ENDBRANCH   1  22
TORSDOF 15
ENDMDL
