MODEL 1
REMARK VINA RESULT:     -11.3      0.000      0.000
REMARK SMILES C[C@@H](C(=O)NCCCNC(=O)c1ccc(-c2c3nc(c(-c4ccccc4)c4ccc([nH]4)c(-c4ccccc4)c4nc(c(-c5ccccc5)c5ccc2[nH]5)C=C4)C=C3)cc1)c1ccc(C[C@H]2CCC[C@@H]2O)cc1F
REMARK SMILES IDX 6 1 5 2 3 3 4 4 2 6 1 7 60 8 61 9 72 10 62 11 71 12 73 13
REMARK SMILES IDX 63 14 64 15 65 16 66 17 69 18 67 19 68 20 70 21 7 23 8 24
REMARK SMILES IDX 9 25 10 26 11 28 12 29 13 30 59 31 14 32 58 33 15 34 16 35
REMARK SMILES IDX 17 36 52 37 18 38 57 39 51 40 53 41 19 42 56 43 50 44 49 45
REMARK SMILES IDX 20 47 42 48 27 49 41 50 28 51 31 52 40 53 54 54 29 55 30 56
REMARK SMILES IDX 39 58 55 59 32 60 21 61 22 62 26 63 23 64 25 65 24 66 43 67
REMARK SMILES IDX 44 68 48 69 45 70 47 71 46 72 33 73 34 74 38 75 35 76 37 77
REMARK SMILES IDX 36 78
REMARK H PARENT 5 5 70 22 9 27 53 46 31 57
REMARK Flexibility Score: inf
ROOT
ATOM      1  C   UNL A   1      33.161  27.768  25.039  1.00  0.00     0.117 C 
ENDROOT
BRANCH   1   2
ATOM      2  N   UNL A   1      32.431  26.894  25.933  1.00  0.00    -0.356 N 
ATOM      3  C   UNL A   1      31.748  25.738  25.701  1.00  0.00     0.227 C 
ATOM      4  O   UNL A   1      31.061  25.350  26.647  1.00  0.00    -0.274 OA
ATOM      5  H   UNL A   1      32.426  27.187  26.873  1.00  0.00     0.163 HD
BRANCH   3   6
ATOM      6  C   UNL A   1      31.883  25.006  24.352  1.00  0.00     0.108 C 
ATOM      7  C   UNL A   1      30.549  24.926  23.608  1.00  0.00     0.023 C 
BRANCH   6   8
ATOM      8  C   UNL A   1      32.497  23.608  24.389  1.00  0.00    -0.000 A 
ATOM      9  C   UNL A   1      31.756  22.420  24.416  1.00  0.00     0.008 A 
ATOM     10  C   UNL A   1      33.893  23.487  24.320  1.00  0.00     0.127 A 
ATOM     11  C   UNL A   1      32.388  21.175  24.452  1.00  0.00     0.004 A 
ATOM     12  C   UNL A   1      34.533  22.248  24.343  1.00  0.00     0.043 A 
ATOM     13  F   UNL A   1      34.650  24.590  24.222  1.00  0.00    -0.207 F 
ATOM     14  C   UNL A   1      33.782  21.077  24.458  1.00  0.00    -0.045 A 
BRANCH  14  15
ATOM     15  C   UNL A   1      34.449  19.736  24.636  1.00  0.00     0.041 C 
BRANCH  15  16
ATOM     16  C   UNL A   1      33.520  18.520  24.475  1.00  0.00     0.022 C 
ATOM     17  C   UNL A   1      33.897  17.529  23.361  1.00  0.00     0.007 C 
ATOM     18  C   UNL A   1      33.353  17.641  25.718  1.00  0.00     0.117 C 
ATOM     19  C   UNL A   1      33.522  16.139  23.885  1.00  0.00     0.003 C 
ATOM     20  C   UNL A   1      32.715  16.382  25.152  1.00  0.00     0.032 C 
BRANCH  18  21
ATOM     21  O   UNL A   1      32.529  18.266  26.682  1.00  0.00    -0.393 OA
ATOM     22  H   UNL A   1      32.961  19.074  27.002  1.00  0.00     0.210 HD
ENDBRANCH  18  21
ENDBRANCH  15  16
ENDBRANCH  14  15
ENDBRANCH   6   8
ENDBRANCH   3   6
ENDBRANCH   1   2
BRANCH   1  23
ATOM     23  C   UNL A   1      34.032  28.754  25.818  1.00  0.00     0.042 C 
BRANCH  23  24
ATOM     24  C   UNL A   1      33.704  28.852  27.305  1.00  0.00     0.118 C 
BRANCH  24  25
ATOM     25  N   UNL A   1      33.720  30.220  27.798  1.00  0.00    -0.352 N 
ATOM     26  C   UNL A   1      34.702  30.893  28.478  1.00  0.00     0.251 C 
ATOM     27  H   UNL A   1      32.904  30.740  27.617  1.00  0.00     0.163 HD
ATOM     28  O   UNL A   1      34.454  31.990  28.979  1.00  0.00    -0.269 OA
BRANCH  26  29
ATOM     29  C   UNL A   1      36.047  30.303  28.636  1.00  0.00     0.039 A 
ATOM     30  C   UNL A   1      36.951  30.395  27.575  1.00  0.00     0.014 A 
ATOM     31  C   UNL A   1      36.417  29.644  29.812  1.00  0.00     0.014 A 
ATOM     32  C   UNL A   1      38.244  29.884  27.716  1.00  0.00     0.010 A 
ATOM     33  C   UNL A   1      37.728  29.207  29.981  1.00  0.00     0.010 A 
ATOM     34  C   UNL A   1      38.655  29.320  28.934  1.00  0.00    -0.014 A 
BRANCH  34  35
ATOM     35  C   UNL A   1      40.050  28.848  29.130  1.00  0.00     0.031 A 
ATOM     36  C   UNL A   1      41.086  29.760  29.726  1.00  0.00     0.074 A 
ATOM     37  C   UNL A   1      40.397  27.610  28.724  1.00  0.00     0.049 A 
ATOM     38  N   UNL A   1      42.361  29.540  29.928  1.00  0.00    -0.248 NA
ATOM     39  C   UNL A   1      40.637  31.103  30.129  1.00  0.00     0.031 C 
ATOM     40  C   UNL A   1      39.494  26.636  28.106  1.00  0.00     0.029 A 
ATOM     41  N   UNL A   1      41.605  26.961  28.770  1.00  0.00    -0.354 N 
ATOM     42  C   UNL A   1      42.866  30.715  30.471  1.00  0.00     0.074 A 
ATOM     43  C   UNL A   1      41.774  31.664  30.514  1.00  0.00     0.031 C 
ATOM     44  C   UNL A   1      40.172  25.503  27.865  1.00  0.00     0.029 A 
ATOM     45  C   UNL A   1      41.563  25.685  28.263  1.00  0.00     0.049 A 
ATOM     46  H   UNL A   1      42.424  27.370  29.133  1.00  0.00     0.167 HD
ATOM     47  C   UNL A   1      44.119  30.977  30.913  1.00  0.00     0.031 A 
ATOM     48  C   UNL A   1      42.537  24.765  28.126  1.00  0.00     0.031 A 
ATOM     49  C   UNL A   1      45.207  30.036  30.868  1.00  0.00     0.049 A 
ATOM     50  C   UNL A   1      43.930  25.095  28.585  1.00  0.00     0.074 A 
ATOM     51  C   UNL A   1      46.504  30.196  31.324  1.00  0.00     0.029 A 
ATOM     52  N   UNL A   1      45.127  28.762  30.330  1.00  0.00    -0.354 N 
ATOM     53  N   UNL A   1      44.378  26.192  29.145  1.00  0.00    -0.248 NA
ATOM     54  C   UNL A   1      44.949  24.052  28.403  1.00  0.00     0.031 C 
ATOM     55  C   UNL A   1      47.224  29.038  31.011  1.00  0.00     0.029 A 
ATOM     56  C   UNL A   1      46.358  28.132  30.421  1.00  0.00     0.049 A 
ATOM     57  H   UNL A   1      44.315  28.362  29.941  1.00  0.00     0.167 HD
ATOM     58  C   UNL A   1      45.722  25.962  29.408  1.00  0.00     0.074 A 
ATOM     59  C   UNL A   1      46.011  24.615  28.963  1.00  0.00     0.031 C 
ATOM     60  C   UNL A   1      46.633  26.792  29.972  1.00  0.00     0.031 A 
BRANCH  47  61
ATOM     61  C   UNL A   1      44.381  32.345  31.482  1.00  0.00    -0.014 A 
ATOM     62  C   UNL A   1      44.782  33.411  30.659  1.00  0.00     0.009 A 
ATOM     63  C   UNL A   1      44.188  32.584  32.852  1.00  0.00     0.009 A 
ATOM     64  C   UNL A   1      45.021  34.675  31.201  1.00  0.00     0.001 A 
ATOM     65  C   UNL A   1      44.397  33.857  33.387  1.00  0.00     0.001 A 
ATOM     66  C   UNL A   1      44.823  34.898  32.564  1.00  0.00     0.000 A 
ENDBRANCH  47  61
BRANCH  48  67
ATOM     67  C   UNL A   1      42.226  23.433  27.543  1.00  0.00    -0.014 A 
ATOM     68  C   UNL A   1      41.669  22.420  28.339  1.00  0.00     0.009 A 
ATOM     69  C   UNL A   1      42.490  23.163  26.191  1.00  0.00     0.009 A 
ATOM     70  C   UNL A   1      41.405  21.159  27.799  1.00  0.00     0.001 A 
ATOM     71  C   UNL A   1      42.197  21.912  25.647  1.00  0.00     0.001 A 
ATOM     72  C   UNL A   1      41.664  20.908  26.453  1.00  0.00     0.000 A 
ENDBRANCH  48  67
BRANCH  60  73
ATOM     73  C   UNL A   1      48.022  26.253  30.177  1.00  0.00    -0.014 A 
ATOM     74  C   UNL A   1      48.419  25.694  31.402  1.00  0.00     0.009 A 
ATOM     75  C   UNL A   1      48.934  26.266  29.110  1.00  0.00     0.009 A 
ATOM     76  C   UNL A   1      49.713  25.194  31.564  1.00  0.00     0.001 A 
ATOM     77  C   UNL A   1      50.215  25.734  29.264  1.00  0.00     0.001 A 
ATOM     78  C   UNL A   1      50.607  25.209  30.494  1.00  0.00     0.000 A 
ENDBRANCH  60  73
ENDBRANCH  34  35
ENDBRANCH  26  29
ENDBRANCH  24  25
ENDBRANCH  23  24
ENDBRANCH   1  23
TORSDOF 14
ENDMDL
MODEL 2
REMARK VINA RESULT:     -11.2      2.168      7.999
REMARK SMILES C[C@@H](C(=O)NCCCNC(=O)c1ccc(-c2c3nc(c(-c4ccccc4)c4ccc([nH]4)c(-c4ccccc4)c4nc(c(-c5ccccc5)c5ccc2[nH]5)C=C4)C=C3)cc1)c1ccc(C[C@H]2CCC[C@@H]2O)cc1F
REMARK SMILES IDX 6 1 5 2 3 3 4 4 2 6 1 7 60 8 61 9 72 10 62 11 71 12 73 13
REMARK SMILES IDX 63 14 64 15 65 16 66 17 69 18 67 19 68 20 70 21 7 23 8 24
REMARK SMILES IDX 9 25 10 26 11 28 12 29 13 30 59 31 14 32 58 33 15 34 16 35
REMARK SMILES IDX 17 36 52 37 18 38 57 39 51 40 53 41 19 42 56 43 50 44 49 45
REMARK SMILES IDX 20 47 42 48 27 49 41 50 28 51 31 52 40 53 54 54 29 55 30 56
REMARK SMILES IDX 39 58 55 59 32 60 21 61 22 62 26 63 23 64 25 65 24 66 43 67
REMARK SMILES IDX 44 68 48 69 45 70 47 71 46 72 33 73 34 74 38 75 35 76 37 77
REMARK SMILES IDX 36 78
REMARK H PARENT 5 5 70 22 9 27 53 46 31 57
REMARK Flexibility Score: inf
ROOT
ATOM      1  C   UNL A   1      36.825  20.916  24.637  1.00  0.00     0.117 C 
ENDROOT
BRANCH   1   2
ATOM      2  N   UNL A   1      35.463  20.438  24.747  1.00  0.00    -0.356 N 
ATOM      3  C   UNL A   1      34.440  20.816  25.564  1.00  0.00     0.227 C 
ATOM      4  O   UNL A   1      33.464  20.064  25.546  1.00  0.00    -0.274 OA
ATOM      5  H   UNL A   1      35.236  19.712  24.122  1.00  0.00     0.163 HD
BRANCH   3   6
ATOM      6  C   UNL A   1      34.543  22.105  26.402  1.00  0.00     0.108 C 
ATOM      7  C   UNL A   1      34.078  21.890  27.843  1.00  0.00     0.023 C 
BRANCH   6   8
ATOM      8  C   UNL A   1      33.836  23.341  25.849  1.00  0.00    -0.000 A 
ATOM      9  C   UNL A   1      32.448  23.464  25.717  1.00  0.00     0.008 A 
ATOM     10  C   UNL A   1      34.610  24.462  25.514  1.00  0.00     0.127 A 
ATOM     11  C   UNL A   1      31.871  24.625  25.199  1.00  0.00     0.004 A 
ATOM     12  C   UNL A   1      34.043  25.630  25.007  1.00  0.00     0.043 A 
ATOM     13  F   UNL A   1      35.940  24.425  25.685  1.00  0.00    -0.207 F 
ATOM     14  C   UNL A   1      32.664  25.705  24.800  1.00  0.00    -0.045 A 
BRANCH  14  15
ATOM     15  C   UNL A   1      32.040  26.896  24.116  1.00  0.00     0.041 C 
BRANCH  15  16
ATOM     16  C   UNL A   1      31.966  28.173  24.972  1.00  0.00     0.022 C 
ATOM     17  C   UNL A   1      31.608  27.968  26.453  1.00  0.00     0.007 C 
ATOM     18  C   UNL A   1      33.238  29.024  25.008  1.00  0.00     0.117 C 
ATOM     19  C   UNL A   1      32.401  29.024  27.231  1.00  0.00     0.003 C 
ATOM     20  C   UNL A   1      32.981  29.959  26.180  1.00  0.00     0.032 C 
BRANCH  18  21
ATOM     21  O   UNL A   1      33.418  29.730  23.796  1.00  0.00    -0.393 OA
ATOM     22  H   UNL A   1      33.741  29.122  23.112  1.00  0.00     0.210 HD
ENDBRANCH  18  21
ENDBRANCH  15  16
ENDBRANCH  14  15
ENDBRANCH   6   8
ENDBRANCH   3   6
ENDBRANCH   1   2
BRANCH   1  23
ATOM     23  C   UNL A   1      37.828  19.803  24.939  1.00  0.00     0.042 C 
BRANCH  23  24
ATOM     24  C   UNL A   1      38.930  20.193  25.920  1.00  0.00     0.118 C 
BRANCH  24  25
ATOM     25  N   UNL A   1      40.097  19.329  25.831  1.00  0.00    -0.352 N 
ATOM     26  C   UNL A   1      41.421  19.624  26.024  1.00  0.00     0.251 C 
ATOM     27  H   UNL A   1      39.907  18.391  25.598  1.00  0.00     0.163 HD
ATOM     28  O   UNL A   1      42.282  18.799  25.716  1.00  0.00    -0.269 OA
BRANCH  26  29
ATOM     29  C   UNL A   1      41.827  20.935  26.574  1.00  0.00     0.039 A 
ATOM     30  C   UNL A   1      42.253  21.931  25.692  1.00  0.00     0.014 A 
ATOM     31  C   UNL A   1      41.810  21.180  27.950  1.00  0.00     0.014 A 
ATOM     32  C   UNL A   1      42.599  23.192  26.184  1.00  0.00     0.010 A 
ATOM     33  C   UNL A   1      42.078  22.459  28.431  1.00  0.00     0.010 A 
ATOM     34  C   UNL A   1      42.478  23.478  27.554  1.00  0.00    -0.014 A 
BRANCH  34  35
ATOM     35  C   UNL A   1      42.762  24.837  28.083  1.00  0.00     0.031 A 
ATOM     36  C   UNL A   1      44.157  25.221  28.490  1.00  0.00     0.074 A 
ATOM     37  C   UNL A   1      41.750  25.713  28.244  1.00  0.00     0.049 A 
ATOM     38  N   UNL A   1      44.585  26.341  29.016  1.00  0.00    -0.248 NA
ATOM     39  C   UNL A   1      45.207  24.206  28.303  1.00  0.00     0.031 C 
ATOM     40  C   UNL A   1      40.346  25.457  27.913  1.00  0.00     0.029 A 
ATOM     41  N   UNL A   1      41.748  26.997  28.728  1.00  0.00    -0.354 N 
ATOM     42  C   UNL A   1      45.946  26.163  29.228  1.00  0.00     0.074 A 
ATOM     43  C   UNL A   1      46.263  24.809  28.829  1.00  0.00     0.031 C 
ATOM     44  C   UNL A   1      39.627  26.561  28.171  1.00  0.00     0.029 A 
ATOM     45  C   UNL A   1      40.506  27.583  28.728  1.00  0.00     0.049 A 
ATOM     46  H   UNL A   1      42.560  27.456  29.044  1.00  0.00     0.167 HD
ATOM     47  C   UNL A   1      46.857  27.051  29.695  1.00  0.00     0.031 A 
ATOM     48  C   UNL A   1      40.114  28.804  29.139  1.00  0.00     0.031 A 
ATOM     49  C   UNL A   1      46.544  28.397  30.096  1.00  0.00     0.049 A 
ATOM     50  C   UNL A   1      41.136  29.757  29.693  1.00  0.00     0.074 A 
ATOM     51  C   UNL A   1      47.403  29.383  30.549  1.00  0.00     0.029 A 
ATOM     52  N   UNL A   1      45.271  28.944  30.098  1.00  0.00    -0.354 N 
ATOM     53  N   UNL A   1      42.428  29.590  29.838  1.00  0.00    -0.248 NA
ATOM     54  C   UNL A   1      40.645  31.071  30.130  1.00  0.00     0.031 C 
ATOM     55  C   UNL A   1      46.642  30.510  30.878  1.00  0.00     0.029 A 
ATOM     56  C   UNL A   1      45.317  30.247  30.567  1.00  0.00     0.049 A 
ATOM     57  H   UNL A   1      44.454  28.476  29.810  1.00  0.00     0.167 HD
ATOM     58  C   UNL A   1      42.908  30.787  30.354  1.00  0.00     0.074 A 
ATOM     59  C   UNL A   1      41.772  31.675  30.480  1.00  0.00     0.031 C 
ATOM     60  C   UNL A   1      44.179  31.120  30.690  1.00  0.00     0.031 A 
BRANCH  47  61
ATOM     61  C   UNL A   1      48.284  26.588  29.802  1.00  0.00    -0.014 A 
ATOM     62  C   UNL A   1      49.198  26.797  28.755  1.00  0.00     0.009 A 
ATOM     63  C   UNL A   1      48.734  25.967  30.977  1.00  0.00     0.009 A 
ATOM     64  C   UNL A   1      50.519  26.362  28.869  1.00  0.00     0.001 A 
ATOM     65  C   UNL A   1      50.065  25.560  31.101  1.00  0.00     0.001 A 
ATOM     66  C   UNL A   1      50.953  25.749  30.044  1.00  0.00     0.000 A 
ENDBRANCH  47  61
BRANCH  48  67
ATOM     67  C   UNL A   1      38.686  29.205  29.025  1.00  0.00    -0.014 A 
ATOM     68  C   UNL A   1      38.187  29.725  27.821  1.00  0.00     0.009 A 
ATOM     69  C   UNL A   1      37.817  29.078  30.120  1.00  0.00     0.009 A 
ATOM     70  C   UNL A   1      36.854  30.130  27.722  1.00  0.00     0.001 A 
ATOM     71  C   UNL A   1      36.477  29.455  30.009  1.00  0.00     0.001 A 
ATOM     72  C   UNL A   1      35.999  29.989  28.814  1.00  0.00     0.000 A 
ENDBRANCH  48  67
BRANCH  60  73
ATOM     73  C   UNL A   1      44.415  32.519  31.189  1.00  0.00    -0.014 A 
ATOM     74  C   UNL A   1      44.377  32.825  32.559  1.00  0.00     0.009 A 
ATOM     75  C   UNL A   1      44.722  33.538  30.274  1.00  0.00     0.009 A 
ATOM     76  C   UNL A   1      44.607  34.131  32.997  1.00  0.00     0.001 A 
ATOM     77  C   UNL A   1      44.984  34.835  30.718  1.00  0.00     0.001 A 
ATOM     78  C   UNL A   1      44.916  35.133  32.078  1.00  0.00     0.000 A 
ENDBRANCH  60  73
ENDBRANCH  34  35
ENDBRANCH  26  29
ENDBRANCH  24  25
ENDBRANCH  23  24
ENDBRANCH   1  23
TORSDOF 14
ENDMDL
MODEL 3
REMARK VINA RESULT:     -11.1      2.718      8.054
REMARK SMILES C[C@@H](C(=O)NCCCNC(=O)c1ccc(-c2c3nc(c(-c4ccccc4)c4ccc([nH]4)c(-c4ccccc4)c4nc(c(-c5ccccc5)c5ccc2[nH]5)C=C4)C=C3)cc1)c1ccc(C[C@H]2CCC[C@@H]2O)cc1F
REMARK SMILES IDX 6 1 5 2 3 3 4 4 2 6 1 7 60 8 61 9 72 10 62 11 71 12 73 13
REMARK SMILES IDX 63 14 64 15 65 16 66 17 69 18 67 19 68 20 70 21 7 23 8 24
REMARK SMILES IDX 9 25 10 26 11 28 12 29 13 30 59 31 14 32 58 33 15 34 16 35
REMARK SMILES IDX 17 36 52 37 18 38 57 39 51 40 53 41 19 42 56 43 50 44 49 45
REMARK SMILES IDX 20 47 42 48 27 49 41 50 28 51 31 52 40 53 54 54 29 55 30 56
REMARK SMILES IDX 39 58 55 59 32 60 21 61 22 62 26 63 23 64 25 65 24 66 43 67
REMARK SMILES IDX 44 68 48 69 45 70 47 71 46 72 33 73 34 74 38 75 35 76 37 77
REMARK SMILES IDX 36 78
REMARK H PARENT 5 5 70 22 9 27 53 46 31 57
REMARK Flexibility Score: inf
ROOT
ATOM      1  C   UNL A   1      36.485  20.431  25.156  1.00  0.00     0.117 C 
ENDROOT
BRANCH   1   2
ATOM      2  N   UNL A   1      36.650  21.705  25.823  1.00  0.00    -0.356 N 
ATOM      3  C   UNL A   1      36.146  22.940  25.542  1.00  0.00     0.227 C 
ATOM      4  O   UNL A   1      36.649  23.859  26.190  1.00  0.00    -0.274 OA
ATOM      5  H   UNL A   1      37.229  21.675  26.619  1.00  0.00     0.163 HD
BRANCH   3   6
ATOM      6  C   UNL A   1      35.020  23.107  24.504  1.00  0.00     0.108 C 
ATOM      7  C   UNL A   1      35.568  23.267  23.086  1.00  0.00     0.023 C 
BRANCH   6   8
ATOM      8  C   UNL A   1      34.014  24.228  24.760  1.00  0.00    -0.000 A 
ATOM      9  C   UNL A   1      33.976  25.434  24.049  1.00  0.00     0.008 A 
ATOM     10  C   UNL A   1      33.010  24.022  25.718  1.00  0.00     0.127 A 
ATOM     11  C   UNL A   1      33.028  26.416  24.341  1.00  0.00     0.004 A 
ATOM     12  C   UNL A   1      32.051  24.992  26.008  1.00  0.00     0.043 A 
ATOM     13  F   UNL A   1      32.956  22.857  26.382  1.00  0.00    -0.207 F 
ATOM     14  C   UNL A   1      32.081  26.223  25.351  1.00  0.00    -0.045 A 
BRANCH  14  15
ATOM     15  C   UNL A   1      31.153  27.343  25.747  1.00  0.00     0.041 C 
BRANCH  15  16
ATOM     16  C   UNL A   1      31.828  28.525  26.466  1.00  0.00     0.022 C 
ATOM     17  C   UNL A   1      33.047  28.174  27.335  1.00  0.00     0.007 C 
ATOM     18  C   UNL A   1      32.325  29.657  25.562  1.00  0.00     0.117 C 
ATOM     19  C   UNL A   1      34.014  29.355  27.204  1.00  0.00     0.003 C 
ATOM     20  C   UNL A   1      33.235  30.448  26.489  1.00  0.00     0.032 C 
BRANCH  18  21
ATOM     21  O   UNL A   1      31.250  30.438  25.079  1.00  0.00    -0.393 OA
ATOM     22  H   UNL A   1      31.564  31.010  24.360  1.00  0.00     0.210 HD
ENDBRANCH  18  21
ENDBRANCH  15  16
ENDBRANCH  14  15
ENDBRANCH   6   8
ENDBRANCH   3   6
ENDBRANCH   1   2
BRANCH   1  23
ATOM     23  C   UNL A   1      37.838  19.801  24.823  1.00  0.00     0.042 C 
BRANCH  23  24
ATOM     24  C   UNL A   1      38.970  20.196  25.766  1.00  0.00     0.118 C 
BRANCH  24  25
ATOM     25  N   UNL A   1      39.997  19.172  25.875  1.00  0.00    -0.352 N 
ATOM     26  C   UNL A   1      41.340  19.302  26.115  1.00  0.00     0.251 C 
ATOM     27  H   UNL A   1      39.680  18.247  25.759  1.00  0.00     0.163 HD
ATOM     28  O   UNL A   1      42.081  18.328  25.982  1.00  0.00    -0.269 OA
BRANCH  26  29
ATOM     29  C   UNL A   1      41.911  20.608  26.508  1.00  0.00     0.039 A 
ATOM     30  C   UNL A   1      42.338  21.484  25.507  1.00  0.00     0.014 A 
ATOM     31  C   UNL A   1      42.046  20.965  27.853  1.00  0.00     0.014 A 
ATOM     32  C   UNL A   1      42.840  22.741  25.851  1.00  0.00     0.010 A 
ATOM     33  C   UNL A   1      42.471  22.248  28.191  1.00  0.00     0.010 A 
ATOM     34  C   UNL A   1      42.875  23.148  27.195  1.00  0.00    -0.014 A 
BRANCH  34  35
ATOM     35  C   UNL A   1      43.327  24.512  27.573  1.00  0.00     0.031 A 
ATOM     36  C   UNL A   1      42.327  25.564  27.968  1.00  0.00     0.074 A 
ATOM     37  C   UNL A   1      44.638  24.820  27.512  1.00  0.00     0.049 A 
ATOM     38  N   UNL A   1      42.529  26.819  28.281  1.00  0.00    -0.248 NA
ATOM     39  C   UNL A   1      40.912  25.159  27.993  1.00  0.00     0.031 C 
ATOM     40  C   UNL A   1      45.708  23.900  27.118  1.00  0.00     0.029 A 
ATOM     41  N   UNL A   1      45.293  25.996  27.781  1.00  0.00    -0.354 N 
ATOM     42  C   UNL A   1      41.272  27.353  28.533  1.00  0.00     0.074 A 
ATOM     43  C   UNL A   1      40.308  26.304  28.280  1.00  0.00     0.031 C 
ATOM     44  C   UNL A   1      46.886  24.536  27.206  1.00  0.00     0.029 A 
ATOM     45  C   UNL A   1      46.654  25.918  27.613  1.00  0.00     0.049 A 
ATOM     46  H   UNL A   1      44.831  26.817  28.068  1.00  0.00     0.167 HD
ATOM     47  C   UNL A   1      40.947  28.598  28.955  1.00  0.00     0.031 A 
ATOM     48  C   UNL A   1      47.609  26.855  27.763  1.00  0.00     0.031 A 
ATOM     49  C   UNL A   1      41.903  29.644  29.204  1.00  0.00     0.049 A 
ATOM     50  C   UNL A   1      47.219  28.241  28.191  1.00  0.00     0.074 A 
ATOM     51  C   UNL A   1      41.674  30.929  29.668  1.00  0.00     0.029 A 
ATOM     52  N   UNL A   1      43.269  29.530  29.005  1.00  0.00    -0.354 N 
ATOM     53  N   UNL A   1      46.030  28.715  28.475  1.00  0.00    -0.248 NA
ATOM     54  C   UNL A   1      48.306  29.220  28.330  1.00  0.00     0.031 C 
ATOM     55  C   UNL A   1      42.896  31.608  29.696  1.00  0.00     0.029 A 
ATOM     56  C   UNL A   1      43.894  30.727  29.313  1.00  0.00     0.049 A 
ATOM     57  H   UNL A   1      43.728  28.717  28.690  1.00  0.00     0.167 HD
ATOM     58  C   UNL A   1      46.229  30.036  28.854  1.00  0.00     0.074 A 
ATOM     59  C   UNL A   1      47.654  30.282  28.780  1.00  0.00     0.031 C 
ATOM     60  C   UNL A   1      45.313  30.960  29.234  1.00  0.00     0.031 A 
BRANCH  47  61
ATOM     61  C   UNL A   1      39.488  28.898  29.170  1.00  0.00    -0.014 A 
ATOM     62  C   UNL A   1      38.855  28.600  30.389  1.00  0.00     0.009 A 
ATOM     63  C   UNL A   1      38.743  29.520  28.156  1.00  0.00     0.009 A 
ATOM     64  C   UNL A   1      37.501  28.884  30.573  1.00  0.00     0.001 A 
ATOM     65  C   UNL A   1      37.396  29.832  28.354  1.00  0.00     0.001 A 
ATOM     66  C   UNL A   1      36.774  29.504  29.557  1.00  0.00     0.000 A 
ENDBRANCH  47  61
BRANCH  48  67
ATOM     67  C   UNL A   1      49.036  26.508  27.523  1.00  0.00    -0.014 A 
ATOM     68  C   UNL A   1      49.599  26.656  26.246  1.00  0.00     0.009 A 
ATOM     69  C   UNL A   1      49.840  26.022  28.565  1.00  0.00     0.009 A 
ATOM     70  C   UNL A   1      50.930  26.303  26.012  1.00  0.00     0.001 A 
ATOM     71  C   UNL A   1      51.179  25.698  28.336  1.00  0.00     0.001 A 
ATOM     72  C   UNL A   1      51.719  25.829  27.058  1.00  0.00     0.000 A 
ENDBRANCH  48  67
BRANCH  60  73
ATOM     73  C   UNL A   1      45.827  32.315  29.637  1.00  0.00    -0.014 A 
ATOM     74  C   UNL A   1      45.783  33.408  28.757  1.00  0.00     0.009 A 
ATOM     75  C   UNL A   1      46.325  32.507  30.935  1.00  0.00     0.009 A 
ATOM     76  C   UNL A   1      46.261  34.657  29.159  1.00  0.00     0.001 A 
ATOM     77  C   UNL A   1      46.771  33.765  31.345  1.00  0.00     0.001 A 
ATOM     78  C   UNL A   1      46.748  34.836  30.453  1.00  0.00     0.000 A 
ENDBRANCH  60  73
ENDBRANCH  34  35
ENDBRANCH  26  29
ENDBRANCH  24  25
ENDBRANCH  23  24
ENDBRANCH   1  23
TORSDOF 14
ENDMDL
