MODEL 1
REMARK VINA RESULT:     -13.7      0.000      0.000
REMARK SMILES Cc1cccc(C(=O)Nc2cc(C(=O)NCCCNC(=O)c3ccc(-c4c5nc(c(-c6ccccc6)c6ccc([nH]6)c(-c6ccccc6)c6nc(c(-c7ccccc7)c7ccc4[nH]7)C=C6)C=C5)cc3)ccc2N2CC[NH+](CC(=O)NC(C)(C)C)CC2)c1
REMARK SMILES IDX 16 1 15 2 13 3 14 4 12 6 10 7 11 8 72 9 71 10 70 11 9 12
REMARK SMILES IDX 7 13 8 14 6 16 1 17 2 18 3 19 87 20 4 21 5 22 73 23 74 24
REMARK SMILES IDX 86 25 75 26 85 27 76 28 77 30 78 31 79 32 80 33 81 35 82 36
REMARK SMILES IDX 83 37 84 38 17 39 18 40 19 41 20 42 21 44 22 45 23 46 69 47
REMARK SMILES IDX 24 48 68 49 25 50 26 51 27 52 62 53 28 54 67 55 61 56 63 57
REMARK SMILES IDX 29 58 66 59 60 60 59 61 30 63 52 64 37 65 51 66 38 67 41 68
REMARK SMILES IDX 50 69 64 70 39 71 40 72 49 74 65 75 42 76 31 77 32 78 36 79
REMARK SMILES IDX 33 80 35 81 34 82 53 83 54 84 58 85 55 86 57 87 56 88 43 89
REMARK SMILES IDX 44 90 48 91 45 92 47 93 46 94
REMARK H PARENT 15 5 9 15 76 29 80 34 19 43 63 62 41 73
REMARK Flexibility Score: inf
ROOT
ATOM      1  C   UNL A   1      39.514  21.581  26.191  1.00  0.00     0.118 C 
ENDROOT
BRANCH   1   2
ATOM      2  N   UNL A   1      38.782  20.390  25.750  1.00  0.00    -0.352 N 
ATOM      3  C   UNL A   1      37.636  20.168  25.008  1.00  0.00     0.251 C 
ATOM      4  O   UNL A   1      37.418  19.010  24.644  1.00  0.00    -0.269 OA
ATOM      5  H   UNL A   1      39.205  19.553  26.052  1.00  0.00     0.163 HD
BRANCH   3   6
ATOM      6  C   UNL A   1      36.643  21.217  24.627  1.00  0.00     0.042 A 
ATOM      7  C   UNL A   1      34.397  22.143  24.679  1.00  0.00     0.065 A 
ATOM      8  C   UNL A   1      35.318  21.158  24.999  1.00  0.00     0.042 A 
ATOM      9  C   UNL A   1      34.753  23.252  23.879  1.00  0.00     0.061 A 
ATOM     10  C   UNL A   1      36.092  23.315  23.473  1.00  0.00     0.029 A 
ATOM     11  C   UNL A   1      37.027  22.325  23.859  1.00  0.00     0.016 A 
BRANCH   7  12
ATOM     12  N   UNL A   1      33.085  22.013  25.173  1.00  0.00    -0.320 N 
ATOM     13  C   UNL A   1      32.192  20.956  25.104  1.00  0.00     0.255 C 
ATOM     14  O   UNL A   1      31.096  21.087  25.654  1.00  0.00    -0.269 OA
ATOM     15  H   UNL A   1      32.743  22.806  25.646  1.00  0.00     0.170 HD
BRANCH  13  16
ATOM     16  C   UNL A   1      32.499  19.640  24.454  1.00  0.00     0.040 A 
ATOM     17  C   UNL A   1      34.438  16.406  25.010  1.00  0.00     0.044 C 
ATOM     18  C   UNL A   1      33.540  17.432  24.376  1.00  0.00    -0.050 A 
ATOM     19  C   UNL A   1      33.239  17.343  23.014  1.00  0.00     0.003 A 
ATOM     20  C   UNL A   1      33.089  18.545  25.105  1.00  0.00     0.017 A 
ATOM     21  C   UNL A   1      32.535  18.366  22.382  1.00  0.00     0.001 A 
ATOM     22  C   UNL A   1      32.184  19.515  23.094  1.00  0.00     0.014 A 
ENDBRANCH  13  16
ENDBRANCH   7  12
BRANCH   9  23
ATOM     23  N   UNL A   1      33.834  24.259  23.622  1.00  0.00    -0.359 N 
ATOM     24  C   UNL A   1      33.272  24.593  22.299  1.00  0.00     0.178 C 
ATOM     25  C   UNL A   1      33.918  25.444  24.473  1.00  0.00     0.178 C 
ATOM     26  C   UNL A   1      31.952  25.440  22.447  1.00  0.00     0.284 C 
ATOM     27  C   UNL A   1      32.488  25.923  24.760  1.00  0.00     0.284 C 
ATOM     28  N   UNL A   1      31.815  26.415  23.560  1.00  0.00    -0.324 N 
ATOM     29  H   UNL A   1      30.811  26.461  23.730  1.00  0.00     0.348 HD
BRANCH  28  30
ATOM     30  C   UNL A   1      32.117  27.829  23.263  1.00  0.00     0.363 C 
BRANCH  30  31
ATOM     31  C   UNL A   1      31.150  28.853  23.846  1.00  0.00     0.275 C 
ATOM     32  O   UNL A   1      30.170  29.214  23.180  1.00  0.00    -0.268 OA
ATOM     33  N   UNL A   1      31.282  29.434  25.072  1.00  0.00    -0.347 N 
ATOM     34  H   UNL A   1      30.477  29.960  25.282  1.00  0.00     0.164 HD
BRANCH  33  35
ATOM     35  C   UNL A   1      32.259  29.527  26.196  1.00  0.00     0.032 C 
ATOM     36  C   UNL A   1      32.228  30.915  26.866  1.00  0.00     0.034 C 
ATOM     37  C   UNL A   1      31.774  28.529  27.270  1.00  0.00     0.034 C 
ATOM     38  C   UNL A   1      33.699  29.156  25.836  1.00  0.00     0.034 C 
ENDBRANCH  33  35
ENDBRANCH  30  31
ENDBRANCH  28  30
ENDBRANCH   9  23
ENDBRANCH   3   6
ENDBRANCH   1   2
BRANCH   1  39
ATOM     39  C   UNL A   1      40.649  21.301  27.186  1.00  0.00     0.042 C 
BRANCH  39  40
ATOM     40  C   UNL A   1      42.019  21.698  26.693  1.00  0.00     0.118 C 
BRANCH  40  41
ATOM     41  N   UNL A   1      42.625  20.771  25.736  1.00  0.00    -0.352 N 
ATOM     42  C   UNL A   1      43.792  20.972  25.002  1.00  0.00     0.251 C 
ATOM     43  H   UNL A   1      42.158  19.915  25.597  1.00  0.00     0.163 HD
ATOM     44  O   UNL A   1      44.231  20.141  24.245  1.00  0.00    -0.269 OA
BRANCH  42  45
ATOM     45  C   UNL A   1      44.545  22.216  25.303  1.00  0.00     0.039 A 
ATOM     46  C   UNL A   1      45.291  22.210  26.483  1.00  0.00     0.014 A 
ATOM     47  C   UNL A   1      44.124  23.408  24.715  1.00  0.00     0.014 A 
ATOM     48  C   UNL A   1      45.358  23.379  27.231  1.00  0.00     0.010 A 
ATOM     49  C   UNL A   1      44.093  24.537  25.512  1.00  0.00     0.010 A 
ATOM     50  C   UNL A   1      44.637  24.495  26.802  1.00  0.00    -0.014 A 
BRANCH  50  51
ATOM     51  C   UNL A   1      44.355  25.627  27.680  1.00  0.00     0.031 A 
ATOM     52  C   UNL A   1      43.011  26.236  27.635  1.00  0.00     0.074 A 
ATOM     53  C   UNL A   1      45.300  26.150  28.496  1.00  0.00     0.049 A 
ATOM     54  N   UNL A   1      42.768  27.488  27.838  1.00  0.00    -0.248 NA
ATOM     55  C   UNL A   1      41.824  25.465  27.281  1.00  0.00     0.031 C 
ATOM     56  C   UNL A   1      45.102  27.191  29.506  1.00  0.00     0.029 A 
ATOM     57  N   UNL A   1      46.690  26.025  28.422  1.00  0.00    -0.354 N 
ATOM     58  C   UNL A   1      41.402  27.621  27.948  1.00  0.00     0.074 A 
ATOM     59  C   UNL A   1      40.860  26.360  27.501  1.00  0.00     0.031 C 
ATOM     60  C   UNL A   1      46.269  27.826  29.702  1.00  0.00     0.029 A 
ATOM     61  C   UNL A   1      47.216  27.290  28.741  1.00  0.00     0.049 A 
ATOM     62  H   UNL A   1      47.199  25.214  28.194  1.00  0.00     0.167 HD
ATOM     63  C   UNL A   1      40.874  28.723  28.549  1.00  0.00     0.031 A 
ATOM     64  C   UNL A   1      47.989  28.030  27.892  1.00  0.00     0.031 A 
ATOM     65  C   UNL A   1      41.903  29.698  28.904  1.00  0.00     0.049 A 
ATOM     66  C   UNL A   1      47.406  29.400  27.594  1.00  0.00     0.074 A 
ATOM     67  C   UNL A   1      42.550  29.999  30.092  1.00  0.00     0.029 A 
ATOM     68  N   UNL A   1      42.628  30.319  27.894  1.00  0.00    -0.354 N 
ATOM     69  N   UNL A   1      46.179  29.742  27.873  1.00  0.00    -0.248 NA
ATOM     70  C   UNL A   1      48.127  30.460  26.890  1.00  0.00     0.031 C 
ATOM     71  C   UNL A   1      43.719  30.740  29.778  1.00  0.00     0.029 A 
ATOM     72  C   UNL A   1      43.764  30.913  28.407  1.00  0.00     0.049 A 
ATOM     73  H   UNL A   1      42.368  30.331  26.944  1.00  0.00     0.167 HD
ATOM     74  C   UNL A   1      45.931  31.004  27.401  1.00  0.00     0.074 A 
ATOM     75  C   UNL A   1      47.188  31.420  26.807  1.00  0.00     0.031 C 
ATOM     76  C   UNL A   1      44.703  31.590  27.521  1.00  0.00     0.031 A 
BRANCH  63  77
ATOM     77  C   UNL A   1      39.463  28.749  29.089  1.00  0.00    -0.014 A 
ATOM     78  C   UNL A   1      38.425  29.280  28.302  1.00  0.00     0.009 A 
ATOM     79  C   UNL A   1      39.102  28.335  30.382  1.00  0.00     0.009 A 
ATOM     80  C   UNL A   1      37.138  29.492  28.815  1.00  0.00     0.001 A 
ATOM     81  C   UNL A   1      37.832  28.587  30.919  1.00  0.00     0.001 A 
ATOM     82  C   UNL A   1      36.852  29.180  30.137  1.00  0.00     0.000 A 
ENDBRANCH  63  77
BRANCH  64  83
ATOM     83  C   UNL A   1      48.773  27.215  26.926  1.00  0.00    -0.014 A 
ATOM     84  C   UNL A   1      48.156  26.867  25.707  1.00  0.00     0.009 A 
ATOM     85  C   UNL A   1      50.170  27.148  27.016  1.00  0.00     0.009 A 
ATOM     86  C   UNL A   1      48.923  26.607  24.568  1.00  0.00     0.001 A 
ATOM     87  C   UNL A   1      50.932  26.867  25.875  1.00  0.00     0.001 A 
ATOM     88  C   UNL A   1      50.312  26.645  24.646  1.00  0.00     0.000 A 
ENDBRANCH  64  83
BRANCH  76  89
ATOM     89  C   UNL A   1      44.267  32.883  26.875  1.00  0.00    -0.014 A 
ATOM     90  C   UNL A   1      44.153  33.077  25.492  1.00  0.00     0.009 A 
ATOM     91  C   UNL A   1      43.818  33.938  27.702  1.00  0.00     0.009 A 
ATOM     92  C   UNL A   1      43.662  34.280  24.963  1.00  0.00     0.001 A 
ATOM     93  C   UNL A   1      43.287  35.120  27.180  1.00  0.00     0.001 A 
ATOM     94  C   UNL A   1      43.223  35.297  25.806  1.00  0.00     0.000 A 
ENDBRANCH  76  89
ENDBRANCH  50  51
ENDBRANCH  42  45
ENDBRANCH  40  41
ENDBRANCH  39  40
ENDBRANCH   1  39
TORSDOF 16
ENDMDL
MODEL 2
REMARK VINA RESULT:     -13.5      2.751      4.345
REMARK SMILES Cc1cccc(C(=O)Nc2cc(C(=O)NCCCNC(=O)c3ccc(-c4c5nc(c(-c6ccccc6)c6ccc([nH]6)c(-c6ccccc6)c6nc(c(-c7ccccc7)c7ccc4[nH]7)C=C6)C=C5)cc3)ccc2N2CC[NH+](CC(=O)NC(C)(C)C)CC2)c1
REMARK SMILES IDX 16 1 15 2 13 3 14 4 12 6 10 7 11 8 72 9 71 10 70 11 9 12
REMARK SMILES IDX 7 13 8 14 6 16 1 17 2 18 3 19 87 20 4 21 5 22 73 23 74 24
REMARK SMILES IDX 86 25 75 26 85 27 76 28 77 30 78 31 79 32 80 33 81 35 82 36
REMARK SMILES IDX 83 37 84 38 17 39 18 40 19 41 20 42 21 44 22 45 23 46 69 47
REMARK SMILES IDX 24 48 68 49 25 50 26 51 27 52 62 53 28 54 67 55 61 56 63 57
REMARK SMILES IDX 29 58 66 59 60 60 59 61 30 63 52 64 37 65 51 66 38 67 41 68
REMARK SMILES IDX 50 69 64 70 39 71 40 72 49 74 65 75 42 76 31 77 32 78 36 79
REMARK SMILES IDX 33 80 35 81 34 82 53 83 54 84 58 85 55 86 57 87 56 88 43 89
REMARK SMILES IDX 44 90 48 91 45 92 47 93 46 94
REMARK H PARENT 15 5 9 15 76 29 80 34 19 43 63 62 41 73
REMARK Flexibility Score: inf
ROOT
ATOM      1  C   UNL A   1      39.439  21.825  26.263  1.00  0.00     0.118 C 
ENDROOT
BRANCH   1   2
ATOM      2  N   UNL A   1      38.760  20.616  25.785  1.00  0.00    -0.352 N 
ATOM      3  C   UNL A   1      37.642  20.366  25.012  1.00  0.00     0.251 C 
ATOM      4  O   UNL A   1      37.473  19.207  24.626  1.00  0.00    -0.269 OA
ATOM      5  H   UNL A   1      39.205  19.790  26.085  1.00  0.00     0.163 HD
BRANCH   3   6
ATOM      6  C   UNL A   1      36.622  21.386  24.622  1.00  0.00     0.042 A 
ATOM      7  C   UNL A   1      34.362  22.276  24.699  1.00  0.00     0.065 A 
ATOM      8  C   UNL A   1      35.307  21.316  25.028  1.00  0.00     0.042 A 
ATOM      9  C   UNL A   1      34.680  23.364  23.855  1.00  0.00     0.061 A 
ATOM     10  C   UNL A   1      36.008  23.436  23.415  1.00  0.00     0.029 A 
ATOM     11  C   UNL A   1      36.969  22.475  23.810  1.00  0.00     0.016 A 
BRANCH   7  12
ATOM     12  N   UNL A   1      33.064  22.140  25.227  1.00  0.00    -0.320 N 
ATOM     13  C   UNL A   1      32.171  21.082  25.174  1.00  0.00     0.255 C 
ATOM     14  O   UNL A   1      31.090  21.208  25.755  1.00  0.00    -0.269 OA
ATOM     15  H   UNL A   1      32.735  22.928  25.716  1.00  0.00     0.170 HD
BRANCH  13  16
ATOM     16  C   UNL A   1      32.461  19.772  24.504  1.00  0.00     0.040 A 
ATOM     17  C   UNL A   1      34.275  16.466  25.053  1.00  0.00     0.044 C 
ATOM     18  C   UNL A   1      33.434  17.534  24.411  1.00  0.00    -0.050 A 
ATOM     19  C   UNL A   1      33.183  17.487  23.037  1.00  0.00     0.003 A 
ATOM     20  C   UNL A   1      32.990  18.645  25.150  1.00  0.00     0.017 A 
ATOM     21  C   UNL A   1      32.535  18.547  22.405  1.00  0.00     0.001 A 
ATOM     22  C   UNL A   1      32.194  19.689  23.130  1.00  0.00     0.014 A 
ENDBRANCH  13  16
ENDBRANCH   7  12
BRANCH   9  23
ATOM     23  N   UNL A   1      33.738  24.347  23.589  1.00  0.00    -0.359 N 
ATOM     24  C   UNL A   1      33.192  24.677  22.258  1.00  0.00     0.178 C 
ATOM     25  C   UNL A   1      33.772  25.527  24.451  1.00  0.00     0.178 C 
ATOM     26  C   UNL A   1      31.846  25.486  22.387  1.00  0.00     0.284 C 
ATOM     27  C   UNL A   1      32.324  25.963  24.714  1.00  0.00     0.284 C 
ATOM     28  N   UNL A   1      31.660  26.446  23.505  1.00  0.00    -0.324 N 
ATOM     29  H   UNL A   1      30.652  26.462  23.656  1.00  0.00     0.348 HD
BRANCH  28  30
ATOM     30  C   UNL A   1      31.928  27.871  23.226  1.00  0.00     0.363 C 
BRANCH  30  31
ATOM     31  C   UNL A   1      30.968  28.866  23.866  1.00  0.00     0.275 C 
ATOM     32  O   UNL A   1      29.944  29.203  23.257  1.00  0.00    -0.268 OA
ATOM     33  N   UNL A   1      31.151  29.446  25.086  1.00  0.00    -0.347 N 
ATOM     34  H   UNL A   1      30.345  29.949  25.343  1.00  0.00     0.164 HD
BRANCH  33  35
ATOM     35  C   UNL A   1      32.186  29.561  26.156  1.00  0.00     0.032 C 
ATOM     36  C   UNL A   1      32.164  30.950  26.824  1.00  0.00     0.034 C 
ATOM     37  C   UNL A   1      31.779  28.556  27.256  1.00  0.00     0.034 C 
ATOM     38  C   UNL A   1      33.611  29.216  25.719  1.00  0.00     0.034 C 
ENDBRANCH  33  35
ENDBRANCH  30  31
ENDBRANCH  28  30
ENDBRANCH   9  23
ENDBRANCH   3   6
ENDBRANCH   1   2
BRANCH   1  39
ATOM     39  C   UNL A   1      40.784  21.571  26.956  1.00  0.00     0.042 C 
BRANCH  39  40
ATOM     40  C   UNL A   1      41.651  22.798  27.102  1.00  0.00     0.118 C 
BRANCH  40  41
ATOM     41  N   UNL A   1      41.419  23.841  26.102  1.00  0.00    -0.352 N 
ATOM     42  C   UNL A   1      40.993  25.147  26.338  1.00  0.00     0.251 C 
ATOM     43  H   UNL A   1      41.580  23.594  25.162  1.00  0.00     0.163 HD
ATOM     44  O   UNL A   1      40.844  25.950  25.451  1.00  0.00    -0.269 OA
BRANCH  42  45
ATOM     45  C   UNL A   1      40.860  25.540  27.765  1.00  0.00     0.039 A 
ATOM     46  C   UNL A   1      39.555  25.677  28.243  1.00  0.00     0.014 A 
ATOM     47  C   UNL A   1      41.931  26.185  28.380  1.00  0.00     0.014 A 
ATOM     48  C   UNL A   1      39.284  26.694  29.150  1.00  0.00     0.010 A 
ATOM     49  C   UNL A   1      41.645  27.267  29.192  1.00  0.00     0.010 A 
ATOM     50  C   UNL A   1      40.314  27.569  29.507  1.00  0.00    -0.014 A 
BRANCH  50  51
ATOM     51  C   UNL A   1      40.057  28.852  30.153  1.00  0.00     0.031 A 
ATOM     52  C   UNL A   1      39.072  29.766  29.539  1.00  0.00     0.074 A 
ATOM     53  C   UNL A   1      40.724  29.238  31.267  1.00  0.00     0.049 A 
ATOM     54  N   UNL A   1      39.143  31.054  29.581  1.00  0.00    -0.248 NA
ATOM     55  C   UNL A   1      37.945  29.273  28.755  1.00  0.00     0.031 C 
ATOM     56  C   UNL A   1      40.463  30.433  32.070  1.00  0.00     0.029 A 
ATOM     57  N   UNL A   1      41.934  28.758  31.774  1.00  0.00    -0.354 N 
ATOM     58  C   UNL A   1      37.943  31.540  29.116  1.00  0.00     0.074 A 
ATOM     59  C   UNL A   1      37.274  30.403  28.530  1.00  0.00     0.031 C 
ATOM     60  C   UNL A   1      41.594  30.777  32.706  1.00  0.00     0.029 A 
ATOM     61  C   UNL A   1      42.639  29.884  32.237  1.00  0.00     0.049 A 
ATOM     62  H   UNL A   1      42.233  27.821  31.803  1.00  0.00     0.167 HD
ATOM     63  C   UNL A   1      37.568  32.817  29.410  1.00  0.00     0.031 A 
ATOM     64  C   UNL A   1      43.857  30.272  31.756  1.00  0.00     0.031 A 
ATOM     65  C   UNL A   1      38.616  33.544  30.122  1.00  0.00     0.049 A 
ATOM     66  C   UNL A   1      43.857  31.684  31.198  1.00  0.00     0.074 A 
ATOM     67  C   UNL A   1      38.814  33.846  31.460  1.00  0.00     0.029 A 
ATOM     68  N   UNL A   1      39.820  33.805  29.478  1.00  0.00    -0.354 N 
ATOM     69  N   UNL A   1      42.773  32.361  30.937  1.00  0.00    -0.248 NA
ATOM     70  C   UNL A   1      45.067  32.412  30.817  1.00  0.00     0.031 C 
ATOM     71  C   UNL A   1      40.174  34.215  31.629  1.00  0.00     0.029 A 
ATOM     72  C   UNL A   1      40.791  34.166  30.392  1.00  0.00     0.049 A 
ATOM     73  H   UNL A   1      39.960  33.741  28.505  1.00  0.00     0.167 HD
ATOM     74  C   UNL A   1      43.102  33.560  30.362  1.00  0.00     0.074 A 
ATOM     75  C   UNL A   1      44.554  33.554  30.323  1.00  0.00     0.031 C 
ATOM     76  C   UNL A   1      42.150  34.446  29.947  1.00  0.00     0.031 A 
BRANCH  63  77
ATOM     77  C   UNL A   1      36.131  33.275  29.321  1.00  0.00    -0.014 A 
ATOM     78  C   UNL A   1      35.522  33.422  28.061  1.00  0.00     0.009 A 
ATOM     79  C   UNL A   1      35.348  33.645  30.428  1.00  0.00     0.009 A 
ATOM     80  C   UNL A   1      34.259  34.010  27.911  1.00  0.00     0.001 A 
ATOM     81  C   UNL A   1      34.106  34.279  30.284  1.00  0.00     0.001 A 
ATOM     82  C   UNL A   1      33.566  34.473  29.021  1.00  0.00     0.000 A 
ENDBRANCH  63  77
BRANCH  64  83
ATOM     83  C   UNL A   1      44.680  29.152  31.225  1.00  0.00    -0.014 A 
ATOM     84  C   UNL A   1      44.908  28.046  32.069  1.00  0.00     0.009 A 
ATOM     85  C   UNL A   1      44.869  28.996  29.846  1.00  0.00     0.009 A 
ATOM     86  C   UNL A   1      45.167  26.782  31.534  1.00  0.00     0.001 A 
ATOM     87  C   UNL A   1      45.149  27.730  29.317  1.00  0.00     0.001 A 
ATOM     88  C   UNL A   1      45.250  26.619  30.154  1.00  0.00     0.000 A 
ENDBRANCH  64  83
BRANCH  76  89
ATOM     89  C   UNL A   1      42.391  35.695  29.135  1.00  0.00    -0.014 A 
ATOM     90  C   UNL A   1      41.756  35.984  27.920  1.00  0.00     0.009 A 
ATOM     91  C   UNL A   1      43.207  36.713  29.680  1.00  0.00     0.009 A 
ATOM     92  C   UNL A   1      41.966  37.204  27.260  1.00  0.00     0.001 A 
ATOM     93  C   UNL A   1      43.384  37.946  29.048  1.00  0.00     0.001 A 
ATOM     94  C   UNL A   1      42.773  38.186  27.827  1.00  0.00     0.000 A 
ENDBRANCH  76  89
ENDBRANCH  50  51
ENDBRANCH  42  45
ENDBRANCH  40  41
ENDBRANCH  39  40
ENDBRANCH   1  39
TORSDOF 16
ENDMDL
MODEL 3
REMARK VINA RESULT:     -11.9      2.446      3.973
REMARK SMILES Cc1cccc(C(=O)Nc2cc(C(=O)NCCCNC(=O)c3ccc(-c4c5nc(c(-c6ccccc6)c6ccc([nH]6)c(-c6ccccc6)c6nc(c(-c7ccccc7)c7ccc4[nH]7)C=C6)C=C5)cc3)ccc2N2CC[NH+](CC(=O)NC(C)(C)C)CC2)c1
REMARK SMILES IDX 16 1 15 2 13 3 14 4 12 6 10 7 11 8 72 9 71 10 70 11 9 12
REMARK SMILES IDX 7 13 8 14 6 16 1 17 2 18 3 19 87 20 4 21 5 22 73 23 74 24
REMARK SMILES IDX 86 25 75 26 85 27 76 28 77 30 78 31 79 32 80 33 81 35 82 36
REMARK SMILES IDX 83 37 84 38 17 39 18 40 19 41 20 42 21 44 22 45 23 46 69 47
REMARK SMILES IDX 24 48 68 49 25 50 26 51 27 52 62 53 28 54 67 55 61 56 63 57
REMARK SMILES IDX 29 58 66 59 60 60 59 61 30 63 52 64 37 65 51 66 38 67 41 68
REMARK SMILES IDX 50 69 64 70 39 71 40 72 49 74 65 75 42 76 31 77 32 78 36 79
REMARK SMILES IDX 33 80 35 81 34 82 53 83 54 84 58 85 55 86 57 87 56 88 43 89
REMARK SMILES IDX 44 90 48 91 45 92 47 93 46 94
REMARK H PARENT 15 5 9 15 76 29 80 34 19 43 63 62 41 73
REMARK Flexibility Score: inf
ROOT
ATOM      1  C   UNL A   1      39.564  21.705  25.987  1.00  0.00     0.118 C 
ENDROOT
BRANCH   1   2
ATOM      2  N   UNL A   1      38.732  20.531  25.702  1.00  0.00    -0.352 N 
ATOM      3  C   UNL A   1      37.540  20.319  25.035  1.00  0.00     0.251 C 
ATOM      4  O   UNL A   1      37.225  19.150  24.804  1.00  0.00    -0.269 OA
ATOM      5  H   UNL A   1      39.111  19.701  26.073  1.00  0.00     0.163 HD
BRANCH   3   6
ATOM      6  C   UNL A   1      36.604  21.395  24.587  1.00  0.00     0.042 A 
ATOM      7  C   UNL A   1      34.422  22.465  24.608  1.00  0.00     0.065 A 
ATOM      8  C   UNL A   1      35.288  21.452  24.992  1.00  0.00     0.042 A 
ATOM      9  C   UNL A   1      34.824  23.476  23.707  1.00  0.00     0.061 A 
ATOM     10  C   UNL A   1      36.153  23.417  23.267  1.00  0.00     0.029 A 
ATOM     11  C   UNL A   1      37.035  22.406  23.717  1.00  0.00     0.016 A 
BRANCH   7  12
ATOM     12  N   UNL A   1      33.118  22.461  25.140  1.00  0.00    -0.320 N 
ATOM     13  C   UNL A   1      32.152  21.469  25.164  1.00  0.00     0.255 C 
ATOM     14  O   UNL A   1      31.084  21.715  25.729  1.00  0.00    -0.269 OA
ATOM     15  H   UNL A   1      32.847  23.306  25.566  1.00  0.00     0.170 HD
BRANCH  13  16
ATOM     16  C   UNL A   1      32.348  20.094  24.596  1.00  0.00     0.040 A 
ATOM     17  C   UNL A   1      33.774  16.670  25.471  1.00  0.00     0.044 C 
ATOM     18  C   UNL A   1      33.089  17.770  24.708  1.00  0.00    -0.050 A 
ATOM     19  C   UNL A   1      32.922  17.655  23.325  1.00  0.00     0.003 A 
ATOM     20  C   UNL A   1      32.717  18.967  25.345  1.00  0.00     0.017 A 
ATOM     21  C   UNL A   1      32.427  18.728  22.586  1.00  0.00     0.001 A 
ATOM     22  C   UNL A   1      32.160  19.945  23.215  1.00  0.00     0.014 A 
ENDBRANCH  13  16
ENDBRANCH   7  12
BRANCH   9  23
ATOM     23  N   UNL A   1      33.963  24.514  23.384  1.00  0.00    -0.359 N 
ATOM     24  C   UNL A   1      33.487  25.558  24.313  1.00  0.00     0.178 C 
ATOM     25  C   UNL A   1      32.963  24.229  22.356  1.00  0.00     0.178 C 
ATOM     26  C   UNL A   1      32.926  26.799  23.522  1.00  0.00     0.284 C 
ATOM     27  C   UNL A   1      32.803  25.486  21.490  1.00  0.00     0.284 C 
ATOM     28  N   UNL A   1      32.218  26.601  22.231  1.00  0.00    -0.324 N 
ATOM     29  H   UNL A   1      32.380  27.469  21.721  1.00  0.00     0.348 HD
BRANCH  28  30
ATOM     30  C   UNL A   1      30.743  26.565  22.266  1.00  0.00     0.363 C 
BRANCH  30  31
ATOM     31  C   UNL A   1      30.096  27.042  23.561  1.00  0.00     0.275 C 
ATOM     32  O   UNL A   1      30.009  26.264  24.521  1.00  0.00    -0.268 OA
ATOM     33  N   UNL A   1      29.577  28.287  23.757  1.00  0.00    -0.347 N 
ATOM     34  H   UNL A   1      29.333  28.404  24.703  1.00  0.00     0.164 HD
BRANCH  33  35
ATOM     35  C   UNL A   1      29.260  29.529  22.992  1.00  0.00     0.032 C 
ATOM     36  C   UNL A   1      29.438  30.793  23.856  1.00  0.00     0.034 C 
ATOM     37  C   UNL A   1      30.322  29.628  21.875  1.00  0.00     0.034 C 
ATOM     38  C   UNL A   1      27.883  29.546  22.325  1.00  0.00     0.034 C 
ENDBRANCH  33  35
ENDBRANCH  30  31
ENDBRANCH  28  30
ENDBRANCH   9  23
ENDBRANCH   3   6
ENDBRANCH   1   2
BRANCH   1  39
ATOM     39  C   UNL A   1      41.049  21.394  26.218  1.00  0.00     0.042 C 
BRANCH  39  40
ATOM     40  C   UNL A   1      41.875  22.584  26.641  1.00  0.00     0.118 C 
BRANCH  40  41
ATOM     41  N   UNL A   1      41.874  23.704  25.699  1.00  0.00    -0.352 N 
ATOM     42  C   UNL A   1      41.750  25.057  26.008  1.00  0.00     0.251 C 
ATOM     43  H   UNL A   1      41.970  23.478  24.745  1.00  0.00     0.163 HD
ATOM     44  O   UNL A   1      41.777  25.919  25.165  1.00  0.00    -0.269 OA
BRANCH  42  45
ATOM     45  C   UNL A   1      41.717  25.394  27.455  1.00  0.00     0.039 A 
ATOM     46  C   UNL A   1      40.450  25.467  28.038  1.00  0.00     0.014 A 
ATOM     47  C   UNL A   1      42.811  26.055  28.009  1.00  0.00     0.014 A 
ATOM     48  C   UNL A   1      40.218  26.440  29.002  1.00  0.00     0.010 A 
ATOM     49  C   UNL A   1      42.554  27.097  28.881  1.00  0.00     0.010 A 
ATOM     50  C   UNL A   1      41.243  27.338  29.311  1.00  0.00    -0.014 A 
BRANCH  50  51
ATOM     51  C   UNL A   1      40.995  28.588  30.023  1.00  0.00     0.031 A 
ATOM     52  C   UNL A   1      39.918  29.474  29.539  1.00  0.00     0.074 A 
ATOM     53  C   UNL A   1      41.748  28.968  31.082  1.00  0.00     0.049 A 
ATOM     54  N   UNL A   1      39.938  30.763  29.620  1.00  0.00    -0.248 NA
ATOM     55  C   UNL A   1      38.742  28.955  28.848  1.00  0.00     0.031 C 
ATOM     56  C   UNL A   1      41.516  30.125  31.948  1.00  0.00     0.029 A 
ATOM     57  N   UNL A   1      43.021  28.529  31.455  1.00  0.00    -0.354 N 
ATOM     58  C   UNL A   1      38.678  31.208  29.289  1.00  0.00     0.074 A 
ATOM     59  C   UNL A   1      38.005  30.060  28.727  1.00  0.00     0.031 C 
ATOM     60  C   UNL A   1      42.687  30.500  32.487  1.00  0.00     0.029 A 
ATOM     61  C   UNL A   1      43.720  29.671  31.889  1.00  0.00     0.049 A 
ATOM     62  H   UNL A   1      43.361  27.606  31.422  1.00  0.00     0.167 HD
ATOM     63  C   UNL A   1      38.280  32.456  29.661  1.00  0.00     0.031 A 
ATOM     64  C   UNL A   1      44.868  30.129  31.309  1.00  0.00     0.031 A 
ATOM     65  C   UNL A   1      39.360  33.208  30.297  1.00  0.00     0.049 A 
ATOM     66  C   UNL A   1      44.754  31.556  30.805  1.00  0.00     0.074 A 
ATOM     67  C   UNL A   1      39.672  33.476  31.620  1.00  0.00     0.029 A 
ATOM     68  N   UNL A   1      40.483  33.544  29.551  1.00  0.00    -0.354 N 
ATOM     69  N   UNL A   1      43.622  32.190  30.672  1.00  0.00    -0.248 NA
ATOM     70  C   UNL A   1      45.890  32.351  30.337  1.00  0.00     0.031 C 
ATOM     71  C   UNL A   1      41.025  33.902  31.672  1.00  0.00     0.029 A 
ATOM     72  C   UNL A   1      41.521  33.919  30.381  1.00  0.00     0.049 A 
ATOM     73  H   UNL A   1      40.532  33.517  28.568  1.00  0.00     0.167 HD
ATOM     74  C   UNL A   1      43.843  33.421  30.111  1.00  0.00     0.074 A 
ATOM     75  C   UNL A   1      45.283  33.483  29.935  1.00  0.00     0.031 C 
ATOM     76  C   UNL A   1      42.818  34.275  29.820  1.00  0.00     0.031 A 
BRANCH  63  77
ATOM     77  C   UNL A   1      36.823  32.851  29.726  1.00  0.00    -0.014 A 
ATOM     78  C   UNL A   1      36.348  33.901  28.919  1.00  0.00     0.009 A 
ATOM     79  C   UNL A   1      35.886  32.281  30.605  1.00  0.00     0.009 A 
ATOM     80  C   UNL A   1      35.057  34.425  29.065  1.00  0.00     0.001 A 
ATOM     81  C   UNL A   1      34.609  32.830  30.792  1.00  0.00     0.001 A 
ATOM     82  C   UNL A   1      34.199  33.913  30.029  1.00  0.00     0.000 A 
ENDBRANCH  63  77
BRANCH  64  83
ATOM     83  C   UNL A   1      45.683  29.065  30.663  1.00  0.00    -0.014 A 
ATOM     84  C   UNL A   1      45.682  29.000  29.255  1.00  0.00     0.009 A 
ATOM     85  C   UNL A   1      46.717  28.432  31.366  1.00  0.00     0.009 A 
ATOM     86  C   UNL A   1      46.766  28.450  28.566  1.00  0.00     0.001 A 
ATOM     87  C   UNL A   1      47.791  27.865  30.668  1.00  0.00     0.001 A 
ATOM     88  C   UNL A   1      47.838  27.916  29.275  1.00  0.00     0.000 A 
ENDBRANCH  64  83
BRANCH  76  89
ATOM     89  C   UNL A   1      42.927  35.559  29.034  1.00  0.00    -0.014 A 
ATOM     90  C   UNL A   1      43.049  36.830  29.609  1.00  0.00     0.009 A 
ATOM     91  C   UNL A   1      43.044  35.487  27.627  1.00  0.00     0.009 A 
ATOM     92  C   UNL A   1      43.229  37.975  28.817  1.00  0.00     0.001 A 
ATOM     93  C   UNL A   1      43.267  36.618  26.838  1.00  0.00     0.001 A 
ATOM     94  C   UNL A   1      43.345  37.867  27.434  1.00  0.00     0.000 A 
ENDBRANCH  76  89
ENDBRANCH  50  51
ENDBRANCH  42  45
ENDBRANCH  40  41
ENDBRANCH  39  40
ENDBRANCH   1  39
TORSDOF 16
ENDMDL
