MODEL 1
REMARK VINA RESULT:     -11.1      0.000      0.000
REMARK SMILES CC(C)[NH2+][C@]1(C(=O)NCCCNC(=O)c2ccc(-c3c4nc(c(-c5ccccc5)c5ccc([nH]5)c(-c5ccccc5)c5nc(c(-c6ccccc6)c6ccc3[nH]6)C=C5)C=C4)cc2)CCC[C@@H](Sc2nnnn2C)C1
REMARK SMILES IDX 10 1 9 2 8 3 6 4 7 5 5 7 63 8 74 9 64 10 66 11 65 12 4 13
REMARK SMILES IDX 2 16 1 17 3 18 67 19 68 20 69 21 72 22 70 23 71 24 73 25
REMARK SMILES IDX 11 26 12 27 13 28 14 30 15 31 16 32 62 33 17 34 61 35 18 36
REMARK SMILES IDX 19 37 20 38 55 39 21 40 60 41 54 42 56 43 22 44 59 45 53 46
REMARK SMILES IDX 52 47 23 49 45 50 30 51 44 52 31 53 34 54 43 55 57 56 32 57
REMARK SMILES IDX 33 58 42 60 58 61 35 62 24 63 25 64 29 65 26 66 28 67 27 68
REMARK SMILES IDX 46 69 47 70 51 71 48 72 50 73 49 74 36 75 37 76 41 77 38 78
REMARK SMILES IDX 40 79 39 80
REMARK H PARENT 8 6 4 14 4 15 12 29 56 48 34 59
REMARK Flexibility Score: inf
ROOT
ATOM      1  C   UNL A   1      34.291  28.160  26.081  1.00  0.00     0.042 C 
ENDROOT
BRANCH   1   2
ATOM      2  C   UNL A   1      33.633  27.062  25.260  1.00  0.00     0.118 C 
BRANCH   2   3
ATOM      3  N   UNL A   1      32.782  26.221  26.081  1.00  0.00    -0.351 N 
ATOM      4  C   UNL A   1      32.477  24.896  26.113  1.00  0.00     0.281 C 
ATOM      5  O   UNL A   1      31.712  24.587  27.038  1.00  0.00    -0.268 OA
ATOM      6  H   UNL A   1      32.314  26.730  26.781  1.00  0.00     0.163 HD
BRANCH   4   7
ATOM      7  C   UNL A   1      33.062  23.800  25.138  1.00  0.00     0.176 C 
ATOM      8  C   UNL A   1      34.617  23.958  25.287  1.00  0.00     0.079 C 
ATOM      9  C   UNL A   1      32.701  22.349  25.513  1.00  0.00     0.094 C 
ATOM     10  C   UNL A   1      35.462  22.853  24.655  1.00  0.00     0.008 C 
ATOM     11  C   UNL A   1      33.587  21.248  24.921  1.00  0.00     0.061 C 
ATOM     12  C   UNL A   1      35.066  21.483  25.192  1.00  0.00     0.015 C 
BRANCH   7  13
ATOM     13  N   UNL A   1      32.753  24.110  23.721  1.00  0.00    -0.332 N 
ATOM     14  H   UNL A   1      33.554  24.620  23.352  1.00  0.00     0.347 HD
ATOM     15  H   UNL A   1      32.548  23.191  23.326  1.00  0.00     0.347 HD
BRANCH  13  16
ATOM     16  C   UNL A   1      31.564  24.888  23.374  1.00  0.00     0.176 C 
ATOM     17  C   UNL A   1      31.867  25.620  22.060  1.00  0.00     0.075 C 
ATOM     18  C   UNL A   1      30.313  24.038  23.166  1.00  0.00     0.075 C 
ENDBRANCH  13  16
ENDBRANCH   7  13
BRANCH  11  19
ATOM     19  S   UNL A   1      32.956  19.601  25.425  1.00  0.00    -0.081 SA
BRANCH  19  20
ATOM     20  C   UNL A   1      33.030  18.639  23.998  1.00  0.00     0.209 A 
ATOM     21  N   UNL A   1      32.242  18.765  22.954  1.00  0.00    -0.102 NA
ATOM     22  N   UNL A   1      33.819  17.541  23.809  1.00  0.00    -0.224 N 
ATOM     23  N   UNL A   1      32.572  17.737  22.104  1.00  0.00    -0.023 NA
ATOM     24  N   UNL A   1      33.542  16.990  22.613  1.00  0.00    -0.045 NA
ATOM     25  C   UNL A   1      34.862  16.973  24.609  1.00  0.00     0.179 C 
ENDBRANCH  19  20
ENDBRANCH  11  19
ENDBRANCH   4   7
ENDBRANCH   2   3
ENDBRANCH   1   2
BRANCH   1  26
ATOM     26  C   UNL A   1      33.509  28.492  27.342  1.00  0.00     0.118 C 
BRANCH  26  27
ATOM     27  N   UNL A   1      33.541  29.915  27.644  1.00  0.00    -0.352 N 
ATOM     28  C   UNL A   1      34.501  30.708  28.227  1.00  0.00     0.251 C 
ATOM     29  H   UNL A   1      32.724  30.401  27.383  1.00  0.00     0.163 HD
ATOM     30  O   UNL A   1      34.189  31.839  28.592  1.00  0.00    -0.269 OA
BRANCH  28  31
ATOM     31  C   UNL A   1      35.887  30.228  28.448  1.00  0.00     0.039 A 
ATOM     32  C   UNL A   1      36.222  29.684  29.694  1.00  0.00     0.014 A 
ATOM     33  C   UNL A   1      36.881  30.368  27.482  1.00  0.00     0.014 A 
ATOM     34  C   UNL A   1      37.526  29.239  29.940  1.00  0.00     0.010 A 
ATOM     35  C   UNL A   1      38.140  29.811  27.679  1.00  0.00     0.010 A 
ATOM     36  C   UNL A   1      38.490  29.265  28.922  1.00  0.00    -0.014 A 
BRANCH  36  37
ATOM     37  C   UNL A   1      39.879  28.781  29.139  1.00  0.00     0.031 A 
ATOM     38  C   UNL A   1      40.912  29.695  29.752  1.00  0.00     0.074 A 
ATOM     39  C   UNL A   1      40.238  27.550  28.723  1.00  0.00     0.049 A 
ATOM     40  N   UNL A   1      42.194  29.494  29.930  1.00  0.00    -0.248 NA
ATOM     41  C   UNL A   1      40.451  31.023  30.189  1.00  0.00     0.031 C 
ATOM     42  C   UNL A   1      39.353  26.580  28.073  1.00  0.00     0.029 A 
ATOM     43  N   UNL A   1      41.448  26.905  28.782  1.00  0.00    -0.354 N 
ATOM     44  C   UNL A   1      42.692  30.680  30.458  1.00  0.00     0.074 A 
ATOM     45  C   UNL A   1      41.590  31.611  30.521  1.00  0.00     0.031 C 
ATOM     46  C   UNL A   1      40.041  25.452  27.827  1.00  0.00     0.029 A 
ATOM     47  C   UNL A   1      41.421  25.635  28.259  1.00  0.00     0.049 A 
ATOM     48  H   UNL A   1      42.258  27.315  29.162  1.00  0.00     0.167 HD
ATOM     49  C   UNL A   1      43.948  30.964  30.878  1.00  0.00     0.031 A 
ATOM     50  C   UNL A   1      42.401  24.719  28.137  1.00  0.00     0.031 A 
ATOM     51  C   UNL A   1      45.037  30.025  30.857  1.00  0.00     0.049 A 
ATOM     52  C   UNL A   1      43.782  25.049  28.631  1.00  0.00     0.074 A 
ATOM     53  C   UNL A   1      46.328  30.192  31.329  1.00  0.00     0.029 A 
ATOM     54  N   UNL A   1      44.959  28.741  30.345  1.00  0.00    -0.354 N 
ATOM     55  N   UNL A   1      44.219  26.154  29.186  1.00  0.00    -0.248 NA
ATOM     56  C   UNL A   1      44.801  23.999  28.491  1.00  0.00     0.031 C 
ATOM     57  C   UNL A   1      47.044  29.020  31.063  1.00  0.00     0.029 A 
ATOM     58  C   UNL A   1      46.183  28.107  30.473  1.00  0.00     0.049 A 
ATOM     59  H   UNL A   1      44.153  28.338  29.949  1.00  0.00     0.167 HD
ATOM     60  C   UNL A   1      45.555  25.923  29.484  1.00  0.00     0.074 A 
ATOM     61  C   UNL A   1      45.852  24.568  29.067  1.00  0.00     0.031 C 
ATOM     62  C   UNL A   1      46.458  26.758  30.054  1.00  0.00     0.031 A 
BRANCH  49  63
ATOM     63  C   UNL A   1      44.208  32.351  31.401  1.00  0.00    -0.014 A 
ATOM     64  C   UNL A   1      44.036  32.662  32.759  1.00  0.00     0.009 A 
ATOM     65  C   UNL A   1      44.653  33.355  30.527  1.00  0.00     0.009 A 
ATOM     66  C   UNL A   1      44.263  33.959  33.224  1.00  0.00     0.001 A 
ATOM     67  C   UNL A   1      44.911  34.643  30.999  1.00  0.00     0.001 A 
ATOM     68  C   UNL A   1      44.704  34.947  32.345  1.00  0.00     0.000 A 
ENDBRANCH  49  63
BRANCH  50  69
ATOM     69  C   UNL A   1      42.105  23.388  27.545  1.00  0.00    -0.014 A 
ATOM     70  C   UNL A   1      41.495  22.389  28.319  1.00  0.00     0.009 A 
ATOM     71  C   UNL A   1      42.431  23.109  26.209  1.00  0.00     0.009 A 
ATOM     72  C   UNL A   1      41.239  21.129  27.774  1.00  0.00     0.001 A 
ATOM     73  C   UNL A   1      42.148  21.857  25.659  1.00  0.00     0.001 A 
ATOM     74  C   UNL A   1      41.562  20.865  26.443  1.00  0.00     0.000 A 
ENDBRANCH  50  69
BRANCH  62  75
ATOM     75  C   UNL A   1      47.840  26.218  30.289  1.00  0.00    -0.014 A 
ATOM     76  C   UNL A   1      48.798  26.198  29.265  1.00  0.00     0.009 A 
ATOM     77  C   UNL A   1      48.197  25.762  31.567  1.00  0.00     0.009 A 
ATOM     78  C   UNL A   1      50.079  25.699  29.509  1.00  0.00     0.001 A 
ATOM     79  C   UNL A   1      49.486  25.292  31.816  1.00  0.00     0.001 A 
ATOM     80  C   UNL A   1      50.423  25.252  30.784  1.00  0.00     0.000 A 
ENDBRANCH  62  75
ENDBRANCH  36  37
ENDBRANCH  28  31
ENDBRANCH  26  27
ENDBRANCH   1  26
TORSDOF 14
ENDMDL
MODEL 2
REMARK VINA RESULT:     -10.9      1.660      2.199
REMARK SMILES CC(C)[NH2+][C@]1(C(=O)NCCCNC(=O)c2ccc(-c3c4nc(c(-c5ccccc5)c5ccc([nH]5)c(-c5ccccc5)c5nc(c(-c6ccccc6)c6ccc3[nH]6)C=C5)C=C4)cc2)CCC[C@@H](Sc2nnnn2C)C1
REMARK SMILES IDX 10 1 9 2 8 3 6 4 7 5 5 7 63 8 74 9 64 10 66 11 65 12 4 13
REMARK SMILES IDX 2 16 1 17 3 18 67 19 68 20 69 21 72 22 70 23 71 24 73 25
REMARK SMILES IDX 11 26 12 27 13 28 14 30 15 31 16 32 62 33 17 34 61 35 18 36
REMARK SMILES IDX 19 37 20 38 55 39 21 40 60 41 54 42 56 43 22 44 59 45 53 46
REMARK SMILES IDX 52 47 23 49 45 50 30 51 44 52 31 53 34 54 43 55 57 56 32 57
REMARK SMILES IDX 33 58 42 60 58 61 35 62 24 63 25 64 29 65 26 66 28 67 27 68
REMARK SMILES IDX 46 69 47 70 51 71 48 72 50 73 49 74 36 75 37 76 41 77 38 78
REMARK SMILES IDX 40 79 39 80
REMARK H PARENT 8 6 4 14 4 15 12 29 56 48 34 59
REMARK Flexibility Score: inf
ROOT
ATOM      1  C   UNL A   1      34.122  28.564  26.025  1.00  0.00     0.042 C 
ENDROOT
BRANCH   1   2
ATOM      2  C   UNL A   1      33.237  29.206  24.969  1.00  0.00     0.118 C 
BRANCH   2   3
ATOM      3  N   UNL A   1      33.753  28.979  23.632  1.00  0.00    -0.351 N 
ATOM      4  C   UNL A   1      33.666  27.973  22.721  1.00  0.00     0.281 C 
ATOM      5  O   UNL A   1      34.245  28.222  21.654  1.00  0.00    -0.268 OA
ATOM      6  H   UNL A   1      34.296  29.733  23.307  1.00  0.00     0.163 HD
BRANCH   4   7
ATOM      7  C   UNL A   1      32.863  26.628  22.920  1.00  0.00     0.176 C 
ATOM      8  C   UNL A   1      33.322  25.736  21.713  1.00  0.00     0.079 C 
ATOM      9  C   UNL A   1      33.197  25.867  24.219  1.00  0.00     0.094 C 
ATOM     10  C   UNL A   1      32.908  24.267  21.775  1.00  0.00     0.008 C 
ATOM     11  C   UNL A   1      32.829  24.380  24.254  1.00  0.00     0.061 C 
ATOM     12  C   UNL A   1      33.391  23.613  23.064  1.00  0.00     0.015 C 
BRANCH   7  13
ATOM     13  N   UNL A   1      31.405  26.834  22.746  1.00  0.00    -0.332 N 
ATOM     14  H   UNL A   1      31.293  27.534  22.014  1.00  0.00     0.347 HD
ATOM     15  H   UNL A   1      31.061  25.891  22.561  1.00  0.00     0.347 HD
BRANCH  13  16
ATOM     16  C   UNL A   1      30.577  27.269  23.871  1.00  0.00     0.176 C 
ATOM     17  C   UNL A   1      29.895  28.578  23.456  1.00  0.00     0.075 C 
ATOM     18  C   UNL A   1      29.489  26.269  24.256  1.00  0.00     0.075 C 
ENDBRANCH  13  16
ENDBRANCH   7  13
BRANCH  11  19
ATOM     19  S   UNL A   1      33.240  23.675  25.897  1.00  0.00    -0.081 SA
BRANCH  19  20
ATOM     20  C   UNL A   1      34.142  22.247  25.557  1.00  0.00     0.209 A 
ATOM     21  N   UNL A   1      35.453  22.168  25.521  1.00  0.00    -0.102 NA
ATOM     22  N   UNL A   1      33.629  21.049  25.154  1.00  0.00    -0.224 N 
ATOM     23  N   UNL A   1      35.743  20.890  25.107  1.00  0.00    -0.023 NA
ATOM     24  N   UNL A   1      34.635  20.195  24.890  1.00  0.00    -0.045 NA
ATOM     25  C   UNL A   1      32.278  20.585  25.040  1.00  0.00     0.179 C 
ENDBRANCH  19  20
ENDBRANCH  11  19
ENDBRANCH   4   7
ENDBRANCH   2   3
ENDBRANCH   1   2
BRANCH   1  26
ATOM     26  C   UNL A   1      33.592  28.773  27.434  1.00  0.00     0.118 C 
BRANCH  26  27
ATOM     27  N   UNL A   1      33.638  30.173  27.832  1.00  0.00    -0.352 N 
ATOM     28  C   UNL A   1      34.608  30.917  28.459  1.00  0.00     0.251 C 
ATOM     29  H   UNL A   1      32.824  30.682  27.609  1.00  0.00     0.163 HD
ATOM     30  O   UNL A   1      34.308  32.023  28.903  1.00  0.00    -0.269 OA
BRANCH  28  31
ATOM     31  C   UNL A   1      35.991  30.412  28.639  1.00  0.00     0.039 A 
ATOM     32  C   UNL A   1      36.355  29.864  29.875  1.00  0.00     0.014 A 
ATOM     33  C   UNL A   1      36.957  30.533  27.642  1.00  0.00     0.014 A 
ATOM     34  C   UNL A   1      37.657  29.394  30.081  1.00  0.00     0.010 A 
ATOM     35  C   UNL A   1      38.211  29.953  27.801  1.00  0.00     0.010 A 
ATOM     36  C   UNL A   1      38.590  29.402  29.033  1.00  0.00    -0.014 A 
BRANCH  36  37
ATOM     37  C   UNL A   1      39.976  28.893  29.207  1.00  0.00     0.031 A 
ATOM     38  C   UNL A   1      41.046  29.792  29.778  1.00  0.00     0.074 A 
ATOM     39  C   UNL A   1      40.297  27.652  28.791  1.00  0.00     0.049 A 
ATOM     40  N   UNL A   1      42.329  29.568  29.914  1.00  0.00    -0.248 NA
ATOM     41  C   UNL A   1      40.626  31.133  30.218  1.00  0.00     0.031 C 
ATOM     42  C   UNL A   1      39.372  26.694  28.181  1.00  0.00     0.029 A 
ATOM     43  N   UNL A   1      41.495  26.985  28.816  1.00  0.00    -0.354 N 
ATOM     44  C   UNL A   1      42.868  30.748  30.414  1.00  0.00     0.074 A 
ATOM     45  C   UNL A   1      41.786  31.702  30.506  1.00  0.00     0.031 C 
ATOM     46  C   UNL A   1      40.029  25.551  27.922  1.00  0.00     0.029 A 
ATOM     47  C   UNL A   1      41.427  25.710  28.306  1.00  0.00     0.049 A 
ATOM     48  H   UNL A   1      42.326  27.381  29.165  1.00  0.00     0.167 HD
ATOM     49  C   UNL A   1      44.142  31.012  30.789  1.00  0.00     0.031 A 
ATOM     50  C   UNL A   1      42.385  24.775  28.159  1.00  0.00     0.031 A 
ATOM     51  C   UNL A   1      45.212  30.052  30.740  1.00  0.00     0.049 A 
ATOM     52  C   UNL A   1      43.787  25.082  28.603  1.00  0.00     0.074 A 
ATOM     53  C   UNL A   1      46.521  30.198  31.167  1.00  0.00     0.029 A 
ATOM     54  N   UNL A   1      45.092  28.765  30.243  1.00  0.00    -0.354 N 
ATOM     55  N   UNL A   1      44.264  26.183  29.133  1.00  0.00    -0.248 NA
ATOM     56  C   UNL A   1      44.781  24.011  28.439  1.00  0.00     0.031 C 
ATOM     57  C   UNL A   1      47.205  29.009  30.888  1.00  0.00     0.029 A 
ATOM     58  C   UNL A   1      46.307  28.109  30.335  1.00  0.00     0.049 A 
ATOM     59  H   UNL A   1      44.265  28.374  29.878  1.00  0.00     0.167 HD
ATOM     60  C   UNL A   1      45.605  25.929  29.388  1.00  0.00     0.074 A 
ATOM     61  C   UNL A   1      45.861  24.565  28.973  1.00  0.00     0.031 C 
ATOM     62  C   UNL A   1      46.542  26.751  29.920  1.00  0.00     0.031 A 
BRANCH  49  63
ATOM     63  C   UNL A   1      44.446  32.398  31.290  1.00  0.00    -0.014 A 
ATOM     64  C   UNL A   1      44.290  32.734  32.644  1.00  0.00     0.009 A 
ATOM     65  C   UNL A   1      44.917  33.375  30.399  1.00  0.00     0.009 A 
ATOM     66  C   UNL A   1      44.559  34.030  33.089  1.00  0.00     0.001 A 
ATOM     67  C   UNL A   1      45.215  34.662  30.851  1.00  0.00     0.001 A 
ATOM     68  C   UNL A   1      45.024  34.991  32.193  1.00  0.00     0.000 A 
ENDBRANCH  49  63
BRANCH  50  69
ATOM     69  C   UNL A   1      42.044  23.445  27.590  1.00  0.00    -0.014 A 
ATOM     70  C   UNL A   1      41.495  22.444  28.407  1.00  0.00     0.009 A 
ATOM     71  C   UNL A   1      42.264  23.168  26.232  1.00  0.00     0.009 A 
ATOM     72  C   UNL A   1      41.198  21.185  27.881  1.00  0.00     0.001 A 
ATOM     73  C   UNL A   1      41.939  21.917  25.703  1.00  0.00     0.001 A 
ATOM     74  C   UNL A   1      41.416  20.924  26.529  1.00  0.00     0.000 A 
ENDBRANCH  50  69
BRANCH  62  75
ATOM     75  C   UNL A   1      47.921  26.187  30.113  1.00  0.00    -0.014 A 
ATOM     76  C   UNL A   1      48.840  26.130  29.055  1.00  0.00     0.009 A 
ATOM     77  C   UNL A   1      48.315  25.744  31.385  1.00  0.00     0.009 A 
ATOM     78  C   UNL A   1      50.118  25.609  29.261  1.00  0.00     0.001 A 
ATOM     79  C   UNL A   1      49.604  25.251  31.594  1.00  0.00     0.001 A 
ATOM     80  C   UNL A   1      50.500  25.175  30.530  1.00  0.00     0.000 A 
ENDBRANCH  62  75
ENDBRANCH  36  37
ENDBRANCH  28  31
ENDBRANCH  26  27
ENDBRANCH   1  26
TORSDOF 14
ENDMDL
MODEL 3
REMARK VINA RESULT:     -10.9      2.296      7.506
REMARK SMILES CC(C)[NH2+][C@]1(C(=O)NCCCNC(=O)c2ccc(-c3c4nc(c(-c5ccccc5)c5ccc([nH]5)c(-c5ccccc5)c5nc(c(-c6ccccc6)c6ccc3[nH]6)C=C5)C=C4)cc2)CCC[C@@H](Sc2nnnn2C)C1
REMARK SMILES IDX 10 1 9 2 8 3 6 4 7 5 5 7 63 8 74 9 64 10 66 11 65 12 4 13
REMARK SMILES IDX 2 16 1 17 3 18 67 19 68 20 69 21 72 22 70 23 71 24 73 25
REMARK SMILES IDX 11 26 12 27 13 28 14 30 15 31 16 32 62 33 17 34 61 35 18 36
REMARK SMILES IDX 19 37 20 38 55 39 21 40 60 41 54 42 56 43 22 44 59 45 53 46
REMARK SMILES IDX 52 47 23 49 45 50 30 51 44 52 31 53 34 54 43 55 57 56 32 57
REMARK SMILES IDX 33 58 42 60 58 61 35 62 24 63 25 64 29 65 26 66 28 67 27 68
REMARK SMILES IDX 46 69 47 70 51 71 48 72 50 73 49 74 36 75 37 76 41 77 38 78
REMARK SMILES IDX 40 79 39 80
REMARK H PARENT 8 6 4 14 4 15 12 29 56 48 34 59
REMARK Flexibility Score: inf
ROOT
ATOM      1  C   UNL A   1      37.075  19.801  24.881  1.00  0.00     0.042 C 
ENDROOT
BRANCH   1   2
ATOM      2  C   UNL A   1      35.870  20.726  24.805  1.00  0.00     0.118 C 
BRANCH   2   3
ATOM      3  N   UNL A   1      35.296  20.961  26.117  1.00  0.00    -0.351 N 
ATOM      4  C   UNL A   1      34.181  21.582  26.585  1.00  0.00     0.281 C 
ATOM      5  O   UNL A   1      34.054  21.507  27.816  1.00  0.00    -0.268 OA
ATOM      6  H   UNL A   1      35.845  20.580  26.840  1.00  0.00     0.163 HD
BRANCH   4   7
ATOM      7  C   UNL A   1      33.084  22.285  25.693  1.00  0.00     0.176 C 
ATOM      8  C   UNL A   1      32.133  22.969  26.738  1.00  0.00     0.079 C 
ATOM      9  C   UNL A   1      33.625  23.387  24.760  1.00  0.00     0.094 C 
ATOM     10  C   UNL A   1      31.110  23.949  26.166  1.00  0.00     0.008 C 
ATOM     11  C   UNL A   1      32.603  24.401  24.234  1.00  0.00     0.061 C 
ATOM     12  C   UNL A   1      31.792  25.042  25.352  1.00  0.00     0.015 C 
BRANCH   7  13
ATOM     13  N   UNL A   1      32.253  21.293  24.969  1.00  0.00    -0.332 N 
ATOM     14  H   UNL A   1      32.109  20.511  25.608  1.00  0.00     0.347 HD
ATOM     15  H   UNL A   1      31.436  21.838  24.692  1.00  0.00     0.347 HD
BRANCH  13  16
ATOM     16  C   UNL A   1      32.711  20.721  23.704  1.00  0.00     0.176 C 
ATOM     17  C   UNL A   1      32.588  19.197  23.820  1.00  0.00     0.075 C 
ATOM     18  C   UNL A   1      31.895  21.173  22.495  1.00  0.00     0.075 C 
ENDBRANCH  13  16
ENDBRANCH   7  13
BRANCH  11  19
ATOM     19  S   UNL A   1      33.425  25.581  23.094  1.00  0.00    -0.081 SA
BRANCH  19  20
ATOM     20  C   UNL A   1      32.250  26.804  22.796  1.00  0.00     0.209 A 
ATOM     21  N   UNL A   1      31.101  26.621  22.185  1.00  0.00    -0.102 NA
ATOM     22  N   UNL A   1      32.403  28.140  23.030  1.00  0.00    -0.224 N 
ATOM     23  N   UNL A   1      30.534  27.867  22.063  1.00  0.00    -0.023 NA
ATOM     24  N   UNL A   1      31.318  28.800  22.586  1.00  0.00    -0.045 NA
ATOM     25  C   UNL A   1      33.442  28.875  23.685  1.00  0.00     0.179 C 
ENDBRANCH  19  20
ENDBRANCH  11  19
ENDBRANCH   4   7
ENDBRANCH   2   3
ENDBRANCH   1   2
BRANCH   1  26
ATOM     26  C   UNL A   1      38.318  20.506  25.398  1.00  0.00     0.118 C 
BRANCH  26  27
ATOM     27  N   UNL A   1      39.429  19.584  25.587  1.00  0.00    -0.352 N 
ATOM     28  C   UNL A   1      40.726  19.782  25.995  1.00  0.00     0.251 C 
ATOM     29  H   UNL A   1      39.210  18.644  25.388  1.00  0.00     0.163 HD
ATOM     30  O   UNL A   1      41.538  18.873  25.839  1.00  0.00    -0.269 OA
BRANCH  28  31
ATOM     31  C   UNL A   1      41.176  21.066  26.587  1.00  0.00     0.039 A 
ATOM     32  C   UNL A   1      41.693  22.055  25.742  1.00  0.00     0.014 A 
ATOM     33  C   UNL A   1      41.168  21.287  27.963  1.00  0.00     0.014 A 
ATOM     34  C   UNL A   1      42.141  23.270  26.272  1.00  0.00     0.010 A 
ATOM     35  C   UNL A   1      41.493  22.538  28.477  1.00  0.00     0.010 A 
ATOM     36  C   UNL A   1      42.013  23.538  27.644  1.00  0.00    -0.014 A 
BRANCH  36  37
ATOM     37  C   UNL A   1      42.459  24.824  28.241  1.00  0.00     0.031 A 
ATOM     38  C   UNL A   1      41.459  25.925  28.498  1.00  0.00     0.074 A 
ATOM     39  C   UNL A   1      43.766  25.037  28.488  1.00  0.00     0.049 A 
ATOM     40  N   UNL A   1      41.664  27.149  28.916  1.00  0.00    -0.248 NA
ATOM     41  C   UNL A   1      40.046  25.624  28.211  1.00  0.00     0.031 C 
ATOM     42  C   UNL A   1      44.845  24.077  28.245  1.00  0.00     0.029 A 
ATOM     43  N   UNL A   1      44.411  26.136  28.997  1.00  0.00    -0.354 N 
ATOM     44  C   UNL A   1      40.419  27.768  28.902  1.00  0.00     0.074 A 
ATOM     45  C   UNL A   1      39.474  26.806  28.384  1.00  0.00     0.031 C 
ATOM     46  C   UNL A   1      46.011  24.616  28.638  1.00  0.00     0.029 A 
ATOM     47  C   UNL A   1      45.770  25.972  29.117  1.00  0.00     0.049 A 
ATOM     48  H   UNL A   1      43.944  26.965  29.251  1.00  0.00     0.167 HD
ATOM     49  C   UNL A   1      40.083  29.015  29.308  1.00  0.00     0.031 A 
ATOM     50  C   UNL A   1      46.717  26.820  29.560  1.00  0.00     0.031 A 
ATOM     51  C   UNL A   1      41.012  29.960  29.865  1.00  0.00     0.049 A 
ATOM     52  C   UNL A   1      46.317  28.192  30.026  1.00  0.00     0.074 A 
ATOM     53  C   UNL A   1      40.758  31.222  30.375  1.00  0.00     0.029 A 
ATOM     54  N   UNL A   1      42.374  29.742  29.994  1.00  0.00    -0.354 N 
ATOM     55  N   UNL A   1      45.125  28.737  30.064  1.00  0.00    -0.248 NA
ATOM     56  C   UNL A   1      47.395  29.061  30.520  1.00  0.00     0.031 C 
ATOM     57  C   UNL A   1      41.975  31.784  30.774  1.00  0.00     0.029 A 
ATOM     58  C   UNL A   1      42.978  30.851  30.560  1.00  0.00     0.049 A 
ATOM     59  H   UNL A   1      42.843  28.919  29.724  1.00  0.00     0.167 HD
ATOM     60  C   UNL A   1      45.305  30.000  30.610  1.00  0.00     0.074 A 
ATOM     61  C   UNL A   1      46.717  30.134  30.904  1.00  0.00     0.031 C 
ATOM     62  C   UNL A   1      44.383  30.965  30.847  1.00  0.00     0.031 A 
BRANCH  49  63
ATOM     63  C   UNL A   1      38.642  29.427  29.165  1.00  0.00    -0.014 A 
ATOM     64  C   UNL A   1      38.154  29.970  27.966  1.00  0.00     0.009 A 
ATOM     65  C   UNL A   1      37.755  29.246  30.238  1.00  0.00     0.009 A 
ATOM     66  C   UNL A   1      36.819  30.364  27.858  1.00  0.00     0.001 A 
ATOM     67  C   UNL A   1      36.413  29.611  30.117  1.00  0.00     0.001 A 
ATOM     68  C   UNL A   1      35.949  30.180  28.932  1.00  0.00     0.000 A 
ENDBRANCH  49  63
BRANCH  50  69
ATOM     69  C   UNL A   1      48.138  26.386  29.611  1.00  0.00    -0.014 A 
ATOM     70  C   UNL A   1      48.981  26.587  28.507  1.00  0.00     0.009 A 
ATOM     71  C   UNL A   1      48.659  25.769  30.759  1.00  0.00     0.009 A 
ATOM     72  C   UNL A   1      50.309  26.156  28.542  1.00  0.00     0.001 A 
ATOM     73  C   UNL A   1      49.995  25.365  30.802  1.00  0.00     0.001 A 
ATOM     74  C   UNL A   1      50.816  25.550  29.691  1.00  0.00     0.000 A 
ENDBRANCH  50  69
BRANCH  62  75
ATOM     75  C   UNL A   1      44.868  32.236  31.485  1.00  0.00    -0.014 A 
ATOM     76  C   UNL A   1      45.275  33.332  30.710  1.00  0.00     0.009 A 
ATOM     77  C   UNL A   1      44.878  32.348  32.884  1.00  0.00     0.009 A 
ATOM     78  C   UNL A   1      45.714  34.505  31.325  1.00  0.00     0.001 A 
ATOM     79  C   UNL A   1      45.289  33.533  33.495  1.00  0.00     0.001 A 
ATOM     80  C   UNL A   1      45.716  34.606  32.715  1.00  0.00     0.000 A 
ENDBRANCH  62  75
ENDBRANCH  36  37
ENDBRANCH  28  31
ENDBRANCH  26  27
ENDBRANCH   1  26
TORSDOF 14
ENDMDL
