MODEL 1
REMARK VINA RESULT:     -14.4      0.000      0.000
REMARK SMILES Cc1c(C(=O)NCCCNC(=O)c2ccc(-c3c4nc(c(-c5ccccc5)c5ccc([nH]5)c(-c5ccccc5)c5nc(c(-c6ccccc6)c6ccc3[nH]6)C=C5)C=C4)cc2)oc2c1/C(=N/NC(=O)C(c1ccccc1)c1ccccc1)CCC2
REMARK SMILES IDX 7 1 6 2 4 3 5 4 3 6 1 7 2 8 63 9 61 10 62 11 64 12 84 13
REMARK SMILES IDX 65 14 82 15 83 16 66 17 67 18 68 20 69 21 70 22 71 23 75 24
REMARK SMILES IDX 72 25 74 26 73 27 76 28 77 29 81 30 78 31 80 32 79 33 8 34
REMARK SMILES IDX 9 35 10 36 11 37 12 39 13 40 14 41 60 42 15 43 59 44 16 45
REMARK SMILES IDX 17 46 18 47 53 48 19 49 58 50 52 51 54 52 20 53 57 54 51 55
REMARK SMILES IDX 50 56 21 58 43 59 28 60 42 61 29 62 32 63 41 64 55 65 30 66
REMARK SMILES IDX 31 67 40 69 56 70 33 71 22 72 23 73 27 74 24 75 26 76 25 77
REMARK SMILES IDX 44 78 45 79 49 80 46 81 48 82 47 83 34 84 35 85 39 86 36 87
REMARK SMILES IDX 38 88 37 89
REMARK H PARENT 6 5 66 19 10 38 54 57 32 68
REMARK Flexibility Score: inf
ROOT
ATOM      1  C   UNL A   1      32.589  29.860  25.374  1.00  0.00     0.118 C 
ENDROOT
BRANCH   1   2
ATOM      2  N   UNL A   1      31.369  30.064  24.573  1.00  0.00    -0.349 N 
ATOM      3  C   UNL A   1      30.541  29.122  23.961  1.00  0.00     0.287 C 
ATOM      4  O   UNL A   1      29.466  29.503  23.505  1.00  0.00    -0.266 OA
ATOM      5  H   UNL A   1      31.098  31.003  24.452  1.00  0.00     0.163 HD
BRANCH   3   6
ATOM      6  C   UNL A   1      30.987  27.746  23.944  1.00  0.00     0.195 A 
ATOM      7  C   UNL A   1      31.183  26.842  26.377  1.00  0.00     0.049 C 
ATOM      8  C   UNL A   1      31.319  26.780  24.899  1.00  0.00     0.010 A 
ATOM      9  C   UNL A   1      31.982  25.746  24.156  1.00  0.00     0.043 A 
ATOM     10  O   UNL A   1      31.202  27.239  22.708  1.00  0.00    -0.455 OA
ATOM     11  C   UNL A   1      31.923  26.143  22.842  1.00  0.00     0.114 A 
ATOM     12  C   UNL A   1      32.727  24.537  24.490  1.00  0.00     0.072 C 
ATOM     13  C   UNL A   1      32.603  25.657  21.635  1.00  0.00     0.076 C 
ATOM     14  N   UNL A   1      32.470  24.055  25.671  1.00  0.00    -0.177 NA
ATOM     15  C   UNL A   1      33.680  24.195  23.341  1.00  0.00     0.059 C 
ATOM     16  C   UNL A   1      33.077  24.260  21.932  1.00  0.00     0.014 C 
BRANCH  14  17
ATOM     17  N   UNL A   1      32.839  22.968  26.425  1.00  0.00    -0.246 N 
ATOM     18  C   UNL A   1      33.516  21.770  26.256  1.00  0.00     0.252 C 
ATOM     19  H   UNL A   1      32.533  23.068  27.357  1.00  0.00     0.193 HD
ATOM     20  O   UNL A   1      33.521  20.965  27.196  1.00  0.00    -0.272 OA
BRANCH  18  21
ATOM     21  C   UNL A   1      34.267  21.450  24.964  1.00  0.00     0.140 C 
BRANCH  21  22
ATOM     22  C   UNL A   1      35.794  21.831  25.209  1.00  0.00    -0.031 A 
ATOM     23  C   UNL A   1      36.169  23.139  25.643  1.00  0.00     0.005 A 
ATOM     24  C   UNL A   1      36.863  20.943  25.024  1.00  0.00     0.005 A 
ATOM     25  C   UNL A   1      37.464  23.492  26.035  1.00  0.00     0.000 A 
ATOM     26  C   UNL A   1      38.188  21.316  25.363  1.00  0.00     0.000 A 
ATOM     27  C   UNL A   1      38.481  22.572  25.900  1.00  0.00     0.000 A 
ENDBRANCH  21  22
BRANCH  21  28
ATOM     28  C   UNL A   1      33.722  20.037  24.465  1.00  0.00    -0.031 A 
ATOM     29  C   UNL A   1      32.545  19.859  23.720  1.00  0.00     0.005 A 
ATOM     30  C   UNL A   1      34.495  18.854  24.671  1.00  0.00     0.005 A 
ATOM     31  C   UNL A   1      32.290  18.632  23.060  1.00  0.00     0.000 A 
ATOM     32  C   UNL A   1      34.274  17.661  23.978  1.00  0.00     0.000 A 
ATOM     33  C   UNL A   1      33.179  17.558  23.145  1.00  0.00     0.000 A 
ENDBRANCH  21  28
ENDBRANCH  18  21
ENDBRANCH  14  17
ENDBRANCH   3   6
ENDBRANCH   1   2
BRANCH   1  34
ATOM     34  C   UNL A   1      32.587  30.575  26.742  1.00  0.00     0.042 C 
BRANCH  34  35
ATOM     35  C   UNL A   1      33.984  30.782  27.288  1.00  0.00     0.118 C 
BRANCH  35  36
ATOM     36  N   UNL A   1      34.005  31.717  28.417  1.00  0.00    -0.352 N 
ATOM     37  C   UNL A   1      34.925  31.824  29.446  1.00  0.00     0.251 C 
ATOM     38  H   UNL A   1      33.261  32.360  28.447  1.00  0.00     0.163 HD
ATOM     39  O   UNL A   1      34.649  32.401  30.478  1.00  0.00    -0.269 OA
BRANCH  37  40
ATOM     40  C   UNL A   1      36.253  31.212  29.257  1.00  0.00     0.039 A 
ATOM     41  C   UNL A   1      37.427  31.959  29.375  1.00  0.00     0.014 A 
ATOM     42  C   UNL A   1      36.298  29.843  29.027  1.00  0.00     0.014 A 
ATOM     43  C   UNL A   1      38.646  31.286  29.354  1.00  0.00     0.010 A 
ATOM     44  C   UNL A   1      37.467  29.168  29.234  1.00  0.00     0.010 A 
ATOM     45  C   UNL A   1      38.654  29.881  29.315  1.00  0.00    -0.014 A 
BRANCH  45  46
ATOM     46  C   UNL A   1      39.888  29.122  29.470  1.00  0.00     0.031 A 
ATOM     47  C   UNL A   1      40.208  28.786  30.879  1.00  0.00     0.074 A 
ATOM     48  C   UNL A   1      40.553  28.574  28.428  1.00  0.00     0.049 A 
ATOM     49  N   UNL A   1      41.124  29.316  31.617  1.00  0.00    -0.248 NA
ATOM     50  C   UNL A   1      39.304  27.879  31.607  1.00  0.00     0.031 C 
ATOM     51  C   UNL A   1      40.144  28.539  27.014  1.00  0.00     0.029 A 
ATOM     52  N   UNL A   1      41.687  27.821  28.423  1.00  0.00    -0.354 N 
ATOM     53  C   UNL A   1      41.075  28.626  32.825  1.00  0.00     0.074 A 
ATOM     54  C   UNL A   1      39.816  27.928  32.839  1.00  0.00     0.031 C 
ATOM     55  C   UNL A   1      40.864  27.607  26.354  1.00  0.00     0.029 A 
ATOM     56  C   UNL A   1      41.913  27.134  27.234  1.00  0.00     0.049 A 
ATOM     57  H   UNL A   1      42.296  27.766  29.196  1.00  0.00     0.167 HD
ATOM     58  C   UNL A   1      42.213  28.417  33.544  1.00  0.00     0.031 A 
ATOM     59  C   UNL A   1      42.898  26.239  26.988  1.00  0.00     0.031 A 
ATOM     60  C   UNL A   1      43.301  29.209  33.022  1.00  0.00     0.049 A 
ATOM     61  C   UNL A   1      43.970  26.491  27.969  1.00  0.00     0.074 A 
ATOM     62  C   UNL A   1      43.656  30.538  32.992  1.00  0.00     0.029 A 
ATOM     63  N   UNL A   1      44.003  28.572  32.030  1.00  0.00    -0.354 N 
ATOM     64  N   UNL A   1      44.674  27.587  27.988  1.00  0.00    -0.248 NA
ATOM     65  C   UNL A   1      44.041  25.681  29.176  1.00  0.00     0.031 C 
ATOM     66  C   UNL A   1      44.421  30.709  31.798  1.00  0.00     0.029 A 
ATOM     67  C   UNL A   1      44.560  29.473  31.166  1.00  0.00     0.049 A 
ATOM     68  H   UNL A   1      44.094  27.596  31.951  1.00  0.00     0.167 HD
ATOM     69  C   UNL A   1      44.895  27.825  29.332  1.00  0.00     0.074 A 
ATOM     70  C   UNL A   1      44.657  26.545  29.988  1.00  0.00     0.031 C 
ATOM     71  C   UNL A   1      44.930  29.100  29.817  1.00  0.00     0.031 A 
BRANCH  58  72
ATOM     72  C   UNL A   1      42.510  27.142  34.310  1.00  0.00    -0.014 A 
ATOM     73  C   UNL A   1      43.512  26.287  33.812  1.00  0.00     0.009 A 
ATOM     74  C   UNL A   1      41.656  26.602  35.290  1.00  0.00     0.009 A 
ATOM     75  C   UNL A   1      43.605  24.950  34.221  1.00  0.00     0.001 A 
ATOM     76  C   UNL A   1      41.767  25.278  35.725  1.00  0.00     0.001 A 
ATOM     77  C   UNL A   1      42.726  24.443  35.172  1.00  0.00     0.000 A 
ENDBRANCH  58  72
BRANCH  59  78
ATOM     78  C   UNL A   1      42.908  25.052  26.109  1.00  0.00    -0.014 A 
ATOM     79  C   UNL A   1      43.928  24.876  25.159  1.00  0.00     0.009 A 
ATOM     80  C   UNL A   1      42.095  23.946  26.414  1.00  0.00     0.009 A 
ATOM     81  C   UNL A   1      44.166  23.622  24.584  1.00  0.00     0.001 A 
ATOM     82  C   UNL A   1      42.334  22.693  25.839  1.00  0.00     0.001 A 
ATOM     83  C   UNL A   1      43.384  22.526  24.939  1.00  0.00     0.000 A 
ENDBRANCH  59  78
BRANCH  71  84
ATOM     84  C   UNL A   1      45.203  30.209  28.838  1.00  0.00    -0.014 A 
ATOM     85  C   UNL A   1      46.474  30.756  28.605  1.00  0.00     0.009 A 
ATOM     86  C   UNL A   1      44.127  30.655  28.055  1.00  0.00     0.009 A 
ATOM     87  C   UNL A   1      46.654  31.743  27.628  1.00  0.00     0.001 A 
ATOM     88  C   UNL A   1      44.311  31.622  27.069  1.00  0.00     0.001 A 
ATOM     89  C   UNL A   1      45.574  32.170  26.859  1.00  0.00     0.000 A 
ENDBRANCH  71  84
ENDBRANCH  45  46
ENDBRANCH  37  40
ENDBRANCH  35  36
ENDBRANCH  34  35
ENDBRANCH   1  34
TORSDOF 14
ENDMDL
MODEL 2
REMARK VINA RESULT:     -13.7      2.197      5.432
REMARK SMILES Cc1c(C(=O)NCCCNC(=O)c2ccc(-c3c4nc(c(-c5ccccc5)c5ccc([nH]5)c(-c5ccccc5)c5nc(c(-c6ccccc6)c6ccc3[nH]6)C=C5)C=C4)cc2)oc2c1/C(=N/NC(=O)C(c1ccccc1)c1ccccc1)CCC2
REMARK SMILES IDX 7 1 6 2 4 3 5 4 3 6 1 7 2 8 63 9 61 10 62 11 64 12 84 13
REMARK SMILES IDX 65 14 82 15 83 16 66 17 67 18 68 20 69 21 70 22 71 23 75 24
REMARK SMILES IDX 72 25 74 26 73 27 76 28 77 29 81 30 78 31 80 32 79 33 8 34
REMARK SMILES IDX 9 35 10 36 11 37 12 39 13 40 14 41 60 42 15 43 59 44 16 45
REMARK SMILES IDX 17 46 18 47 53 48 19 49 58 50 52 51 54 52 20 53 57 54 51 55
REMARK SMILES IDX 50 56 21 58 43 59 28 60 42 61 29 62 32 63 41 64 55 65 30 66
REMARK SMILES IDX 31 67 40 69 56 70 33 71 22 72 23 73 27 74 24 75 26 76 25 77
REMARK SMILES IDX 44 78 45 79 49 80 46 81 48 82 47 83 34 84 35 85 39 86 36 87
REMARK SMILES IDX 38 88 37 89
REMARK H PARENT 6 5 66 19 10 38 54 57 32 68
REMARK Flexibility Score: inf
ROOT
ATOM      1  C   UNL A   1      31.797  30.061  25.168  1.00  0.00     0.118 C 
ENDROOT
BRANCH   1   2
ATOM      2  N   UNL A   1      30.649  30.099  24.246  1.00  0.00    -0.349 N 
ATOM      3  C   UNL A   1      29.997  29.049  23.596  1.00  0.00     0.287 C 
ATOM      4  O   UNL A   1      28.937  29.290  23.024  1.00  0.00    -0.266 OA
ATOM      5  H   UNL A   1      30.288  30.996  24.061  1.00  0.00     0.163 HD
BRANCH   3   6
ATOM      6  C   UNL A   1      30.593  27.733  23.679  1.00  0.00     0.195 A 
ATOM      7  C   UNL A   1      30.655  26.937  26.156  1.00  0.00     0.049 C 
ATOM      8  C   UNL A   1      30.938  26.844  24.701  1.00  0.00     0.010 A 
ATOM      9  C   UNL A   1      31.780  25.869  24.066  1.00  0.00     0.043 A 
ATOM     10  O   UNL A   1      30.980  27.215  22.491  1.00  0.00    -0.455 OA
ATOM     11  C   UNL A   1      31.803  26.214  22.737  1.00  0.00     0.114 A 
ATOM     12  C   UNL A   1      32.619  24.765  24.519  1.00  0.00     0.072 C 
ATOM     13  C   UNL A   1      32.645  25.771  21.618  1.00  0.00     0.076 C 
ATOM     14  N   UNL A   1      32.306  24.296  25.691  1.00  0.00    -0.177 NA
ATOM     15  C   UNL A   1      33.711  24.498  23.477  1.00  0.00     0.059 C 
ATOM     16  C   UNL A   1      33.242  24.449  22.017  1.00  0.00     0.014 C 
BRANCH  14  17
ATOM     17  N   UNL A   1      32.720  23.282  26.522  1.00  0.00    -0.246 N 
ATOM     18  C   UNL A   1      33.377  22.065  26.424  1.00  0.00     0.252 C 
ATOM     19  H   UNL A   1      32.481  23.478  27.457  1.00  0.00     0.193 HD
ATOM     20  O   UNL A   1      33.442  21.356  27.437  1.00  0.00    -0.272 OA
BRANCH  18  21
ATOM     21  C   UNL A   1      34.033  21.610  25.122  1.00  0.00     0.140 C 
BRANCH  21  22
ATOM     22  C   UNL A   1      35.608  21.706  25.338  1.00  0.00    -0.031 A 
ATOM     23  C   UNL A   1      36.460  20.590  25.073  1.00  0.00     0.005 A 
ATOM     24  C   UNL A   1      36.268  22.855  25.793  1.00  0.00     0.005 A 
ATOM     25  C   UNL A   1      37.857  20.653  25.082  1.00  0.00     0.000 A 
ATOM     26  C   UNL A   1      37.683  22.906  25.861  1.00  0.00     0.000 A 
ATOM     27  C   UNL A   1      38.475  21.821  25.473  1.00  0.00     0.000 A 
ENDBRANCH  21  22
BRANCH  21  28
ATOM     28  C   UNL A   1      33.230  20.320  24.640  1.00  0.00    -0.031 A 
ATOM     29  C   UNL A   1      32.606  20.196  23.389  1.00  0.00     0.005 A 
ATOM     30  C   UNL A   1      33.201  19.146  25.452  1.00  0.00     0.005 A 
ATOM     31  C   UNL A   1      32.182  18.928  22.918  1.00  0.00     0.000 A 
ATOM     32  C   UNL A   1      32.834  17.886  24.971  1.00  0.00     0.000 A 
ATOM     33  C   UNL A   1      32.347  17.772  23.685  1.00  0.00     0.000 A 
ENDBRANCH  21  28
ENDBRANCH  18  21
ENDBRANCH  14  17
ENDBRANCH   3   6
ENDBRANCH   1   2
BRANCH   1  34
ATOM     34  C   UNL A   1      31.559  30.763  26.521  1.00  0.00     0.042 C 
BRANCH  34  35
ATOM     35  C   UNL A   1      32.759  31.568  26.974  1.00  0.00     0.118 C 
BRANCH  35  36
ATOM     36  N   UNL A   1      32.423  32.972  27.226  1.00  0.00    -0.352 N 
ATOM     37  C   UNL A   1      32.984  33.857  28.131  1.00  0.00     0.251 C 
ATOM     38  H   UNL A   1      31.694  33.337  26.674  1.00  0.00     0.163 HD
ATOM     39  O   UNL A   1      32.399  34.865  28.469  1.00  0.00    -0.269 OA
BRANCH  37  40
ATOM     40  C   UNL A   1      34.316  33.539  28.678  1.00  0.00     0.039 A 
ATOM     41  C   UNL A   1      34.469  32.893  29.907  1.00  0.00     0.014 A 
ATOM     42  C   UNL A   1      35.418  33.841  27.888  1.00  0.00     0.014 A 
ATOM     43  C   UNL A   1      35.741  32.472  30.281  1.00  0.00     0.010 A 
ATOM     44  C   UNL A   1      36.613  33.232  28.148  1.00  0.00     0.010 A 
ATOM     45  C   UNL A   1      36.807  32.619  29.376  1.00  0.00    -0.014 A 
BRANCH  45  46
ATOM     46  C   UNL A   1      38.117  32.038  29.641  1.00  0.00     0.031 A 
ATOM     47  C   UNL A   1      38.203  30.592  29.323  1.00  0.00     0.074 A 
ATOM     48  C   UNL A   1      39.211  32.782  29.923  1.00  0.00     0.049 A 
ATOM     49  N   UNL A   1      38.242  29.611  30.160  1.00  0.00    -0.248 NA
ATOM     50  C   UNL A   1      38.062  30.172  27.918  1.00  0.00     0.031 C 
ATOM     51  C   UNL A   1      39.329  34.249  29.920  1.00  0.00     0.029 A 
ATOM     52  N   UNL A   1      40.491  32.385  30.159  1.00  0.00    -0.354 N 
ATOM     53  C   UNL A   1      38.387  28.464  29.385  1.00  0.00     0.074 A 
ATOM     54  C   UNL A   1      38.047  28.843  28.039  1.00  0.00     0.031 C 
ATOM     55  C   UNL A   1      40.632  34.601  29.888  1.00  0.00     0.029 A 
ATOM     56  C   UNL A   1      41.431  33.408  30.076  1.00  0.00     0.049 A 
ATOM     57  H   UNL A   1      40.732  31.453  30.368  1.00  0.00     0.167 HD
ATOM     58  C   UNL A   1      39.100  27.403  29.856  1.00  0.00     0.031 A 
ATOM     59  C   UNL A   1      42.776  33.283  30.162  1.00  0.00     0.031 A 
ATOM     60  C   UNL A   1      39.390  27.562  31.260  1.00  0.00     0.049 A 
ATOM     61  C   UNL A   1      43.052  32.012  30.858  1.00  0.00     0.074 A 
ATOM     62  C   UNL A   1      38.692  27.520  32.445  1.00  0.00     0.029 A 
ATOM     63  N   UNL A   1      40.558  28.244  31.494  1.00  0.00    -0.354 N 
ATOM     64  N   UNL A   1      42.736  31.800  32.103  1.00  0.00    -0.248 NA
ATOM     65  C   UNL A   1      43.362  30.822  30.079  1.00  0.00     0.031 C 
ATOM     66  C   UNL A   1      39.382  28.399  33.334  1.00  0.00     0.029 A 
ATOM     67  C   UNL A   1      40.510  28.906  32.689  1.00  0.00     0.049 A 
ATOM     68  H   UNL A   1      41.329  28.254  30.882  1.00  0.00     0.167 HD
ATOM     69  C   UNL A   1      42.368  30.468  32.137  1.00  0.00     0.074 A 
ATOM     70  C   UNL A   1      42.948  29.882  30.934  1.00  0.00     0.031 C 
ATOM     71  C   UNL A   1      41.365  30.043  32.960  1.00  0.00     0.031 A 
BRANCH  58  72
ATOM     72  C   UNL A   1      40.000  26.538  28.994  1.00  0.00    -0.014 A 
ATOM     73  C   UNL A   1      41.250  27.059  28.608  1.00  0.00     0.009 A 
ATOM     74  C   UNL A   1      39.556  25.396  28.300  1.00  0.00     0.009 A 
ATOM     75  C   UNL A   1      41.975  26.512  27.542  1.00  0.00     0.001 A 
ATOM     76  C   UNL A   1      40.293  24.826  27.258  1.00  0.00     0.001 A 
ATOM     77  C   UNL A   1      41.492  25.400  26.861  1.00  0.00     0.000 A 
ENDBRANCH  58  72
BRANCH  59  78
ATOM     78  C   UNL A   1      43.848  34.068  29.516  1.00  0.00    -0.014 A 
ATOM     79  C   UNL A   1      43.865  34.241  28.123  1.00  0.00     0.009 A 
ATOM     80  C   UNL A   1      44.673  34.900  30.293  1.00  0.00     0.009 A 
ATOM     81  C   UNL A   1      44.632  35.254  27.533  1.00  0.00     0.001 A 
ATOM     82  C   UNL A   1      45.438  35.913  29.703  1.00  0.00     0.001 A 
ATOM     83  C   UNL A   1      45.401  36.103  28.324  1.00  0.00     0.000 A 
ENDBRANCH  59  78
BRANCH  71  84
ATOM     84  C   UNL A   1      41.012  30.914  34.133  1.00  0.00    -0.014 A 
ATOM     85  C   UNL A   1      41.613  30.811  35.398  1.00  0.00     0.009 A 
ATOM     86  C   UNL A   1      40.086  31.946  33.914  1.00  0.00     0.009 A 
ATOM     87  C   UNL A   1      41.274  31.704  36.421  1.00  0.00     0.001 A 
ATOM     88  C   UNL A   1      39.765  32.848  34.926  1.00  0.00     0.001 A 
ATOM     89  C   UNL A   1      40.354  32.724  36.182  1.00  0.00     0.000 A 
ENDBRANCH  71  84
ENDBRANCH  45  46
ENDBRANCH  37  40
ENDBRANCH  35  36
ENDBRANCH  34  35
ENDBRANCH   1  34
TORSDOF 14
ENDMDL
MODEL 3
REMARK VINA RESULT:     -13.5      1.531      2.899
REMARK SMILES Cc1c(C(=O)NCCCNC(=O)c2ccc(-c3c4nc(c(-c5ccccc5)c5ccc([nH]5)c(-c5ccccc5)c5nc(c(-c6ccccc6)c6ccc3[nH]6)C=C5)C=C4)cc2)oc2c1/C(=N/NC(=O)C(c1ccccc1)c1ccccc1)CCC2
REMARK SMILES IDX 7 1 6 2 4 3 5 4 3 6 1 7 2 8 63 9 61 10 62 11 64 12 84 13
REMARK SMILES IDX 65 14 82 15 83 16 66 17 67 18 68 20 69 21 70 22 71 23 75 24
REMARK SMILES IDX 72 25 74 26 73 27 76 28 77 29 81 30 78 31 80 32 79 33 8 34
REMARK SMILES IDX 9 35 10 36 11 37 12 39 13 40 14 41 60 42 15 43 59 44 16 45
REMARK SMILES IDX 17 46 18 47 53 48 19 49 58 50 52 51 54 52 20 53 57 54 51 55
REMARK SMILES IDX 50 56 21 58 43 59 28 60 42 61 29 62 32 63 41 64 55 65 30 66
REMARK SMILES IDX 31 67 40 69 56 70 33 71 22 72 23 73 27 74 24 75 26 76 25 77
REMARK SMILES IDX 44 78 45 79 49 80 46 81 48 82 47 83 34 84 35 85 39 86 36 87
REMARK SMILES IDX 38 88 37 89
REMARK H PARENT 6 5 66 19 10 38 54 57 32 68
REMARK Flexibility Score: inf
ROOT
ATOM      1  C   UNL A   1      32.642  30.696  26.943  1.00  0.00     0.118 C 
ENDROOT
BRANCH   1   2
ATOM      2  N   UNL A   1      31.667  30.985  25.877  1.00  0.00    -0.349 N 
ATOM      3  C   UNL A   1      31.044  30.111  24.984  1.00  0.00     0.287 C 
ATOM      4  O   UNL A   1      30.116  30.541  24.304  1.00  0.00    -0.266 OA
ATOM      5  H   UNL A   1      31.418  31.932  25.781  1.00  0.00     0.163 HD
BRANCH   3   6
ATOM      6  C   UNL A   1      31.507  28.741  24.951  1.00  0.00     0.195 A 
ATOM      7  C   UNL A   1      33.448  28.497  23.236  1.00  0.00     0.049 C 
ATOM      8  C   UNL A   1      32.448  28.010  24.220  1.00  0.00     0.010 A 
ATOM      9  C   UNL A   1      32.141  26.636  24.501  1.00  0.00     0.043 A 
ATOM     10  O   UNL A   1      30.851  27.905  25.789  1.00  0.00    -0.455 OA
ATOM     11  C   UNL A   1      31.114  26.669  25.411  1.00  0.00     0.114 A 
ATOM     12  C   UNL A   1      32.578  25.344  23.984  1.00  0.00     0.072 C 
ATOM     13  C   UNL A   1      30.209  25.627  25.915  1.00  0.00     0.076 C 
ATOM     14  N   UNL A   1      33.738  25.364  23.395  1.00  0.00    -0.177 NA
ATOM     15  C   UNL A   1      31.485  24.301  24.235  1.00  0.00     0.059 C 
ATOM     16  C   UNL A   1      30.870  24.304  25.641  1.00  0.00     0.014 C 
BRANCH  14  17
ATOM     17  N   UNL A   1      34.593  24.464  22.806  1.00  0.00    -0.246 N 
ATOM     18  C   UNL A   1      35.389  23.393  23.181  1.00  0.00     0.252 C 
ATOM     19  H   UNL A   1      34.658  24.626  21.836  1.00  0.00     0.193 HD
ATOM     20  O   UNL A   1      36.146  22.904  22.332  1.00  0.00    -0.272 OA
BRANCH  18  21
ATOM     21  C   UNL A   1      35.325  22.800  24.588  1.00  0.00     0.140 C 
BRANCH  21  22
ATOM     22  C   UNL A   1      34.364  21.533  24.513  1.00  0.00    -0.031 A 
ATOM     23  C   UNL A   1      34.635  20.353  25.273  1.00  0.00     0.005 A 
ATOM     24  C   UNL A   1      33.210  21.469  23.721  1.00  0.00     0.005 A 
ATOM     25  C   UNL A   1      33.753  19.274  25.384  1.00  0.00     0.000 A 
ATOM     26  C   UNL A   1      32.341  20.351  23.784  1.00  0.00     0.000 A 
ATOM     27  C   UNL A   1      32.594  19.274  24.639  1.00  0.00     0.000 A 
ENDBRANCH  21  22
BRANCH  21  28
ATOM     28  C   UNL A   1      36.817  22.814  25.150  1.00  0.00    -0.031 A 
ATOM     29  C   UNL A   1      37.387  23.881  25.862  1.00  0.00     0.005 A 
ATOM     30  C   UNL A   1      37.637  21.649  25.042  1.00  0.00     0.005 A 
ATOM     31  C   UNL A   1      38.592  23.702  26.585  1.00  0.00     0.000 A 
ATOM     32  C   UNL A   1      38.797  21.453  25.796  1.00  0.00     0.000 A 
ATOM     33  C   UNL A   1      39.263  22.477  26.594  1.00  0.00     0.000 A 
ENDBRANCH  21  28
ENDBRANCH  18  21
ENDBRANCH  14  17
ENDBRANCH   3   6
ENDBRANCH   1   2
BRANCH   1  34
ATOM     34  C   UNL A   1      33.311  31.943  27.558  1.00  0.00     0.042 C 
BRANCH  34  35
ATOM     35  C   UNL A   1      34.605  31.614  28.272  1.00  0.00     0.118 C 
BRANCH  35  36
ATOM     36  N   UNL A   1      34.629  32.132  29.643  1.00  0.00    -0.352 N 
ATOM     37  C   UNL A   1      35.447  31.769  30.700  1.00  0.00     0.251 C 
ATOM     38  H   UNL A   1      33.971  32.837  29.840  1.00  0.00     0.163 HD
ATOM     39  O   UNL A   1      35.142  32.027  31.846  1.00  0.00    -0.269 OA
BRANCH  37  40
ATOM     40  C   UNL A   1      36.700  31.056  30.395  1.00  0.00     0.039 A 
ATOM     41  C   UNL A   1      37.898  31.739  30.175  1.00  0.00     0.014 A 
ATOM     42  C   UNL A   1      36.662  29.667  30.405  1.00  0.00     0.014 A 
ATOM     43  C   UNL A   1      39.073  31.000  30.063  1.00  0.00     0.010 A 
ATOM     44  C   UNL A   1      37.829  28.967  30.522  1.00  0.00     0.010 A 
ATOM     45  C   UNL A   1      39.031  29.610  30.270  1.00  0.00    -0.014 A 
BRANCH  45  46
ATOM     46  C   UNL A   1      40.250  28.814  30.342  1.00  0.00     0.031 A 
ATOM     47  C   UNL A   1      40.804  28.693  31.712  1.00  0.00     0.074 A 
ATOM     48  C   UNL A   1      40.704  28.066  29.311  1.00  0.00     0.049 A 
ATOM     49  N   UNL A   1      41.852  29.281  32.183  1.00  0.00    -0.248 NA
ATOM     50  C   UNL A   1      40.017  27.972  32.727  1.00  0.00     0.031 C 
ATOM     51  C   UNL A   1      40.050  27.826  28.014  1.00  0.00     0.029 A 
ATOM     52  N   UNL A   1      41.796  27.256  29.242  1.00  0.00    -0.354 N 
ATOM     53  C   UNL A   1      41.997  28.801  33.482  1.00  0.00     0.074 A 
ATOM     54  C   UNL A   1      40.739  28.191  33.828  1.00  0.00     0.031 C 
ATOM     55  C   UNL A   1      40.614  26.757  27.410  1.00  0.00     0.029 A 
ATOM     56  C   UNL A   1      41.786  26.372  28.167  1.00  0.00     0.049 A 
ATOM     57  H   UNL A   1      42.529  27.292  29.899  1.00  0.00     0.167 HD
ATOM     58  C   UNL A   1      43.237  28.645  34.022  1.00  0.00     0.031 A 
ATOM     59  C   UNL A   1      42.685  25.393  27.914  1.00  0.00     0.031 A 
ATOM     60  C   UNL A   1      44.239  29.275  33.197  1.00  0.00     0.049 A 
ATOM     61  C   UNL A   1      43.921  25.737  28.641  1.00  0.00     0.074 A 
ATOM     62  C   UNL A   1      44.622  30.559  32.881  1.00  0.00     0.029 A 
ATOM     63  N   UNL A   1      44.735  28.445  32.223  1.00  0.00    -0.354 N 
ATOM     64  N   UNL A   1      44.650  26.778  28.354  1.00  0.00    -0.248 NA
ATOM     65  C   UNL A   1      44.180  25.131  29.939  1.00  0.00     0.031 C 
ATOM     66  C   UNL A   1      45.169  30.488  31.563  1.00  0.00     0.029 A 
ATOM     67  C   UNL A   1      45.157  29.159  31.136  1.00  0.00     0.049 A 
ATOM     68  H   UNL A   1      44.781  27.465  32.298  1.00  0.00     0.167 HD
ATOM     69  C   UNL A   1      45.112  27.217  29.580  1.00  0.00     0.074 A 
ATOM     70  C   UNL A   1      44.956  26.077  30.476  1.00  0.00     0.031 C 
ATOM     71  C   UNL A   1      45.271  28.550  29.827  1.00  0.00     0.031 A 
BRANCH  58  72
ATOM     72  C   UNL A   1      43.626  27.496  34.933  1.00  0.00    -0.014 A 
ATOM     73  C   UNL A   1      44.373  27.790  36.090  1.00  0.00     0.009 A 
ATOM     74  C   UNL A   1      43.569  26.142  34.551  1.00  0.00     0.009 A 
ATOM     75  C   UNL A   1      45.078  26.795  36.780  1.00  0.00     0.001 A 
ATOM     76  C   UNL A   1      44.244  25.141  35.257  1.00  0.00     0.001 A 
ATOM     77  C   UNL A   1      45.021  25.471  36.358  1.00  0.00     0.000 A 
ENDBRANCH  58  72
BRANCH  59  78
ATOM     78  C   UNL A   1      42.504  24.080  27.261  1.00  0.00    -0.014 A 
ATOM     79  C   UNL A   1      42.694  23.940  25.877  1.00  0.00     0.009 A 
ATOM     80  C   UNL A   1      42.450  22.911  28.040  1.00  0.00     0.009 A 
ATOM     81  C   UNL A   1      42.887  22.677  25.302  1.00  0.00     0.001 A 
ATOM     82  C   UNL A   1      42.644  21.650  27.465  1.00  0.00     0.001 A 
ATOM     83  C   UNL A   1      42.884  21.535  26.098  1.00  0.00     0.000 A 
ENDBRANCH  59  78
BRANCH  71  84
ATOM     84  C   UNL A   1      45.399  29.467  28.642  1.00  0.00    -0.014 A 
ATOM     85  C   UNL A   1      46.608  29.727  27.977  1.00  0.00     0.009 A 
ATOM     86  C   UNL A   1      44.218  30.022  28.128  1.00  0.00     0.009 A 
ATOM     87  C   UNL A   1      46.631  30.543  26.840  1.00  0.00     0.001 A 
ATOM     88  C   UNL A   1      44.239  30.817  26.983  1.00  0.00     0.001 A 
ATOM     89  C   UNL A   1      45.446  31.082  26.342  1.00  0.00     0.000 A 
ENDBRANCH  71  84
ENDBRANCH  45  46
ENDBRANCH  37  40
ENDBRANCH  35  36
ENDBRANCH  34  35
ENDBRANCH   1  34
TORSDOF 14
ENDMDL
