MODEL 1
REMARK VINA RESULT:     -13.4      0.000      0.000
REMARK SMILES O=C(COc1ccccc1/C=C1/SC(=O)N(c2ccc(F)cc2)C1=O)NCCCNC(=O)c1ccc(-c2c3nc(c(-c4ccccc4)c4ccc([nH]4)c(-c4ccccc4)c4nc(c(-c5ccccc5)c5ccc2[nH]5)C=C4)C=C3)cc1
REMARK SMILES IDX 27 1 26 2 1 3 2 4 3 6 4 7 5 8 6 9 10 10 7 11 9 12 8 13 11 14
REMARK SMILES IDX 12 15 13 16 24 17 14 18 16 19 25 20 15 21 17 22 18 23 23 24
REMARK SMILES IDX 19 25 22 26 20 27 21 28 28 29 29 30 30 31 31 32 32 34 33 35
REMARK SMILES IDX 34 36 80 37 35 38 79 39 36 40 37 41 38 42 73 43 39 44 78 45
REMARK SMILES IDX 72 46 74 47 40 48 77 49 71 50 70 51 41 53 63 54 48 55 62 56
REMARK SMILES IDX 49 57 52 58 61 59 75 60 50 61 51 62 60 64 76 65 53 66 42 67
REMARK SMILES IDX 43 68 47 69 44 70 46 71 45 72 64 73 65 74 69 75 66 76 68 77
REMARK SMILES IDX 67 78 54 79 55 80 59 81 56 82 58 83 57 84
REMARK H PARENT 26 5 30 33 74 52 52 63
REMARK Flexibility Score: inf
ROOT
ATOM      1  C   UNL A   1      36.720  19.788  24.995  1.00  0.00     0.117 C 
ENDROOT
BRANCH   1   2
ATOM      2  N   UNL A   1      34.697  20.218  25.415  1.00  0.00    -0.353 N 
ATOM      3  O   UNL A   1      33.682  21.425  27.292  1.00  0.00    -0.271 OA
ATOM      4  C   UNL A   1      33.646  20.944  26.165  1.00  0.00     0.257 C 
ATOM      5  H   UNL A   1      34.195  19.640  24.795  1.00  0.00     0.163 HD
BRANCH   4   6
ATOM      6  C   UNL A   1      32.355  21.067  25.347  1.00  0.00     0.329 C 
BRANCH   6   7
ATOM      7  O   UNL A   1      31.819  22.377  25.361  1.00  0.00    -0.483 OA
BRANCH   7   8
ATOM      8  C   UNL A   1      32.281  23.245  24.397  1.00  0.00     0.127 A 
ATOM      9  C   UNL A   1      32.434  22.630  23.151  1.00  0.00     0.047 A 
ATOM     10  C   UNL A   1      32.811  24.542  24.623  1.00  0.00     0.018 A 
ATOM     11  C   UNL A   1      33.137  23.265  22.132  1.00  0.00     0.004 A 
ATOM     12  C   UNL A   1      33.530  25.156  23.588  1.00  0.00     0.012 A 
ATOM     13  C   UNL A   1      33.703  24.516  22.359  1.00  0.00     0.001 A 
BRANCH  10  14
ATOM     14  C   UNL A   1      32.741  25.286  25.892  1.00  0.00     0.033 C 
ATOM     15  C   UNL A   1      31.802  26.235  26.059  1.00  0.00     0.084 C 
ATOM     16  S   UNL A   1      32.453  28.065  27.256  1.00  0.00    -0.022 SA
ATOM     17  C   UNL A   1      30.639  26.750  24.560  1.00  0.00     0.272 C 
ATOM     18  C   UNL A   1      31.511  29.527  25.676  1.00  0.00     0.298 C 
ATOM     19  N   UNL A   1      30.563  28.565  24.460  1.00  0.00    -0.236 N 
ATOM     20  O   UNL A   1      30.013  25.953  23.878  1.00  0.00    -0.268 OA
ATOM     21  O   UNL A   1      31.704  30.729  25.774  1.00  0.00    -0.260 OA
BRANCH  19  22
ATOM     22  C   UNL A   1      29.808  29.178  23.410  1.00  0.00     0.053 A 
ATOM     23  C   UNL A   1      28.411  29.286  23.512  1.00  0.00     0.030 A 
ATOM     24  C   UNL A   1      30.433  29.697  22.272  1.00  0.00     0.030 A 
ATOM     25  C   UNL A   1      27.656  29.913  22.517  1.00  0.00     0.041 A 
ATOM     26  C   UNL A   1      29.673  30.311  21.266  1.00  0.00     0.041 A 
ATOM     27  C   UNL A   1      28.295  30.420  21.400  1.00  0.00     0.123 A 
ATOM     28  F   UNL A   1      27.577  31.021  20.443  1.00  0.00    -0.207 F 
ENDBRANCH  19  22
ENDBRANCH  10  14
ENDBRANCH   7   8
ENDBRANCH   6   7
ENDBRANCH   4   6
ENDBRANCH   1   2
BRANCH   1  29
ATOM     29  C   UNL A   1      38.094  20.787  25.007  1.00  0.00     0.042 C 
BRANCH  29  30
ATOM     30  C   UNL A   1      39.128  20.607  26.118  1.00  0.00     0.118 C 
BRANCH  30  31
ATOM     31  N   UNL A   1      40.083  19.532  25.914  1.00  0.00    -0.352 N 
ATOM     32  C   UNL A   1      41.439  19.609  26.133  1.00  0.00     0.251 C 
ATOM     33  H   UNL A   1      39.728  18.672  25.590  1.00  0.00     0.163 HD
ATOM     34  O   UNL A   1      42.182  18.663  25.909  1.00  0.00    -0.269 OA
BRANCH  32  35
ATOM     35  C   UNL A   1      41.971  20.895  26.609  1.00  0.00     0.039 A 
ATOM     36  C   UNL A   1      42.340  21.862  25.673  1.00  0.00     0.014 A 
ATOM     37  C   UNL A   1      41.945  21.180  27.977  1.00  0.00     0.014 A 
ATOM     38  C   UNL A   1      42.643  23.149  26.112  1.00  0.00     0.010 A 
ATOM     39  C   UNL A   1      42.173  22.480  28.402  1.00  0.00     0.010 A 
ATOM     40  C   UNL A   1      42.531  23.472  27.475  1.00  0.00    -0.014 A 
BRANCH  40  41
ATOM     41  C   UNL A   1      42.810  24.842  27.962  1.00  0.00     0.031 A 
ATOM     42  C   UNL A   1      44.221  25.220  28.312  1.00  0.00     0.074 A 
ATOM     43  C   UNL A   1      41.794  25.705  28.148  1.00  0.00     0.049 A 
ATOM     44  N   UNL A   1      44.675  26.338  28.815  1.00  0.00    -0.248 NA
ATOM     45  C   UNL A   1      45.254  24.193  28.098  1.00  0.00     0.031 C 
ATOM     46  C   UNL A   1      40.382  25.422  27.880  1.00  0.00     0.029 A 
ATOM     47  N   UNL A   1      41.792  26.995  28.611  1.00  0.00    -0.354 N 
ATOM     48  C   UNL A   1      46.038  26.138  28.997  1.00  0.00     0.074 A 
ATOM     49  C   UNL A   1      46.326  24.777  28.607  1.00  0.00     0.031 C 
ATOM     50  C   UNL A   1      39.655  26.517  28.156  1.00  0.00     0.029 A 
ATOM     51  C   UNL A   1      40.541  27.562  28.658  1.00  0.00     0.049 A 
ATOM     52  H   UNL A   1      42.609  27.470  28.883  1.00  0.00     0.167 HD
ATOM     53  C   UNL A   1      46.969  27.021  29.426  1.00  0.00     0.031 A 
ATOM     54  C   UNL A   1      40.157  28.785  29.065  1.00  0.00     0.031 A 
ATOM     55  C   UNL A   1      46.667  28.374  29.802  1.00  0.00     0.049 A 
ATOM     56  C   UNL A   1      41.209  29.744  29.552  1.00  0.00     0.074 A 
ATOM     57  C   UNL A   1      47.535  29.374  30.200  1.00  0.00     0.029 A 
ATOM     58  N   UNL A   1      45.389  28.915  29.826  1.00  0.00    -0.354 N 
ATOM     59  N   UNL A   1      42.506  29.568  29.645  1.00  0.00    -0.248 NA
ATOM     60  C   UNL A   1      40.748  31.071  29.979  1.00  0.00     0.031 C 
ATOM     61  C   UNL A   1      46.775  30.504  30.521  1.00  0.00     0.029 A 
ATOM     62  C   UNL A   1      45.441  30.227  30.261  1.00  0.00     0.049 A 
ATOM     63  H   UNL A   1      44.567  28.435  29.573  1.00  0.00     0.167 HD
ATOM     64  C   UNL A   1      43.019  30.769  30.118  1.00  0.00     0.074 A 
ATOM     65  C   UNL A   1      41.894  31.671  30.270  1.00  0.00     0.031 C 
ATOM     66  C   UNL A   1      44.302  31.099  30.403  1.00  0.00     0.031 A 
BRANCH  53  67
ATOM     67  C   UNL A   1      48.391  26.537  29.520  1.00  0.00    -0.014 A 
ATOM     68  C   UNL A   1      48.872  25.904  30.679  1.00  0.00     0.009 A 
ATOM     69  C   UNL A   1      49.261  26.706  28.432  1.00  0.00     0.009 A 
ATOM     70  C   UNL A   1      50.204  25.494  30.763  1.00  0.00     0.001 A 
ATOM     71  C   UNL A   1      50.584  26.264  28.506  1.00  0.00     0.001 A 
ATOM     72  C   UNL A   1      51.058  25.669  29.675  1.00  0.00     0.000 A 
ENDBRANCH  53  67
BRANCH  54  73
ATOM     73  C   UNL A   1      38.722  29.178  29.018  1.00  0.00    -0.014 A 
ATOM     74  C   UNL A   1      37.905  29.034  30.151  1.00  0.00     0.009 A 
ATOM     75  C   UNL A   1      38.159  29.702  27.844  1.00  0.00     0.009 A 
ATOM     76  C   UNL A   1      36.551  29.378  30.100  1.00  0.00     0.001 A 
ATOM     77  C   UNL A   1      36.814  30.075  27.804  1.00  0.00     0.001 A 
ATOM     78  C   UNL A   1      36.008  29.904  28.928  1.00  0.00     0.000 A 
ENDBRANCH  54  73
BRANCH  66  79
ATOM     79  C   UNL A   1      44.560  32.498  30.882  1.00  0.00    -0.014 A 
ATOM     80  C   UNL A   1      44.635  33.574  29.983  1.00  0.00     0.009 A 
ATOM     81  C   UNL A   1      44.671  32.750  32.259  1.00  0.00     0.009 A 
ATOM     82  C   UNL A   1      44.846  34.870  30.454  1.00  0.00     0.001 A 
ATOM     83  C   UNL A   1      44.847  34.052  32.727  1.00  0.00     0.001 A 
ATOM     84  C   UNL A   1      44.943  35.109  31.825  1.00  0.00     0.000 A 
ENDBRANCH  66  79
ENDBRANCH  40  41
ENDBRANCH  32  35
ENDBRANCH  30  31
ENDBRANCH  29  30
ENDBRANCH   1  29
TORSDOF 14
ENDMDL
MODEL 2
REMARK VINA RESULT:     -13.3      0.772      5.819
REMARK SMILES O=C(COc1ccccc1/C=C1/SC(=O)N(c2ccc(F)cc2)C1=O)NCCCNC(=O)c1ccc(-c2c3nc(c(-c4ccccc4)c4ccc([nH]4)c(-c4ccccc4)c4nc(c(-c5ccccc5)c5ccc2[nH]5)C=C4)C=C3)cc1
REMARK SMILES IDX 27 1 26 2 1 3 2 4 3 6 4 7 5 8 6 9 10 10 7 11 9 12 8 13 11 14
REMARK SMILES IDX 12 15 13 16 24 17 14 18 16 19 25 20 15 21 17 22 18 23 23 24
REMARK SMILES IDX 19 25 22 26 20 27 21 28 28 29 29 30 30 31 31 32 32 34 33 35
REMARK SMILES IDX 34 36 80 37 35 38 79 39 36 40 37 41 38 42 73 43 39 44 78 45
REMARK SMILES IDX 72 46 74 47 40 48 77 49 71 50 70 51 41 53 63 54 48 55 62 56
REMARK SMILES IDX 49 57 52 58 61 59 75 60 50 61 51 62 60 64 76 65 53 66 42 67
REMARK SMILES IDX 43 68 47 69 44 70 46 71 45 72 64 73 65 74 69 75 66 76 68 77
REMARK SMILES IDX 67 78 54 79 55 80 59 81 56 82 58 83 57 84
REMARK H PARENT 26 5 30 33 74 52 52 63
REMARK Flexibility Score: inf
ROOT
ATOM      1  C   UNL A   1      35.933  20.612  25.005  1.00  0.00     0.117 C 
ENDROOT
BRANCH   1   2
ATOM      2  N   UNL A   1      33.996  21.429  25.177  1.00  0.00    -0.353 N 
ATOM      3  O   UNL A   1      31.796  20.352  25.061  1.00  0.00    -0.271 OA
ATOM      4  C   UNL A   1      32.531  21.289  25.351  1.00  0.00     0.257 C 
ATOM      5  H   UNL A   1      34.138  22.401  25.103  1.00  0.00     0.163 HD
BRANCH   4   6
ATOM      6  C   UNL A   1      31.919  22.542  25.988  1.00  0.00     0.329 C 
BRANCH   6   7
ATOM      7  O   UNL A   1      31.157  23.307  25.073  1.00  0.00    -0.483 OA
BRANCH   7   8
ATOM      8  C   UNL A   1      31.859  24.115  24.207  1.00  0.00     0.127 A 
ATOM      9  C   UNL A   1      32.010  23.540  22.941  1.00  0.00     0.047 A 
ATOM     10  C   UNL A   1      32.599  25.274  24.556  1.00  0.00     0.018 A 
ATOM     11  C   UNL A   1      32.909  24.075  22.025  1.00  0.00     0.004 A 
ATOM     12  C   UNL A   1      33.511  25.787  23.623  1.00  0.00     0.012 A 
ATOM     13  C   UNL A   1      33.675  25.183  22.375  1.00  0.00     0.001 A 
BRANCH  10  14
ATOM     14  C   UNL A   1      32.551  25.959  25.859  1.00  0.00     0.033 C 
ATOM     15  C   UNL A   1      31.648  26.934  26.069  1.00  0.00     0.084 C 
ATOM     16  S   UNL A   1      32.363  28.678  27.354  1.00  0.00    -0.022 SA
ATOM     17  C   UNL A   1      30.511  27.563  24.594  1.00  0.00     0.272 C 
ATOM     18  C   UNL A   1      31.483  30.249  25.844  1.00  0.00     0.298 C 
ATOM     19  N   UNL A   1      30.504  29.382  24.581  1.00  0.00    -0.236 N 
ATOM     20  O   UNL A   1      29.859  26.824  23.873  1.00  0.00    -0.268 OA
ATOM     21  O   UNL A   1      31.720  31.436  26.000  1.00  0.00    -0.260 OA
BRANCH  19  22
ATOM     22  C   UNL A   1      29.777  30.073  23.560  1.00  0.00     0.053 A 
ATOM     23  C   UNL A   1      28.901  31.118  23.898  1.00  0.00     0.030 A 
ATOM     24  C   UNL A   1      29.928  29.744  22.210  1.00  0.00     0.030 A 
ATOM     25  C   UNL A   1      28.207  31.832  22.916  1.00  0.00     0.041 A 
ATOM     26  C   UNL A   1      29.219  30.448  21.226  1.00  0.00     0.041 A 
ATOM     27  C   UNL A   1      28.372  31.489  21.587  1.00  0.00     0.123 A 
ATOM     28  F   UNL A   1      27.710  32.168  20.642  1.00  0.00    -0.207 F 
ENDBRANCH  19  22
ENDBRANCH  10  14
ENDBRANCH   7   8
ENDBRANCH   6   7
ENDBRANCH   4   6
ENDBRANCH   1   2
BRANCH   1  29
ATOM     29  C   UNL A   1      37.431  21.356  24.701  1.00  0.00     0.042 C 
BRANCH  29  30
ATOM     30  C   UNL A   1      38.552  21.205  25.728  1.00  0.00     0.118 C 
BRANCH  30  31
ATOM     31  N   UNL A   1      39.351  19.997  25.608  1.00  0.00    -0.352 N 
ATOM     32  C   UNL A   1      40.664  19.861  25.995  1.00  0.00     0.251 C 
ATOM     33  H   UNL A   1      38.914  19.208  25.215  1.00  0.00     0.163 HD
ATOM     34  O   UNL A   1      41.277  18.814  25.833  1.00  0.00    -0.269 OA
BRANCH  32  35
ATOM     35  C   UNL A   1      41.321  21.043  26.574  1.00  0.00     0.039 A 
ATOM     36  C   UNL A   1      41.903  21.980  25.720  1.00  0.00     0.014 A 
ATOM     37  C   UNL A   1      41.208  21.281  27.946  1.00  0.00     0.014 A 
ATOM     38  C   UNL A   1      42.337  23.196  26.243  1.00  0.00     0.010 A 
ATOM     39  C   UNL A   1      41.572  22.521  28.450  1.00  0.00     0.010 A 
ATOM     40  C   UNL A   1      42.146  23.484  27.605  1.00  0.00    -0.014 A 
BRANCH  40  41
ATOM     41  C   UNL A   1      42.563  24.784  28.177  1.00  0.00     0.031 A 
ATOM     42  C   UNL A   1      41.534  25.858  28.382  1.00  0.00     0.074 A 
ATOM     43  C   UNL A   1      43.864  25.010  28.441  1.00  0.00     0.049 A 
ATOM     44  N   UNL A   1      41.693  27.085  28.805  1.00  0.00    -0.248 NA
ATOM     45  C   UNL A   1      40.143  25.516  28.034  1.00  0.00     0.031 C 
ATOM     46  C   UNL A   1      44.950  24.050  28.237  1.00  0.00     0.029 A 
ATOM     47  N   UNL A   1      44.494  26.124  28.935  1.00  0.00    -0.354 N 
ATOM     48  C   UNL A   1      40.430  27.663  28.752  1.00  0.00     0.074 A 
ATOM     49  C   UNL A   1      39.530  26.676  28.203  1.00  0.00     0.031 C 
ATOM     50  C   UNL A   1      46.108  24.606  28.630  1.00  0.00     0.029 A 
ATOM     51  C   UNL A   1      45.853  25.972  29.073  1.00  0.00     0.049 A 
ATOM     52  H   UNL A   1      44.018  26.952  29.169  1.00  0.00     0.167 HD
ATOM     53  C   UNL A   1      40.053  28.899  29.151  1.00  0.00     0.031 A 
ATOM     54  C   UNL A   1      46.783  26.842  29.505  1.00  0.00     0.031 A 
ATOM     55  C   UNL A   1      40.960  29.867  29.704  1.00  0.00     0.049 A 
ATOM     56  C   UNL A   1      46.341  28.216  29.931  1.00  0.00     0.074 A 
ATOM     57  C   UNL A   1      40.683  31.130  30.193  1.00  0.00     0.029 A 
ATOM     58  N   UNL A   1      42.328  29.673  29.838  1.00  0.00    -0.354 N 
ATOM     59  N   UNL A   1      45.131  28.725  29.949  1.00  0.00    -0.248 NA
ATOM     60  C   UNL A   1      47.388  29.131  30.404  1.00  0.00     0.031 C 
ATOM     61  C   UNL A   1      41.893  31.723  30.570  1.00  0.00     0.029 A 
ATOM     62  C   UNL A   1      42.914  30.804  30.376  1.00  0.00     0.049 A 
ATOM     63  H   UNL A   1      42.810  28.852  29.587  1.00  0.00     0.167 HD
ATOM     64  C   UNL A   1      45.268  30.010  30.458  1.00  0.00     0.074 A 
ATOM     65  C   UNL A   1      46.675  30.193  30.755  1.00  0.00     0.031 C 
ATOM     66  C   UNL A   1      44.319  30.956  30.660  1.00  0.00     0.031 A 
BRANCH  53  67
ATOM     67  C   UNL A   1      38.604  29.268  28.988  1.00  0.00    -0.014 A 
ATOM     68  C   UNL A   1      37.701  29.174  30.061  1.00  0.00     0.009 A 
ATOM     69  C   UNL A   1      38.133  29.727  27.748  1.00  0.00     0.009 A 
ATOM     70  C   UNL A   1      36.351  29.486  29.883  1.00  0.00     0.001 A 
ATOM     71  C   UNL A   1      36.790  30.071  27.582  1.00  0.00     0.001 A 
ATOM     72  C   UNL A   1      35.898  29.940  28.645  1.00  0.00     0.000 A 
ENDBRANCH  53  67
BRANCH  54  73
ATOM     73  C   UNL A   1      48.215  26.441  29.572  1.00  0.00    -0.014 A 
ATOM     74  C   UNL A   1      49.076  26.686  28.491  1.00  0.00     0.009 A 
ATOM     75  C   UNL A   1      48.732  25.814  30.716  1.00  0.00     0.009 A 
ATOM     76  C   UNL A   1      50.414  26.286  28.543  1.00  0.00     0.001 A 
ATOM     77  C   UNL A   1      50.078  25.444  30.779  1.00  0.00     0.001 A 
ATOM     78  C   UNL A   1      50.915  25.670  29.689  1.00  0.00     0.000 A 
ENDBRANCH  54  73
BRANCH  66  79
ATOM     79  C   UNL A   1      44.766  32.261  31.253  1.00  0.00    -0.014 A 
ATOM     80  C   UNL A   1      44.805  32.454  32.643  1.00  0.00     0.009 A 
ATOM     81  C   UNL A   1      45.212  33.290  30.408  1.00  0.00     0.009 A 
ATOM     82  C   UNL A   1      45.253  33.665  33.172  1.00  0.00     0.001 A 
ATOM     83  C   UNL A   1      45.691  34.486  30.942  1.00  0.00     0.001 A 
ATOM     84  C   UNL A   1      45.703  34.675  32.322  1.00  0.00     0.000 A 
ENDBRANCH  66  79
ENDBRANCH  40  41
ENDBRANCH  32  35
ENDBRANCH  30  31
ENDBRANCH  29  30
ENDBRANCH   1  29
TORSDOF 14
ENDMDL
MODEL 3
REMARK VINA RESULT:     -12.9      3.496      9.289
REMARK SMILES O=C(COc1ccccc1/C=C1/SC(=O)N(c2ccc(F)cc2)C1=O)NCCCNC(=O)c1ccc(-c2c3nc(c(-c4ccccc4)c4ccc([nH]4)c(-c4ccccc4)c4nc(c(-c5ccccc5)c5ccc2[nH]5)C=C4)C=C3)cc1
REMARK SMILES IDX 27 1 26 2 1 3 2 4 3 6 4 7 5 8 6 9 10 10 7 11 9 12 8 13 11 14
REMARK SMILES IDX 12 15 13 16 24 17 14 18 16 19 25 20 15 21 17 22 18 23 23 24
REMARK SMILES IDX 19 25 22 26 20 27 21 28 28 29 29 30 30 31 31 32 32 34 33 35
REMARK SMILES IDX 34 36 80 37 35 38 79 39 36 40 37 41 38 42 73 43 39 44 78 45
REMARK SMILES IDX 72 46 74 47 40 48 77 49 71 50 70 51 41 53 63 54 48 55 62 56
REMARK SMILES IDX 49 57 52 58 61 59 75 60 50 61 51 62 60 64 76 65 53 66 42 67
REMARK SMILES IDX 43 68 47 69 44 70 46 71 45 72 64 73 65 74 69 75 66 76 68 77
REMARK SMILES IDX 67 78 54 79 55 80 59 81 56 82 58 83 57 84
REMARK H PARENT 26 5 30 33 74 52 52 63
REMARK Flexibility Score: inf
ROOT
ATOM      1  C   UNL A   1      31.398  30.030  25.434  1.00  0.00     0.117 C 
ENDROOT
BRANCH   1   2
ATOM      2  N   UNL A   1      30.811  28.387  24.247  1.00  0.00    -0.353 N 
ATOM      3  O   UNL A   1      29.983  28.304  21.940  1.00  0.00    -0.271 OA
ATOM      4  C   UNL A   1      30.458  27.780  22.943  1.00  0.00     0.257 C 
ATOM      5  H   UNL A   1      30.733  27.644  24.888  1.00  0.00     0.163 HD
BRANCH   4   6
ATOM      6  C   UNL A   1      30.753  26.276  22.924  1.00  0.00     0.329 C 
BRANCH   6   7
ATOM      7  O   UNL A   1      31.954  25.944  23.596  1.00  0.00    -0.483 OA
BRANCH   7   8
ATOM      8  C   UNL A   1      31.868  24.981  24.576  1.00  0.00     0.127 A 
ATOM      9  C   UNL A   1      30.625  24.976  25.215  1.00  0.00     0.047 A 
ATOM     10  C   UNL A   1      32.949  24.233  25.112  1.00  0.00     0.018 A 
ATOM     11  C   UNL A   1      30.441  24.268  26.399  1.00  0.00     0.004 A 
ATOM     12  C   UNL A   1      32.747  23.540  26.314  1.00  0.00     0.012 A 
ATOM     13  C   UNL A   1      31.508  23.571  26.959  1.00  0.00     0.001 A 
BRANCH  10  14
ATOM     14  C   UNL A   1      34.310  24.175  24.553  1.00  0.00     0.033 C 
ATOM     15  C   UNL A   1      34.747  23.042  23.974  1.00  0.00     0.084 C 
ATOM     16  S   UNL A   1      36.948  22.548  24.314  1.00  0.00    -0.022 SA
ATOM     17  C   UNL A   1      33.643  21.416  24.025  1.00  0.00     0.272 C 
ATOM     18  C   UNL A   1      36.444  20.314  24.838  1.00  0.00     0.298 C 
ATOM     19  N   UNL A   1      34.683  20.004  24.506  1.00  0.00    -0.236 N 
ATOM     20  O   UNL A   1      32.467  21.380  23.696  1.00  0.00    -0.268 OA
ATOM     21  O   UNL A   1      37.323  19.578  25.257  1.00  0.00    -0.260 OA
BRANCH  19  22
ATOM     22  C   UNL A   1      34.086  18.712  24.656  1.00  0.00     0.053 A 
ATOM     23  C   UNL A   1      33.056  18.512  25.591  1.00  0.00     0.030 A 
ATOM     24  C   UNL A   1      34.492  17.627  23.873  1.00  0.00     0.030 A 
ATOM     25  C   UNL A   1      32.432  17.269  25.731  1.00  0.00     0.041 A 
ATOM     26  C   UNL A   1      33.877  16.375  24.025  1.00  0.00     0.041 A 
ATOM     27  C   UNL A   1      32.849  16.210  24.946  1.00  0.00     0.123 A 
ATOM     28  F   UNL A   1      32.256  15.017  25.075  1.00  0.00    -0.207 F 
ENDBRANCH  19  22
ENDBRANCH  10  14
ENDBRANCH   7   8
ENDBRANCH   6   7
ENDBRANCH   4   6
ENDBRANCH   1   2
BRANCH   1  29
ATOM     29  C   UNL A   1      32.922  30.476  26.040  1.00  0.00     0.042 C 
BRANCH  29  30
ATOM     30  C   UNL A   1      33.009  31.089  27.437  1.00  0.00     0.118 C 
BRANCH  30  31
ATOM     31  N   UNL A   1      32.450  32.423  27.570  1.00  0.00    -0.352 N 
ATOM     32  C   UNL A   1      33.070  33.500  28.162  1.00  0.00     0.251 C 
ATOM     33  H   UNL A   1      31.547  32.570  27.204  1.00  0.00     0.163 HD
ATOM     34  O   UNL A   1      32.517  34.588  28.259  1.00  0.00    -0.269 OA
BRANCH  32  35
ATOM     35  C   UNL A   1      34.414  33.280  28.716  1.00  0.00     0.039 A 
ATOM     36  C   UNL A   1      34.540  32.655  29.958  1.00  0.00     0.014 A 
ATOM     37  C   UNL A   1      35.532  33.552  27.923  1.00  0.00     0.014 A 
ATOM     38  C   UNL A   1      35.802  32.255  30.390  1.00  0.00     0.010 A 
ATOM     39  C   UNL A   1      36.775  33.086  28.323  1.00  0.00     0.010 A 
ATOM     40  C   UNL A   1      36.922  32.442  29.561  1.00  0.00    -0.014 A 
BRANCH  40  41
ATOM     41  C   UNL A   1      38.268  31.991  29.982  1.00  0.00     0.031 A 
ATOM     42  C   UNL A   1      38.799  30.686  29.461  1.00  0.00     0.074 A 
ATOM     43  C   UNL A   1      38.967  32.718  30.874  1.00  0.00     0.049 A 
ATOM     44  N   UNL A   1      39.918  30.075  29.750  1.00  0.00    -0.248 NA
ATOM     45  C   UNL A   1      37.941  29.955  28.512  1.00  0.00     0.031 C 
ATOM     46  C   UNL A   1      38.523  33.977  31.475  1.00  0.00     0.029 A 
ATOM     47  N   UNL A   1      40.199  32.498  31.434  1.00  0.00    -0.354 N 
ATOM     48  C   UNL A   1      39.886  28.883  29.037  1.00  0.00     0.074 A 
ATOM     49  C   UNL A   1      38.616  28.829  28.351  1.00  0.00     0.031 C 
ATOM     50  C   UNL A   1      39.482  34.433  32.298  1.00  0.00     0.029 A 
ATOM     51  C   UNL A   1      40.587  33.480  32.314  1.00  0.00     0.049 A 
ATOM     52  H   UNL A   1      40.753  31.713  31.226  1.00  0.00     0.167 HD
ATOM     53  C   UNL A   1      40.843  27.931  28.945  1.00  0.00     0.031 A 
ATOM     54  C   UNL A   1      41.706  33.591  33.052  1.00  0.00     0.031 A 
ATOM     55  C   UNL A   1      42.104  28.004  29.628  1.00  0.00     0.049 A 
ATOM     56  C   UNL A   1      42.750  32.514  32.942  1.00  0.00     0.074 A 
ATOM     57  C   UNL A   1      43.172  27.128  29.567  1.00  0.00     0.029 A 
ATOM     58  N   UNL A   1      42.465  29.020  30.503  1.00  0.00    -0.354 N 
ATOM     59  N   UNL A   1      42.741  31.428  32.203  1.00  0.00    -0.248 NA
ATOM     60  C   UNL A   1      43.960  32.679  33.758  1.00  0.00     0.031 C 
ATOM     61  C   UNL A   1      44.157  27.583  30.450  1.00  0.00     0.029 A 
ATOM     62  C   UNL A   1      43.728  28.777  31.011  1.00  0.00     0.049 A 
ATOM     63  H   UNL A   1      41.905  29.798  30.728  1.00  0.00     0.167 HD
ATOM     64  C   UNL A   1      43.953  30.794  32.447  1.00  0.00     0.074 A 
ATOM     65  C   UNL A   1      44.679  31.629  33.384  1.00  0.00     0.031 C 
ATOM     66  C   UNL A   1      44.424  29.627  31.944  1.00  0.00     0.031 A 
BRANCH  53  67
ATOM     67  C   UNL A   1      40.547  26.733  28.085  1.00  0.00    -0.014 A 
ATOM     68  C   UNL A   1      40.959  26.677  26.743  1.00  0.00     0.009 A 
ATOM     69  C   UNL A   1      39.856  25.637  28.625  1.00  0.00     0.009 A 
ATOM     70  C   UNL A   1      40.645  25.572  25.949  1.00  0.00     0.001 A 
ATOM     71  C   UNL A   1      39.573  24.519  27.839  1.00  0.00     0.001 A 
ATOM     72  C   UNL A   1      39.957  24.491  26.499  1.00  0.00     0.000 A 
ENDBRANCH  53  67
BRANCH  54  73
ATOM     73  C   UNL A   1      41.907  34.767  33.943  1.00  0.00    -0.014 A 
ATOM     74  C   UNL A   1      41.352  34.789  35.232  1.00  0.00     0.009 A 
ATOM     75  C   UNL A   1      42.656  35.874  33.513  1.00  0.00     0.009 A 
ATOM     76  C   UNL A   1      41.517  35.903  36.059  1.00  0.00     0.001 A 
ATOM     77  C   UNL A   1      42.847  36.974  34.353  1.00  0.00     0.001 A 
ATOM     78  C   UNL A   1      42.269  36.992  35.621  1.00  0.00     0.000 A 
ENDBRANCH  54  73
BRANCH  66  79
ATOM     79  C   UNL A   1      45.797  29.199  32.376  1.00  0.00    -0.014 A 
ATOM     80  C   UNL A   1      45.984  28.378  33.500  1.00  0.00     0.009 A 
ATOM     81  C   UNL A   1      46.913  29.577  31.613  1.00  0.00     0.009 A 
ATOM     82  C   UNL A   1      47.267  27.969  33.865  1.00  0.00     0.001 A 
ATOM     83  C   UNL A   1      48.190  29.137  31.963  1.00  0.00     0.001 A 
ATOM     84  C   UNL A   1      48.366  28.341  33.092  1.00  0.00     0.000 A 
ENDBRANCH  66  79
ENDBRANCH  40  41
ENDBRANCH  32  35
ENDBRANCH  30  31
ENDBRANCH  29  30
ENDBRANCH   1  29
TORSDOF 14
ENDMDL
