MODEL 1
REMARK VINA RESULT:     -12.8      0.000      0.000
REMARK SMILES CN(C)C(=O)c1cccc(N2CCC3(CC2)[C@H](C(=O)NCCCNC(=O)c2ccc(-c4c5nc(c(-c6ccccc6)c6ccc([nH]6)c(-c6ccccc6)c6nc(c(-c7ccccc7)c7ccc4[nH]7)C=C6)C=C5)cc2)CC(=O)N3C)n1
REMARK SMILES IDX 22 1 21 2 20 3 18 4 19 5 17 7 11 8 12 9 16 10 13 11 15 12
REMARK SMILES IDX 14 13 78 14 75 15 76 16 79 17 77 18 10 19 6 20 7 21 80 22
REMARK SMILES IDX 8 23 9 24 4 25 1 26 2 27 3 28 5 29 23 30 24 31 25 32 26 34
REMARK SMILES IDX 27 35 28 36 74 37 29 38 73 39 30 40 31 41 32 42 67 43 33 44
REMARK SMILES IDX 72 45 66 46 68 47 34 48 71 49 65 50 64 51 35 53 57 54 42 55
REMARK SMILES IDX 56 56 43 57 46 58 55 59 69 60 44 61 45 62 54 64 70 65 47 66
REMARK SMILES IDX 36 67 37 68 41 69 38 70 40 71 39 72 58 73 59 74 63 75 60 76
REMARK SMILES IDX 62 77 61 78 48 79 49 80 53 81 50 82 52 83 51 84
REMARK H PARENT 20 6 24 33 68 52 46 63
REMARK Flexibility Score: inf
ROOT
ATOM      1  C   UNL A   1      37.040  19.816  24.989  1.00  0.00     0.042 C 
ENDROOT
BRANCH   1   2
ATOM      2  C   UNL A   1      35.830  20.754  24.931  1.00  0.00     0.117 C 
BRANCH   2   3
ATOM      3  N   UNL A   1      35.462  21.355  26.208  1.00  0.00    -0.356 N 
ATOM      4  C   UNL A   1      34.293  21.707  26.797  1.00  0.00     0.226 C 
ATOM      5  O   UNL A   1      34.386  22.168  27.942  1.00  0.00    -0.275 OA
ATOM      6  H   UNL A   1      36.245  21.551  26.773  1.00  0.00     0.163 HD
BRANCH   4   7
ATOM      7  C   UNL A   1      32.910  21.609  26.155  1.00  0.00     0.113 C 
ATOM      8  N   UNL A   1      31.795  25.431  24.659  1.00  0.00    -0.356 N 
ATOM      9  C   UNL A   1      33.123  25.037  24.255  1.00  0.00     0.120 C 
ATOM     10  C   UNL A   1      30.719  24.459  24.549  1.00  0.00     0.120 C 
ATOM     11  C   UNL A   1      33.497  23.865  25.140  1.00  0.00     0.051 C 
ATOM     12  C   UNL A   1      31.087  23.176  25.312  1.00  0.00     0.051 C 
ATOM     13  C   UNL A   1      32.539  22.659  25.062  1.00  0.00     0.058 C 
ATOM     14  N   UNL A   1      32.586  21.827  23.844  1.00  0.00    -0.339 N 
ATOM     15  C   UNL A   1      32.626  20.230  25.575  1.00  0.00     0.116 C 
ATOM     16  C   UNL A   1      32.585  20.463  24.099  1.00  0.00     0.223 C 
ATOM     17  C   UNL A   1      32.520  22.294  22.473  1.00  0.00     0.147 C 
ATOM     18  O   UNL A   1      32.573  19.566  23.262  1.00  0.00    -0.275 OA
BRANCH   8  19
ATOM     19  C   UNL A   1      31.551  26.784  24.758  1.00  0.00     0.129 A 
ATOM     20  C   UNL A   1      30.764  28.768  23.833  1.00  0.00     0.130 A 
ATOM     21  C   UNL A   1      31.252  29.523  24.891  1.00  0.00     0.034 A 
ATOM     22  N   UNL A   1      30.922  27.419  23.748  1.00  0.00    -0.226 NA
ATOM     23  C   UNL A   1      31.942  28.868  25.901  1.00  0.00     0.006 A 
ATOM     24  C   UNL A   1      32.073  27.486  25.841  1.00  0.00     0.047 A 
BRANCH  20  25
ATOM     25  C   UNL A   1      29.911  29.400  22.771  1.00  0.00     0.272 C 
ATOM     26  C   UNL A   1      28.165  30.951  22.067  1.00  0.00     0.146 C 
ATOM     27  N   UNL A   1      29.124  30.523  23.071  1.00  0.00    -0.343 N 
ATOM     28  C   UNL A   1      29.294  31.386  24.229  1.00  0.00     0.146 C 
ATOM     29  O   UNL A   1      29.887  28.883  21.652  1.00  0.00    -0.267 OA
ENDBRANCH  20  25
ENDBRANCH   8  19
ENDBRANCH   4   7
ENDBRANCH   2   3
ENDBRANCH   1   2
BRANCH   1  30
ATOM     30  C   UNL A   1      38.310  20.467  25.526  1.00  0.00     0.118 C 
BRANCH  30  31
ATOM     31  N   UNL A   1      39.355  19.478  25.720  1.00  0.00    -0.352 N 
ATOM     32  C   UNL A   1      40.682  19.680  26.013  1.00  0.00     0.251 C 
ATOM     33  H   UNL A   1      39.077  18.537  25.629  1.00  0.00     0.163 HD
ATOM     34  O   UNL A   1      41.498  18.788  25.808  1.00  0.00    -0.269 OA
BRANCH  32  35
ATOM     35  C   UNL A   1      41.128  20.973  26.580  1.00  0.00     0.039 A 
ATOM     36  C   UNL A   1      41.636  21.955  25.725  1.00  0.00     0.014 A 
ATOM     37  C   UNL A   1      41.094  21.196  27.959  1.00  0.00     0.014 A 
ATOM     38  C   UNL A   1      42.075  23.175  26.251  1.00  0.00     0.010 A 
ATOM     39  C   UNL A   1      41.462  22.437  28.473  1.00  0.00     0.010 A 
ATOM     40  C   UNL A   1      41.973  23.434  27.627  1.00  0.00    -0.014 A 
BRANCH  40  41
ATOM     41  C   UNL A   1      42.423  24.722  28.213  1.00  0.00     0.031 A 
ATOM     42  C   UNL A   1      41.431  25.833  28.439  1.00  0.00     0.074 A 
ATOM     43  C   UNL A   1      43.729  24.925  28.475  1.00  0.00     0.049 A 
ATOM     44  N   UNL A   1      41.641  27.062  28.838  1.00  0.00    -0.248 NA
ATOM     45  C   UNL A   1      40.019  25.528  28.152  1.00  0.00     0.031 C 
ATOM     46  C   UNL A   1      44.797  23.944  28.273  1.00  0.00     0.029 A 
ATOM     47  N   UNL A   1      44.382  26.033  28.954  1.00  0.00    -0.354 N 
ATOM     48  C   UNL A   1      40.396  27.680  28.823  1.00  0.00     0.074 A 
ATOM     49  C   UNL A   1      39.445  26.707  28.333  1.00  0.00     0.031 C 
ATOM     50  C   UNL A   1      45.968  24.488  28.643  1.00  0.00     0.029 A 
ATOM     51  C   UNL A   1      45.741  25.867  29.063  1.00  0.00     0.049 A 
ATOM     52  H   UNL A   1      43.920  26.869  29.195  1.00  0.00     0.167 HD
ATOM     53  C   UNL A   1      40.070  28.939  29.201  1.00  0.00     0.031 A 
ATOM     54  C   UNL A   1      46.701  26.732  29.446  1.00  0.00     0.031 A 
ATOM     55  C   UNL A   1      41.012  29.901  29.706  1.00  0.00     0.049 A 
ATOM     56  C   UNL A   1      46.316  28.129  29.846  1.00  0.00     0.074 A 
ATOM     57  C   UNL A   1      40.771  31.183  30.167  1.00  0.00     0.029 A 
ATOM     58  N   UNL A   1      42.376  29.684  29.819  1.00  0.00    -0.354 N 
ATOM     59  N   UNL A   1      45.128  28.681  29.879  1.00  0.00    -0.248 NA
ATOM     60  C   UNL A   1      47.405  29.021  30.270  1.00  0.00     0.031 C 
ATOM     61  C   UNL A   1      41.996  31.761  30.512  1.00  0.00     0.029 A 
ATOM     62  C   UNL A   1      42.993  30.818  30.320  1.00  0.00     0.049 A 
ATOM     63  H   UNL A   1      42.838  28.849  29.578  1.00  0.00     0.167 HD
ATOM     64  C   UNL A   1      45.321  29.970  30.359  1.00  0.00     0.074 A 
ATOM     65  C   UNL A   1      46.739  30.116  30.611  1.00  0.00     0.031 C 
ATOM     66  C   UNL A   1      44.405  30.944  30.575  1.00  0.00     0.031 A 
BRANCH  53  67
ATOM     67  C   UNL A   1      38.629  29.352  29.071  1.00  0.00    -0.014 A 
ATOM     68  C   UNL A   1      38.118  29.838  27.856  1.00  0.00     0.009 A 
ATOM     69  C   UNL A   1      37.763  29.219  30.167  1.00  0.00     0.009 A 
ATOM     70  C   UNL A   1      36.778  30.220  27.755  1.00  0.00     0.001 A 
ATOM     71  C   UNL A   1      36.416  29.572  30.053  1.00  0.00     0.001 A 
ATOM     72  C   UNL A   1      35.927  30.081  28.851  1.00  0.00     0.000 A 
ENDBRANCH  53  67
BRANCH  54  73
ATOM     73  C   UNL A   1      48.122  26.298  29.477  1.00  0.00    -0.014 A 
ATOM     74  C   UNL A   1      48.668  25.735  30.641  1.00  0.00     0.009 A 
ATOM     75  C   UNL A   1      48.941  26.442  28.346  1.00  0.00     0.009 A 
ATOM     76  C   UNL A   1      50.011  25.351  30.681  1.00  0.00     0.001 A 
ATOM     77  C   UNL A   1      50.275  26.029  28.379  1.00  0.00     0.001 A 
ATOM     78  C   UNL A   1      50.811  25.494  29.549  1.00  0.00     0.000 A 
ENDBRANCH  54  73
BRANCH  66  79
ATOM     79  C   UNL A   1      44.893  32.241  31.153  1.00  0.00    -0.014 A 
ATOM     80  C   UNL A   1      45.019  32.423  32.539  1.00  0.00     0.009 A 
ATOM     81  C   UNL A   1      45.296  33.275  30.292  1.00  0.00     0.009 A 
ATOM     82  C   UNL A   1      45.514  33.624  33.050  1.00  0.00     0.001 A 
ATOM     83  C   UNL A   1      45.816  34.462  30.804  1.00  0.00     0.001 A 
ATOM     84  C   UNL A   1      45.919  34.639  32.183  1.00  0.00     0.000 A 
ENDBRANCH  66  79
ENDBRANCH  40  41
ENDBRANCH  32  35
ENDBRANCH  30  31
ENDBRANCH   1  30
TORSDOF 12
ENDMDL
MODEL 2
REMARK VINA RESULT:     -12.8      2.957      8.938
REMARK SMILES CN(C)C(=O)c1cccc(N2CCC3(CC2)[C@H](C(=O)NCCCNC(=O)c2ccc(-c4c5nc(c(-c6ccccc6)c6ccc([nH]6)c(-c6ccccc6)c6nc(c(-c7ccccc7)c7ccc4[nH]7)C=C6)C=C5)cc2)CC(=O)N3C)n1
REMARK SMILES IDX 22 1 21 2 20 3 18 4 19 5 17 7 11 8 12 9 16 10 13 11 15 12
REMARK SMILES IDX 14 13 78 14 75 15 76 16 79 17 77 18 10 19 6 20 7 21 80 22
REMARK SMILES IDX 8 23 9 24 4 25 1 26 2 27 3 28 5 29 23 30 24 31 25 32 26 34
REMARK SMILES IDX 27 35 28 36 74 37 29 38 73 39 30 40 31 41 32 42 67 43 33 44
REMARK SMILES IDX 72 45 66 46 68 47 34 48 71 49 65 50 64 51 35 53 57 54 42 55
REMARK SMILES IDX 56 56 43 57 46 58 55 59 69 60 44 61 45 62 54 64 70 65 47 66
REMARK SMILES IDX 36 67 37 68 41 69 38 70 40 71 39 72 58 73 59 74 63 75 60 76
REMARK SMILES IDX 62 77 61 78 48 79 49 80 53 81 50 82 52 83 51 84
REMARK H PARENT 20 6 24 33 68 52 46 63
REMARK Flexibility Score: inf
ROOT
ATOM      1  C   UNL A   1      31.258  31.089  25.978  1.00  0.00     0.042 C 
ENDROOT
BRANCH   1   2
ATOM      2  C   UNL A   1      31.540  29.720  25.351  1.00  0.00     0.117 C 
BRANCH   2   3
ATOM      3  N   UNL A   1      32.701  29.680  24.469  1.00  0.00    -0.356 N 
ATOM      4  C   UNL A   1      33.049  28.953  23.380  1.00  0.00     0.226 C 
ATOM      5  O   UNL A   1      34.135  29.246  22.864  1.00  0.00    -0.275 OA
ATOM      6  H   UNL A   1      33.393  30.333  24.726  1.00  0.00     0.163 HD
BRANCH   4   7
ATOM      7  C   UNL A   1      32.235  27.808  22.778  1.00  0.00     0.113 C 
ATOM      8  N   UNL A   1      33.646  24.118  24.353  1.00  0.00    -0.356 N 
ATOM      9  C   UNL A   1      33.394  25.104  25.376  1.00  0.00     0.120 C 
ATOM     10  C   UNL A   1      32.651  23.929  23.311  1.00  0.00     0.120 C 
ATOM     11  C   UNL A   1      33.258  26.429  24.653  1.00  0.00     0.051 C 
ATOM     12  C   UNL A   1      32.352  25.269  22.618  1.00  0.00     0.051 C 
ATOM     13  C   UNL A   1      32.147  26.476  23.586  1.00  0.00     0.058 C 
ATOM     14  N   UNL A   1      30.748  26.525  24.057  1.00  0.00    -0.339 N 
ATOM     15  C   UNL A   1      30.814  28.220  22.423  1.00  0.00     0.116 C 
ATOM     16  C   UNL A   1      29.966  27.457  23.390  1.00  0.00     0.223 C 
ATOM     17  C   UNL A   1      30.132  25.644  25.029  1.00  0.00     0.147 C 
ATOM     18  O   UNL A   1      28.768  27.658  23.561  1.00  0.00    -0.275 OA
BRANCH   8  19
ATOM     19  C   UNL A   1      34.607  23.168  24.629  1.00  0.00     0.129 A 
ATOM     20  C   UNL A   1      35.208  20.951  24.993  1.00  0.00     0.130 A 
ATOM     21  C   UNL A   1      36.495  21.302  25.376  1.00  0.00     0.034 A 
ATOM     22  N   UNL A   1      34.262  21.864  24.640  1.00  0.00    -0.226 NA
ATOM     23  C   UNL A   1      36.825  22.649  25.411  1.00  0.00     0.006 A 
ATOM     24  C   UNL A   1      35.878  23.585  25.014  1.00  0.00     0.047 A 
BRANCH  20  25
ATOM     25  C   UNL A   1      34.825  19.508  24.825  1.00  0.00     0.272 C 
ATOM     26  C   UNL A   1      33.218  17.683  25.006  1.00  0.00     0.146 C 
ATOM     27  N   UNL A   1      33.486  19.110  24.965  1.00  0.00    -0.343 N 
ATOM     28  C   UNL A   1      32.335  19.996  24.916  1.00  0.00     0.146 C 
ATOM     29  O   UNL A   1      35.718  18.686  24.609  1.00  0.00    -0.267 OA
ENDBRANCH  20  25
ENDBRANCH   8  19
ENDBRANCH   4   7
ENDBRANCH   2   3
ENDBRANCH   1   2
BRANCH   1  30
ATOM     30  C   UNL A   1      32.317  31.551  26.973  1.00  0.00     0.118 C 
BRANCH  30  31
ATOM     31  N   UNL A   1      32.190  32.973  27.239  1.00  0.00    -0.352 N 
ATOM     32  C   UNL A   1      32.935  33.755  28.088  1.00  0.00     0.251 C 
ATOM     33  H   UNL A   1      31.475  33.439  26.747  1.00  0.00     0.163 HD
ATOM     34  O   UNL A   1      32.500  34.839  28.463  1.00  0.00    -0.269 OA
BRANCH  32  35
ATOM     35  C   UNL A   1      34.265  33.294  28.547  1.00  0.00     0.039 A 
ATOM     36  C   UNL A   1      35.400  33.640  27.808  1.00  0.00     0.014 A 
ATOM     37  C   UNL A   1      34.386  32.477  29.674  1.00  0.00     0.014 A 
ATOM     38  C   UNL A   1      36.660  33.197  28.223  1.00  0.00     0.010 A 
ATOM     39  C   UNL A   1      35.647  32.098  30.127  1.00  0.00     0.010 A 
ATOM     40  C   UNL A   1      36.797  32.439  29.397  1.00  0.00    -0.014 A 
BRANCH  40  41
ATOM     41  C   UNL A   1      38.122  31.962  29.867  1.00  0.00     0.031 A 
ATOM     42  C   UNL A   1      38.665  30.645  29.378  1.00  0.00     0.074 A 
ATOM     43  C   UNL A   1      38.807  32.669  30.787  1.00  0.00     0.049 A 
ATOM     44  N   UNL A   1      39.745  30.006  29.748  1.00  0.00    -0.248 NA
ATOM     45  C   UNL A   1      37.871  29.941  28.356  1.00  0.00     0.031 C 
ATOM     46  C   UNL A   1      38.380  33.945  31.366  1.00  0.00     0.029 A 
ATOM     47  N   UNL A   1      40.002  32.406  31.407  1.00  0.00    -0.354 N 
ATOM     48  C   UNL A   1      39.746  28.818  29.026  1.00  0.00     0.074 A 
ATOM     49  C   UNL A   1      38.537  28.803  28.233  1.00  0.00     0.031 C 
ATOM     50  C   UNL A   1      39.308  34.361  32.243  1.00  0.00     0.029 A 
ATOM     51  C   UNL A   1      40.371  33.363  32.322  1.00  0.00     0.049 A 
ATOM     52  H   UNL A   1      40.545  31.607  31.216  1.00  0.00     0.167 HD
ATOM     53  C   UNL A   1      40.678  27.835  29.011  1.00  0.00     0.031 A 
ATOM     54  C   UNL A   1      41.437  33.425  33.144  1.00  0.00     0.031 A 
ATOM     55  C   UNL A   1      41.889  27.857  29.786  1.00  0.00     0.049 A 
ATOM     56  C   UNL A   1      42.450  32.314  33.120  1.00  0.00     0.074 A 
ATOM     57  C   UNL A   1      42.922  26.936  29.797  1.00  0.00     0.029 A 
ATOM     58  N   UNL A   1      42.231  28.855  30.684  1.00  0.00    -0.354 N 
ATOM     59  N   UNL A   1      42.464  31.225  32.391  1.00  0.00    -0.248 NA
ATOM     60  C   UNL A   1      43.600  32.447  34.026  1.00  0.00     0.031 C 
ATOM     61  C   UNL A   1      43.866  27.351  30.741  1.00  0.00     0.029 A 
ATOM     62  C   UNL A   1      43.448  28.560  31.274  1.00  0.00     0.049 A 
ATOM     63  H   UNL A   1      41.689  29.655  30.876  1.00  0.00     0.167 HD
ATOM     64  C   UNL A   1      43.637  30.560  32.725  1.00  0.00     0.074 A 
ATOM     65  C   UNL A   1      44.312  31.372  33.715  1.00  0.00     0.031 C 
ATOM     66  C   UNL A   1      44.113  29.384  32.251  1.00  0.00     0.031 A 
BRANCH  53  67
ATOM     67  C   UNL A   1      40.415  26.642  28.132  1.00  0.00    -0.014 A 
ATOM     68  C   UNL A   1      39.635  25.564  28.581  1.00  0.00     0.009 A 
ATOM     69  C   UNL A   1      40.924  26.613  26.824  1.00  0.00     0.009 A 
ATOM     70  C   UNL A   1      39.405  24.464  27.752  1.00  0.00     0.001 A 
ATOM     71  C   UNL A   1      40.666  25.525  25.987  1.00  0.00     0.001 A 
ATOM     72  C   UNL A   1      39.915  24.448  26.455  1.00  0.00     0.000 A 
ENDBRANCH  53  67
BRANCH  54  73
ATOM     73  C   UNL A   1      41.607  34.587  34.054  1.00  0.00    -0.014 A 
ATOM     74  C   UNL A   1      41.039  34.574  35.338  1.00  0.00     0.009 A 
ATOM     75  C   UNL A   1      42.336  35.716  33.647  1.00  0.00     0.009 A 
ATOM     76  C   UNL A   1      41.176  35.677  36.184  1.00  0.00     0.001 A 
ATOM     77  C   UNL A   1      42.496  36.804  34.508  1.00  0.00     0.001 A 
ATOM     78  C   UNL A   1      41.908  36.788  35.771  1.00  0.00     0.000 A 
ENDBRANCH  54  73
BRANCH  66  79
ATOM     79  C   UNL A   1      45.449  28.921  32.758  1.00  0.00    -0.014 A 
ATOM     80  C   UNL A   1      45.555  28.078  33.874  1.00  0.00     0.009 A 
ATOM     81  C   UNL A   1      46.615  29.284  32.065  1.00  0.00     0.009 A 
ATOM     82  C   UNL A   1      46.806  27.627  34.301  1.00  0.00     0.001 A 
ATOM     83  C   UNL A   1      47.860  28.810  32.477  1.00  0.00     0.001 A 
ATOM     84  C   UNL A   1      47.956  27.988  33.598  1.00  0.00     0.000 A 
ENDBRANCH  66  79
ENDBRANCH  40  41
ENDBRANCH  32  35
ENDBRANCH  30  31
ENDBRANCH   1  30
TORSDOF 12
ENDMDL
MODEL 3
REMARK VINA RESULT:     -12.8      3.268      8.986
REMARK SMILES CN(C)C(=O)c1cccc(N2CCC3(CC2)[C@H](C(=O)NCCCNC(=O)c2ccc(-c4c5nc(c(-c6ccccc6)c6ccc([nH]6)c(-c6ccccc6)c6nc(c(-c7ccccc7)c7ccc4[nH]7)C=C6)C=C5)cc2)CC(=O)N3C)n1
REMARK SMILES IDX 22 1 21 2 20 3 18 4 19 5 17 7 11 8 12 9 16 10 13 11 15 12
REMARK SMILES IDX 14 13 78 14 75 15 76 16 79 17 77 18 10 19 6 20 7 21 80 22
REMARK SMILES IDX 8 23 9 24 4 25 1 26 2 27 3 28 5 29 23 30 24 31 25 32 26 34
REMARK SMILES IDX 27 35 28 36 74 37 29 38 73 39 30 40 31 41 32 42 67 43 33 44
REMARK SMILES IDX 72 45 66 46 68 47 34 48 71 49 65 50 64 51 35 53 57 54 42 55
REMARK SMILES IDX 56 56 43 57 46 58 55 59 69 60 44 61 45 62 54 64 70 65 47 66
REMARK SMILES IDX 36 67 37 68 41 69 38 70 40 71 39 72 58 73 59 74 63 75 60 76
REMARK SMILES IDX 62 77 61 78 48 79 49 80 53 81 50 82 52 83 51 84
REMARK H PARENT 20 6 24 33 68 52 46 63
REMARK Flexibility Score: inf
ROOT
ATOM      1  C   UNL A   1      32.908  27.690  24.890  1.00  0.00     0.042 C 
ENDROOT
BRANCH   1   2
ATOM      2  C   UNL A   1      33.341  26.533  25.796  1.00  0.00     0.117 C 
BRANCH   2   3
ATOM      3  N   UNL A   1      32.352  25.472  25.947  1.00  0.00    -0.356 N 
ATOM      4  C   UNL A   1      32.132  24.278  25.344  1.00  0.00     0.226 C 
ATOM      5  O   UNL A   1      31.184  23.618  25.790  1.00  0.00    -0.275 OA
ATOM      6  H   UNL A   1      31.691  25.669  26.650  1.00  0.00     0.163 HD
BRANCH   4   7
ATOM      7  C   UNL A   1      32.928  23.717  24.166  1.00  0.00     0.113 C 
ATOM      8  N   UNL A   1      36.829  22.665  25.493  1.00  0.00    -0.356 N 
ATOM      9  C   UNL A   1      35.788  22.143  26.345  1.00  0.00     0.120 C 
ATOM     10  C   UNL A   1      36.680  22.530  24.053  1.00  0.00     0.120 C 
ATOM     11  C   UNL A   1      34.524  22.888  25.962  1.00  0.00     0.051 C 
ATOM     12  C   UNL A   1      35.344  23.143  23.602  1.00  0.00     0.051 C 
ATOM     13  C   UNL A   1      34.114  22.755  24.482  1.00  0.00     0.058 C 
ATOM     14  N   UNL A   1      33.554  21.462  24.041  1.00  0.00    -0.339 N 
ATOM     15  C   UNL A   1      32.045  23.028  23.136  1.00  0.00     0.116 C 
ATOM     16  C   UNL A   1      32.424  21.586  23.245  1.00  0.00     0.223 C 
ATOM     17  C   UNL A   1      34.125  20.149  24.267  1.00  0.00     0.147 C 
ATOM     18  O   UNL A   1      31.802  20.669  22.717  1.00  0.00    -0.275 OA
BRANCH   8  19
ATOM     19  C   UNL A   1      38.051  22.908  26.082  1.00  0.00     0.129 A 
ATOM     20  C   UNL A   1      40.079  22.135  26.920  1.00  0.00     0.130 A 
ATOM     21  C   UNL A   1      40.405  23.380  27.441  1.00  0.00     0.034 A 
ATOM     22  N   UNL A   1      38.912  21.886  26.265  1.00  0.00    -0.226 NA
ATOM     23  C   UNL A   1      39.491  24.413  27.293  1.00  0.00     0.006 A 
ATOM     24  C   UNL A   1      38.315  24.177  26.590  1.00  0.00     0.047 A 
BRANCH  20  25
ATOM     25  C   UNL A   1      41.073  21.010  26.947  1.00  0.00     0.272 C 
ATOM     26  C   UNL A   1      42.973  19.807  26.003  1.00  0.00     0.146 C 
ATOM     27  N   UNL A   1      42.176  21.019  26.078  1.00  0.00    -0.343 N 
ATOM     28  C   UNL A   1      42.678  22.184  25.368  1.00  0.00     0.146 C 
ATOM     29  O   UNL A   1      40.870  20.065  27.713  1.00  0.00    -0.267 OA
ENDBRANCH  20  25
ENDBRANCH   8  19
ENDBRANCH   4   7
ENDBRANCH   2   3
ENDBRANCH   1   2
BRANCH   1  30
ATOM     30  C   UNL A   1      33.793  28.927  24.989  1.00  0.00     0.118 C 
BRANCH  30  31
ATOM     31  N   UNL A   1      33.034  30.069  25.467  1.00  0.00    -0.352 N 
ATOM     32  C   UNL A   1      33.173  30.756  26.648  1.00  0.00     0.251 C 
ATOM     33  H   UNL A   1      32.325  30.393  24.865  1.00  0.00     0.163 HD
ATOM     34  O   UNL A   1      32.257  31.460  27.059  1.00  0.00    -0.269 OA
BRANCH  32  35
ATOM     35  C   UNL A   1      34.430  30.651  27.424  1.00  0.00     0.039 A 
ATOM     36  C   UNL A   1      34.809  29.411  27.946  1.00  0.00     0.014 A 
ATOM     37  C   UNL A   1      35.205  31.785  27.680  1.00  0.00     0.014 A 
ATOM     38  C   UNL A   1      35.986  29.304  28.694  1.00  0.00     0.010 A 
ATOM     39  C   UNL A   1      36.414  31.663  28.361  1.00  0.00     0.010 A 
ATOM     40  C   UNL A   1      36.809  30.424  28.891  1.00  0.00    -0.014 A 
BRANCH  40  41
ATOM     41  C   UNL A   1      38.069  30.339  29.673  1.00  0.00     0.031 A 
ATOM     42  C   UNL A   1      39.273  29.652  29.086  1.00  0.00     0.074 A 
ATOM     43  C   UNL A   1      38.113  30.809  30.935  1.00  0.00     0.049 A 
ATOM     44  N   UNL A   1      40.425  29.380  29.643  1.00  0.00    -0.248 NA
ATOM     45  C   UNL A   1      39.156  29.186  27.693  1.00  0.00     0.031 C 
ATOM     46  C   UNL A   1      37.008  31.468  31.634  1.00  0.00     0.029 A 
ATOM     47  N   UNL A   1      39.127  30.790  31.859  1.00  0.00    -0.354 N 
ATOM     48  C   UNL A   1      41.157  28.690  28.683  1.00  0.00     0.074 A 
ATOM     49  C   UNL A   1      40.303  28.544  27.525  1.00  0.00     0.031 C 
ATOM     50  C   UNL A   1      37.410  31.806  32.869  1.00  0.00     0.029 A 
ATOM     51  C   UNL A   1      38.783  31.349  33.066  1.00  0.00     0.049 A 
ATOM     52  H   UNL A   1      40.017  30.411  31.676  1.00  0.00     0.167 HD
ATOM     53  C   UNL A   1      42.430  28.234  28.751  1.00  0.00     0.031 A 
ATOM     54  C   UNL A   1      39.486  31.468  34.209  1.00  0.00     0.031 A 
ATOM     55  C   UNL A   1      43.286  28.395  29.896  1.00  0.00     0.049 A 
ATOM     56  C   UNL A   1      40.893  30.941  34.266  1.00  0.00     0.074 A 
ATOM     57  C   UNL A   1      44.609  28.018  30.042  1.00  0.00     0.029 A 
ATOM     58  N   UNL A   1      42.902  28.985  31.090  1.00  0.00    -0.354 N 
ATOM     59  N   UNL A   1      41.589  30.340  33.330  1.00  0.00    -0.248 NA
ATOM     60  C   UNL A   1      41.616  31.116  35.533  1.00  0.00     0.031 C 
ATOM     61  C   UNL A   1      45.012  28.334  31.343  1.00  0.00     0.029 A 
ATOM     62  C   UNL A   1      43.956  28.960  31.987  1.00  0.00     0.049 A 
ATOM     63  H   UNL A   1      42.012  29.365  31.274  1.00  0.00     0.167 HD
ATOM     64  C   UNL A   1      42.838  30.097  33.884  1.00  0.00     0.074 A 
ATOM     65  C   UNL A   1      42.809  30.621  35.233  1.00  0.00     0.031 C 
ATOM     66  C   UNL A   1      43.915  29.496  33.323  1.00  0.00     0.031 A 
BRANCH  53  67
ATOM     67  C   UNL A   1      42.972  27.505  27.552  1.00  0.00    -0.014 A 
ATOM     68  C   UNL A   1      42.890  26.107  27.452  1.00  0.00     0.009 A 
ATOM     69  C   UNL A   1      43.540  28.229  26.493  1.00  0.00     0.009 A 
ATOM     70  C   UNL A   1      43.402  25.447  26.332  1.00  0.00     0.001 A 
ATOM     71  C   UNL A   1      44.022  27.569  25.361  1.00  0.00     0.001 A 
ATOM     72  C   UNL A   1      43.962  26.178  25.286  1.00  0.00     0.000 A 
ENDBRANCH  53  67
BRANCH  54  73
ATOM     73  C   UNL A   1      38.874  32.124  35.394  1.00  0.00    -0.014 A 
ATOM     74  C   UNL A   1      38.923  33.519  35.539  1.00  0.00     0.009 A 
ATOM     75  C   UNL A   1      38.236  31.362  36.385  1.00  0.00     0.009 A 
ATOM     76  C   UNL A   1      38.371  34.135  36.665  1.00  0.00     0.001 A 
ATOM     77  C   UNL A   1      37.658  31.983  37.495  1.00  0.00     0.001 A 
ATOM     78  C   UNL A   1      37.735  33.367  37.639  1.00  0.00     0.000 A 
ENDBRANCH  54  73
BRANCH  66  79
ATOM     79  C   UNL A   1      45.169  29.411  34.145  1.00  0.00    -0.014 A 
ATOM     80  C   UNL A   1      46.032  30.508  34.279  1.00  0.00     0.009 A 
ATOM     81  C   UNL A   1      45.455  28.230  34.849  1.00  0.00     0.009 A 
ATOM     82  C   UNL A   1      47.171  30.417  35.082  1.00  0.00     0.001 A 
ATOM     83  C   UNL A   1      46.578  28.150  35.673  1.00  0.00     0.001 A 
ATOM     84  C   UNL A   1      47.439  29.240  35.784  1.00  0.00     0.000 A 
ENDBRANCH  66  79
ENDBRANCH  40  41
ENDBRANCH  32  35
ENDBRANCH  30  31
ENDBRANCH   1  30
TORSDOF 12
ENDMDL
