MODEL 1
REMARK VINA RESULT:     -10.8      0.000      0.000
REMARK SMILES O=C(NCCCNC(=O)c1cccnc1N1CC[NH2+]CC1)c1ccc(-c2c3nc(c(-c4ccccc4)c4ccc([nH]4)c(-c4ccccc4)c4nc(c(-c5ccccc5)c5ccc2[nH]5)C=C4)C=C3)cc1
REMARK SMILES IDX 4 1 3 2 1 3 2 4 22 6 23 7 69 8 24 9 68 10 25 11 26 12 27 13
REMARK SMILES IDX 62 14 28 15 67 16 61 17 63 18 29 19 66 20 60 21 59 22 30 24
REMARK SMILES IDX 52 25 37 26 51 27 38 28 41 29 50 30 64 31 39 32 40 33 49 35
REMARK SMILES IDX 65 36 42 37 31 38 32 39 36 40 33 41 35 42 34 43 53 44 54 45
REMARK SMILES IDX 58 46 55 47 57 48 56 49 43 50 44 51 48 52 45 53 47 54 46 55
REMARK SMILES IDX 5 56 6 57 7 58 8 59 9 61 10 62 11 63 15 64 12 65 14 66 13 67
REMARK SMILES IDX 16 68 17 69 21 70 18 71 20 72 19 73
REMARK H PARENT 3 5 63 23 41 34 7 60 19 74 19 75
REMARK Flexibility Score: inf
ROOT
ATOM      1  C   UNL A   1      38.565  20.123  25.751  1.00  0.00     0.118 C 
ENDROOT
BRANCH   1   2
ATOM      2  N   UNL A   1      39.740  19.266  25.770  1.00  0.00    -0.352 N 
ATOM      3  O   UNL A   1      41.901  18.668  25.799  1.00  0.00    -0.269 OA
ATOM      4  C   UNL A   1      41.060  19.537  26.026  1.00  0.00     0.251 C 
ATOM      5  H   UNL A   1      39.555  18.322  25.562  1.00  0.00     0.163 HD
BRANCH   4   6
ATOM      6  C   UNL A   1      41.500  20.851  26.544  1.00  0.00     0.039 A 
ATOM      7  C   UNL A   1      41.594  21.114  27.913  1.00  0.00     0.014 A 
ATOM      8  C   UNL A   1      41.910  21.824  25.624  1.00  0.00     0.014 A 
ATOM      9  C   UNL A   1      41.973  22.381  28.357  1.00  0.00     0.010 A 
ATOM     10  C   UNL A   1      42.353  23.071  26.070  1.00  0.00     0.010 A 
ATOM     11  C   UNL A   1      42.359  23.371  27.441  1.00  0.00    -0.014 A 
BRANCH  11  12
ATOM     12  C   UNL A   1      42.797  24.706  27.916  1.00  0.00     0.031 A 
ATOM     13  C   UNL A   1      41.788  25.771  28.242  1.00  0.00     0.074 A 
ATOM     14  C   UNL A   1      44.111  24.969  28.039  1.00  0.00     0.049 A 
ATOM     15  N   UNL A   1      41.989  27.009  28.618  1.00  0.00    -0.248 NA
ATOM     16  C   UNL A   1      40.370  25.400  28.123  1.00  0.00     0.031 C 
ATOM     17  C   UNL A   1      45.194  24.027  27.750  1.00  0.00     0.029 A 
ATOM     18  N   UNL A   1      44.759  26.112  28.437  1.00  0.00    -0.354 N 
ATOM     19  C   UNL A   1      40.727  27.573  28.753  1.00  0.00     0.074 A 
ATOM     20  C   UNL A   1      39.767  26.547  28.407  1.00  0.00     0.031 C 
ATOM     21  C   UNL A   1      46.371  24.623  28.000  1.00  0.00     0.029 A 
ATOM     22  C   UNL A   1      46.127  25.999  28.420  1.00  0.00     0.049 A 
ATOM     23  H   UNL A   1      44.288  26.933  28.709  1.00  0.00     0.167 HD
ATOM     24  C   UNL A   1      40.396  28.831  29.132  1.00  0.00     0.031 A 
ATOM     25  C   UNL A   1      47.084  26.905  28.692  1.00  0.00     0.031 A 
ATOM     26  C   UNL A   1      41.343  29.852  29.489  1.00  0.00     0.049 A 
ATOM     27  C   UNL A   1      46.694  28.296  29.095  1.00  0.00     0.074 A 
ATOM     28  C   UNL A   1      41.098  31.144  29.923  1.00  0.00     0.029 A 
ATOM     29  N   UNL A   1      42.720  29.697  29.451  1.00  0.00    -0.354 N 
ATOM     30  N   UNL A   1      45.495  28.804  29.241  1.00  0.00    -0.248 NA
ATOM     31  C   UNL A   1      47.789  29.237  29.369  1.00  0.00     0.031 C 
ATOM     32  C   UNL A   1      42.328  31.781  30.117  1.00  0.00     0.029 A 
ATOM     33  C   UNL A   1      43.337  30.875  29.837  1.00  0.00     0.049 A 
ATOM     34  H   UNL A   1      43.189  28.873  29.189  1.00  0.00     0.167 HD
ATOM     35  C   UNL A   1      45.690  30.120  29.636  1.00  0.00     0.074 A 
ATOM     36  C   UNL A   1      47.121  30.329  29.717  1.00  0.00     0.031 C 
ATOM     37  C   UNL A   1      44.761  31.068  29.908  1.00  0.00     0.031 A 
BRANCH  24  38
ATOM     38  C   UNL A   1      38.935  29.178  29.153  1.00  0.00    -0.014 A 
ATOM     39  C   UNL A   1      38.165  29.015  30.314  1.00  0.00     0.009 A 
ATOM     40  C   UNL A   1      38.330  29.703  28.001  1.00  0.00     0.009 A 
ATOM     41  C   UNL A   1      36.807  29.340  30.311  1.00  0.00     0.001 A 
ATOM     42  C   UNL A   1      36.976  30.045  28.007  1.00  0.00     0.001 A 
ATOM     43  C   UNL A   1      36.215  29.857  29.159  1.00  0.00     0.000 A 
ENDBRANCH  24  38
BRANCH  25  44
ATOM     44  C   UNL A   1      48.510  26.514  28.577  1.00  0.00    -0.014 A 
ATOM     45  C   UNL A   1      49.194  25.986  29.680  1.00  0.00     0.009 A 
ATOM     46  C   UNL A   1      49.178  26.626  27.347  1.00  0.00     0.009 A 
ATOM     47  C   UNL A   1      50.526  25.585  29.557  1.00  0.00     0.001 A 
ATOM     48  C   UNL A   1      50.502  26.205  27.222  1.00  0.00     0.001 A 
ATOM     49  C   UNL A   1      51.176  25.689  28.328  1.00  0.00     0.000 A 
ENDBRANCH  25  44
BRANCH  37  50
ATOM     50  C   UNL A   1      45.265  32.414  30.342  1.00  0.00    -0.014 A 
ATOM     51  C   UNL A   1      45.500  33.431  29.407  1.00  0.00     0.009 A 
ATOM     52  C   UNL A   1      45.465  32.675  31.705  1.00  0.00     0.009 A 
ATOM     53  C   UNL A   1      45.945  34.685  29.829  1.00  0.00     0.001 A 
ATOM     54  C   UNL A   1      45.894  33.935  32.126  1.00  0.00     0.001 A 
ATOM     55  C   UNL A   1      46.138  34.937  31.187  1.00  0.00     0.000 A 
ENDBRANCH  37  50
ENDBRANCH  11  12
ENDBRANCH   4   6
ENDBRANCH   1   2
BRANCH   1  56
ATOM     56  C   UNL A   1      37.499  19.656  24.763  1.00  0.00     0.042 C 
BRANCH  56  57
ATOM     57  C   UNL A   1      36.318  20.606  24.597  1.00  0.00     0.118 C 
BRANCH  57  58
ATOM     58  N   UNL A   1      35.435  20.617  25.751  1.00  0.00    -0.352 N 
ATOM     59  C   UNL A   1      34.074  20.770  25.839  1.00  0.00     0.255 C 
ATOM     60  H   UNL A   1      35.891  20.493  26.615  1.00  0.00     0.163 HD
ATOM     61  O   UNL A   1      33.559  20.785  26.956  1.00  0.00    -0.269 OA
BRANCH  59  62
ATOM     62  C   UNL A   1      33.247  20.870  24.619  1.00  0.00     0.082 A 
ATOM     63  C   UNL A   1      33.028  22.137  24.060  1.00  0.00     0.019 A 
ATOM     64  C   UNL A   1      32.827  19.728  23.921  1.00  0.00     0.141 A 
ATOM     65  C   UNL A   1      32.339  22.245  22.861  1.00  0.00     0.021 A 
ATOM     66  N   UNL A   1      32.163  19.842  22.743  1.00  0.00    -0.238 NA
ATOM     67  C   UNL A   1      31.924  21.078  22.250  1.00  0.00     0.113 A 
BRANCH  64  68
ATOM     68  N   UNL A   1      33.113  18.453  24.353  1.00  0.00    -0.345 N 
ATOM     69  C   UNL A   1      34.129  17.691  23.635  1.00  0.00     0.179 C 
ATOM     70  C   UNL A   1      32.153  17.689  25.139  1.00  0.00     0.179 C 
ATOM     71  C   UNL A   1      34.830  16.730  24.626  1.00  0.00     0.282 C 
ATOM     72  C   UNL A   1      32.903  16.696  26.061  1.00  0.00     0.282 C 
ATOM     73  N   UNL A   1      33.889  15.846  25.355  1.00  0.00    -0.343 N 
ATOM     74  H   UNL A   1      34.401  15.278  26.029  1.00  0.00     0.346 HD
ATOM     75  H   UNL A   1      33.412  15.226  24.699  1.00  0.00     0.346 HD
ENDBRANCH  64  68
ENDBRANCH  59  62
ENDBRANCH  57  58
ENDBRANCH  56  57
ENDBRANCH   1  56
TORSDOF 11
ENDMDL
MODEL 2
REMARK VINA RESULT:     -10.8      3.305      7.742
REMARK SMILES O=C(NCCCNC(=O)c1cccnc1N1CC[NH2+]CC1)c1ccc(-c2c3nc(c(-c4ccccc4)c4ccc([nH]4)c(-c4ccccc4)c4nc(c(-c5ccccc5)c5ccc2[nH]5)C=C4)C=C3)cc1
REMARK SMILES IDX 4 1 3 2 1 3 2 4 22 6 23 7 69 8 24 9 68 10 25 11 26 12 27 13
REMARK SMILES IDX 62 14 28 15 67 16 61 17 63 18 29 19 66 20 60 21 59 22 30 24
REMARK SMILES IDX 52 25 37 26 51 27 38 28 41 29 50 30 64 31 39 32 40 33 49 35
REMARK SMILES IDX 65 36 42 37 31 38 32 39 36 40 33 41 35 42 34 43 53 44 54 45
REMARK SMILES IDX 58 46 55 47 57 48 56 49 43 50 44 51 48 52 45 53 47 54 46 55
REMARK SMILES IDX 5 56 6 57 7 58 8 59 9 61 10 62 11 63 15 64 12 65 14 66 13 67
REMARK SMILES IDX 16 68 17 69 21 70 18 71 20 72 19 73
REMARK H PARENT 3 5 63 23 41 34 7 60 19 74 19 75
REMARK Flexibility Score: inf
ROOT
ATOM      1  C   UNL A   1      33.578  28.590  27.297  1.00  0.00     0.118 C 
ENDROOT
BRANCH   1   2
ATOM      2  N   UNL A   1      33.587  30.003  27.644  1.00  0.00    -0.352 N 
ATOM      3  O   UNL A   1      34.229  31.923  28.606  1.00  0.00    -0.269 OA
ATOM      4  C   UNL A   1      34.534  30.783  28.255  1.00  0.00     0.251 C 
ATOM      5  H   UNL A   1      32.765  30.484  27.396  1.00  0.00     0.163 HD
BRANCH   4   6
ATOM      6  C   UNL A   1      35.901  30.285  28.523  1.00  0.00     0.039 A 
ATOM      7  C   UNL A   1      36.252  29.706  29.745  1.00  0.00     0.014 A 
ATOM      8  C   UNL A   1      36.838  30.328  27.484  1.00  0.00     0.014 A 
ATOM      9  C   UNL A   1      37.564  29.289  29.969  1.00  0.00     0.010 A 
ATOM     10  C   UNL A   1      38.134  29.849  27.686  1.00  0.00     0.010 A 
ATOM     11  C   UNL A   1      38.518  29.354  28.942  1.00  0.00    -0.014 A 
BRANCH  11  12
ATOM     12  C   UNL A   1      39.903  28.876  29.170  1.00  0.00     0.031 A 
ATOM     13  C   UNL A   1      40.927  29.773  29.807  1.00  0.00     0.074 A 
ATOM     14  C   UNL A   1      40.249  27.632  28.787  1.00  0.00     0.049 A 
ATOM     15  N   UNL A   1      42.196  29.544  30.035  1.00  0.00    -0.248 NA
ATOM     16  C   UNL A   1      40.468  31.102  30.237  1.00  0.00     0.031 C 
ATOM     17  C   UNL A   1      39.354  26.663  28.152  1.00  0.00     0.029 A 
ATOM     18  N   UNL A   1      41.450  26.974  28.873  1.00  0.00    -0.354 N 
ATOM     19  C   UNL A   1      42.693  30.707  30.607  1.00  0.00     0.074 A 
ATOM     20  C   UNL A   1      41.594  31.645  30.681  1.00  0.00     0.031 C 
ATOM     21  C   UNL A   1      40.031  25.526  27.925  1.00  0.00     0.029 A 
ATOM     22  C   UNL A   1      41.414  25.704  28.354  1.00  0.00     0.049 A 
ATOM     23  H   UNL A   1      42.258  27.373  29.269  1.00  0.00     0.167 HD
ATOM     24  C   UNL A   1      43.952  30.971  31.034  1.00  0.00     0.031 A 
ATOM     25  C   UNL A   1      42.390  24.786  28.217  1.00  0.00     0.031 A 
ATOM     26  C   UNL A   1      45.046  30.040  30.976  1.00  0.00     0.049 A 
ATOM     27  C   UNL A   1      43.778  25.106  28.684  1.00  0.00     0.074 A 
ATOM     28  C   UNL A   1      46.346  30.208  31.421  1.00  0.00     0.029 A 
ATOM     29  N   UNL A   1      44.969  28.767  30.436  1.00  0.00    -0.354 N 
ATOM     30  N   UNL A   1      44.225  26.203  29.245  1.00  0.00    -0.248 NA
ATOM     31  C   UNL A   1      44.797  24.063  28.496  1.00  0.00     0.031 C 
ATOM     32  C   UNL A   1      47.065  29.045  31.120  1.00  0.00     0.029 A 
ATOM     33  C   UNL A   1      46.202  28.143  30.520  1.00  0.00     0.049 A 
ATOM     34  H   UNL A   1      44.158  28.365  30.050  1.00  0.00     0.167 HD
ATOM     35  C   UNL A   1      45.572  25.978  29.490  1.00  0.00     0.074 A 
ATOM     36  C   UNL A   1      45.868  24.638  29.026  1.00  0.00     0.031 C 
ATOM     37  C   UNL A   1      46.481  26.812  30.051  1.00  0.00     0.031 A 
BRANCH  24  38
ATOM     38  C   UNL A   1      44.215  32.344  31.583  1.00  0.00    -0.014 A 
ATOM     39  C   UNL A   1      44.043  32.628  32.946  1.00  0.00     0.009 A 
ATOM     40  C   UNL A   1      44.668  33.358  30.726  1.00  0.00     0.009 A 
ATOM     41  C   UNL A   1      44.290  33.912  33.434  1.00  0.00     0.001 A 
ATOM     42  C   UNL A   1      44.932  34.637  31.221  1.00  0.00     0.001 A 
ATOM     43  C   UNL A   1      44.736  34.915  32.573  1.00  0.00     0.000 A 
ENDBRANCH  24  38
BRANCH  25  44
ATOM     44  C   UNL A   1      42.075  23.477  27.596  1.00  0.00    -0.014 A 
ATOM     45  C   UNL A   1      42.377  23.237  26.249  1.00  0.00     0.009 A 
ATOM     46  C   UNL A   1      41.509  22.447  28.364  1.00  0.00     0.009 A 
ATOM     47  C   UNL A   1      42.111  21.990  25.678  1.00  0.00     0.001 A 
ATOM     48  C   UNL A   1      41.264  21.196  27.798  1.00  0.00     0.001 A 
ATOM     49  C   UNL A   1      41.562  20.970  26.454  1.00  0.00     0.000 A 
ENDBRANCH  25  44
BRANCH  37  50
ATOM     50  C   UNL A   1      47.878  26.289  30.216  1.00  0.00    -0.014 A 
ATOM     51  C   UNL A   1      48.310  25.759  31.440  1.00  0.00     0.009 A 
ATOM     52  C   UNL A   1      48.754  26.289  29.121  1.00  0.00     0.009 A 
ATOM     53  C   UNL A   1      49.605  25.254  31.570  1.00  0.00     0.001 A 
ATOM     54  C   UNL A   1      50.043  25.769  29.249  1.00  0.00     0.001 A 
ATOM     55  C   UNL A   1      50.468  25.256  30.474  1.00  0.00     0.000 A 
ENDBRANCH  37  50
ENDBRANCH  11  12
ENDBRANCH   4   6
ENDBRANCH   1   2
BRANCH   1  56
ATOM     56  C   UNL A   1      34.053  28.321  25.871  1.00  0.00     0.042 C 
BRANCH  56  57
ATOM     57  C   UNL A   1      33.794  26.905  25.365  1.00  0.00     0.118 C 
BRANCH  57  58
ATOM     58  N   UNL A   1      32.611  26.303  25.954  1.00  0.00    -0.352 N 
ATOM     59  C   UNL A   1      31.282  26.443  25.642  1.00  0.00     0.255 C 
ATOM     60  H   UNL A   1      32.794  25.690  26.703  1.00  0.00     0.163 HD
ATOM     61  O   UNL A   1      30.455  25.847  26.330  1.00  0.00    -0.269 OA
BRANCH  59  62
ATOM     62  C   UNL A   1      30.862  27.255  24.481  1.00  0.00     0.082 A 
ATOM     63  C   UNL A   1      30.571  28.611  24.683  1.00  0.00     0.019 A 
ATOM     64  C   UNL A   1      30.917  26.749  23.174  1.00  0.00     0.141 A 
ATOM     65  C   UNL A   1      30.271  29.414  23.593  1.00  0.00     0.021 A 
ATOM     66  N   UNL A   1      30.633  27.545  22.112  1.00  0.00    -0.238 NA
ATOM     67  C   UNL A   1      30.309  28.838  22.338  1.00  0.00     0.113 A 
BRANCH  64  68
ATOM     68  N   UNL A   1      31.311  25.460  22.897  1.00  0.00    -0.345 N 
ATOM     69  C   UNL A   1      32.385  25.258  21.931  1.00  0.00     0.179 C 
ATOM     70  C   UNL A   1      30.422  24.331  23.136  1.00  0.00     0.179 C 
ATOM     71  C   UNL A   1      33.169  23.978  22.312  1.00  0.00     0.282 C 
ATOM     72  C   UNL A   1      31.256  23.063  23.443  1.00  0.00     0.282 C 
ATOM     73  N   UNL A   1      32.309  22.777  22.440  1.00  0.00    -0.343 N 
ATOM     74  H   UNL A   1      32.870  21.982  22.745  1.00  0.00     0.346 HD
ATOM     75  H   UNL A   1      31.884  22.552  21.540  1.00  0.00     0.346 HD
ENDBRANCH  64  68
ENDBRANCH  59  62
ENDBRANCH  57  58
ENDBRANCH  56  57
ENDBRANCH   1  56
TORSDOF 11
ENDMDL
MODEL 3
REMARK VINA RESULT:     -10.7      4.811      8.956
REMARK SMILES O=C(NCCCNC(=O)c1cccnc1N1CC[NH2+]CC1)c1ccc(-c2c3nc(c(-c4ccccc4)c4ccc([nH]4)c(-c4ccccc4)c4nc(c(-c5ccccc5)c5ccc2[nH]5)C=C4)C=C3)cc1
REMARK SMILES IDX 4 1 3 2 1 3 2 4 22 6 23 7 69 8 24 9 68 10 25 11 26 12 27 13
REMARK SMILES IDX 62 14 28 15 67 16 61 17 63 18 29 19 66 20 60 21 59 22 30 24
REMARK SMILES IDX 52 25 37 26 51 27 38 28 41 29 50 30 64 31 39 32 40 33 49 35
REMARK SMILES IDX 65 36 42 37 31 38 32 39 36 40 33 41 35 42 34 43 53 44 54 45
REMARK SMILES IDX 58 46 55 47 57 48 56 49 43 50 44 51 48 52 45 53 47 54 46 55
REMARK SMILES IDX 5 56 6 57 7 58 8 59 9 61 10 62 11 63 15 64 12 65 14 66 13 67
REMARK SMILES IDX 16 68 17 69 21 70 18 71 20 72 19 73
REMARK H PARENT 3 5 63 23 41 34 7 60 19 74 19 75
REMARK Flexibility Score: inf
ROOT
ATOM      1  C   UNL A   1      33.485  28.614  27.376  1.00  0.00     0.118 C 
ENDROOT
BRANCH   1   2
ATOM      2  N   UNL A   1      33.516  30.041  27.655  1.00  0.00    -0.352 N 
ATOM      3  O   UNL A   1      34.193  31.996  28.518  1.00  0.00    -0.269 OA
ATOM      4  C   UNL A   1      34.478  30.837  28.221  1.00  0.00     0.251 C 
ATOM      5  H   UNL A   1      32.699  30.522  27.390  1.00  0.00     0.163 HD
BRANCH   4   6
ATOM      6  C   UNL A   1      35.841  30.333  28.503  1.00  0.00     0.039 A 
ATOM      7  C   UNL A   1      36.172  29.734  29.721  1.00  0.00     0.014 A 
ATOM      8  C   UNL A   1      36.794  30.391  27.480  1.00  0.00     0.014 A 
ATOM      9  C   UNL A   1      37.479  29.311  29.959  1.00  0.00     0.010 A 
ATOM     10  C   UNL A   1      38.087  29.906  27.695  1.00  0.00     0.010 A 
ATOM     11  C   UNL A   1      38.449  29.390  28.948  1.00  0.00    -0.014 A 
BRANCH  11  12
ATOM     12  C   UNL A   1      39.830  28.907  29.191  1.00  0.00     0.031 A 
ATOM     13  C   UNL A   1      40.849  29.798  29.844  1.00  0.00     0.074 A 
ATOM     14  C   UNL A   1      40.176  27.664  28.806  1.00  0.00     0.049 A 
ATOM     15  N   UNL A   1      42.115  29.564  30.086  1.00  0.00    -0.248 NA
ATOM     16  C   UNL A   1      40.390  31.127  30.274  1.00  0.00     0.031 C 
ATOM     17  C   UNL A   1      39.286  26.701  28.157  1.00  0.00     0.029 A 
ATOM     18  N   UNL A   1      41.374  27.001  28.904  1.00  0.00    -0.354 N 
ATOM     19  C   UNL A   1      42.609  30.723  30.669  1.00  0.00     0.074 A 
ATOM     20  C   UNL A   1      41.512  31.665  30.734  1.00  0.00     0.031 C 
ATOM     21  C   UNL A   1      39.962  25.562  27.933  1.00  0.00     0.029 A 
ATOM     22  C   UNL A   1      41.341  25.733  28.379  1.00  0.00     0.049 A 
ATOM     23  H   UNL A   1      42.179  27.397  29.311  1.00  0.00     0.167 HD
ATOM     24  C   UNL A   1      43.863  30.981  31.112  1.00  0.00     0.031 A 
ATOM     25  C   UNL A   1      42.315  24.814  28.250  1.00  0.00     0.031 A 
ATOM     26  C   UNL A   1      44.955  30.047  31.063  1.00  0.00     0.049 A 
ATOM     27  C   UNL A   1      43.699  25.127  28.735  1.00  0.00     0.074 A 
ATOM     28  C   UNL A   1      46.250  30.208  31.525  1.00  0.00     0.029 A 
ATOM     29  N   UNL A   1      44.880  28.776  30.517  1.00  0.00    -0.354 N 
ATOM     30  N   UNL A   1      44.142  26.220  29.306  1.00  0.00    -0.248 NA
ATOM     31  C   UNL A   1      44.716  24.081  28.554  1.00  0.00     0.031 C 
ATOM     32  C   UNL A   1      46.968  29.044  31.227  1.00  0.00     0.029 A 
ATOM     33  C   UNL A   1      46.110  28.148  30.613  1.00  0.00     0.049 A 
ATOM     34  H   UNL A   1      44.072  28.378  30.119  1.00  0.00     0.167 HD
ATOM     35  C   UNL A   1      45.486  25.990  29.566  1.00  0.00     0.074 A 
ATOM     36  C   UNL A   1      45.783  24.651  29.100  1.00  0.00     0.031 C 
ATOM     37  C   UNL A   1      46.390  26.817  30.142  1.00  0.00     0.031 A 
BRANCH  24  38
ATOM     38  C   UNL A   1      44.124  32.351  31.670  1.00  0.00    -0.014 A 
ATOM     39  C   UNL A   1      43.962  32.623  33.037  1.00  0.00     0.009 A 
ATOM     40  C   UNL A   1      44.566  33.374  30.818  1.00  0.00     0.009 A 
ATOM     41  C   UNL A   1      44.207  33.904  33.534  1.00  0.00     0.001 A 
ATOM     42  C   UNL A   1      44.828  34.650  31.321  1.00  0.00     0.001 A 
ATOM     43  C   UNL A   1      44.641  34.916  32.677  1.00  0.00     0.000 A 
ENDBRANCH  24  38
BRANCH  25  44
ATOM     44  C   UNL A   1      42.003  23.508  27.619  1.00  0.00    -0.014 A 
ATOM     45  C   UNL A   1      42.281  23.288  26.264  1.00  0.00     0.009 A 
ATOM     46  C   UNL A   1      41.465  22.462  28.386  1.00  0.00     0.009 A 
ATOM     47  C   UNL A   1      42.018  22.045  25.684  1.00  0.00     0.001 A 
ATOM     48  C   UNL A   1      41.224  21.215  27.810  1.00  0.00     0.001 A 
ATOM     49  C   UNL A   1      41.497  21.008  26.457  1.00  0.00     0.000 A 
ENDBRANCH  25  44
BRANCH  37  50
ATOM     50  C   UNL A   1      47.783  26.289  30.321  1.00  0.00    -0.014 A 
ATOM     51  C   UNL A   1      48.203  25.765  31.552  1.00  0.00     0.009 A 
ATOM     52  C   UNL A   1      48.668  26.278  29.233  1.00  0.00     0.009 A 
ATOM     53  C   UNL A   1      49.495  25.255  31.695  1.00  0.00     0.001 A 
ATOM     54  C   UNL A   1      49.953  25.753  29.374  1.00  0.00     0.001 A 
ATOM     55  C   UNL A   1      50.367  25.246  30.606  1.00  0.00     0.000 A 
ENDBRANCH  37  50
ENDBRANCH  11  12
ENDBRANCH   4   6
ENDBRANCH   1   2
BRANCH   1  56
ATOM     56  C   UNL A   1      32.788  28.275  26.061  1.00  0.00     0.042 C 
BRANCH  56  57
ATOM     57  C   UNL A   1      31.806  29.332  25.565  1.00  0.00     0.118 C 
BRANCH  57  58
ATOM     58  N   UNL A   1      31.943  29.609  24.146  1.00  0.00    -0.352 N 
ATOM     59  C   UNL A   1      31.227  29.151  23.068  1.00  0.00     0.255 C 
ATOM     60  H   UNL A   1      32.671  30.232  23.920  1.00  0.00     0.163 HD
ATOM     61  O   UNL A   1      31.573  29.508  21.943  1.00  0.00    -0.269 OA
BRANCH  59  62
ATOM     62  C   UNL A   1      30.046  28.285  23.262  1.00  0.00     0.082 A 
ATOM     63  C   UNL A   1      30.232  27.012  23.816  1.00  0.00     0.019 A 
ATOM     64  C   UNL A   1      28.743  28.768  23.066  1.00  0.00     0.141 A 
ATOM     65  C   UNL A   1      29.127  26.222  24.098  1.00  0.00     0.021 A 
ATOM     66  N   UNL A   1      27.667  27.992  23.355  1.00  0.00    -0.238 NA
ATOM     67  C   UNL A   1      27.877  26.750  23.846  1.00  0.00     0.113 A 
BRANCH  64  68
ATOM     68  N   UNL A   1      28.488  30.050  22.637  1.00  0.00    -0.345 N 
ATOM     69  C   UNL A   1      28.221  31.075  23.641  1.00  0.00     0.179 C 
ATOM     70  C   UNL A   1      28.006  30.313  21.287  1.00  0.00     0.179 C 
ATOM     71  C   UNL A   1      28.719  32.441  23.108  1.00  0.00     0.282 C 
ATOM     72  C   UNL A   1      28.471  31.717  20.829  1.00  0.00     0.282 C 
ATOM     73  N   UNL A   1      28.148  32.800  21.787  1.00  0.00    -0.343 N 
ATOM     74  H   UNL A   1      28.553  33.680  21.464  1.00  0.00     0.346 HD
ATOM     75  H   UNL A   1      27.136  32.913  21.861  1.00  0.00     0.346 HD
ENDBRANCH  64  68
ENDBRANCH  59  62
ENDBRANCH  57  58
ENDBRANCH  56  57
ENDBRANCH   1  56
TORSDOF 11
ENDMDL
