MODEL 1
REMARK VINA RESULT:     -13.1      0.000      0.000
REMARK SMILES Cc1c(C(=O)Nc2ccc(C(=O)Nc3ccccc3C(=O)NCCCNC(=O)c3ccc(-c4c5nc(c(-c6ccccc6)c6ccc([nH]6)c(-c6ccccc6)c6nc(c(-c7ccccc7)c7ccc4[nH]7)C=C6)C=C5)cc3)cc2)cccc1[N+](=O)[O-]
REMARK SMILES IDX 20 1 21 2 22 3 19 5 14 6 15 7 16 8 18 9 17 10 13 11 11 12
REMARK SMILES IDX 12 13 10 15 7 16 8 17 78 18 9 19 77 20 6 21 4 22 5 23 3 25
REMARK SMILES IDX 1 26 2 27 82 28 79 29 81 30 80 31 83 32 84 33 85 34 23 35
REMARK SMILES IDX 24 36 25 37 26 38 27 39 28 41 29 42 30 43 76 44 31 45 75 46
REMARK SMILES IDX 32 47 33 48 34 49 69 50 35 51 74 52 68 53 70 54 36 55 73 56
REMARK SMILES IDX 67 57 66 58 37 60 59 61 44 62 58 63 45 64 48 65 57 66 71 67
REMARK SMILES IDX 46 68 47 69 56 71 72 72 49 73 38 74 39 75 43 76 40 77 42 78
REMARK SMILES IDX 41 79 60 80 61 81 65 82 62 83 64 84 63 85 50 86 51 87 55 88
REMARK SMILES IDX 52 89 54 90 53 91
REMARK H PARENT 22 4 13 14 6 24 26 40 70 59 48 70
REMARK Flexibility Score: inf
ROOT
ATOM      1  C   UNL A   1      31.846  29.690  23.861  1.00  0.00     0.253 C 
ATOM      2  O   UNL A   1      32.663  29.478  22.965  1.00  0.00    -0.269 OA
ATOM      3  N   UNL A   1      32.341  29.751  25.149  1.00  0.00    -0.352 N 
ATOM      4  H   UNL A   1      33.293  29.505  25.199  1.00  0.00     0.163 HD
ENDROOT
BRANCH   1   5
ATOM      5  C   UNL A   1      30.401  29.835  23.516  1.00  0.00     0.063 A 
ATOM      6  C   UNL A   1      29.736  28.957  22.623  1.00  0.00     0.054 A 
ATOM      7  C   UNL A   1      28.376  29.172  22.325  1.00  0.00     0.027 A 
ATOM      8  C   UNL A   1      27.657  30.200  22.927  1.00  0.00     0.002 A 
ATOM      9  C   UNL A   1      29.685  30.946  23.991  1.00  0.00     0.016 A 
ATOM     10  C   UNL A   1      28.318  31.100  23.749  1.00  0.00     0.001 A 
BRANCH   6  11
ATOM     11  N   UNL A   1      30.283  27.840  21.961  1.00  0.00    -0.321 N 
ATOM     12  C   UNL A   1      31.088  26.800  22.364  1.00  0.00     0.255 C 
ATOM     13  O   UNL A   1      31.603  26.091  21.497  1.00  0.00    -0.269 OA
ATOM     14  H   UNL A   1      30.037  27.794  21.009  1.00  0.00     0.170 HD
BRANCH  12  15
ATOM     15  C   UNL A   1      31.169  26.352  23.786  1.00  0.00     0.040 A 
ATOM     16  C   UNL A   1      31.526  25.041  26.255  1.00  0.00     0.041 A 
ATOM     17  C   UNL A   1      30.260  25.202  25.714  1.00  0.00     0.027 A 
ATOM     18  C   UNL A   1      32.601  25.697  25.651  1.00  0.00     0.027 A 
ATOM     19  C   UNL A   1      30.097  25.770  24.456  1.00  0.00     0.016 A 
ATOM     20  C   UNL A   1      32.420  26.350  24.421  1.00  0.00     0.016 A 
BRANCH  16  21
ATOM     21  N   UNL A   1      31.781  24.159  27.318  1.00  0.00    -0.322 N 
ATOM     22  C   UNL A   1      32.330  22.887  27.329  1.00  0.00     0.256 C 
ATOM     23  O   UNL A   1      32.325  22.237  28.374  1.00  0.00    -0.269 OA
ATOM     24  H   UNL A   1      31.527  24.503  28.206  1.00  0.00     0.170 HD
BRANCH  22  25
ATOM     25  C   UNL A   1      32.927  22.256  26.112  1.00  0.00     0.049 A 
ATOM     26  C   UNL A   1      35.284  23.132  26.541  1.00  0.00     0.053 C 
ATOM     27  C   UNL A   1      34.249  22.479  25.660  1.00  0.00     0.039 A 
ATOM     28  C   UNL A   1      34.554  22.066  24.342  1.00  0.00     0.273 A 
ATOM     29  C   UNL A   1      32.055  21.437  25.370  1.00  0.00     0.014 A 
ATOM     30  C   UNL A   1      33.668  21.274  23.593  1.00  0.00     0.086 A 
ATOM     31  C   UNL A   1      32.436  20.920  24.133  1.00  0.00     0.008 A 
BRANCH  28  32
ATOM     32  N   UNL A   1      35.752  22.551  23.647  1.00  0.00     0.063 N 
ATOM     33  O   UNL A   1      36.804  21.917  23.813  1.00  0.00    -0.258 OA
ATOM     34  O   UNL A   1      35.620  23.515  22.882  1.00  0.00    -0.258 OA
ENDBRANCH  28  32
ENDBRANCH  22  25
ENDBRANCH  16  21
ENDBRANCH  12  15
ENDBRANCH   6  11
ENDBRANCH   1   5
BRANCH   3  35
ATOM     35  C   UNL A   1      31.783  30.096  26.454  1.00  0.00     0.118 C 
BRANCH  35  36
ATOM     36  C   UNL A   1      32.598  31.110  27.241  1.00  0.00     0.042 C 
BRANCH  36  37
ATOM     37  C   UNL A   1      34.003  30.644  27.594  1.00  0.00     0.118 C 
BRANCH  37  38
ATOM     38  N   UNL A   1      34.629  31.482  28.618  1.00  0.00    -0.352 N 
ATOM     39  C   UNL A   1      35.824  31.320  29.300  1.00  0.00     0.251 C 
ATOM     40  H   UNL A   1      34.119  32.289  28.861  1.00  0.00     0.163 HD
ATOM     41  O   UNL A   1      36.195  32.166  30.097  1.00  0.00    -0.269 OA
BRANCH  39  42
ATOM     42  C   UNL A   1      36.714  30.196  28.935  1.00  0.00     0.039 A 
ATOM     43  C   UNL A   1      36.941  29.221  29.911  1.00  0.00     0.014 A 
ATOM     44  C   UNL A   1      37.487  30.236  27.779  1.00  0.00     0.014 A 
ATOM     45  C   UNL A   1      38.114  28.479  29.862  1.00  0.00     0.010 A 
ATOM     46  C   UNL A   1      38.697  29.573  27.774  1.00  0.00     0.010 A 
ATOM     47  C   UNL A   1      39.040  28.759  28.858  1.00  0.00    -0.014 A 
BRANCH  47  48
ATOM     48  C   UNL A   1      40.431  28.342  28.954  1.00  0.00     0.031 A 
ATOM     49  C   UNL A   1      40.855  27.042  28.415  1.00  0.00     0.074 A 
ATOM     50  C   UNL A   1      41.329  29.145  29.563  1.00  0.00     0.049 A 
ATOM     51  N   UNL A   1      41.835  26.349  28.889  1.00  0.00    -0.248 NA
ATOM     52  C   UNL A   1      40.152  26.389  27.320  1.00  0.00     0.031 C 
ATOM     53  C   UNL A   1      42.781  29.001  29.593  1.00  0.00     0.029 A 
ATOM     54  N   UNL A   1      41.057  30.144  30.501  1.00  0.00    -0.354 N 
ATOM     55  C   UNL A   1      42.075  25.328  28.002  1.00  0.00     0.074 A 
ATOM     56  C   UNL A   1      40.946  25.338  27.099  1.00  0.00     0.031 C 
ATOM     57  C   UNL A   1      43.258  29.669  30.656  1.00  0.00     0.029 A 
ATOM     58  C   UNL A   1      42.115  30.135  31.424  1.00  0.00     0.049 A 
ATOM     59  H   UNL A   1      40.273  30.739  30.511  1.00  0.00     0.167 HD
ATOM     60  C   UNL A   1      43.276  24.685  28.024  1.00  0.00     0.031 A 
ATOM     61  C   UNL A   1      41.901  29.865  32.744  1.00  0.00     0.031 A 
ATOM     62  C   UNL A   1      44.132  25.154  29.111  1.00  0.00     0.049 A 
ATOM     63  C   UNL A   1      42.660  28.663  33.259  1.00  0.00     0.074 A 
ATOM     64  C   UNL A   1      45.205  26.032  29.155  1.00  0.00     0.029 A 
ATOM     65  N   UNL A   1      43.745  24.944  30.429  1.00  0.00    -0.354 N 
ATOM     66  N   UNL A   1      43.177  27.739  32.498  1.00  0.00    -0.248 NA
ATOM     67  C   UNL A   1      42.844  28.382  34.680  1.00  0.00     0.031 C 
ATOM     68  C   UNL A   1      45.433  26.384  30.510  1.00  0.00     0.029 A 
ATOM     69  C   UNL A   1      44.515  25.703  31.290  1.00  0.00     0.049 A 
ATOM     70  H   UNL A   1      43.021  24.339  30.711  1.00  0.00     0.167 HD
ATOM     71  C   UNL A   1      43.729  26.755  33.279  1.00  0.00     0.074 A 
ATOM     72  C   UNL A   1      43.513  27.216  34.639  1.00  0.00     0.031 C 
ATOM     73  C   UNL A   1      44.293  25.638  32.730  1.00  0.00     0.031 A 
BRANCH  60  74
ATOM     74  C   UNL A   1      43.776  23.874  26.852  1.00  0.00    -0.014 A 
ATOM     75  C   UNL A   1      44.594  24.483  25.882  1.00  0.00     0.009 A 
ATOM     76  C   UNL A   1      43.423  22.537  26.606  1.00  0.00     0.009 A 
ATOM     77  C   UNL A   1      44.933  23.838  24.686  1.00  0.00     0.001 A 
ATOM     78  C   UNL A   1      43.718  21.901  25.393  1.00  0.00     0.001 A 
ATOM     79  C   UNL A   1      44.463  22.558  24.424  1.00  0.00     0.000 A 
ENDBRANCH  60  74
BRANCH  61  80
ATOM     80  C   UNL A   1      40.556  30.272  33.240  1.00  0.00    -0.014 A 
ATOM     81  C   UNL A   1      40.273  31.645  33.385  1.00  0.00     0.009 A 
ATOM     82  C   UNL A   1      39.488  29.364  33.247  1.00  0.00     0.009 A 
ATOM     83  C   UNL A   1      38.954  32.104  33.428  1.00  0.00     0.001 A 
ATOM     84  C   UNL A   1      38.168  29.828  33.303  1.00  0.00     0.001 A 
ATOM     85  C   UNL A   1      37.901  31.196  33.358  1.00  0.00     0.000 A 
ENDBRANCH  61  80
BRANCH  73  86
ATOM     86  C   UNL A   1      44.752  24.394  33.462  1.00  0.00    -0.014 A 
ATOM     87  C   UNL A   1      46.084  24.077  33.757  1.00  0.00     0.009 A 
ATOM     88  C   UNL A   1      43.773  23.521  33.996  1.00  0.00     0.009 A 
ATOM     89  C   UNL A   1      46.420  22.937  34.505  1.00  0.00     0.001 A 
ATOM     90  C   UNL A   1      44.099  22.411  34.779  1.00  0.00     0.001 A 
ATOM     91  C   UNL A   1      45.429  22.112  35.025  1.00  0.00     0.000 A 
ENDBRANCH  73  86
ENDBRANCH  47  48
ENDBRANCH  39  42
ENDBRANCH  37  38
ENDBRANCH  36  37
ENDBRANCH  35  36
ENDBRANCH   3  35
TORSDOF 15
ENDMDL
MODEL 2
REMARK VINA RESULT:     -12.9      2.947      9.038
REMARK SMILES Cc1c(C(=O)Nc2ccc(C(=O)Nc3ccccc3C(=O)NCCCNC(=O)c3ccc(-c4c5nc(c(-c6ccccc6)c6ccc([nH]6)c(-c6ccccc6)c6nc(c(-c7ccccc7)c7ccc4[nH]7)C=C6)C=C5)cc3)cc2)cccc1[N+](=O)[O-]
REMARK SMILES IDX 20 1 21 2 22 3 19 5 14 6 15 7 16 8 18 9 17 10 13 11 11 12
REMARK SMILES IDX 12 13 10 15 7 16 8 17 78 18 9 19 77 20 6 21 4 22 5 23 3 25
REMARK SMILES IDX 1 26 2 27 82 28 79 29 81 30 80 31 83 32 84 33 85 34 23 35
REMARK SMILES IDX 24 36 25 37 26 38 27 39 28 41 29 42 30 43 76 44 31 45 75 46
REMARK SMILES IDX 32 47 33 48 34 49 69 50 35 51 74 52 68 53 70 54 36 55 73 56
REMARK SMILES IDX 67 57 66 58 37 60 59 61 44 62 58 63 45 64 48 65 57 66 71 67
REMARK SMILES IDX 46 68 47 69 56 71 72 72 49 73 38 74 39 75 43 76 40 77 42 78
REMARK SMILES IDX 41 79 60 80 61 81 65 82 62 83 64 84 63 85 50 86 51 87 55 88
REMARK SMILES IDX 52 89 54 90 53 91
REMARK H PARENT 22 4 13 14 6 24 26 40 70 59 48 70
REMARK Flexibility Score: inf
ROOT
ATOM      1  C   UNL A   1      33.106  24.697  24.575  1.00  0.00     0.253 C 
ATOM      2  O   UNL A   1      32.098  24.421  25.224  1.00  0.00    -0.269 OA
ATOM      3  N   UNL A   1      34.104  23.741  24.543  1.00  0.00    -0.352 N 
ATOM      4  H   UNL A   1      33.920  22.985  25.146  1.00  0.00     0.163 HD
ENDROOT
BRANCH   1   5
ATOM      5  C   UNL A   1      33.204  26.026  23.901  1.00  0.00     0.063 A 
ATOM      6  C   UNL A   1      32.427  27.143  24.299  1.00  0.00     0.054 A 
ATOM      7  C   UNL A   1      32.554  28.360  23.599  1.00  0.00     0.027 A 
ATOM      8  C   UNL A   1      33.464  28.502  22.556  1.00  0.00     0.002 A 
ATOM      9  C   UNL A   1      34.003  26.163  22.755  1.00  0.00     0.016 A 
ATOM     10  C   UNL A   1      34.178  27.396  22.122  1.00  0.00     0.001 A 
BRANCH   6  11
ATOM     11  N   UNL A   1      31.497  27.202  25.356  1.00  0.00    -0.321 N 
ATOM     12  C   UNL A   1      31.576  27.616  26.665  1.00  0.00     0.255 C 
ATOM     13  O   UNL A   1      30.650  27.327  27.425  1.00  0.00    -0.269 OA
ATOM     14  H   UNL A   1      30.602  26.878  25.105  1.00  0.00     0.170 HD
BRANCH  12  15
ATOM     15  C   UNL A   1      32.601  28.593  27.138  1.00  0.00     0.040 A 
ATOM     16  C   UNL A   1      34.575  30.572  27.498  1.00  0.00     0.041 A 
ATOM     17  C   UNL A   1      34.895  29.226  27.588  1.00  0.00     0.027 A 
ATOM     18  C   UNL A   1      33.230  30.936  27.408  1.00  0.00     0.027 A 
ATOM     19  C   UNL A   1      33.938  28.254  27.323  1.00  0.00     0.016 A 
ATOM     20  C   UNL A   1      32.248  29.948  27.230  1.00  0.00     0.016 A 
BRANCH  16  21
ATOM     21  N   UNL A   1      35.557  31.570  27.384  1.00  0.00    -0.322 N 
ATOM     22  C   UNL A   1      35.994  32.520  28.294  1.00  0.00     0.256 C 
ATOM     23  O   UNL A   1      36.774  33.395  27.922  1.00  0.00    -0.269 OA
ATOM     24  H   UNL A   1      36.011  31.600  26.511  1.00  0.00     0.170 HD
BRANCH  22  25
ATOM     25  C   UNL A   1      35.549  32.534  29.721  1.00  0.00     0.049 A 
ATOM     26  C   UNL A   1      33.840  34.401  29.402  1.00  0.00     0.053 C 
ATOM     27  C   UNL A   1      34.664  33.489  30.275  1.00  0.00     0.039 A 
ATOM     28  C   UNL A   1      34.592  33.554  31.686  1.00  0.00     0.273 A 
ATOM     29  C   UNL A   1      36.119  31.541  30.539  1.00  0.00     0.014 A 
ATOM     30  C   UNL A   1      35.190  32.578  32.501  1.00  0.00     0.086 A 
ATOM     31  C   UNL A   1      35.913  31.543  31.917  1.00  0.00     0.008 A 
BRANCH  28  32
ATOM     32  N   UNL A   1      34.001  34.710  32.370  1.00  0.00     0.063 N 
ATOM     33  O   UNL A   1      34.752  35.658  32.640  1.00  0.00    -0.258 OA
ATOM     34  O   UNL A   1      32.778  34.698  32.563  1.00  0.00    -0.258 OA
ENDBRANCH  28  32
ENDBRANCH  22  25
ENDBRANCH  16  21
ENDBRANCH  12  15
ENDBRANCH   6  11
ENDBRANCH   1   5
BRANCH   3  35
ATOM     35  C   UNL A   1      35.365  23.589  23.821  1.00  0.00     0.118 C 
BRANCH  35  36
ATOM     36  C   UNL A   1      36.606  23.676  24.695  1.00  0.00     0.042 C 
BRANCH  36  37
ATOM     37  C   UNL A   1      36.687  22.605  25.774  1.00  0.00     0.118 C 
BRANCH  37  38
ATOM     38  N   UNL A   1      38.035  22.054  25.914  1.00  0.00    -0.352 N 
ATOM     39  C   UNL A   1      39.220  22.671  26.284  1.00  0.00     0.251 C 
ATOM     40  H   UNL A   1      38.113  21.094  25.713  1.00  0.00     0.163 HD
ATOM     41  O   UNL A   1      40.246  22.017  26.384  1.00  0.00    -0.269 OA
BRANCH  39  42
ATOM     42  C   UNL A   1      39.192  24.087  26.706  1.00  0.00     0.039 A 
ATOM     43  C   UNL A   1      40.031  24.972  26.021  1.00  0.00     0.014 A 
ATOM     44  C   UNL A   1      38.564  24.475  27.886  1.00  0.00     0.014 A 
ATOM     45  C   UNL A   1      40.460  26.127  26.663  1.00  0.00     0.010 A 
ATOM     46  C   UNL A   1      39.058  25.569  28.566  1.00  0.00     0.010 A 
ATOM     47  C   UNL A   1      40.066  26.344  27.982  1.00  0.00    -0.014 A 
BRANCH  47  48
ATOM     48  C   UNL A   1      40.766  27.277  28.853  1.00  0.00     0.031 A 
ATOM     49  C   UNL A   1      40.219  28.620  29.094  1.00  0.00     0.074 A 
ATOM     50  C   UNL A   1      41.936  26.914  29.420  1.00  0.00     0.049 A 
ATOM     51  N   UNL A   1      40.940  29.658  29.350  1.00  0.00    -0.248 NA
ATOM     52  C   UNL A   1      38.793  28.905  29.002  1.00  0.00     0.031 C 
ATOM     53  C   UNL A   1      42.684  27.618  30.457  1.00  0.00     0.029 A 
ATOM     54  N   UNL A   1      42.810  25.921  28.970  1.00  0.00    -0.354 N 
ATOM     55  C   UNL A   1      40.084  30.659  29.740  1.00  0.00     0.074 A 
ATOM     56  C   UNL A   1      38.761  30.175  29.414  1.00  0.00     0.031 C 
ATOM     57  C   UNL A   1      43.967  27.229  30.401  1.00  0.00     0.029 A 
ATOM     58  C   UNL A   1      44.113  26.379  29.231  1.00  0.00     0.049 A 
ATOM     59  H   UNL A   1      42.560  25.067  28.551  1.00  0.00     0.167 HD
ATOM     60  C   UNL A   1      40.566  31.723  30.441  1.00  0.00     0.031 A 
ATOM     61  C   UNL A   1      45.005  26.588  28.221  1.00  0.00     0.031 A 
ATOM     62  C   UNL A   1      42.019  31.667  30.598  1.00  0.00     0.049 A 
ATOM     63  C   UNL A   1      45.515  28.008  28.134  1.00  0.00     0.074 A 
ATOM     64  C   UNL A   1      42.839  31.284  31.649  1.00  0.00     0.029 A 
ATOM     65  N   UNL A   1      42.834  31.753  29.476  1.00  0.00    -0.354 N 
ATOM     66  N   UNL A   1      44.931  29.034  28.688  1.00  0.00    -0.248 NA
ATOM     67  C   UNL A   1      46.695  28.389  27.362  1.00  0.00     0.031 C 
ATOM     68  C   UNL A   1      44.150  31.098  31.139  1.00  0.00     0.029 A 
ATOM     69  C   UNL A   1      44.130  31.389  29.787  1.00  0.00     0.049 A 
ATOM     70  H   UNL A   1      42.530  32.035  28.583  1.00  0.00     0.167 HD
ATOM     71  C   UNL A   1      45.605  30.183  28.354  1.00  0.00     0.074 A 
ATOM     72  C   UNL A   1      46.715  29.722  27.540  1.00  0.00     0.031 C 
ATOM     73  C   UNL A   1      45.169  31.411  28.763  1.00  0.00     0.031 A 
BRANCH  60  74
ATOM     74  C   UNL A   1      39.669  32.624  31.256  1.00  0.00    -0.014 A 
ATOM     75  C   UNL A   1      39.014  33.703  30.633  1.00  0.00     0.009 A 
ATOM     76  C   UNL A   1      39.484  32.512  32.644  1.00  0.00     0.009 A 
ATOM     77  C   UNL A   1      38.322  34.676  31.367  1.00  0.00     0.001 A 
ATOM     78  C   UNL A   1      38.835  33.503  33.391  1.00  0.00     0.001 A 
ATOM     79  C   UNL A   1      38.265  34.596  32.752  1.00  0.00     0.000 A 
ENDBRANCH  60  74
BRANCH  61  80
ATOM     80  C   UNL A   1      44.809  25.703  27.039  1.00  0.00    -0.014 A 
ATOM     81  C   UNL A   1      45.032  24.319  27.182  1.00  0.00     0.009 A 
ATOM     82  C   UNL A   1      44.106  26.154  25.912  1.00  0.00     0.009 A 
ATOM     83  C   UNL A   1      44.476  23.406  26.282  1.00  0.00     0.001 A 
ATOM     84  C   UNL A   1      43.562  25.236  25.006  1.00  0.00     0.001 A 
ATOM     85  C   UNL A   1      43.717  23.865  25.208  1.00  0.00     0.000 A 
ENDBRANCH  61  80
BRANCH  73  86
ATOM     86  C   UNL A   1      45.687  32.761  28.310  1.00  0.00    -0.014 A 
ATOM     87  C   UNL A   1      46.766  33.445  28.884  1.00  0.00     0.009 A 
ATOM     88  C   UNL A   1      45.124  33.349  27.151  1.00  0.00     0.009 A 
ATOM     89  C   UNL A   1      47.230  34.660  28.356  1.00  0.00     0.001 A 
ATOM     90  C   UNL A   1      45.612  34.534  26.595  1.00  0.00     0.001 A 
ATOM     91  C   UNL A   1      46.662  35.198  27.207  1.00  0.00     0.000 A 
ENDBRANCH  73  86
ENDBRANCH  47  48
ENDBRANCH  39  42
ENDBRANCH  37  38
ENDBRANCH  36  37
ENDBRANCH  35  36
ENDBRANCH   3  35
TORSDOF 15
ENDMDL
MODEL 3
REMARK VINA RESULT:     -12.9      2.380      5.252
REMARK SMILES Cc1c(C(=O)Nc2ccc(C(=O)Nc3ccccc3C(=O)NCCCNC(=O)c3ccc(-c4c5nc(c(-c6ccccc6)c6ccc([nH]6)c(-c6ccccc6)c6nc(c(-c7ccccc7)c7ccc4[nH]7)C=C6)C=C5)cc3)cc2)cccc1[N+](=O)[O-]
REMARK SMILES IDX 20 1 21 2 22 3 19 5 14 6 15 7 16 8 18 9 17 10 13 11 11 12
REMARK SMILES IDX 12 13 10 15 7 16 8 17 78 18 9 19 77 20 6 21 4 22 5 23 3 25
REMARK SMILES IDX 1 26 2 27 82 28 79 29 81 30 80 31 83 32 84 33 85 34 23 35
REMARK SMILES IDX 24 36 25 37 26 38 27 39 28 41 29 42 30 43 76 44 31 45 75 46
REMARK SMILES IDX 32 47 33 48 34 49 69 50 35 51 74 52 68 53 70 54 36 55 73 56
REMARK SMILES IDX 67 57 66 58 37 60 59 61 44 62 58 63 45 64 48 65 57 66 71 67
REMARK SMILES IDX 46 68 47 69 56 71 72 72 49 73 38 74 39 75 43 76 40 77 42 78
REMARK SMILES IDX 41 79 60 80 61 81 65 82 62 83 64 84 63 85 50 86 51 87 55 88
REMARK SMILES IDX 52 89 54 90 53 91
REMARK H PARENT 22 4 13 14 6 24 26 40 70 59 48 70
REMARK Flexibility Score: inf
ROOT
ATOM      1  C   UNL A   1      33.656  25.380  24.290  1.00  0.00     0.253 C 
ATOM      2  O   UNL A   1      33.785  25.244  23.074  1.00  0.00    -0.269 OA
ATOM      3  N   UNL A   1      33.643  26.675  24.771  1.00  0.00    -0.352 N 
ATOM      4  H   UNL A   1      33.851  27.338  24.073  1.00  0.00     0.163 HD
ENDROOT
BRANCH   1   5
ATOM      5  C   UNL A   1      33.554  24.168  25.156  1.00  0.00     0.063 A 
ATOM      6  C   UNL A   1      34.337  23.007  24.941  1.00  0.00     0.054 A 
ATOM      7  C   UNL A   1      34.168  21.890  25.784  1.00  0.00     0.027 A 
ATOM      8  C   UNL A   1      33.281  21.923  26.857  1.00  0.00     0.002 A 
ATOM      9  C   UNL A   1      32.567  24.113  26.154  1.00  0.00     0.016 A 
ATOM     10  C   UNL A   1      32.467  23.030  27.032  1.00  0.00     0.001 A 
BRANCH   6  11
ATOM     11  N   UNL A   1      35.314  22.809  23.944  1.00  0.00    -0.321 N 
ATOM     12  C   UNL A   1      36.680  22.965  23.914  1.00  0.00     0.255 C 
ATOM     13  O   UNL A   1      37.245  22.942  22.818  1.00  0.00    -0.269 OA
ATOM     14  H   UNL A   1      34.940  22.494  23.090  1.00  0.00     0.170 HD
BRANCH  12  15
ATOM     15  C   UNL A   1      37.522  22.919  25.146  1.00  0.00     0.040 A 
ATOM     16  C   UNL A   1      39.467  23.129  27.174  1.00  0.00     0.041 A 
ATOM     17  C   UNL A   1      39.279  21.938  26.491  1.00  0.00     0.027 A 
ATOM     18  C   UNL A   1      38.557  24.169  26.969  1.00  0.00     0.027 A 
ATOM     19  C   UNL A   1      38.382  21.863  25.433  1.00  0.00     0.016 A 
ATOM     20  C   UNL A   1      37.588  24.061  25.958  1.00  0.00     0.016 A 
BRANCH  16  21
ATOM     21  N   UNL A   1      40.596  23.365  27.976  1.00  0.00    -0.322 N 
ATOM     22  C   UNL A   1      41.888  22.870  27.892  1.00  0.00     0.256 C 
ATOM     23  O   UNL A   1      42.684  23.106  28.799  1.00  0.00    -0.269 OA
ATOM     24  H   UNL A   1      40.444  23.987  28.724  1.00  0.00     0.170 HD
BRANCH  22  25
ATOM     25  C   UNL A   1      42.361  22.045  26.738  1.00  0.00     0.049 A 
ATOM     26  C   UNL A   1      41.583  19.823  27.720  1.00  0.00     0.053 C 
ATOM     27  C   UNL A   1      42.357  20.630  26.709  1.00  0.00     0.039 A 
ATOM     28  C   UNL A   1      43.118  20.007  25.692  1.00  0.00     0.273 A 
ATOM     29  C   UNL A   1      42.886  22.772  25.654  1.00  0.00     0.014 A 
ATOM     30  C   UNL A   1      43.668  20.741  24.628  1.00  0.00     0.086 A 
ATOM     31  C   UNL A   1      43.506  22.122  24.588  1.00  0.00     0.008 A 
BRANCH  28  32
ATOM     32  N   UNL A   1      43.477  18.587  25.768  1.00  0.00     0.063 N 
ATOM     33  O   UNL A   1      42.554  17.762  25.731  1.00  0.00    -0.258 OA
ATOM     34  O   UNL A   1      44.682  18.301  25.788  1.00  0.00    -0.258 OA
ENDBRANCH  28  32
ENDBRANCH  22  25
ENDBRANCH  16  21
ENDBRANCH  12  15
ENDBRANCH   6  11
ENDBRANCH   1   5
BRANCH   3  35
ATOM     35  C   UNL A   1      33.392  27.290  26.072  1.00  0.00     0.118 C 
BRANCH  35  36
ATOM     36  C   UNL A   1      33.972  28.686  26.232  1.00  0.00     0.042 C 
BRANCH  36  37
ATOM     37  C   UNL A   1      33.874  29.245  27.645  1.00  0.00     0.118 C 
BRANCH  37  38
ATOM     38  N   UNL A   1      34.454  30.584  27.757  1.00  0.00    -0.352 N 
ATOM     39  C   UNL A   1      35.775  30.978  27.898  1.00  0.00     0.251 C 
ATOM     40  H   UNL A   1      33.802  31.321  27.730  1.00  0.00     0.163 HD
ATOM     41  O   UNL A   1      36.061  32.164  27.932  1.00  0.00    -0.269 OA
BRANCH  39  42
ATOM     42  C   UNL A   1      36.841  29.954  27.846  1.00  0.00     0.039 A 
ATOM     43  C   UNL A   1      37.035  29.179  28.994  1.00  0.00     0.014 A 
ATOM     44  C   UNL A   1      37.770  29.933  26.810  1.00  0.00     0.014 A 
ATOM     45  C   UNL A   1      38.284  28.617  29.223  1.00  0.00     0.010 A 
ATOM     46  C   UNL A   1      39.038  29.459  27.074  1.00  0.00     0.010 A 
ATOM     47  C   UNL A   1      39.310  28.875  28.315  1.00  0.00    -0.014 A 
BRANCH  47  48
ATOM     48  C   UNL A   1      40.711  28.684  28.660  1.00  0.00     0.031 A 
ATOM     49  C   UNL A   1      41.487  27.599  28.041  1.00  0.00     0.074 A 
ATOM     50  C   UNL A   1      41.292  29.493  29.571  1.00  0.00     0.049 A 
ATOM     51  N   UNL A   1      42.475  27.001  28.615  1.00  0.00    -0.248 NA
ATOM     52  C   UNL A   1      41.157  27.060  26.729  1.00  0.00     0.031 C 
ATOM     53  C   UNL A   1      42.709  29.588  29.908  1.00  0.00     0.029 A 
ATOM     54  N   UNL A   1      40.646  30.235  30.563  1.00  0.00    -0.354 N 
ATOM     55  C   UNL A   1      43.085  26.223  27.661  1.00  0.00     0.074 A 
ATOM     56  C   UNL A   1      42.175  26.217  26.537  1.00  0.00     0.031 C 
ATOM     57  C   UNL A   1      42.825  30.110  31.139  1.00  0.00     0.029 A 
ATOM     58  C   UNL A   1      41.484  30.225  31.690  1.00  0.00     0.049 A 
ATOM     59  H   UNL A   1      39.771  30.680  30.485  1.00  0.00     0.167 HD
ATOM     60  C   UNL A   1      44.363  25.795  27.857  1.00  0.00     0.031 A 
ATOM     61  C   UNL A   1      41.076  29.677  32.870  1.00  0.00     0.031 A 
ATOM     62  C   UNL A   1      44.879  26.182  29.168  1.00  0.00     0.049 A 
ATOM     63  C   UNL A   1      41.949  28.541  33.356  1.00  0.00     0.074 A 
ATOM     64  C   UNL A   1      45.723  27.201  29.586  1.00  0.00     0.029 A 
ATOM     65  N   UNL A   1      44.293  25.664  30.317  1.00  0.00    -0.354 N 
ATOM     66  N   UNL A   1      42.780  27.878  32.601  1.00  0.00    -0.248 NA
ATOM     67  C   UNL A   1      41.906  28.028  34.722  1.00  0.00     0.031 C 
ATOM     68  C   UNL A   1      45.606  27.320  30.995  1.00  0.00     0.029 A 
ATOM     69  C   UNL A   1      44.712  26.361  31.435  1.00  0.00     0.049 A 
ATOM     70  H   UNL A   1      43.667  24.904  30.332  1.00  0.00     0.167 HD
ATOM     71  C   UNL A   1      43.358  26.868  33.329  1.00  0.00     0.074 A 
ATOM     72  C   UNL A   1      42.793  27.018  34.658  1.00  0.00     0.031 C 
ATOM     73  C   UNL A   1      44.232  25.986  32.760  1.00  0.00     0.031 A 
BRANCH  60  74
ATOM     74  C   UNL A   1      45.236  25.317  26.720  1.00  0.00    -0.014 A 
ATOM     75  C   UNL A   1      45.864  24.061  26.804  1.00  0.00     0.009 A 
ATOM     76  C   UNL A   1      45.538  26.080  25.580  1.00  0.00     0.009 A 
ATOM     77  C   UNL A   1      46.826  23.648  25.873  1.00  0.00     0.001 A 
ATOM     78  C   UNL A   1      46.531  25.696  24.669  1.00  0.00     0.001 A 
ATOM     79  C   UNL A   1      47.188  24.483  24.825  1.00  0.00     0.000 A 
ENDBRANCH  60  74
BRANCH  61  80
ATOM     80  C   UNL A   1      39.607  29.752  33.104  1.00  0.00    -0.014 A 
ATOM     81  C   UNL A   1      39.025  31.009  33.363  1.00  0.00     0.009 A 
ATOM     82  C   UNL A   1      38.768  28.686  32.754  1.00  0.00     0.009 A 
ATOM     83  C   UNL A   1      37.657  31.219  33.171  1.00  0.00     0.001 A 
ATOM     84  C   UNL A   1      37.396  28.897  32.575  1.00  0.00     0.001 A 
ATOM     85  C   UNL A   1      36.847  30.167  32.750  1.00  0.00     0.000 A 
ENDBRANCH  61  80
BRANCH  73  86
ATOM     86  C   UNL A   1      44.783  24.719  33.380  1.00  0.00    -0.014 A 
ATOM     87  C   UNL A   1      46.100  24.543  33.821  1.00  0.00     0.009 A 
ATOM     88  C   UNL A   1      43.891  23.650  33.644  1.00  0.00     0.009 A 
ATOM     89  C   UNL A   1      46.512  23.358  34.453  1.00  0.00     0.001 A 
ATOM     90  C   UNL A   1      44.285  22.488  34.313  1.00  0.00     0.001 A 
ATOM     91  C   UNL A   1      45.603  22.337  34.709  1.00  0.00     0.000 A 
ENDBRANCH  73  86
ENDBRANCH  47  48
ENDBRANCH  39  42
ENDBRANCH  37  38
ENDBRANCH  36  37
ENDBRANCH  35  36
ENDBRANCH   3  35
TORSDOF 15
ENDMDL
