MODEL 1
REMARK VINA RESULT:     -11.4      0.000      0.000
REMARK SMILES CC1=C[C@@H](CNS(=O)(=O)c2cccs2)[C@H](C(C)C)C[C@H]1CC(=O)NCCCNC(=O)c1ccc(-c2c3nc(c(-c4ccccc4)c4ccc([nH]4)c(-c4ccccc4)c4nc(c(-c5ccccc5)c5ccc2[nH]5)C=C4)C=C3)cc1
REMARK SMILES IDX 22 1 23 2 24 3 21 5 20 6 1 7 2 8 3 9 4 10 19 11 15 12 5 13
REMARK SMILES IDX 6 14 7 16 8 17 9 18 10 19 11 20 14 21 12 22 13 23 16 24
REMARK SMILES IDX 17 25 18 26 25 27 26 28 27 29 28 30 29 31 30 33 31 34 32 35
REMARK SMILES IDX 78 36 33 37 77 38 34 39 35 40 36 41 71 42 37 43 76 44 70 45
REMARK SMILES IDX 72 46 38 47 75 48 69 49 68 50 39 52 61 53 46 54 60 55 47 56
REMARK SMILES IDX 50 57 59 58 73 59 48 60 49 61 58 63 74 64 51 65 40 66 41 67
REMARK SMILES IDX 45 68 42 69 44 70 43 71 62 72 63 73 67 74 64 75 66 76 65 77
REMARK SMILES IDX 52 78 53 79 57 80 54 81 56 82 55 83
REMARK H PARENT 24 4 6 15 28 32 72 51 50 62
REMARK Flexibility Score: inf
ROOT
ATOM      1  C   UNL A   1      34.048  19.236  24.807  1.00  0.00     0.220 C 
ATOM      2  O   UNL A   1      33.382  18.231  25.066  1.00  0.00    -0.275 OA
ATOM      3  N   UNL A   1      35.383  19.208  25.080  1.00  0.00    -0.356 N 
ATOM      4  H   UNL A   1      35.695  18.355  25.462  1.00  0.00     0.163 HD
ENDROOT
BRANCH   1   5
ATOM      5  C   UNL A   1      33.391  20.463  24.216  1.00  0.00     0.108 C 
BRANCH   5   6
ATOM      6  C   UNL A   1      32.630  21.333  25.246  1.00  0.00     0.024 C 
ATOM      7  C   UNL A   1      34.201  21.772  27.240  1.00  0.00     0.039 C 
ATOM      8  C   UNL A   1      33.568  22.287  25.972  1.00  0.00    -0.073 C 
ATOM      9  C   UNL A   1      33.711  23.570  25.586  1.00  0.00    -0.023 C 
ATOM     10  C   UNL A   1      32.758  24.219  24.611  1.00  0.00     0.030 C 
ATOM     11  C   UNL A   1      31.453  22.065  24.532  1.00  0.00     0.013 C 
ATOM     12  C   UNL A   1      31.350  23.580  24.854  1.00  0.00     0.000 C 
BRANCH  10  13
ATOM     13  C   UNL A   1      33.168  24.120  23.125  1.00  0.00     0.107 C 
BRANCH  13  14
ATOM     14  N   UNL A   1      32.097  24.535  22.194  1.00  0.00    -0.210 NA
ATOM     15  H   UNL A   1      31.221  24.565  22.715  1.00  0.00     0.141 HD
BRANCH  14  16
ATOM     16  S   UNL A   1      32.327  26.056  21.455  1.00  0.00     0.250 S 
ATOM     17  O   UNL A   1      33.743  26.347  21.537  1.00  0.00    -0.206 OA
ATOM     18  O   UNL A   1      31.637  25.998  20.190  1.00  0.00    -0.206 OA
BRANCH  16  19
ATOM     19  C   UNL A   1      31.550  27.307  22.467  1.00  0.00     0.134 A 
ATOM     20  C   UNL A   1      30.225  27.691  22.601  1.00  0.00     0.033 A 
ATOM     21  S   UNL A   1      32.557  28.197  23.525  1.00  0.00    -0.131 S 
ATOM     22  C   UNL A   1      30.047  28.735  23.553  1.00  0.00     0.013 A 
ATOM     23  C   UNL A   1      31.237  29.092  24.145  1.00  0.00     0.066 A 
ENDBRANCH  16  19
ENDBRANCH  14  16
ENDBRANCH  13  14
ENDBRANCH  10  13
BRANCH  12  24
ATOM     24  C   UNL A   1      30.784  23.855  26.296  1.00  0.00    -0.014 C 
ATOM     25  C   UNL A   1      30.082  25.215  26.399  1.00  0.00     0.007 C 
ATOM     26  C   UNL A   1      29.813  22.763  26.760  1.00  0.00     0.007 C 
ENDBRANCH  12  24
ENDBRANCH   5   6
ENDBRANCH   1   5
BRANCH   3  27
ATOM     27  C   UNL A   1      36.437  20.202  24.912  1.00  0.00     0.117 C 
BRANCH  27  28
ATOM     28  C   UNL A   1      37.841  19.615  24.741  1.00  0.00     0.042 C 
BRANCH  28  29
ATOM     29  C   UNL A   1      38.922  20.185  25.657  1.00  0.00     0.118 C 
BRANCH  29  30
ATOM     30  N   UNL A   1      40.041  19.272  25.802  1.00  0.00    -0.352 N 
ATOM     31  C   UNL A   1      41.361  19.536  26.073  1.00  0.00     0.251 C 
ATOM     32  H   UNL A   1      39.821  18.319  25.688  1.00  0.00     0.163 HD
ATOM     33  O   UNL A   1      42.196  18.653  25.891  1.00  0.00    -0.269 OA
BRANCH  31  34
ATOM     34  C   UNL A   1      41.807  20.857  26.588  1.00  0.00     0.039 A 
ATOM     35  C   UNL A   1      41.678  21.112  27.959  1.00  0.00     0.014 A 
ATOM     36  C   UNL A   1      42.231  21.881  25.737  1.00  0.00     0.014 A 
ATOM     37  C   UNL A   1      41.982  22.378  28.473  1.00  0.00     0.010 A 
ATOM     38  C   UNL A   1      42.582  23.132  26.260  1.00  0.00     0.010 A 
ATOM     39  C   UNL A   1      42.439  23.402  27.629  1.00  0.00    -0.014 A 
BRANCH  39  40
ATOM     40  C   UNL A   1      42.723  24.759  28.170  1.00  0.00     0.031 A 
ATOM     41  C   UNL A   1      44.123  25.149  28.568  1.00  0.00     0.074 A 
ATOM     42  C   UNL A   1      41.724  25.651  28.318  1.00  0.00     0.049 A 
ATOM     43  N   UNL A   1      44.560  26.286  29.053  1.00  0.00    -0.248 NA
ATOM     44  C   UNL A   1      45.167  24.124  28.412  1.00  0.00     0.031 C 
ATOM     45  C   UNL A   1      40.318  25.411  27.994  1.00  0.00     0.029 A 
ATOM     46  N   UNL A   1      41.743  26.945  28.780  1.00  0.00    -0.354 N 
ATOM     47  C   UNL A   1      45.921  26.108  29.272  1.00  0.00     0.074 A 
ATOM     48  C   UNL A   1      46.231  24.744  28.905  1.00  0.00     0.031 C 
ATOM     49  C   UNL A   1      39.613  26.526  28.245  1.00  0.00     0.029 A 
ATOM     50  C   UNL A   1      40.510  27.551  28.773  1.00  0.00     0.049 A 
ATOM     51  H   UNL A   1      42.562  27.396  29.087  1.00  0.00     0.167 HD
ATOM     52  C   UNL A   1      46.837  27.001  29.722  1.00  0.00     0.031 A 
ATOM     53  C   UNL A   1      40.139  28.790  29.148  1.00  0.00     0.031 A 
ATOM     54  C   UNL A   1      46.546  28.364  30.079  1.00  0.00     0.049 A 
ATOM     55  C   UNL A   1      41.170  29.758  29.659  1.00  0.00     0.074 A 
ATOM     56  C   UNL A   1      47.423  29.353  30.493  1.00  0.00     0.029 A 
ATOM     57  N   UNL A   1      45.282  28.932  30.067  1.00  0.00    -0.354 N 
ATOM     58  N   UNL A   1      42.461  29.588  29.803  1.00  0.00    -0.248 NA
ATOM     59  C   UNL A   1      40.689  31.092  30.048  1.00  0.00     0.031 C 
ATOM     60  C   UNL A   1      46.682  30.508  30.774  1.00  0.00     0.029 A 
ATOM     61  C   UNL A   1      45.353  30.249  30.490  1.00  0.00     0.049 A 
ATOM     62  H   UNL A   1      44.457  28.468  29.798  1.00  0.00     0.167 HD
ATOM     63  C   UNL A   1      42.949  30.799  30.277  1.00  0.00     0.074 A 
ATOM     64  C   UNL A   1      41.819  31.698  30.381  1.00  0.00     0.031 C 
ATOM     65  C   UNL A   1      44.222  31.134  30.597  1.00  0.00     0.031 A 
BRANCH  52  66
ATOM     66  C   UNL A   1      48.255  26.522  29.864  1.00  0.00    -0.014 A 
ATOM     67  C   UNL A   1      49.198  26.732  28.846  1.00  0.00     0.009 A 
ATOM     68  C   UNL A   1      48.664  25.891  31.049  1.00  0.00     0.009 A 
ATOM     69  C   UNL A   1      50.513  26.287  28.997  1.00  0.00     0.001 A 
ATOM     70  C   UNL A   1      49.986  25.469  31.207  1.00  0.00     0.001 A 
ATOM     71  C   UNL A   1      50.907  25.659  30.178  1.00  0.00     0.000 A 
ENDBRANCH  52  66
BRANCH  53  72
ATOM     72  C   UNL A   1      38.715  29.200  29.042  1.00  0.00    -0.014 A 
ATOM     73  C   UNL A   1      37.854  29.074  30.141  1.00  0.00     0.009 A 
ATOM     74  C   UNL A   1      38.210  29.710  27.835  1.00  0.00     0.009 A 
ATOM     75  C   UNL A   1      36.508  29.430  30.029  1.00  0.00     0.001 A 
ATOM     76  C   UNL A   1      36.870  30.087  27.733  1.00  0.00     0.001 A 
ATOM     77  C   UNL A   1      36.018  29.939  28.828  1.00  0.00     0.000 A 
ENDBRANCH  53  72
BRANCH  65  78
ATOM     78  C   UNL A   1      44.465  32.540  31.069  1.00  0.00    -0.014 A 
ATOM     79  C   UNL A   1      44.426  32.864  32.434  1.00  0.00     0.009 A 
ATOM     80  C   UNL A   1      44.763  33.547  30.138  1.00  0.00     0.009 A 
ATOM     81  C   UNL A   1      44.651  34.176  32.855  1.00  0.00     0.001 A 
ATOM     82  C   UNL A   1      45.011  34.854  30.564  1.00  0.00     0.001 A 
ATOM     83  C   UNL A   1      44.946  35.169  31.920  1.00  0.00     0.000 A 
ENDBRANCH  65  78
ENDBRANCH  39  40
ENDBRANCH  31  34
ENDBRANCH  29  30
ENDBRANCH  28  29
ENDBRANCH  27  28
ENDBRANCH   3  27
TORSDOF 16
ENDMDL
MODEL 2
REMARK VINA RESULT:     -11.2      3.553      8.753
REMARK SMILES CC1=C[C@@H](CNS(=O)(=O)c2cccs2)[C@H](C(C)C)C[C@H]1CC(=O)NCCCNC(=O)c1ccc(-c2c3nc(c(-c4ccccc4)c4ccc([nH]4)c(-c4ccccc4)c4nc(c(-c5ccccc5)c5ccc2[nH]5)C=C4)C=C3)cc1
REMARK SMILES IDX 22 1 23 2 24 3 21 5 20 6 1 7 2 8 3 9 4 10 19 11 15 12 5 13
REMARK SMILES IDX 6 14 7 16 8 17 9 18 10 19 11 20 14 21 12 22 13 23 16 24
REMARK SMILES IDX 17 25 18 26 25 27 26 28 27 29 28 30 29 31 30 33 31 34 32 35
REMARK SMILES IDX 78 36 33 37 77 38 34 39 35 40 36 41 71 42 37 43 76 44 70 45
REMARK SMILES IDX 72 46 38 47 75 48 69 49 68 50 39 52 61 53 46 54 60 55 47 56
REMARK SMILES IDX 50 57 59 58 73 59 48 60 49 61 58 63 74 64 51 65 40 66 41 67
REMARK SMILES IDX 45 68 42 69 44 70 43 71 62 72 63 73 67 74 64 75 66 76 65 77
REMARK SMILES IDX 52 78 53 79 57 80 54 81 56 82 55 83
REMARK H PARENT 24 4 6 15 28 32 72 51 50 62
REMARK Flexibility Score: inf
ROOT
ATOM      1  C   UNL A   1      34.190  29.229  26.704  1.00  0.00     0.220 C 
ATOM      2  O   UNL A   1      35.298  29.107  27.230  1.00  0.00    -0.275 OA
ATOM      3  N   UNL A   1      33.452  30.333  27.011  1.00  0.00    -0.356 N 
ATOM      4  H   UNL A   1      33.897  30.950  27.637  1.00  0.00     0.163 HD
ENDROOT
BRANCH   1   5
ATOM      5  C   UNL A   1      33.667  28.171  25.758  1.00  0.00     0.108 C 
BRANCH   5   6
ATOM      6  C   UNL A   1      33.019  26.954  26.462  1.00  0.00     0.024 C 
ATOM      7  C   UNL A   1      31.002  27.799  27.824  1.00  0.00     0.039 C 
ATOM      8  C   UNL A   1      31.511  27.116  26.579  1.00  0.00    -0.073 C 
ATOM      9  C   UNL A   1      30.666  26.552  25.692  1.00  0.00    -0.023 C 
ATOM     10  C   UNL A   1      31.129  25.502  24.710  1.00  0.00     0.030 C 
ATOM     11  C   UNL A   1      33.433  25.648  25.719  1.00  0.00     0.013 C 
ATOM     12  C   UNL A   1      32.258  24.680  25.419  1.00  0.00     0.000 C 
BRANCH  10  13
ATOM     13  C   UNL A   1      31.604  26.043  23.345  1.00  0.00     0.107 C 
BRANCH  13  14
ATOM     14  N   UNL A   1      31.649  25.008  22.289  1.00  0.00    -0.210 NA
ATOM     15  H   UNL A   1      31.211  25.392  21.452  1.00  0.00     0.141 HD
BRANCH  14  16
ATOM     16  S   UNL A   1      33.212  24.468  21.868  1.00  0.00     0.250 S 
ATOM     17  O   UNL A   1      33.100  23.855  20.560  1.00  0.00    -0.206 OA
ATOM     18  O   UNL A   1      34.101  25.577  22.111  1.00  0.00    -0.206 OA
BRANCH  16  19
ATOM     19  C   UNL A   1      33.668  23.128  22.958  1.00  0.00     0.134 A 
ATOM     20  C   UNL A   1      32.965  22.016  23.394  1.00  0.00     0.033 A 
ATOM     21  S   UNL A   1      35.265  23.123  23.570  1.00  0.00    -0.131 S 
ATOM     22  C   UNL A   1      33.734  21.179  24.253  1.00  0.00     0.013 A 
ATOM     23  C   UNL A   1      35.014  21.658  24.417  1.00  0.00     0.066 A 
ENDBRANCH  16  19
ENDBRANCH  14  16
ENDBRANCH  13  14
ENDBRANCH  10  13
BRANCH  12  24
ATOM     24  C   UNL A   1      31.760  23.917  26.701  1.00  0.00    -0.014 C 
ATOM     25  C   UNL A   1      30.599  22.961  26.398  1.00  0.00     0.007 C 
ATOM     26  C   UNL A   1      32.883  23.128  27.383  1.00  0.00     0.007 C 
ENDBRANCH  12  24
ENDBRANCH   5   6
ENDBRANCH   1   5
BRANCH   3  27
ATOM     27  C   UNL A   1      32.129  30.774  26.585  1.00  0.00     0.117 C 
BRANCH  27  28
ATOM     28  C   UNL A   1      31.785  32.215  26.976  1.00  0.00     0.042 C 
BRANCH  28  29
ATOM     29  C   UNL A   1      32.969  33.166  27.140  1.00  0.00     0.118 C 
BRANCH  29  30
ATOM     30  N   UNL A   1      32.649  34.277  28.016  1.00  0.00    -0.352 N 
ATOM     31  C   UNL A   1      33.210  34.640  29.215  1.00  0.00     0.251 C 
ATOM     32  H   UNL A   1      31.918  34.859  27.704  1.00  0.00     0.163 HD
ATOM     33  O   UNL A   1      32.623  35.452  29.928  1.00  0.00    -0.269 OA
BRANCH  31  34
ATOM     34  C   UNL A   1      34.511  34.087  29.673  1.00  0.00     0.039 A 
ATOM     35  C   UNL A   1      35.653  34.362  28.912  1.00  0.00     0.014 A 
ATOM     36  C   UNL A   1      34.604  33.209  30.757  1.00  0.00     0.014 A 
ATOM     37  C   UNL A   1      36.880  33.773  29.241  1.00  0.00     0.010 A 
ATOM     38  C   UNL A   1      35.841  32.659  31.115  1.00  0.00     0.010 A 
ATOM     39  C   UNL A   1      36.988  32.916  30.347  1.00  0.00    -0.014 A 
BRANCH  39  40
ATOM     40  C   UNL A   1      38.283  32.258  30.672  1.00  0.00     0.031 A 
ATOM     41  C   UNL A   1      39.232  32.881  31.664  1.00  0.00     0.074 A 
ATOM     42  C   UNL A   1      38.623  31.100  30.073  1.00  0.00     0.049 A 
ATOM     43  N   UNL A   1      40.400  32.451  32.074  1.00  0.00    -0.248 NA
ATOM     44  C   UNL A   1      38.821  34.161  32.262  1.00  0.00     0.031 C 
ATOM     45  C   UNL A   1      37.815  30.390  29.081  1.00  0.00     0.029 A 
ATOM     46  N   UNL A   1      39.741  30.315  30.216  1.00  0.00    -0.354 N 
ATOM     47  C   UNL A   1      40.868  33.410  32.965  1.00  0.00     0.074 A 
ATOM     48  C   UNL A   1      39.877  34.463  33.007  1.00  0.00     0.031 C 
ATOM     49  C   UNL A   1      38.453  29.264  28.722  1.00  0.00     0.029 A 
ATOM     50  C   UNL A   1      39.725  29.185  29.435  1.00  0.00     0.049 A 
ATOM     51  H   UNL A   1      40.484  30.541  30.821  1.00  0.00     0.167 HD
ATOM     52  C   UNL A   1      42.009  33.411  33.697  1.00  0.00     0.031 A 
ATOM     53  C   UNL A   1      40.629  28.196  29.304  1.00  0.00     0.031 A 
ATOM     54  C   UNL A   1      42.998  32.365  33.675  1.00  0.00     0.049 A 
ATOM     55  C   UNL A   1      41.895  28.227  30.115  1.00  0.00     0.074 A 
ATOM     56  C   UNL A   1      44.158  32.260  34.425  1.00  0.00     0.029 A 
ATOM     57  N   UNL A   1      42.945  31.246  32.861  1.00  0.00    -0.354 N 
ATOM     58  N   UNL A   1      42.290  29.114  30.995  1.00  0.00    -0.248 NA
ATOM     59  C   UNL A   1      42.833  27.112  29.919  1.00  0.00     0.031 C 
ATOM     60  C   UNL A   1      44.830  31.096  34.032  1.00  0.00     0.029 A 
ATOM     61  C   UNL A   1      44.064  30.457  33.073  1.00  0.00     0.049 A 
ATOM     62  H   UNL A   1      42.221  31.041  32.227  1.00  0.00     0.167 HD
ATOM     63  C   UNL A   1      43.510  28.652  31.473  1.00  0.00     0.074 A 
ATOM     64  C   UNL A   1      43.782  27.400  30.798  1.00  0.00     0.031 C 
ATOM     65  C   UNL A   1      44.330  29.217  32.391  1.00  0.00     0.031 A 
BRANCH  52  66
ATOM     66  C   UNL A   1      42.257  34.598  34.586  1.00  0.00    -0.014 A 
ATOM     67  C   UNL A   1      42.926  35.736  34.108  1.00  0.00     0.009 A 
ATOM     68  C   UNL A   1      41.780  34.594  35.906  1.00  0.00     0.009 A 
ATOM     69  C   UNL A   1      43.142  36.832  34.947  1.00  0.00     0.001 A 
ATOM     70  C   UNL A   1      41.975  35.702  36.733  1.00  0.00     0.001 A 
ATOM     71  C   UNL A   1      42.664  36.815  36.256  1.00  0.00     0.000 A 
ENDBRANCH  52  66
BRANCH  53  72
ATOM     72  C   UNL A   1      40.365  27.071  28.371  1.00  0.00    -0.014 A 
ATOM     73  C   UNL A   1      40.884  27.091  27.068  1.00  0.00     0.009 A 
ATOM     74  C   UNL A   1      39.584  25.978  28.777  1.00  0.00     0.009 A 
ATOM     75  C   UNL A   1      40.607  26.047  26.181  1.00  0.00     0.001 A 
ATOM     76  C   UNL A   1      39.329  24.925  27.896  1.00  0.00     0.001 A 
ATOM     77  C   UNL A   1      39.835  24.965  26.597  1.00  0.00     0.000 A 
ENDBRANCH  53  72
BRANCH  65  78
ATOM     78  C   UNL A   1      45.590  28.474  32.736  1.00  0.00    -0.014 A 
ATOM     79  C   UNL A   1      45.609  27.511  33.757  1.00  0.00     0.009 A 
ATOM     80  C   UNL A   1      46.767  28.721  32.012  1.00  0.00     0.009 A 
ATOM     81  C   UNL A   1      46.790  26.833  34.067  1.00  0.00     0.001 A 
ATOM     82  C   UNL A   1      47.940  28.025  32.308  1.00  0.00     0.001 A 
ATOM     83  C   UNL A   1      47.952  27.088  33.341  1.00  0.00     0.000 A 
ENDBRANCH  65  78
ENDBRANCH  39  40
ENDBRANCH  31  34
ENDBRANCH  29  30
ENDBRANCH  28  29
ENDBRANCH  27  28
ENDBRANCH   3  27
TORSDOF 16
ENDMDL
MODEL 3
REMARK VINA RESULT:     -11.1      1.932      2.705
REMARK SMILES CC1=C[C@@H](CNS(=O)(=O)c2cccs2)[C@H](C(C)C)C[C@H]1CC(=O)NCCCNC(=O)c1ccc(-c2c3nc(c(-c4ccccc4)c4ccc([nH]4)c(-c4ccccc4)c4nc(c(-c5ccccc5)c5ccc2[nH]5)C=C4)C=C3)cc1
REMARK SMILES IDX 22 1 23 2 24 3 21 5 20 6 1 7 2 8 3 9 4 10 19 11 15 12 5 13
REMARK SMILES IDX 6 14 7 16 8 17 9 18 10 19 11 20 14 21 12 22 13 23 16 24
REMARK SMILES IDX 17 25 18 26 25 27 26 28 27 29 28 30 29 31 30 33 31 34 32 35
REMARK SMILES IDX 78 36 33 37 77 38 34 39 35 40 36 41 71 42 37 43 76 44 70 45
REMARK SMILES IDX 72 46 38 47 75 48 69 49 68 50 39 52 61 53 46 54 60 55 47 56
REMARK SMILES IDX 50 57 59 58 73 59 48 60 49 61 58 63 74 64 51 65 40 66 41 67
REMARK SMILES IDX 45 68 42 69 44 70 43 71 62 72 63 73 67 74 64 75 66 76 65 77
REMARK SMILES IDX 52 78 53 79 57 80 54 81 56 82 55 83
REMARK H PARENT 24 4 6 15 28 32 72 51 50 62
REMARK Flexibility Score: inf
ROOT
ATOM      1  C   UNL A   1      36.953  23.441  26.179  1.00  0.00     0.220 C 
ATOM      2  O   UNL A   1      37.734  24.331  26.521  1.00  0.00    -0.275 OA
ATOM      3  N   UNL A   1      37.441  22.176  26.046  1.00  0.00    -0.356 N 
ATOM      4  H   UNL A   1      38.401  22.094  26.251  1.00  0.00     0.163 HD
ENDROOT
BRANCH   1   5
ATOM      5  C   UNL A   1      35.499  23.757  25.906  1.00  0.00     0.108 C 
BRANCH   5   6
ATOM      6  C   UNL A   1      35.244  24.439  24.540  1.00  0.00     0.024 C 
ATOM      7  C   UNL A   1      36.330  22.990  22.706  1.00  0.00     0.039 C 
ATOM      8  C   UNL A   1      35.075  23.414  23.428  1.00  0.00    -0.073 C 
ATOM      9  C   UNL A   1      33.857  23.016  23.010  1.00  0.00    -0.023 C 
ATOM     10  C   UNL A   1      32.600  23.756  23.404  1.00  0.00     0.030 C 
ATOM     11  C   UNL A   1      34.028  25.405  24.665  1.00  0.00     0.013 C 
ATOM     12  C   UNL A   1      32.980  25.269  23.527  1.00  0.00     0.000 C 
BRANCH  10  13
ATOM     13  C   UNL A   1      31.912  23.245  24.688  1.00  0.00     0.107 C 
BRANCH  13  14
ATOM     14  N   UNL A   1      30.583  23.850  24.920  1.00  0.00    -0.210 NA
ATOM     15  H   UNL A   1      29.909  23.094  25.042  1.00  0.00     0.141 HD
BRANCH  14  16
ATOM     16  S   UNL A   1      30.479  24.875  26.280  1.00  0.00     0.250 S 
ATOM     17  O   UNL A   1      29.084  24.909  26.668  1.00  0.00    -0.206 OA
ATOM     18  O   UNL A   1      31.509  24.441  27.193  1.00  0.00    -0.206 OA
BRANCH  16  19
ATOM     19  C   UNL A   1      30.846  26.547  25.767  1.00  0.00     0.134 A 
ATOM     20  C   UNL A   1      30.497  27.258  24.631  1.00  0.00     0.033 A 
ATOM     21  S   UNL A   1      31.743  27.521  26.850  1.00  0.00    -0.131 S 
ATOM     22  C   UNL A   1      30.993  28.594  24.641  1.00  0.00     0.013 A 
ATOM     23  C   UNL A   1      31.674  28.874  25.804  1.00  0.00     0.066 A 
ENDBRANCH  16  19
ENDBRANCH  14  16
ENDBRANCH  13  14
ENDBRANCH  10  13
BRANCH  12  24
ATOM     24  C   UNL A   1      33.473  25.899  22.172  1.00  0.00    -0.014 C 
ATOM     25  C   UNL A   1      32.478  25.675  21.027  1.00  0.00     0.007 C 
ATOM     26  C   UNL A   1      33.754  27.401  22.295  1.00  0.00     0.007 C 
ENDBRANCH  12  24
ENDBRANCH   5   6
ENDBRANCH   1   5
BRANCH   3  27
ATOM     27  C   UNL A   1      36.809  20.920  25.658  1.00  0.00     0.117 C 
BRANCH  27  28
ATOM     28  C   UNL A   1      37.791  19.814  25.256  1.00  0.00     0.042 C 
BRANCH  28  29
ATOM     29  C   UNL A   1      39.250  20.238  25.101  1.00  0.00     0.118 C 
BRANCH  29  30
ATOM     30  N   UNL A   1      40.157  19.263  25.677  1.00  0.00    -0.352 N 
ATOM     31  C   UNL A   1      41.385  19.444  26.265  1.00  0.00     0.251 C 
ATOM     32  H   UNL A   1      39.846  18.329  25.640  1.00  0.00     0.163 HD
ATOM     33  O   UNL A   1      42.110  18.468  26.447  1.00  0.00    -0.269 OA
BRANCH  31  34
ATOM     34  C   UNL A   1      41.858  20.785  26.695  1.00  0.00     0.039 A 
ATOM     35  C   UNL A   1      41.723  21.136  28.044  1.00  0.00     0.014 A 
ATOM     36  C   UNL A   1      42.314  21.740  25.781  1.00  0.00     0.014 A 
ATOM     37  C   UNL A   1      42.052  22.426  28.475  1.00  0.00     0.010 A 
ATOM     38  C   UNL A   1      42.690  23.015  26.222  1.00  0.00     0.010 A 
ATOM     39  C   UNL A   1      42.541  23.380  27.569  1.00  0.00    -0.014 A 
BRANCH  39  40
ATOM     40  C   UNL A   1      42.853  24.763  28.021  1.00  0.00     0.031 A 
ATOM     41  C   UNL A   1      44.280  25.194  28.245  1.00  0.00     0.074 A 
ATOM     42  C   UNL A   1      41.857  25.643  28.243  1.00  0.00     0.049 A 
ATOM     43  N   UNL A   1      44.743  26.358  28.633  1.00  0.00    -0.248 NA
ATOM     44  C   UNL A   1      45.322  24.181  28.016  1.00  0.00     0.031 C 
ATOM     45  C   UNL A   1      40.430  25.364  28.086  1.00  0.00     0.029 A 
ATOM     46  N   UNL A   1      41.898  26.955  28.647  1.00  0.00    -0.354 N 
ATOM     47  C   UNL A   1      46.123  26.213  28.708  1.00  0.00     0.074 A 
ATOM     48  C   UNL A   1      46.421  24.840  28.363  1.00  0.00     0.031 C 
ATOM     49  C   UNL A   1      39.732  26.477  28.369  1.00  0.00     0.029 A 
ATOM     50  C   UNL A   1      40.659  27.539  28.753  1.00  0.00     0.049 A 
ATOM     51  H   UNL A   1      42.736  27.433  28.844  1.00  0.00     0.167 HD
ATOM     52  C   UNL A   1      47.063  27.140  29.017  1.00  0.00     0.031 A 
ATOM     53  C   UNL A   1      40.304  28.785  29.117  1.00  0.00     0.031 A 
ATOM     54  C   UNL A   1      46.783  28.512  29.350  1.00  0.00     0.049 A 
ATOM     55  C   UNL A   1      41.363  29.792  29.472  1.00  0.00     0.074 A 
ATOM     56  C   UNL A   1      47.678  29.532  29.624  1.00  0.00     0.029 A 
ATOM     57  N   UNL A   1      45.513  29.056  29.455  1.00  0.00    -0.354 N 
ATOM     58  N   UNL A   1      42.666  29.651  29.479  1.00  0.00    -0.248 NA
ATOM     59  C   UNL A   1      40.899  31.132  29.858  1.00  0.00     0.031 C 
ATOM     60  C   UNL A   1      46.947  30.685  29.939  1.00  0.00     0.029 A 
ATOM     61  C   UNL A   1      45.600  30.391  29.814  1.00  0.00     0.049 A 
ATOM     62  H   UNL A   1      44.673  28.567  29.297  1.00  0.00     0.167 HD
ATOM     63  C   UNL A   1      43.177  30.889  29.847  1.00  0.00     0.074 A 
ATOM     64  C   UNL A   1      42.045  31.772  30.040  1.00  0.00     0.031 C 
ATOM     65  C   UNL A   1      44.469  31.260  30.011  1.00  0.00     0.031 A 
BRANCH  52  66
ATOM     66  C   UNL A   1      48.498  26.693  29.021  1.00  0.00    -0.014 A 
ATOM     67  C   UNL A   1      49.294  26.799  27.870  1.00  0.00     0.009 A 
ATOM     68  C   UNL A   1      49.073  26.197  30.202  1.00  0.00     0.009 A 
ATOM     69  C   UNL A   1      50.628  26.385  27.892  1.00  0.00     0.001 A 
ATOM     70  C   UNL A   1      50.414  25.808  30.227  1.00  0.00     0.001 A 
ATOM     71  C   UNL A   1      51.187  25.893  29.071  1.00  0.00     0.000 A 
ENDBRANCH  52  66
BRANCH  53  72
ATOM     72  C   UNL A   1      38.869  29.166  29.152  1.00  0.00    -0.014 A 
ATOM     73  C   UNL A   1      38.241  29.682  28.009  1.00  0.00     0.009 A 
ATOM     74  C   UNL A   1      38.123  29.024  30.334  1.00  0.00     0.009 A 
ATOM     75  C   UNL A   1      36.900  30.070  28.053  1.00  0.00     0.001 A 
ATOM     76  C   UNL A   1      36.777  29.391  30.368  1.00  0.00     0.001 A 
ATOM     77  C   UNL A   1      36.169  29.920  29.229  1.00  0.00     0.000 A 
ENDBRANCH  53  72
BRANCH  65  78
ATOM     78  C   UNL A   1      44.731  32.688  30.396  1.00  0.00    -0.014 A 
ATOM     79  C   UNL A   1      44.880  33.688  29.422  1.00  0.00     0.009 A 
ATOM     80  C   UNL A   1      44.802  33.044  31.752  1.00  0.00     0.009 A 
ATOM     81  C   UNL A   1      45.127  35.009  29.799  1.00  0.00     0.001 A 
ATOM     82  C   UNL A   1      45.025  34.370  32.126  1.00  0.00     0.001 A 
ATOM     83  C   UNL A   1      45.196  35.350  31.149  1.00  0.00     0.000 A 
ENDBRANCH  65  78
ENDBRANCH  39  40
ENDBRANCH  31  34
ENDBRANCH  29  30
ENDBRANCH  28  29
ENDBRANCH  27  28
ENDBRANCH   3  27
TORSDOF 16
ENDMDL
