MODEL 1
REMARK VINA RESULT:     -12.9      0.000      0.000
REMARK SMILES CS(=O)(=O)c1ccc(C2=NN(c3ccc(C(=O)NCCCNC(=O)c4ccc(-c5c6nc(c(-c7ccccc7)c7ccc([nH]7)c(-c7ccccc7)c7nc(c(-c8ccccc8)c8ccc5[nH]8)C=C7)C=C6)cc4)cc3)[C@H](c3ccc(F)cc3)C2)cc1
REMARK SMILES IDX 19 1 18 2 16 3 17 4 15 6 12 7 13 8 74 9 14 10 73 11 11 12
REMARK SMILES IDX 9 13 10 14 83 15 75 16 8 17 5 18 6 19 85 20 7 21 84 22 2 23
REMARK SMILES IDX 1 24 3 25 4 26 76 27 77 28 82 29 78 30 81 31 79 32 80 33
REMARK SMILES IDX 20 34 21 35 22 36 23 37 24 39 25 40 26 41 72 42 27 43 71 44
REMARK SMILES IDX 28 45 29 46 30 47 65 48 31 49 70 50 64 51 66 52 32 53 69 54
REMARK SMILES IDX 63 55 62 56 33 58 55 59 40 60 54 61 41 62 44 63 53 64 67 65
REMARK SMILES IDX 42 66 43 67 52 69 68 70 45 71 34 72 35 73 39 74 36 75 38 76
REMARK SMILES IDX 37 77 56 78 57 79 61 80 58 81 60 82 59 83 46 84 47 85 51 86
REMARK SMILES IDX 48 87 50 88 49 89
REMARK H PARENT 18 5 22 38 66 57 44 68
REMARK Flexibility Score: inf
ROOT
ATOM      1  C   UNL A   1      38.740  20.706  25.342  1.00  0.00     0.118 C 
ENDROOT
BRANCH   1   2
ATOM      2  N   UNL A   1      39.209  22.002  25.802  1.00  0.00    -0.352 N 
ATOM      3  C   UNL A   1      38.553  23.202  25.927  1.00  0.00     0.251 C 
ATOM      4  O   UNL A   1      39.133  24.133  26.483  1.00  0.00    -0.269 OA
ATOM      5  H   UNL A   1      40.157  22.024  26.068  1.00  0.00     0.163 HD
BRANCH   3   6
ATOM      6  C   UNL A   1      37.156  23.388  25.459  1.00  0.00     0.039 A 
ATOM      7  C   UNL A   1      34.468  23.713  24.684  1.00  0.00     0.060 A 
ATOM      8  C   UNL A   1      34.848  23.893  26.018  1.00  0.00     0.029 A 
ATOM      9  C   UNL A   1      35.456  23.430  23.738  1.00  0.00     0.029 A 
ATOM     10  C   UNL A   1      36.182  23.732  26.406  1.00  0.00     0.016 A 
ATOM     11  C   UNL A   1      36.790  23.288  24.117  1.00  0.00     0.016 A 
BRANCH   7  12
ATOM     12  N   UNL A   1      33.150  23.817  24.267  1.00  0.00    -0.257 N 
ATOM     13  C   UNL A   1      31.401  24.998  24.026  1.00  0.00     0.071 C 
ATOM     14  N   UNL A   1      32.690  25.034  23.903  1.00  0.00    -0.176 NA
ATOM     15  C   UNL A   1      30.828  23.719  24.572  1.00  0.00     0.091 C 
ATOM     16  C   UNL A   1      32.112  22.881  24.712  1.00  0.00     0.144 C 
BRANCH  13  17
ATOM     17  C   UNL A   1      30.562  26.138  23.636  1.00  0.00    -0.002 A 
ATOM     18  C   UNL A   1      29.090  28.384  22.918  1.00  0.00     0.067 A 
ATOM     19  C   UNL A   1      30.437  28.308  22.565  1.00  0.00     0.021 A 
ATOM     20  C   UNL A   1      28.478  27.346  23.635  1.00  0.00     0.021 A 
ATOM     21  C   UNL A   1      31.175  27.186  22.938  1.00  0.00     0.011 A 
ATOM     22  C   UNL A   1      29.214  26.210  23.987  1.00  0.00     0.011 A 
BRANCH  18  23
ATOM     23  S   UNL A   1      28.096  29.799  22.501  1.00  0.00     0.175 S 
ATOM     24  C   UNL A   1      28.910  31.226  23.163  1.00  0.00     0.163 C 
ATOM     25  O   UNL A   1      26.845  29.648  23.215  1.00  0.00    -0.224 OA
ATOM     26  O   UNL A   1      28.130  29.899  21.052  1.00  0.00    -0.224 OA
ENDBRANCH  18  23
ENDBRANCH  13  17
BRANCH  16  27
ATOM     27  C   UNL A   1      32.216  21.579  23.921  1.00  0.00    -0.023 A 
ATOM     28  C   UNL A   1      32.527  20.336  24.497  1.00  0.00     0.009 A 
ATOM     29  C   UNL A   1      31.898  21.607  22.545  1.00  0.00     0.009 A 
ATOM     30  C   UNL A   1      32.536  19.170  23.722  1.00  0.00     0.039 A 
ATOM     31  C   UNL A   1      31.881  20.440  21.779  1.00  0.00     0.039 A 
ATOM     32  C   UNL A   1      32.204  19.231  22.375  1.00  0.00     0.123 A 
ATOM     33  F   UNL A   1      32.184  18.108  21.645  1.00  0.00    -0.207 F 
ENDBRANCH  16  27
ENDBRANCH   7  12
ENDBRANCH   3   6
ENDBRANCH   1   2
BRANCH   1  34
ATOM     34  C   UNL A   1      39.688  19.579  25.751  1.00  0.00     0.042 C 
BRANCH  34  35
ATOM     35  C   UNL A   1      40.928  20.053  26.502  1.00  0.00     0.118 C 
BRANCH  35  36
ATOM     36  N   UNL A   1      42.153  19.771  25.772  1.00  0.00    -0.352 N 
ATOM     37  C   UNL A   1      43.181  20.601  25.403  1.00  0.00     0.251 C 
ATOM     38  H   UNL A   1      42.262  18.832  25.497  1.00  0.00     0.163 HD
ATOM     39  O   UNL A   1      44.022  20.187  24.608  1.00  0.00    -0.269 OA
BRANCH  37  40
ATOM     40  C   UNL A   1      43.292  21.981  25.930  1.00  0.00     0.039 A 
ATOM     41  C   UNL A   1      43.567  22.145  27.292  1.00  0.00     0.014 A 
ATOM     42  C   UNL A   1      43.066  23.106  25.131  1.00  0.00     0.014 A 
ATOM     43  C   UNL A   1      43.652  23.426  27.839  1.00  0.00     0.010 A 
ATOM     44  C   UNL A   1      43.222  24.387  25.662  1.00  0.00     0.010 A 
ATOM     45  C   UNL A   1      43.504  24.561  27.024  1.00  0.00    -0.014 A 
BRANCH  45  46
ATOM     46  C   UNL A   1      43.658  25.922  27.598  1.00  0.00     0.031 A 
ATOM     47  C   UNL A   1      45.003  26.593  27.649  1.00  0.00     0.074 A 
ATOM     48  C   UNL A   1      42.575  26.553  28.093  1.00  0.00     0.049 A 
ATOM     49  N   UNL A   1      45.308  27.797  28.067  1.00  0.00    -0.248 NA
ATOM     50  C   UNL A   1      46.159  25.808  27.190  1.00  0.00     0.031 C 
ATOM     51  C   UNL A   1      41.223  25.992  28.152  1.00  0.00     0.029 A 
ATOM     52  N   UNL A   1      42.438  27.807  28.631  1.00  0.00    -0.354 N 
ATOM     53  C   UNL A   1      46.686  27.909  27.930  1.00  0.00     0.074 A 
ATOM     54  C   UNL A   1      47.164  26.635  27.438  1.00  0.00     0.031 C 
ATOM     55  C   UNL A   1      40.387  26.913  28.655  1.00  0.00     0.029 A 
ATOM     56  C   UNL A   1      41.146  28.115  28.981  1.00  0.00     0.049 A 
ATOM     57  H   UNL A   1      43.193  28.427  28.755  1.00  0.00     0.167 HD
ATOM     58  C   UNL A   1      47.481  28.979  28.174  1.00  0.00     0.031 A 
ATOM     59  C   UNL A   1      40.625  29.245  29.496  1.00  0.00     0.031 A 
ATOM     60  C   UNL A   1      47.007  30.248  28.662  1.00  0.00     0.049 A 
ATOM     61  C   UNL A   1      41.525  30.423  29.741  1.00  0.00     0.074 A 
ATOM     62  C   UNL A   1      47.726  31.408  28.892  1.00  0.00     0.029 A 
ATOM     63  N   UNL A   1      45.690  30.522  28.997  1.00  0.00    -0.354 N 
ATOM     64  N   UNL A   1      42.813  30.536  29.534  1.00  0.00    -0.248 NA
ATOM     65  C   UNL A   1      40.888  31.637  30.271  1.00  0.00     0.031 C 
ATOM     66  C   UNL A   1      46.852  32.371  29.409  1.00  0.00     0.029 A 
ATOM     67  C   UNL A   1      45.578  31.827  29.448  1.00  0.00     0.049 A 
ATOM     68  H   UNL A   1      44.944  29.883  28.924  1.00  0.00     0.167 HD
ATOM     69  C   UNL A   1      43.139  31.840  29.883  1.00  0.00     0.074 A 
ATOM     70  C   UNL A   1      41.908  32.483  30.293  1.00  0.00     0.031 C 
ATOM     71  C   UNL A   1      44.348  32.451  29.863  1.00  0.00     0.031 A 
BRANCH  58  72
ATOM     72  C   UNL A   1      48.955  28.817  27.922  1.00  0.00    -0.014 A 
ATOM     73  C   UNL A   1      49.524  29.170  26.686  1.00  0.00     0.009 A 
ATOM     74  C   UNL A   1      49.793  28.342  28.942  1.00  0.00     0.009 A 
ATOM     75  C   UNL A   1      50.895  29.014  26.467  1.00  0.00     0.001 A 
ATOM     76  C   UNL A   1      51.168  28.214  28.730  1.00  0.00     0.001 A 
ATOM     77  C   UNL A   1      51.715  28.540  27.490  1.00  0.00     0.000 A 
ENDBRANCH  58  72
BRANCH  59  78
ATOM     78  C   UNL A   1      39.170  29.329  29.777  1.00  0.00    -0.014 A 
ATOM     79  C   UNL A   1      38.271  29.705  28.766  1.00  0.00     0.009 A 
ATOM     80  C   UNL A   1      38.670  29.032  31.054  1.00  0.00     0.009 A 
ATOM     81  C   UNL A   1      36.904  29.808  29.038  1.00  0.00     0.001 A 
ATOM     82  C   UNL A   1      37.301  29.109  31.314  1.00  0.00     0.001 A 
ATOM     83  C   UNL A   1      36.420  29.505  30.309  1.00  0.00     0.000 A 
ENDBRANCH  59  78
BRANCH  71  84
ATOM     84  C   UNL A   1      44.387  33.897  30.269  1.00  0.00    -0.014 A 
ATOM     85  C   UNL A   1      44.615  34.275  31.602  1.00  0.00     0.009 A 
ATOM     86  C   UNL A   1      44.199  34.895  29.301  1.00  0.00     0.009 A 
ATOM     87  C   UNL A   1      44.607  35.625  31.963  1.00  0.00     0.001 A 
ATOM     88  C   UNL A   1      44.221  36.244  29.660  1.00  0.00     0.001 A 
ATOM     89  C   UNL A   1      44.413  36.607  30.993  1.00  0.00     0.000 A 
ENDBRANCH  71  84
ENDBRANCH  45  46
ENDBRANCH  37  40
ENDBRANCH  35  36
ENDBRANCH  34  35
ENDBRANCH   1  34
TORSDOF 14
ENDMDL
MODEL 2
REMARK VINA RESULT:     -12.8      4.868      9.549
REMARK SMILES CS(=O)(=O)c1ccc(C2=NN(c3ccc(C(=O)NCCCNC(=O)c4ccc(-c5c6nc(c(-c7ccccc7)c7ccc([nH]7)c(-c7ccccc7)c7nc(c(-c8ccccc8)c8ccc5[nH]8)C=C7)C=C6)cc4)cc3)[C@H](c3ccc(F)cc3)C2)cc1
REMARK SMILES IDX 19 1 18 2 16 3 17 4 15 6 12 7 13 8 74 9 14 10 73 11 11 12
REMARK SMILES IDX 9 13 10 14 83 15 75 16 8 17 5 18 6 19 85 20 7 21 84 22 2 23
REMARK SMILES IDX 1 24 3 25 4 26 76 27 77 28 82 29 78 30 81 31 79 32 80 33
REMARK SMILES IDX 20 34 21 35 22 36 23 37 24 39 25 40 26 41 72 42 27 43 71 44
REMARK SMILES IDX 28 45 29 46 30 47 65 48 31 49 70 50 64 51 66 52 32 53 69 54
REMARK SMILES IDX 63 55 62 56 33 58 55 59 40 60 54 61 41 62 44 63 53 64 67 65
REMARK SMILES IDX 42 66 43 67 52 69 68 70 45 71 34 72 35 73 39 74 36 75 38 76
REMARK SMILES IDX 37 77 56 78 57 79 61 80 58 81 60 82 59 83 46 84 47 85 51 86
REMARK SMILES IDX 48 87 50 88 49 89
REMARK H PARENT 18 5 22 38 66 57 44 68
REMARK Flexibility Score: inf
ROOT
ATOM      1  C   UNL A   1      32.730  31.959  27.261  1.00  0.00     0.118 C 
ENDROOT
BRANCH   1   2
ATOM      2  N   UNL A   1      33.843  31.334  27.955  1.00  0.00    -0.352 N 
ATOM      3  C   UNL A   1      34.380  30.075  27.841  1.00  0.00     0.251 C 
ATOM      4  O   UNL A   1      35.425  29.827  28.441  1.00  0.00    -0.269 OA
ATOM      5  H   UNL A   1      34.287  31.910  28.619  1.00  0.00     0.163 HD
BRANCH   3   6
ATOM      6  C   UNL A   1      33.766  29.032  26.981  1.00  0.00     0.039 A 
ATOM      7  C   UNL A   1      32.553  27.003  25.451  1.00  0.00     0.060 A 
ATOM      8  C   UNL A   1      32.023  27.366  26.692  1.00  0.00     0.029 A 
ATOM      9  C   UNL A   1      33.656  27.706  24.961  1.00  0.00     0.029 A 
ATOM     10  C   UNL A   1      32.623  28.374  27.455  1.00  0.00     0.016 A 
ATOM     11  C   UNL A   1      34.245  28.724  25.709  1.00  0.00     0.016 A 
BRANCH   7  12
ATOM     12  N   UNL A   1      32.017  25.978  24.687  1.00  0.00    -0.257 N 
ATOM     13  C   UNL A   1      32.164  23.999  23.931  1.00  0.00     0.071 C 
ATOM     14  N   UNL A   1      32.354  24.707  24.998  1.00  0.00    -0.176 NA
ATOM     15  C   UNL A   1      31.719  24.754  22.709  1.00  0.00     0.091 C 
ATOM     16  C   UNL A   1      31.600  26.174  23.294  1.00  0.00     0.144 C 
BRANCH  13  17
ATOM     17  C   UNL A   1      32.357  22.542  23.933  1.00  0.00    -0.002 A 
ATOM     18  C   UNL A   1      32.608  19.775  23.842  1.00  0.00     0.067 A 
ATOM     19  C   UNL A   1      32.221  20.465  22.692  1.00  0.00     0.021 A 
ATOM     20  C   UNL A   1      32.861  20.463  25.038  1.00  0.00     0.021 A 
ATOM     21  C   UNL A   1      32.084  21.851  22.746  1.00  0.00     0.011 A 
ATOM     22  C   UNL A   1      32.746  21.856  25.082  1.00  0.00     0.011 A 
BRANCH  18  23
ATOM     23  S   UNL A   1      32.773  18.004  23.855  1.00  0.00     0.175 S 
ATOM     24  C   UNL A   1      34.456  17.636  24.264  1.00  0.00     0.163 C 
ATOM     25  O   UNL A   1      32.554  17.561  22.494  1.00  0.00    -0.224 OA
ATOM     26  O   UNL A   1      31.936  17.533  24.945  1.00  0.00    -0.224 OA
ENDBRANCH  18  23
ENDBRANCH  13  17
BRANCH  16  27
ATOM     27  C   UNL A   1      30.237  26.861  23.255  1.00  0.00    -0.023 A 
ATOM     28  C   UNL A   1      29.072  26.323  23.825  1.00  0.00     0.009 A 
ATOM     29  C   UNL A   1      30.157  28.152  22.687  1.00  0.00     0.009 A 
ATOM     30  C   UNL A   1      27.870  27.041  23.814  1.00  0.00     0.039 A 
ATOM     31  C   UNL A   1      28.966  28.879  22.700  1.00  0.00     0.039 A 
ATOM     32  C   UNL A   1      27.831  28.315  23.260  1.00  0.00     0.123 A 
ATOM     33  F   UNL A   1      26.686  29.011  23.279  1.00  0.00    -0.207 F 
ENDBRANCH  16  27
ENDBRANCH   7  12
ENDBRANCH   3   6
ENDBRANCH   1   2
BRANCH   1  34
ATOM     34  C   UNL A   1      32.586  33.435  27.627  1.00  0.00     0.042 C 
BRANCH  34  35
ATOM     35  C   UNL A   1      33.796  34.015  28.351  1.00  0.00     0.118 C 
BRANCH  35  36
ATOM     36  N   UNL A   1      33.437  34.617  29.625  1.00  0.00    -0.352 N 
ATOM     37  C   UNL A   1      33.935  34.401  30.884  1.00  0.00     0.251 C 
ATOM     38  H   UNL A   1      32.719  35.289  29.575  1.00  0.00     0.163 HD
ATOM     39  O   UNL A   1      33.338  34.875  31.848  1.00  0.00    -0.269 OA
BRANCH  37  40
ATOM     40  C   UNL A   1      35.164  33.605  31.107  1.00  0.00     0.039 A 
ATOM     41  C   UNL A   1      36.379  34.127  30.648  1.00  0.00     0.014 A 
ATOM     42  C   UNL A   1      35.136  32.336  31.693  1.00  0.00     0.014 A 
ATOM     43  C   UNL A   1      37.559  33.398  30.809  1.00  0.00     0.010 A 
ATOM     44  C   UNL A   1      36.324  31.640  31.919  1.00  0.00     0.010 A 
ATOM     45  C   UNL A   1      37.546  32.158  31.469  1.00  0.00    -0.014 A 
BRANCH  45  46
ATOM     46  C   UNL A   1      38.813  31.416  31.694  1.00  0.00     0.031 A 
ATOM     47  C   UNL A   1      39.674  31.701  32.894  1.00  0.00     0.074 A 
ATOM     48  C   UNL A   1      39.198  30.485  30.798  1.00  0.00     0.049 A 
ATOM     49  N   UNL A   1      40.782  31.112  33.272  1.00  0.00    -0.248 NA
ATOM     50  C   UNL A   1      39.250  32.801  33.773  1.00  0.00     0.031 C 
ATOM     51  C   UNL A   1      38.480  30.150  29.566  1.00  0.00     0.029 A 
ATOM     52  N   UNL A   1      40.282  29.645  30.791  1.00  0.00    -0.354 N 
ATOM     53  C   UNL A   1      41.190  31.774  34.423  1.00  0.00     0.074 A 
ATOM     54  C   UNL A   1      40.240  32.840  34.655  1.00  0.00     0.031 C 
ATOM     55  C   UNL A   1      39.119  29.146  28.946  1.00  0.00     0.029 A 
ATOM     56  C   UNL A   1      40.304  28.788  29.718  1.00  0.00     0.049 A 
ATOM     57  H   UNL A   1      40.977  29.655  31.488  1.00  0.00     0.167 HD
ATOM     58  C   UNL A   1      42.248  31.509  35.226  1.00  0.00     0.031 A 
ATOM     59  C   UNL A   1      41.174  27.813  29.395  1.00  0.00     0.031 A 
ATOM     60  C   UNL A   1      43.194  30.447  34.999  1.00  0.00     0.049 A 
ATOM     61  C   UNL A   1      42.330  27.527  30.311  1.00  0.00     0.074 A 
ATOM     62  C   UNL A   1      44.270  30.066  35.783  1.00  0.00     0.029 A 
ATOM     63  N   UNL A   1      43.177  29.597  33.905  1.00  0.00    -0.354 N 
ATOM     64  N   UNL A   1      42.657  28.113  31.436  1.00  0.00    -0.248 NA
ATOM     65  C   UNL A   1      43.223  26.428  29.919  1.00  0.00     0.031 C 
ATOM     66  C   UNL A   1      44.931  29.014  35.140  1.00  0.00     0.029 A 
ATOM     67  C   UNL A   1      44.234  28.704  33.983  1.00  0.00     0.049 A 
ATOM     68  H   UNL A   1      42.512  29.623  33.179  1.00  0.00     0.167 HD
ATOM     69  C   UNL A   1      43.778  27.439  31.902  1.00  0.00     0.074 A 
ATOM     70  C   UNL A   1      44.059  26.386  30.947  1.00  0.00     0.031 C 
ATOM     71  C   UNL A   1      44.507  27.668  33.020  1.00  0.00     0.031 A 
BRANCH  58  72
ATOM     72  C   UNL A   1      42.443  32.392  36.428  1.00  0.00    -0.014 A 
ATOM     73  C   UNL A   1      43.194  33.577  36.347  1.00  0.00     0.009 A 
ATOM     74  C   UNL A   1      41.839  32.057  37.650  1.00  0.00     0.009 A 
ATOM     75  C   UNL A   1      43.366  34.386  37.472  1.00  0.00     0.001 A 
ATOM     76  C   UNL A   1      41.989  32.883  38.767  1.00  0.00     0.001 A 
ATOM     77  C   UNL A   1      42.760  34.041  38.679  1.00  0.00     0.000 A 
ENDBRANCH  58  72
BRANCH  59  78
ATOM     78  C   UNL A   1      40.963  27.008  28.165  1.00  0.00    -0.014 A 
ATOM     79  C   UNL A   1      40.135  25.874  28.192  1.00  0.00     0.009 A 
ATOM     80  C   UNL A   1      41.582  27.368  26.960  1.00  0.00     0.009 A 
ATOM     81  C   UNL A   1      39.956  25.103  27.041  1.00  0.00     0.001 A 
ATOM     82  C   UNL A   1      41.379  26.611  25.805  1.00  0.00     0.001 A 
ATOM     83  C   UNL A   1      40.573  25.474  25.848  1.00  0.00     0.000 A 
ENDBRANCH  59  78
BRANCH  71  84
ATOM     84  C   UNL A   1      45.660  26.740  33.283  1.00  0.00    -0.014 A 
ATOM     85  C   UNL A   1      45.493  25.559  34.024  1.00  0.00     0.009 A 
ATOM     86  C   UNL A   1      46.931  27.051  32.776  1.00  0.00     0.009 A 
ATOM     87  C   UNL A   1      46.587  24.732  34.289  1.00  0.00     0.001 A 
ATOM     88  C   UNL A   1      48.017  26.208  33.017  1.00  0.00     0.001 A 
ATOM     89  C   UNL A   1      47.846  25.056  33.784  1.00  0.00     0.000 A 
ENDBRANCH  71  84
ENDBRANCH  45  46
ENDBRANCH  37  40
ENDBRANCH  35  36
ENDBRANCH  34  35
ENDBRANCH   1  34
TORSDOF 14
ENDMDL
MODEL 3
REMARK VINA RESULT:     -12.6      4.907      9.613
REMARK SMILES CS(=O)(=O)c1ccc(C2=NN(c3ccc(C(=O)NCCCNC(=O)c4ccc(-c5c6nc(c(-c7ccccc7)c7ccc([nH]7)c(-c7ccccc7)c7nc(c(-c8ccccc8)c8ccc5[nH]8)C=C7)C=C6)cc4)cc3)[C@H](c3ccc(F)cc3)C2)cc1
REMARK SMILES IDX 19 1 18 2 16 3 17 4 15 6 12 7 13 8 74 9 14 10 73 11 11 12
REMARK SMILES IDX 9 13 10 14 83 15 75 16 8 17 5 18 6 19 85 20 7 21 84 22 2 23
REMARK SMILES IDX 1 24 3 25 4 26 76 27 77 28 82 29 78 30 81 31 79 32 80 33
REMARK SMILES IDX 20 34 21 35 22 36 23 37 24 39 25 40 26 41 72 42 27 43 71 44
REMARK SMILES IDX 28 45 29 46 30 47 65 48 31 49 70 50 64 51 66 52 32 53 69 54
REMARK SMILES IDX 63 55 62 56 33 58 55 59 40 60 54 61 41 62 44 63 53 64 67 65
REMARK SMILES IDX 42 66 43 67 52 69 68 70 45 71 34 72 35 73 39 74 36 75 38 76
REMARK SMILES IDX 37 77 56 78 57 79 61 80 58 81 60 82 59 83 46 84 47 85 51 86
REMARK SMILES IDX 48 87 50 88 49 89
REMARK H PARENT 18 5 22 38 66 57 44 68
REMARK Flexibility Score: inf
ROOT
ATOM      1  C   UNL A   1      32.518  31.958  27.239  1.00  0.00     0.118 C 
ENDROOT
BRANCH   1   2
ATOM      2  N   UNL A   1      33.836  31.532  27.679  1.00  0.00    -0.352 N 
ATOM      3  C   UNL A   1      34.526  30.366  27.452  1.00  0.00     0.251 C 
ATOM      4  O   UNL A   1      35.699  30.298  27.814  1.00  0.00    -0.269 OA
ATOM      5  H   UNL A   1      34.316  32.190  28.233  1.00  0.00     0.163 HD
BRANCH   3   6
ATOM      6  C   UNL A   1      33.912  29.214  26.742  1.00  0.00     0.039 A 
ATOM      7  C   UNL A   1      32.779  27.084  25.291  1.00  0.00     0.060 A 
ATOM      8  C   UNL A   1      33.790  27.868  24.726  1.00  0.00     0.029 A 
ATOM      9  C   UNL A   1      32.387  27.342  26.606  1.00  0.00     0.029 A 
ATOM     10  C   UNL A   1      34.355  28.927  25.444  1.00  0.00     0.016 A 
ATOM     11  C   UNL A   1      32.962  28.383  27.333  1.00  0.00     0.016 A 
BRANCH   7  12
ATOM     12  N   UNL A   1      32.160  26.057  24.594  1.00  0.00    -0.257 N 
ATOM     13  C   UNL A   1      32.208  24.065  23.859  1.00  0.00     0.071 C 
ATOM     14  N   UNL A   1      32.505  24.786  24.893  1.00  0.00    -0.176 NA
ATOM     15  C   UNL A   1      31.665  24.811  22.672  1.00  0.00     0.091 C 
ATOM     16  C   UNL A   1      31.621  26.240  23.243  1.00  0.00     0.144 C 
BRANCH  13  17
ATOM     17  C   UNL A   1      32.380  22.607  23.866  1.00  0.00    -0.002 A 
ATOM     18  C   UNL A   1      32.585  19.835  23.790  1.00  0.00     0.067 A 
ATOM     19  C   UNL A   1      32.152  20.520  22.655  1.00  0.00     0.021 A 
ATOM     20  C   UNL A   1      32.908  20.530  24.965  1.00  0.00     0.021 A 
ATOM     21  C   UNL A   1      32.038  21.909  22.701  1.00  0.00     0.011 A 
ATOM     22  C   UNL A   1      32.817  21.925  25.001  1.00  0.00     0.011 A 
BRANCH  18  23
ATOM     23  S   UNL A   1      32.725  18.062  23.812  1.00  0.00     0.175 S 
ATOM     24  C   UNL A   1      34.402  17.672  24.228  1.00  0.00     0.163 C 
ATOM     25  O   UNL A   1      32.503  17.616  22.453  1.00  0.00    -0.224 OA
ATOM     26  O   UNL A   1      31.878  17.608  24.902  1.00  0.00    -0.224 OA
ENDBRANCH  18  23
ENDBRANCH  13  17
BRANCH  16  27
ATOM     27  C   UNL A   1      30.269  26.948  23.317  1.00  0.00    -0.023 A 
ATOM     28  C   UNL A   1      30.022  28.221  22.778  1.00  0.00     0.009 A 
ATOM     29  C   UNL A   1      29.180  26.249  23.885  1.00  0.00     0.009 A 
ATOM     30  C   UNL A   1      28.738  28.780  22.820  1.00  0.00     0.039 A 
ATOM     31  C   UNL A   1      27.896  26.796  23.903  1.00  0.00     0.039 A 
ATOM     32  C   UNL A   1      27.688  28.059  23.373  1.00  0.00     0.123 A 
ATOM     33  F   UNL A   1      26.456  28.585  23.383  1.00  0.00    -0.207 F 
ENDBRANCH  16  27
ENDBRANCH   7  12
ENDBRANCH   3   6
ENDBRANCH   1   2
BRANCH   1  34
ATOM     34  C   UNL A   1      32.254  33.425  27.572  1.00  0.00     0.042 C 
BRANCH  34  35
ATOM     35  C   UNL A   1      33.409  34.117  28.288  1.00  0.00     0.118 C 
BRANCH  35  36
ATOM     36  N   UNL A   1      32.975  34.801  29.496  1.00  0.00    -0.352 N 
ATOM     37  C   UNL A   1      33.407  34.678  30.792  1.00  0.00     0.251 C 
ATOM     38  H   UNL A   1      32.254  35.458  29.361  1.00  0.00     0.163 HD
ATOM     39  O   UNL A   1      32.753  35.209  31.688  1.00  0.00    -0.269 OA
BRANCH  37  40
ATOM     40  C   UNL A   1      34.629  33.916  31.134  1.00  0.00     0.039 A 
ATOM     41  C   UNL A   1      35.843  34.334  30.577  1.00  0.00     0.014 A 
ATOM     42  C   UNL A   1      34.595  32.768  31.932  1.00  0.00     0.014 A 
ATOM     43  C   UNL A   1      37.017  33.629  30.848  1.00  0.00     0.010 A 
ATOM     44  C   UNL A   1      35.779  32.106  32.261  1.00  0.00     0.010 A 
ATOM     45  C   UNL A   1      37.000  32.522  31.712  1.00  0.00    -0.014 A 
BRANCH  45  46
ATOM     46  C   UNL A   1      38.262  31.813  32.047  1.00  0.00     0.031 A 
ATOM     47  C   UNL A   1      38.761  30.677  31.197  1.00  0.00     0.074 A 
ATOM     48  C   UNL A   1      38.957  32.189  33.139  1.00  0.00     0.049 A 
ATOM     49  N   UNL A   1      39.867  29.985  31.314  1.00  0.00    -0.248 NA
ATOM     50  C   UNL A   1      37.901  30.249  30.083  1.00  0.00     0.031 C 
ATOM     51  C   UNL A   1      38.556  33.241  34.076  1.00  0.00     0.029 A 
ATOM     52  N   UNL A   1      40.151  31.736  33.639  1.00  0.00    -0.354 N 
ATOM     53  C   UNL A   1      39.830  29.037  30.299  1.00  0.00     0.074 A 
ATOM     54  C   UNL A   1      38.572  29.210  29.606  1.00  0.00     0.031 C 
ATOM     55  C   UNL A   1      39.508  33.381  35.012  1.00  0.00     0.029 A 
ATOM     56  C   UNL A   1      40.568  32.413  34.759  1.00  0.00     0.049 A 
ATOM     57  H   UNL A   1      40.660  30.997  33.234  1.00  0.00     0.167 HD
ATOM     58  C   UNL A   1      40.766  28.117  29.960  1.00  0.00     0.031 A 
ATOM     59  C   UNL A   1      41.687  32.279  35.495  1.00  0.00     0.031 A 
ATOM     60  C   UNL A   1      42.020  27.944  30.646  1.00  0.00     0.049 A 
ATOM     61  C   UNL A   1      42.717  31.264  35.089  1.00  0.00     0.074 A 
ATOM     62  C   UNL A   1      43.055  27.075  30.347  1.00  0.00     0.029 A 
ATOM     63  N   UNL A   1      42.408  28.654  31.771  1.00  0.00    -0.354 N 
ATOM     64  N   UNL A   1      42.700  30.428  34.080  1.00  0.00    -0.248 NA
ATOM     65  C   UNL A   1      43.931  31.193  35.914  1.00  0.00     0.031 C 
ATOM     66  C   UNL A   1      44.051  27.228  31.319  1.00  0.00     0.029 A 
ATOM     67  C   UNL A   1      43.659  28.232  32.190  1.00  0.00     0.049 A 
ATOM     68  H   UNL A   1      41.873  29.357  32.208  1.00  0.00     0.167 HD
ATOM     69  C   UNL A   1      43.910  29.748  34.132  1.00  0.00     0.074 A 
ATOM     70  C   UNL A   1      44.644  30.287  35.259  1.00  0.00     0.031 C 
ATOM     71  C   UNL A   1      44.373  28.769  33.319  1.00  0.00     0.031 A 
BRANCH  58  72
ATOM     72  C   UNL A   1      40.461  27.218  28.793  1.00  0.00    -0.014 A 
ATOM     73  C   UNL A   1      40.939  27.511  27.504  1.00  0.00     0.009 A 
ATOM     74  C   UNL A   1      39.719  26.043  28.988  1.00  0.00     0.009 A 
ATOM     75  C   UNL A   1      40.648  26.667  26.431  1.00  0.00     0.001 A 
ATOM     76  C   UNL A   1      39.453  25.185  27.918  1.00  0.00     0.001 A 
ATOM     77  C   UNL A   1      39.909  25.503  26.640  1.00  0.00     0.000 A 
ENDBRANCH  58  72
BRANCH  59  78
ATOM     78  C   UNL A   1      41.910  33.159  36.671  1.00  0.00    -0.014 A 
ATOM     79  C   UNL A   1      41.498  32.753  37.951  1.00  0.00     0.009 A 
ATOM     80  C   UNL A   1      42.537  34.404  36.523  1.00  0.00     0.009 A 
ATOM     81  C   UNL A   1      41.685  33.591  39.052  1.00  0.00     0.001 A 
ATOM     82  C   UNL A   1      42.748  35.228  37.631  1.00  0.00     0.001 A 
ATOM     83  C   UNL A   1      42.314  34.825  38.893  1.00  0.00     0.000 A 
ENDBRANCH  59  78
BRANCH  71  84
ATOM     84  C   UNL A   1      45.751  28.242  33.605  1.00  0.00    -0.014 A 
ATOM     85  C   UNL A   1      45.951  27.145  34.459  1.00  0.00     0.009 A 
ATOM     86  C   UNL A   1      46.865  28.848  33.005  1.00  0.00     0.009 A 
ATOM     87  C   UNL A   1      47.243  26.697  34.741  1.00  0.00     0.001 A 
ATOM     88  C   UNL A   1      48.154  28.380  33.265  1.00  0.00     0.001 A 
ATOM     89  C   UNL A   1      48.342  27.313  34.143  1.00  0.00     0.000 A 
ENDBRANCH  71  84
ENDBRANCH  45  46
ENDBRANCH  37  40
ENDBRANCH  35  36
ENDBRANCH  34  35
ENDBRANCH   1  34
TORSDOF 14
ENDMDL
