MODEL 1
REMARK VINA RESULT:     -12.5      0.000      0.000
REMARK SMILES Cc1c(NC(=O)c2ccc(Br)cc2N)cccc1C(=O)NCCCNC(=O)c1ccc(-c2c3nc(c(-c4ccccc4)c4ccc([nH]4)c(-c4ccccc4)c4nc(c(-c5ccccc5)c5ccc2[nH]5)C=C4)C=C3)cc1
REMARK SMILES IDX 22 1 21 2 19 3 20 4 18 6 1 7 2 8 3 9 15 10 17 11 16 12 4 13
REMARK SMILES IDX 5 14 6 16 7 17 8 18 13 19 9 20 12 21 10 22 11 23 14 24 23 27
REMARK SMILES IDX 24 28 25 29 26 30 27 32 28 33 29 34 75 35 30 36 74 37 31 38
REMARK SMILES IDX 32 39 33 40 68 41 34 42 73 43 67 44 69 45 35 46 72 47 66 48
REMARK SMILES IDX 65 49 36 51 58 52 43 53 57 54 44 55 47 56 56 57 70 58 45 59
REMARK SMILES IDX 46 60 55 62 71 63 48 64 37 65 38 66 42 67 39 68 41 69 40 70
REMARK SMILES IDX 59 71 60 72 64 73 61 74 63 75 62 76 49 77 50 78 54 79 51 80
REMARK SMILES IDX 53 81 52 82
REMARK H PARENT 21 5 4 15 14 25 14 26 25 31 69 50 47 61
REMARK Flexibility Score: inf
ROOT
ATOM      1  C   UNL A   1      37.769  23.737  25.847  1.00  0.00     0.118 C 
ENDROOT
BRANCH   1   2
ATOM      2  N   UNL A   1      37.438  22.345  25.577  1.00  0.00    -0.352 N 
ATOM      3  C   UNL A   1      36.329  21.640  25.182  1.00  0.00     0.251 C 
ATOM      4  O   UNL A   1      36.506  20.420  25.080  1.00  0.00    -0.269 OA
ATOM      5  H   UNL A   1      38.214  21.754  25.713  1.00  0.00     0.163 HD
BRANCH   3   6
ATOM      6  C   UNL A   1      34.963  22.169  24.826  1.00  0.00     0.044 A 
ATOM      7  C   UNL A   1      33.677  21.541  26.942  1.00  0.00     0.047 C 
ATOM      8  C   UNL A   1      33.788  22.194  25.602  1.00  0.00    -0.015 A 
ATOM      9  C   UNL A   1      32.573  22.683  25.052  1.00  0.00     0.045 A 
ATOM     10  C   UNL A   1      32.477  23.024  23.708  1.00  0.00     0.026 A 
ATOM     11  C   UNL A   1      34.834  22.548  23.470  1.00  0.00     0.014 A 
ATOM     12  C   UNL A   1      33.612  22.946  22.912  1.00  0.00     0.003 A 
BRANCH   9  13
ATOM     13  N   UNL A   1      31.482  22.805  25.923  1.00  0.00    -0.322 N 
ATOM     14  C   UNL A   1      30.843  23.897  26.451  1.00  0.00     0.257 C 
ATOM     15  H   UNL A   1      31.102  21.943  26.208  1.00  0.00     0.170 HD
ATOM     16  O   UNL A   1      29.926  23.694  27.250  1.00  0.00    -0.269 OA
BRANCH  14  17
ATOM     17  C   UNL A   1      31.160  25.294  26.069  1.00  0.00     0.063 A 
ATOM     18  C   UNL A   1      32.326  25.802  26.671  1.00  0.00     0.017 A 
ATOM     19  C   UNL A   1      30.364  26.129  25.257  1.00  0.00     0.045 A 
ATOM     20  C   UNL A   1      32.736  27.112  26.437  1.00  0.00     0.016 A 
ATOM     21  C   UNL A   1      30.808  27.439  25.017  1.00  0.00     0.042 A 
ATOM     22  C   UNL A   1      31.983  27.919  25.596  1.00  0.00     0.020 A 
ATOM     23  Br  UNL A   1      32.527  29.699  25.269  1.00  0.00    -0.051 Br
BRANCH  19  24
ATOM     24  N   UNL A   1      29.080  25.816  24.821  1.00  0.00    -0.398 N 
ATOM     25  H   UNL A   1      28.475  25.301  25.402  1.00  0.00     0.156 HD
ATOM     26  H   UNL A   1      28.777  26.109  23.931  1.00  0.00     0.156 HD
ENDBRANCH  19  24
ENDBRANCH  14  17
ENDBRANCH   9  13
ENDBRANCH   3   6
ENDBRANCH   1   2
BRANCH   1  27
ATOM     27  C   UNL A   1      39.046  23.845  26.688  1.00  0.00     0.042 C 
BRANCH  27  28
ATOM     28  C   UNL A   1      39.761  22.553  27.014  1.00  0.00     0.118 C 
BRANCH  28  29
ATOM     29  N   UNL A   1      40.873  22.251  26.110  1.00  0.00    -0.352 N 
ATOM     30  C   UNL A   1      42.202  22.640  26.232  1.00  0.00     0.251 C 
ATOM     31  H   UNL A   1      40.653  21.706  25.320  1.00  0.00     0.163 HD
ATOM     32  O   UNL A   1      43.055  22.257  25.458  1.00  0.00    -0.269 OA
BRANCH  30  33
ATOM     33  C   UNL A   1      42.560  23.422  27.440  1.00  0.00     0.039 A 
ATOM     34  C   UNL A   1      42.502  24.809  27.295  1.00  0.00     0.014 A 
ATOM     35  C   UNL A   1      43.374  22.829  28.400  1.00  0.00     0.014 A 
ATOM     36  C   UNL A   1      43.512  25.573  27.861  1.00  0.00     0.010 A 
ATOM     37  C   UNL A   1      44.434  23.573  28.882  1.00  0.00     0.010 A 
ATOM     38  C   UNL A   1      44.551  24.920  28.527  1.00  0.00    -0.014 A 
BRANCH  38  39
ATOM     39  C   UNL A   1      45.792  25.597  28.873  1.00  0.00     0.031 A 
ATOM     40  C   UNL A   1      46.978  25.297  28.048  1.00  0.00     0.074 A 
ATOM     41  C   UNL A   1      45.917  26.407  29.953  1.00  0.00     0.049 A 
ATOM     42  N   UNL A   1      48.176  25.188  28.511  1.00  0.00    -0.248 NA
ATOM     43  C   UNL A   1      46.876  25.019  26.619  1.00  0.00     0.031 C 
ATOM     44  C   UNL A   1      47.112  27.163  30.330  1.00  0.00     0.029 A 
ATOM     45  N   UNL A   1      45.080  26.562  31.061  1.00  0.00    -0.354 N 
ATOM     46  C   UNL A   1      49.020  25.152  27.428  1.00  0.00     0.074 A 
ATOM     47  C   UNL A   1      48.164  24.925  26.286  1.00  0.00     0.031 C 
ATOM     48  C   UNL A   1      47.080  27.385  31.654  1.00  0.00     0.029 A 
ATOM     49  C   UNL A   1      45.927  26.680  32.179  1.00  0.00     0.049 A 
ATOM     50  H   UNL A   1      44.096  26.584  31.059  1.00  0.00     0.167 HD
ATOM     51  C   UNL A   1      50.332  25.484  27.586  1.00  0.00     0.031 A 
ATOM     52  C   UNL A   1      45.944  25.804  33.229  1.00  0.00     0.031 A 
ATOM     53  C   UNL A   1      50.656  25.779  28.984  1.00  0.00     0.049 A 
ATOM     54  C   UNL A   1      47.293  25.142  33.457  1.00  0.00     0.074 A 
ATOM     55  C   UNL A   1      50.836  26.959  29.690  1.00  0.00     0.029 A 
ATOM     56  N   UNL A   1      50.521  24.780  29.941  1.00  0.00    -0.354 N 
ATOM     57  N   UNL A   1      48.335  25.311  32.690  1.00  0.00    -0.248 NA
ATOM     58  C   UNL A   1      47.538  24.145  34.497  1.00  0.00     0.031 C 
ATOM     59  C   UNL A   1      50.796  26.659  31.080  1.00  0.00     0.029 A 
ATOM     60  C   UNL A   1      50.619  25.296  31.223  1.00  0.00     0.049 A 
ATOM     61  H   UNL A   1      50.376  23.829  29.734  1.00  0.00     0.167 HD
ATOM     62  C   UNL A   1      49.344  24.457  33.066  1.00  0.00     0.074 A 
ATOM     63  C   UNL A   1      48.789  23.747  34.205  1.00  0.00     0.031 C 
ATOM     64  C   UNL A   1      50.524  24.393  32.370  1.00  0.00     0.031 A 
BRANCH  51  65
ATOM     65  C   UNL A   1      51.219  25.845  26.416  1.00  0.00    -0.014 A 
ATOM     66  C   UNL A   1      50.816  26.850  25.518  1.00  0.00     0.009 A 
ATOM     67  C   UNL A   1      52.427  25.197  26.106  1.00  0.00     0.009 A 
ATOM     68  C   UNL A   1      51.512  27.105  24.327  1.00  0.00     0.001 A 
ATOM     69  C   UNL A   1      53.102  25.409  24.894  1.00  0.00     0.001 A 
ATOM     70  C   UNL A   1      52.635  26.357  23.997  1.00  0.00     0.000 A 
ENDBRANCH  51  65
BRANCH  52  71
ATOM     71  C   UNL A   1      44.627  25.157  33.476  1.00  0.00    -0.014 A 
ATOM     72  C   UNL A   1      44.433  23.863  32.953  1.00  0.00     0.009 A 
ATOM     73  C   UNL A   1      43.822  25.584  34.538  1.00  0.00     0.009 A 
ATOM     74  C   UNL A   1      43.601  22.952  33.609  1.00  0.00     0.001 A 
ATOM     75  C   UNL A   1      42.974  24.673  35.175  1.00  0.00     0.001 A 
ATOM     76  C   UNL A   1      42.913  23.346  34.752  1.00  0.00     0.000 A 
ENDBRANCH  52  71
BRANCH  64  77
ATOM     77  C   UNL A   1      51.715  23.486  32.650  1.00  0.00    -0.014 A 
ATOM     78  C   UNL A   1      53.028  23.911  32.876  1.00  0.00     0.009 A 
ATOM     79  C   UNL A   1      51.523  22.081  32.647  1.00  0.00     0.009 A 
ATOM     80  C   UNL A   1      54.063  23.003  33.164  1.00  0.00     0.001 A 
ATOM     81  C   UNL A   1      52.547  21.171  32.923  1.00  0.00     0.001 A 
ATOM     82  C   UNL A   1      53.820  21.636  33.199  1.00  0.00     0.000 A 
ENDBRANCH  64  77
ENDBRANCH  38  39
ENDBRANCH  30  33
ENDBRANCH  28  29
ENDBRANCH  27  28
ENDBRANCH   1  27
TORSDOF 13
ENDMDL
MODEL 2
REMARK VINA RESULT:     -12.4      4.202      7.166
REMARK SMILES Cc1c(NC(=O)c2ccc(Br)cc2N)cccc1C(=O)NCCCNC(=O)c1ccc(-c2c3nc(c(-c4ccccc4)c4ccc([nH]4)c(-c4ccccc4)c4nc(c(-c5ccccc5)c5ccc2[nH]5)C=C4)C=C3)cc1
REMARK SMILES IDX 22 1 21 2 19 3 20 4 18 6 1 7 2 8 3 9 15 10 17 11 16 12 4 13
REMARK SMILES IDX 5 14 6 16 7 17 8 18 13 19 9 20 12 21 10 22 11 23 14 24 23 27
REMARK SMILES IDX 24 28 25 29 26 30 27 32 28 33 29 34 75 35 30 36 74 37 31 38
REMARK SMILES IDX 32 39 33 40 68 41 34 42 73 43 67 44 69 45 35 46 72 47 66 48
REMARK SMILES IDX 65 49 36 51 58 52 43 53 57 54 44 55 47 56 56 57 70 58 45 59
REMARK SMILES IDX 46 60 55 62 71 63 48 64 37 65 38 66 42 67 39 68 41 69 40 70
REMARK SMILES IDX 59 71 60 72 64 73 61 74 63 75 62 76 49 77 50 78 54 79 51 80
REMARK SMILES IDX 53 81 52 82
REMARK H PARENT 21 5 4 15 14 25 14 26 25 31 69 50 47 61
REMARK Flexibility Score: inf
ROOT
ATOM      1  C   UNL A   1      31.879  30.236  25.776  1.00  0.00     0.118 C 
ENDROOT
BRANCH   1   2
ATOM      2  N   UNL A   1      32.922  29.858  24.832  1.00  0.00    -0.352 N 
ATOM      3  C   UNL A   1      33.286  28.728  24.144  1.00  0.00     0.251 C 
ATOM      4  O   UNL A   1      34.284  28.863  23.427  1.00  0.00    -0.269 OA
ATOM      5  H   UNL A   1      33.524  30.612  24.635  1.00  0.00     0.163 HD
BRANCH   3   6
ATOM      6  C   UNL A   1      32.604  27.383  24.128  1.00  0.00     0.044 A 
ATOM      7  C   UNL A   1      32.672  26.821  26.619  1.00  0.00     0.047 C 
ATOM      8  C   UNL A   1      32.265  26.544  25.208  1.00  0.00    -0.015 A 
ATOM      9  C   UNL A   1      31.678  25.272  24.972  1.00  0.00     0.045 A 
ATOM     10  C   UNL A   1      31.543  24.768  23.684  1.00  0.00     0.026 A 
ATOM     11  C   UNL A   1      32.428  26.848  22.831  1.00  0.00     0.014 A 
ATOM     12  C   UNL A   1      31.930  25.558  22.610  1.00  0.00     0.003 A 
BRANCH   9  13
ATOM     13  N   UNL A   1      31.245  24.553  26.094  1.00  0.00    -0.322 N 
ATOM     14  C   UNL A   1      31.719  23.417  26.699  1.00  0.00     0.257 C 
ATOM     15  H   UNL A   1      30.450  24.936  26.531  1.00  0.00     0.170 HD
ATOM     16  O   UNL A   1      31.088  22.973  27.661  1.00  0.00    -0.269 OA
BRANCH  14  17
ATOM     17  C   UNL A   1      32.972  22.736  26.293  1.00  0.00     0.063 A 
ATOM     18  C   UNL A   1      34.125  23.533  26.421  1.00  0.00     0.017 A 
ATOM     19  C   UNL A   1      33.065  21.444  25.733  1.00  0.00     0.045 A 
ATOM     20  C   UNL A   1      35.374  23.045  26.046  1.00  0.00     0.016 A 
ATOM     21  C   UNL A   1      34.337  20.964  25.383  1.00  0.00     0.042 A 
ATOM     22  C   UNL A   1      35.476  21.755  25.545  1.00  0.00     0.020 A 
ATOM     23  Br  UNL A   1      37.164  21.078  25.031  1.00  0.00    -0.051 Br
BRANCH  19  24
ATOM     24  N   UNL A   1      31.976  20.677  25.332  1.00  0.00    -0.398 N 
ATOM     25  H   UNL A   1      31.188  20.598  25.917  1.00  0.00     0.156 HD
ATOM     26  H   UNL A   1      31.994  20.212  24.464  1.00  0.00     0.156 HD
ENDBRANCH  19  24
ENDBRANCH  14  17
ENDBRANCH   9  13
ENDBRANCH   3   6
ENDBRANCH   1   2
BRANCH   1  27
ATOM     27  C   UNL A   1      32.471  30.537  27.157  1.00  0.00     0.042 C 
BRANCH  27  28
ATOM     28  C   UNL A   1      33.971  30.416  27.299  1.00  0.00     0.118 C 
BRANCH  28  29
ATOM     29  N   UNL A   1      34.540  31.300  28.319  1.00  0.00    -0.352 N 
ATOM     30  C   UNL A   1      35.713  31.122  29.044  1.00  0.00     0.251 C 
ATOM     31  H   UNL A   1      34.030  32.119  28.516  1.00  0.00     0.163 HD
ATOM     32  O   UNL A   1      36.127  31.969  29.809  1.00  0.00    -0.269 OA
BRANCH  30  33
ATOM     33  C   UNL A   1      36.517  29.916  28.728  1.00  0.00     0.039 A 
ATOM     34  C   UNL A   1      36.867  29.125  29.824  1.00  0.00     0.014 A 
ATOM     35  C   UNL A   1      37.271  29.908  27.559  1.00  0.00     0.014 A 
ATOM     36  C   UNL A   1      38.152  28.606  29.876  1.00  0.00     0.010 A 
ATOM     37  C   UNL A   1      38.580  29.477  27.651  1.00  0.00     0.010 A 
ATOM     38  C   UNL A   1      39.042  28.917  28.846  1.00  0.00    -0.014 A 
BRANCH  38  39
ATOM     39  C   UNL A   1      40.474  28.686  28.967  1.00  0.00     0.031 A 
ATOM     40  C   UNL A   1      41.007  27.437  28.391  1.00  0.00     0.074 A 
ATOM     41  C   UNL A   1      41.302  29.515  29.648  1.00  0.00     0.049 A 
ATOM     42  N   UNL A   1      41.948  26.735  28.924  1.00  0.00    -0.248 NA
ATOM     43  C   UNL A   1      40.448  26.841  27.182  1.00  0.00     0.031 C 
ATOM     44  C   UNL A   1      42.755  29.379  29.764  1.00  0.00     0.029 A 
ATOM     45  N   UNL A   1      41.005  30.531  30.560  1.00  0.00    -0.354 N 
ATOM     46  C   UNL A   1      42.330  25.804  27.990  1.00  0.00     0.074 A 
ATOM     47  C   UNL A   1      41.294  25.828  26.983  1.00  0.00     0.031 C 
ATOM     48  C   UNL A   1      43.155  29.989  30.891  1.00  0.00     0.029 A 
ATOM     49  C   UNL A   1      41.962  30.430  31.587  1.00  0.00     0.049 A 
ATOM     50  H   UNL A   1      40.272  31.186  30.496  1.00  0.00     0.167 HD
ATOM     51  C   UNL A   1      43.562  25.229  28.077  1.00  0.00     0.031 A 
ATOM     52  C   UNL A   1      41.664  30.167  32.895  1.00  0.00     0.031 A 
ATOM     53  C   UNL A   1      44.293  25.682  29.263  1.00  0.00     0.049 A 
ATOM     54  C   UNL A   1      42.328  28.912  33.437  1.00  0.00     0.074 A 
ATOM     55  C   UNL A   1      45.310  26.604  29.459  1.00  0.00     0.029 A 
ATOM     56  N   UNL A   1      43.784  25.402  30.525  1.00  0.00    -0.354 N 
ATOM     57  N   UNL A   1      43.054  28.096  32.724  1.00  0.00    -0.248 NA
ATOM     58  C   UNL A   1      42.125  28.415  34.796  1.00  0.00     0.031 C 
ATOM     59  C   UNL A   1      45.397  26.884  30.851  1.00  0.00     0.029 A 
ATOM     60  C   UNL A   1      44.454  26.115  31.506  1.00  0.00     0.049 A 
ATOM     61  H   UNL A   1      43.043  24.778  30.700  1.00  0.00     0.167 HD
ATOM     62  C   UNL A   1      43.374  26.979  33.458  1.00  0.00     0.074 A 
ATOM     63  C   UNL A   1      42.764  27.232  34.753  1.00  0.00     0.031 C 
ATOM     64  C   UNL A   1      44.077  25.938  32.909  1.00  0.00     0.031 A 
BRANCH  51  65
ATOM     65  C   UNL A   1      44.201  24.512  26.909  1.00  0.00    -0.014 A 
ATOM     66  C   UNL A   1      45.145  25.182  26.110  1.00  0.00     0.009 A 
ATOM     67  C   UNL A   1      43.876  23.205  26.504  1.00  0.00     0.009 A 
ATOM     68  C   UNL A   1      45.638  24.628  24.920  1.00  0.00     0.001 A 
ATOM     69  C   UNL A   1      44.324  22.663  25.291  1.00  0.00     0.001 A 
ATOM     70  C   UNL A   1      45.198  23.383  24.491  1.00  0.00     0.000 A 
ENDBRANCH  51  65
BRANCH  52  71
ATOM     71  C   UNL A   1      40.322  30.663  33.303  1.00  0.00    -0.014 A 
ATOM     72  C   UNL A   1      40.091  32.050  33.220  1.00  0.00     0.009 A 
ATOM     73  C   UNL A   1      39.224  29.794  33.310  1.00  0.00     0.009 A 
ATOM     74  C   UNL A   1      38.812  32.539  32.944  1.00  0.00     0.001 A 
ATOM     75  C   UNL A   1      37.943  30.294  33.057  1.00  0.00     0.001 A 
ATOM     76  C   UNL A   1      37.748  31.653  32.811  1.00  0.00     0.000 A 
ENDBRANCH  52  71
BRANCH  64  77
ATOM     77  C   UNL A   1      44.481  24.635  33.586  1.00  0.00    -0.014 A 
ATOM     78  C   UNL A   1      43.623  23.573  33.888  1.00  0.00     0.009 A 
ATOM     79  C   UNL A   1      45.826  24.466  34.000  1.00  0.00     0.009 A 
ATOM     80  C   UNL A   1      44.090  22.388  34.484  1.00  0.00     0.001 A 
ATOM     81  C   UNL A   1      46.298  23.295  34.601  1.00  0.00     0.001 A 
ATOM     82  C   UNL A   1      45.428  22.245  34.828  1.00  0.00     0.000 A 
ENDBRANCH  64  77
ENDBRANCH  38  39
ENDBRANCH  30  33
ENDBRANCH  28  29
ENDBRANCH  27  28
ENDBRANCH   1  27
TORSDOF 13
ENDMDL
MODEL 3
REMARK VINA RESULT:     -12.4      3.573      7.925
REMARK SMILES Cc1c(NC(=O)c2ccc(Br)cc2N)cccc1C(=O)NCCCNC(=O)c1ccc(-c2c3nc(c(-c4ccccc4)c4ccc([nH]4)c(-c4ccccc4)c4nc(c(-c5ccccc5)c5ccc2[nH]5)C=C4)C=C3)cc1
REMARK SMILES IDX 22 1 21 2 19 3 20 4 18 6 1 7 2 8 3 9 15 10 17 11 16 12 4 13
REMARK SMILES IDX 5 14 6 16 7 17 8 18 13 19 9 20 12 21 10 22 11 23 14 24 23 27
REMARK SMILES IDX 24 28 25 29 26 30 27 32 28 33 29 34 75 35 30 36 74 37 31 38
REMARK SMILES IDX 32 39 33 40 68 41 34 42 73 43 67 44 69 45 35 46 72 47 66 48
REMARK SMILES IDX 65 49 36 51 58 52 43 53 57 54 44 55 47 56 56 57 70 58 45 59
REMARK SMILES IDX 46 60 55 62 71 63 48 64 37 65 38 66 42 67 39 68 41 69 40 70
REMARK SMILES IDX 59 71 60 72 64 73 61 74 63 75 62 76 49 77 50 78 54 79 51 80
REMARK SMILES IDX 53 81 52 82
REMARK H PARENT 21 5 4 15 14 25 14 26 25 31 69 50 47 61
REMARK Flexibility Score: inf
ROOT
ATOM      1  C   UNL A   1      37.728  23.278  26.163  1.00  0.00     0.118 C 
ENDROOT
BRANCH   1   2
ATOM      2  N   UNL A   1      37.345  21.930  25.764  1.00  0.00    -0.352 N 
ATOM      3  C   UNL A   1      36.223  21.318  25.264  1.00  0.00     0.251 C 
ATOM      4  O   UNL A   1      36.346  20.103  25.068  1.00  0.00    -0.269 OA
ATOM      5  H   UNL A   1      38.083  21.291  25.884  1.00  0.00     0.163 HD
BRANCH   3   6
ATOM      6  C   UNL A   1      34.902  21.944  24.894  1.00  0.00     0.044 A 
ATOM      7  C   UNL A   1      33.524  21.326  26.954  1.00  0.00     0.047 C 
ATOM      8  C   UNL A   1      33.710  22.016  25.642  1.00  0.00    -0.015 A 
ATOM      9  C   UNL A   1      32.543  22.600  25.080  1.00  0.00     0.045 A 
ATOM     10  C   UNL A   1      32.504  22.992  23.747  1.00  0.00     0.026 A 
ATOM     11  C   UNL A   1      34.833  22.377  23.549  1.00  0.00     0.014 A 
ATOM     12  C   UNL A   1      33.654  22.869  22.977  1.00  0.00     0.003 A 
BRANCH   9  13
ATOM     13  N   UNL A   1      31.439  22.759  25.928  1.00  0.00    -0.322 N 
ATOM     14  C   UNL A   1      30.813  23.874  26.423  1.00  0.00     0.257 C 
ATOM     15  H   UNL A   1      31.037  21.911  26.223  1.00  0.00     0.170 HD
ATOM     16  O   UNL A   1      29.877  23.705  27.208  1.00  0.00    -0.269 OA
BRANCH  14  17
ATOM     17  C   UNL A   1      31.165  25.257  26.021  1.00  0.00     0.063 A 
ATOM     18  C   UNL A   1      32.375  25.723  26.569  1.00  0.00     0.017 A 
ATOM     19  C   UNL A   1      30.366  26.118  25.239  1.00  0.00     0.045 A 
ATOM     20  C   UNL A   1      32.823  27.015  26.311  1.00  0.00     0.016 A 
ATOM     21  C   UNL A   1      30.848  27.410  24.974  1.00  0.00     0.042 A 
ATOM     22  C   UNL A   1      32.064  27.848  25.499  1.00  0.00     0.020 A 
ATOM     23  Br  UNL A   1      32.659  29.605  25.140  1.00  0.00    -0.051 Br
BRANCH  19  24
ATOM     24  N   UNL A   1      29.053  25.852  24.861  1.00  0.00    -0.398 N 
ATOM     25  H   UNL A   1      28.730  24.923  24.830  1.00  0.00     0.156 HD
ATOM     26  H   UNL A   1      28.450  26.592  24.625  1.00  0.00     0.156 HD
ENDBRANCH  19  24
ENDBRANCH  14  17
ENDBRANCH   9  13
ENDBRANCH   3   6
ENDBRANCH   1   2
BRANCH   1  27
ATOM     27  C   UNL A   1      39.254  23.423  26.209  1.00  0.00     0.042 C 
BRANCH  27  28
ATOM     28  C   UNL A   1      40.015  22.392  27.010  1.00  0.00     0.118 C 
BRANCH  28  29
ATOM     29  N   UNL A   1      40.653  21.361  26.189  1.00  0.00    -0.352 N 
ATOM     30  C   UNL A   1      42.011  21.085  26.068  1.00  0.00     0.251 C 
ATOM     31  H   UNL A   1      40.048  20.794  25.657  1.00  0.00     0.163 HD
ATOM     32  O   UNL A   1      42.417  20.146  25.415  1.00  0.00    -0.269 OA
BRANCH  30  33
ATOM     33  C   UNL A   1      42.933  21.899  26.897  1.00  0.00     0.039 A 
ATOM     34  C   UNL A   1      42.781  21.757  28.277  1.00  0.00     0.014 A 
ATOM     35  C   UNL A   1      43.483  23.051  26.345  1.00  0.00     0.014 A 
ATOM     36  C   UNL A   1      42.848  22.895  29.067  1.00  0.00     0.010 A 
ATOM     37  C   UNL A   1      43.453  24.200  27.111  1.00  0.00     0.010 A 
ATOM     38  C   UNL A   1      43.040  24.130  28.446  1.00  0.00    -0.014 A 
BRANCH  38  39
ATOM     39  C   UNL A   1      42.813  25.389  29.142  1.00  0.00     0.031 A 
ATOM     40  C   UNL A   1      41.640  26.184  28.733  1.00  0.00     0.074 A 
ATOM     41  C   UNL A   1      43.669  25.885  30.068  1.00  0.00     0.049 A 
ATOM     42  N   UNL A   1      41.625  27.471  28.663  1.00  0.00    -0.248 NA
ATOM     43  C   UNL A   1      40.396  25.561  28.294  1.00  0.00     0.031 C 
ATOM     44  C   UNL A   1      43.480  27.110  30.847  1.00  0.00     0.029 A 
ATOM     45  N   UNL A   1      44.986  25.524  30.360  1.00  0.00    -0.354 N 
ATOM     46  C   UNL A   1      40.315  27.846  28.492  1.00  0.00     0.074 A 
ATOM     47  C   UNL A   1      39.613  26.631  28.146  1.00  0.00     0.031 C 
ATOM     48  C   UNL A   1      44.684  27.572  31.220  1.00  0.00     0.029 A 
ATOM     49  C   UNL A   1      45.681  26.725  30.594  1.00  0.00     0.049 A 
ATOM     50  H   UNL A   1      45.354  24.611  30.394  1.00  0.00     0.167 HD
ATOM     51  C   UNL A   1      39.927  29.110  28.822  1.00  0.00     0.031 A 
ATOM     52  C   UNL A   1      46.736  27.164  29.845  1.00  0.00     0.031 A 
ATOM     53  C   UNL A   1      41.057  29.927  29.272  1.00  0.00     0.049 A 
ATOM     54  C   UNL A   1      46.510  28.520  29.196  1.00  0.00     0.074 A 
ATOM     55  C   UNL A   1      41.507  30.323  30.523  1.00  0.00     0.029 A 
ATOM     56  N   UNL A   1      42.098  30.194  28.391  1.00  0.00    -0.354 N 
ATOM     57  N   UNL A   1      45.393  29.190  29.262  1.00  0.00    -0.248 NA
ATOM     58  C   UNL A   1      47.484  29.169  28.322  1.00  0.00     0.031 C 
ATOM     59  C   UNL A   1      42.833  30.819  30.384  1.00  0.00     0.029 A 
ATOM     60  C   UNL A   1      43.182  30.751  29.049  1.00  0.00     0.049 A 
ATOM     61  H   UNL A   1      42.069  30.012  27.424  1.00  0.00     0.167 HD
ATOM     62  C   UNL A   1      45.451  30.293  28.444  1.00  0.00     0.074 A 
ATOM     63  C   UNL A   1      46.787  30.230  27.877  1.00  0.00     0.031 C 
ATOM     64  C   UNL A   1      44.373  31.125  28.285  1.00  0.00     0.031 A 
BRANCH  51  65
ATOM     65  C   UNL A   1      38.476  29.478  29.035  1.00  0.00    -0.014 A 
ATOM     66  C   UNL A   1      37.684  29.858  27.938  1.00  0.00     0.009 A 
ATOM     67  C   UNL A   1      37.847  29.533  30.292  1.00  0.00     0.009 A 
ATOM     68  C   UNL A   1      36.389  30.373  28.098  1.00  0.00     0.001 A 
ATOM     69  C   UNL A   1      36.573  30.092  30.468  1.00  0.00     0.001 A 
ATOM     70  C   UNL A   1      35.847  30.525  29.368  1.00  0.00     0.000 A 
ENDBRANCH  51  65
BRANCH  52  71
ATOM     71  C   UNL A   1      47.533  26.058  29.247  1.00  0.00    -0.014 A 
ATOM     72  C   UNL A   1      47.180  25.633  27.951  1.00  0.00     0.009 A 
ATOM     73  C   UNL A   1      48.821  25.784  29.721  1.00  0.00     0.009 A 
ATOM     74  C   UNL A   1      48.152  25.133  27.082  1.00  0.00     0.001 A 
ATOM     75  C   UNL A   1      49.783  25.261  28.851  1.00  0.00     0.001 A 
ATOM     76  C   UNL A   1      49.466  24.997  27.519  1.00  0.00     0.000 A 
ENDBRANCH  52  71
BRANCH  64  77
ATOM     77  C   UNL A   1      44.281  32.361  27.401  1.00  0.00    -0.014 A 
ATOM     78  C   UNL A   1      44.488  32.392  26.018  1.00  0.00     0.009 A 
ATOM     79  C   UNL A   1      44.007  33.616  28.002  1.00  0.00     0.009 A 
ATOM     80  C   UNL A   1      44.346  33.576  25.272  1.00  0.00     0.001 A 
ATOM     81  C   UNL A   1      43.873  34.799  27.270  1.00  0.00     0.001 A 
ATOM     82  C   UNL A   1      44.027  34.775  25.896  1.00  0.00     0.000 A 
ENDBRANCH  64  77
ENDBRANCH  38  39
ENDBRANCH  30  33
ENDBRANCH  28  29
ENDBRANCH  27  28
ENDBRANCH   1  27
TORSDOF 13
ENDMDL
