MODEL 1
REMARK VINA RESULT:     -13.0      0.000      0.000
REMARK SMILES O=C(NCCCNC(=O)c1ccc(-n2cc(CSc3nc4ccccc4c(=O)n3-c3ccccc3)nn2)cc1)c1ccc(-c2c3nc(c(-c4ccccc4)c4ccc([nH]4)c(-c4ccccc4)c4nc(c(-c5ccccc5)c5ccc2[nH]5)C=C4)C=C3)cc1
REMARK SMILES IDX 7 1 8 2 9 3 6 5 5 6 4 7 3 8 1 9 2 10 40 12 41 13 87 14 42 15
REMARK SMILES IDX 86 16 43 17 44 18 45 19 80 20 46 21 85 22 79 23 81 24 47 25
REMARK SMILES IDX 84 26 78 27 77 28 48 30 70 31 55 32 69 33 56 34 59 35 68 36
REMARK SMILES IDX 82 37 57 38 58 39 67 41 83 42 60 43 49 44 50 45 54 46 51 47
REMARK SMILES IDX 53 48 52 49 71 50 72 51 76 52 73 53 75 54 74 55 61 56 62 57
REMARK SMILES IDX 66 58 63 59 65 60 64 61 10 62 11 63 39 64 12 65 38 66 13 67
REMARK SMILES IDX 14 68 15 69 37 70 16 71 36 72 17 73 18 74 19 75 20 76 29 77
REMARK SMILES IDX 21 78 27 79 22 80 26 81 28 82 23 83 25 84 24 85 30 86 31 87
REMARK SMILES IDX 35 88 32 89 34 90 33 91
REMARK H PARENT 7 4 3 11 81 29 59 40
REMARK Flexibility Score: inf
ROOT
ATOM      1  N   UNL A   1      31.430  30.471  26.048  1.00  0.00    -0.352 N 
ATOM      2  C   UNL A   1      31.138  29.823  24.873  1.00  0.00     0.251 C 
ATOM      3  O   UNL A   1      30.307  30.287  24.106  1.00  0.00    -0.269 OA
ATOM      4  H   UNL A   1      30.857  31.246  26.246  1.00  0.00     0.163 HD
ENDROOT
BRANCH   1   5
ATOM      5  C   UNL A   1      32.447  30.195  27.048  1.00  0.00     0.118 C 
BRANCH   5   6
ATOM      6  C   UNL A   1      33.512  31.284  27.136  1.00  0.00     0.042 C 
BRANCH   6   7
ATOM      7  C   UNL A   1      34.685  30.960  28.061  1.00  0.00     0.118 C 
BRANCH   7   8
ATOM      8  N   UNL A   1      34.693  31.685  29.316  1.00  0.00    -0.352 N 
ATOM      9  O   UNL A   1      35.326  32.781  31.122  1.00  0.00    -0.269 OA
ATOM     10  C   UNL A   1      35.627  31.928  30.282  1.00  0.00     0.251 C 
ATOM     11  H   UNL A   1      33.824  32.100  29.519  1.00  0.00     0.163 HD
BRANCH  10  12
ATOM     12  C   UNL A   1      36.905  31.187  30.449  1.00  0.00     0.039 A 
ATOM     13  C   UNL A   1      38.188  31.727  30.351  1.00  0.00     0.014 A 
ATOM     14  C   UNL A   1      36.771  29.797  30.633  1.00  0.00     0.014 A 
ATOM     15  C   UNL A   1      39.300  30.892  30.295  1.00  0.00     0.010 A 
ATOM     16  C   UNL A   1      37.876  28.961  30.597  1.00  0.00     0.010 A 
ATOM     17  C   UNL A   1      39.132  29.509  30.366  1.00  0.00    -0.014 A 
BRANCH  17  18
ATOM     18  C   UNL A   1      40.309  28.651  30.302  1.00  0.00     0.031 A 
ATOM     19  C   UNL A   1      41.004  28.434  31.603  1.00  0.00     0.074 A 
ATOM     20  C   UNL A   1      40.636  27.962  29.190  1.00  0.00     0.049 A 
ATOM     21  N   UNL A   1      42.241  28.660  31.901  1.00  0.00    -0.248 NA
ATOM     22  C   UNL A   1      40.187  27.982  32.743  1.00  0.00     0.031 C 
ATOM     23  C   UNL A   1      39.873  27.856  27.942  1.00  0.00     0.029 A 
ATOM     24  N   UNL A   1      41.667  27.095  28.991  1.00  0.00    -0.354 N 
ATOM     25  C   UNL A   1      42.406  28.230  33.216  1.00  0.00     0.074 A 
ATOM     26  C   UNL A   1      41.087  27.945  33.723  1.00  0.00     0.031 C 
ATOM     27  C   UNL A   1      40.327  26.798  27.232  1.00  0.00     0.029 A 
ATOM     28  C   UNL A   1      41.489  26.245  27.907  1.00  0.00     0.049 A 
ATOM     29  H   UNL A   1      42.467  27.073  29.564  1.00  0.00     0.167 HD
ATOM     30  C   UNL A   1      43.627  27.924  33.734  1.00  0.00     0.031 A 
ATOM     31  C   UNL A   1      42.196  25.121  27.629  1.00  0.00     0.031 A 
ATOM     32  C   UNL A   1      44.701  28.484  32.961  1.00  0.00     0.049 A 
ATOM     33  C   UNL A   1      43.461  25.183  28.395  1.00  0.00     0.074 A 
ATOM     34  C   UNL A   1      45.102  29.762  32.625  1.00  0.00     0.029 A 
ATOM     35  N   UNL A   1      45.365  27.647  32.098  1.00  0.00    -0.354 N 
ATOM     36  N   UNL A   1      44.403  26.048  28.152  1.00  0.00    -0.248 NA
ATOM     37  C   UNL A   1      43.489  24.582  29.719  1.00  0.00     0.031 C 
ATOM     38  C   UNL A   1      45.569  29.655  31.282  1.00  0.00     0.029 A 
ATOM     39  C   UNL A   1      45.480  28.314  30.906  1.00  0.00     0.049 A 
ATOM     40  H   UNL A   1      45.693  26.741  32.297  1.00  0.00     0.167 HD
ATOM     41  C   UNL A   1      44.861  26.429  29.405  1.00  0.00     0.074 A 
ATOM     42  C   UNL A   1      44.332  25.424  30.325  1.00  0.00     0.031 C 
ATOM     43  C   UNL A   1      45.384  27.673  29.616  1.00  0.00     0.031 A 
BRANCH  30  44
ATOM     44  C   UNL A   1      43.853  26.782  34.695  1.00  0.00    -0.014 A 
ATOM     45  C   UNL A   1      43.532  25.475  34.284  1.00  0.00     0.009 A 
ATOM     46  C   UNL A   1      44.078  26.975  36.072  1.00  0.00     0.009 A 
ATOM     47  C   UNL A   1      43.361  24.441  35.214  1.00  0.00     0.001 A 
ATOM     48  C   UNL A   1      43.949  25.936  36.997  1.00  0.00     0.001 A 
ATOM     49  C   UNL A   1      43.560  24.675  36.571  1.00  0.00     0.000 A 
ENDBRANCH  30  44
BRANCH  31  50
ATOM     50  C   UNL A   1      41.714  23.866  27.010  1.00  0.00    -0.014 A 
ATOM     51  C   UNL A   1      42.568  23.057  26.244  1.00  0.00     0.009 A 
ATOM     52  C   UNL A   1      40.474  23.324  27.397  1.00  0.00     0.009 A 
ATOM     53  C   UNL A   1      42.204  21.745  25.905  1.00  0.00     0.001 A 
ATOM     54  C   UNL A   1      40.111  22.016  27.058  1.00  0.00     0.001 A 
ATOM     55  C   UNL A   1      40.983  21.222  26.323  1.00  0.00     0.000 A 
ENDBRANCH  31  50
BRANCH  43  56
ATOM     56  C   UNL A   1      45.619  28.551  28.410  1.00  0.00    -0.014 A 
ATOM     57  C   UNL A   1      44.616  29.366  27.854  1.00  0.00     0.009 A 
ATOM     58  C   UNL A   1      46.926  28.680  27.922  1.00  0.00     0.009 A 
ATOM     59  C   UNL A   1      44.910  30.260  26.819  1.00  0.00     0.001 A 
ATOM     60  C   UNL A   1      47.223  29.587  26.902  1.00  0.00     0.001 A 
ATOM     61  C   UNL A   1      46.215  30.372  26.347  1.00  0.00     0.000 A 
ENDBRANCH  43  56
ENDBRANCH  17  18
ENDBRANCH  10  12
ENDBRANCH   7   8
ENDBRANCH   6   7
ENDBRANCH   5   6
ENDBRANCH   1   5
BRANCH   2  62
ATOM     62  C   UNL A   1      31.852  28.582  24.517  1.00  0.00     0.039 A 
ATOM     63  C   UNL A   1      33.087  28.687  23.864  1.00  0.00     0.016 A 
ATOM     64  C   UNL A   1      31.296  27.329  24.786  1.00  0.00     0.016 A 
ATOM     65  C   UNL A   1      33.821  27.539  23.566  1.00  0.00     0.029 A 
ATOM     66  C   UNL A   1      32.006  26.177  24.452  1.00  0.00     0.029 A 
ATOM     67  C   UNL A   1      33.275  26.286  23.855  1.00  0.00     0.066 A 
BRANCH  67  68
ATOM     68  N   UNL A   1      33.963  25.123  23.458  1.00  0.00    -0.220 N 
ATOM     69  C   UNL A   1      35.051  24.588  24.085  1.00  0.00     0.141 A 
ATOM     70  N   UNL A   1      33.640  24.364  22.389  1.00  0.00    -0.062 NA
ATOM     71  C   UNL A   1      35.380  23.456  23.381  1.00  0.00     0.093 A 
ATOM     72  N   UNL A   1      34.537  23.380  22.300  1.00  0.00    -0.134 NA
BRANCH  71  73
ATOM     73  C   UNL A   1      36.573  22.590  23.524  1.00  0.00     0.138 C 
BRANCH  73  74
ATOM     74  S   UNL A   1      36.791  21.410  24.859  1.00  0.00    -0.081 SA
BRANCH  74  75
ATOM     75  C   UNL A   1      35.543  20.196  24.940  1.00  0.00     0.176 A 
ATOM     76  N   UNL A   1      36.029  18.986  24.930  1.00  0.00    -0.223 NA
ATOM     77  N   UNL A   1      34.180  20.419  25.015  1.00  0.00    -0.255 N 
ATOM     78  C   UNL A   1      35.134  17.909  24.867  1.00  0.00     0.079 A 
ATOM     79  C   UNL A   1      33.415  19.506  24.269  1.00  0.00     0.266 A 
ATOM     80  C   UNL A   1      35.525  16.614  25.202  1.00  0.00     0.029 A 
ATOM     81  C   UNL A   1      33.856  18.106  24.365  1.00  0.00     0.066 A 
ATOM     82  O   UNL A   1      32.452  19.772  23.572  1.00  0.00    -0.268 OA
ATOM     83  C   UNL A   1      34.661  15.535  24.971  1.00  0.00     0.002 A 
ATOM     84  C   UNL A   1      33.003  17.040  24.070  1.00  0.00     0.016 A 
ATOM     85  C   UNL A   1      33.416  15.744  24.370  1.00  0.00     0.001 A 
BRANCH  77  86
ATOM     86  C   UNL A   1      33.481  21.470  25.724  1.00  0.00     0.051 A 
ATOM     87  C   UNL A   1      33.824  21.758  27.063  1.00  0.00     0.027 A 
ATOM     88  C   UNL A   1      32.450  22.244  25.182  1.00  0.00     0.027 A 
ATOM     89  C   UNL A   1      33.034  22.572  27.878  1.00  0.00     0.002 A 
ATOM     90  C   UNL A   1      31.609  23.010  26.007  1.00  0.00     0.002 A 
ATOM     91  C   UNL A   1      31.881  23.141  27.364  1.00  0.00     0.000 A 
ENDBRANCH  77  86
ENDBRANCH  74  75
ENDBRANCH  73  74
ENDBRANCH  71  73
ENDBRANCH  67  68
ENDBRANCH   2  62
TORSDOF 15
ENDMDL
MODEL 2
REMARK VINA RESULT:     -12.9      1.574      2.447
REMARK SMILES O=C(NCCCNC(=O)c1ccc(-n2cc(CSc3nc4ccccc4c(=O)n3-c3ccccc3)nn2)cc1)c1ccc(-c2c3nc(c(-c4ccccc4)c4ccc([nH]4)c(-c4ccccc4)c4nc(c(-c5ccccc5)c5ccc2[nH]5)C=C4)C=C3)cc1
REMARK SMILES IDX 7 1 8 2 9 3 6 5 5 6 4 7 3 8 1 9 2 10 40 12 41 13 87 14 42 15
REMARK SMILES IDX 86 16 43 17 44 18 45 19 80 20 46 21 85 22 79 23 81 24 47 25
REMARK SMILES IDX 84 26 78 27 77 28 48 30 70 31 55 32 69 33 56 34 59 35 68 36
REMARK SMILES IDX 82 37 57 38 58 39 67 41 83 42 60 43 49 44 50 45 54 46 51 47
REMARK SMILES IDX 53 48 52 49 71 50 72 51 76 52 73 53 75 54 74 55 61 56 62 57
REMARK SMILES IDX 66 58 63 59 65 60 64 61 10 62 11 63 39 64 12 65 38 66 13 67
REMARK SMILES IDX 14 68 15 69 37 70 16 71 36 72 17 73 18 74 19 75 20 76 29 77
REMARK SMILES IDX 21 78 27 79 22 80 26 81 28 82 23 83 25 84 24 85 30 86 31 87
REMARK SMILES IDX 35 88 32 89 34 90 33 91
REMARK H PARENT 7 4 3 11 81 29 59 40
REMARK Flexibility Score: inf
ROOT
ATOM      1  N   UNL A   1      33.397  32.157  27.479  1.00  0.00    -0.352 N 
ATOM      2  C   UNL A   1      32.169  31.778  26.996  1.00  0.00     0.251 C 
ATOM      3  O   UNL A   1      31.292  32.612  26.824  1.00  0.00    -0.269 OA
ATOM      4  H   UNL A   1      33.459  33.100  27.756  1.00  0.00     0.163 HD
ENDROOT
BRANCH   1   5
ATOM      5  C   UNL A   1      34.620  31.391  27.649  1.00  0.00     0.118 C 
BRANCH   5   6
ATOM      6  C   UNL A   1      35.837  32.261  27.944  1.00  0.00     0.042 C 
BRANCH   6   7
ATOM      7  C   UNL A   1      35.617  33.332  29.012  1.00  0.00     0.118 C 
BRANCH   7   8
ATOM      8  N   UNL A   1      35.321  32.825  30.336  1.00  0.00    -0.352 N 
ATOM      9  O   UNL A   1      35.490  31.940  32.350  1.00  0.00    -0.269 OA
ATOM     10  C   UNL A   1      35.942  31.971  31.202  1.00  0.00     0.251 C 
ATOM     11  H   UNL A   1      34.476  33.178  30.697  1.00  0.00     0.163 HD
BRANCH  10  12
ATOM     12  C   UNL A   1      37.032  31.026  30.844  1.00  0.00     0.039 A 
ATOM     13  C   UNL A   1      36.895  29.652  30.637  1.00  0.00     0.014 A 
ATOM     14  C   UNL A   1      38.323  31.587  30.804  1.00  0.00     0.014 A 
ATOM     15  C   UNL A   1      38.021  28.840  30.537  1.00  0.00     0.010 A 
ATOM     16  C   UNL A   1      39.448  30.787  30.687  1.00  0.00     0.010 A 
ATOM     17  C   UNL A   1      39.293  29.407  30.615  1.00  0.00    -0.014 A 
BRANCH  17  18
ATOM     18  C   UNL A   1      40.460  28.540  30.512  1.00  0.00     0.031 A 
ATOM     19  C   UNL A   1      41.175  28.286  31.796  1.00  0.00     0.074 A 
ATOM     20  C   UNL A   1      40.760  27.873  29.380  1.00  0.00     0.049 A 
ATOM     21  N   UNL A   1      42.419  28.494  32.077  1.00  0.00    -0.248 NA
ATOM     22  C   UNL A   1      40.373  27.816  32.939  1.00  0.00     0.031 C 
ATOM     23  C   UNL A   1      39.975  27.802  28.143  1.00  0.00     0.029 A 
ATOM     24  N   UNL A   1      41.780  27.001  29.144  1.00  0.00    -0.354 N 
ATOM     25  C   UNL A   1      42.602  28.032  33.379  1.00  0.00     0.074 A 
ATOM     26  C   UNL A   1      41.290  27.749  33.902  1.00  0.00     0.031 C 
ATOM     27  C   UNL A   1      40.407  26.756  27.402  1.00  0.00     0.029 A 
ATOM     28  C   UNL A   1      41.574  26.176  28.043  1.00  0.00     0.049 A 
ATOM     29  H   UNL A   1      42.589  26.957  29.702  1.00  0.00     0.167 HD
ATOM     30  C   UNL A   1      43.829  27.703  33.869  1.00  0.00     0.031 A 
ATOM     31  C   UNL A   1      42.265  25.052  27.728  1.00  0.00     0.031 A 
ATOM     32  C   UNL A   1      44.895  28.270  33.090  1.00  0.00     0.049 A 
ATOM     33  C   UNL A   1      43.544  25.085  28.474  1.00  0.00     0.074 A 
ATOM     34  C   UNL A   1      45.303  29.551  32.775  1.00  0.00     0.029 A 
ATOM     35  N   UNL A   1      45.535  27.447  32.197  1.00  0.00    -0.354 N 
ATOM     36  N   UNL A   1      44.490  25.946  28.234  1.00  0.00    -0.248 NA
ATOM     37  C   UNL A   1      43.589  24.454  29.783  1.00  0.00     0.031 C 
ATOM     38  C   UNL A   1      45.745  29.470  31.423  1.00  0.00     0.029 A 
ATOM     39  C   UNL A   1      45.636  28.139  31.019  1.00  0.00     0.049 A 
ATOM     40  H   UNL A   1      45.858  26.533  32.370  1.00  0.00     0.167 HD
ATOM     41  C   UNL A   1      44.974  26.294  29.487  1.00  0.00     0.074 A 
ATOM     42  C   UNL A   1      44.451  25.274  30.393  1.00  0.00     0.031 C 
ATOM     43  C   UNL A   1      45.512  27.528  29.716  1.00  0.00     0.031 A 
BRANCH  30  44
ATOM     44  C   UNL A   1      44.060  26.538  34.800  1.00  0.00    -0.014 A 
ATOM     45  C   UNL A   1      44.667  26.774  36.048  1.00  0.00     0.009 A 
ATOM     46  C   UNL A   1      43.983  25.196  34.379  1.00  0.00     0.009 A 
ATOM     47  C   UNL A   1      45.240  25.732  36.787  1.00  0.00     0.001 A 
ATOM     48  C   UNL A   1      44.517  24.150  35.134  1.00  0.00     0.001 A 
ATOM     49  C   UNL A   1      45.174  24.422  36.325  1.00  0.00     0.000 A 
ENDBRANCH  30  44
BRANCH  31  50
ATOM     50  C   UNL A   1      41.760  23.816  27.090  1.00  0.00    -0.014 A 
ATOM     51  C   UNL A   1      42.556  23.080  26.198  1.00  0.00     0.009 A 
ATOM     52  C   UNL A   1      40.582  23.211  27.567  1.00  0.00     0.009 A 
ATOM     53  C   UNL A   1      42.198  21.776  25.822  1.00  0.00     0.001 A 
ATOM     54  C   UNL A   1      40.225  21.912  27.192  1.00  0.00     0.001 A 
ATOM     55  C   UNL A   1      41.041  21.189  26.329  1.00  0.00     0.000 A 
ENDBRANCH  31  50
BRANCH  43  56
ATOM     56  C   UNL A   1      45.736  28.431  28.527  1.00  0.00    -0.014 A 
ATOM     57  C   UNL A   1      44.679  29.019  27.808  1.00  0.00     0.009 A 
ATOM     58  C   UNL A   1      47.046  28.824  28.223  1.00  0.00     0.009 A 
ATOM     59  C   UNL A   1      44.931  29.950  26.795  1.00  0.00     0.001 A 
ATOM     60  C   UNL A   1      47.296  29.768  27.225  1.00  0.00     0.001 A 
ATOM     61  C   UNL A   1      46.241  30.327  26.508  1.00  0.00     0.000 A 
ENDBRANCH  43  56
ENDBRANCH  17  18
ENDBRANCH  10  12
ENDBRANCH   7   8
ENDBRANCH   6   7
ENDBRANCH   5   6
ENDBRANCH   1   5
BRANCH   2  62
ATOM     62  C   UNL A   1      31.915  30.365  26.651  1.00  0.00     0.039 A 
ATOM     63  C   UNL A   1      31.566  30.054  25.331  1.00  0.00     0.016 A 
ATOM     64  C   UNL A   1      31.980  29.364  27.624  1.00  0.00     0.016 A 
ATOM     65  C   UNL A   1      31.378  28.724  24.952  1.00  0.00     0.029 A 
ATOM     66  C   UNL A   1      31.753  28.038  27.259  1.00  0.00     0.029 A 
ATOM     67  C   UNL A   1      31.465  27.721  25.920  1.00  0.00     0.066 A 
BRANCH  67  68
ATOM     68  N   UNL A   1      31.170  26.390  25.564  1.00  0.00    -0.220 N 
ATOM     69  C   UNL A   1      31.408  25.818  24.348  1.00  0.00     0.141 A 
ATOM     70  N   UNL A   1      30.603  25.481  26.387  1.00  0.00    -0.062 NA
ATOM     71  C   UNL A   1      30.990  24.514  24.450  1.00  0.00     0.093 A 
ATOM     72  N   UNL A   1      30.434  24.353  25.695  1.00  0.00    -0.134 NA
BRANCH  71  73
ATOM     73  C   UNL A   1      30.863  23.496  23.382  1.00  0.00     0.138 C 
BRANCH  73  74
ATOM     74  S   UNL A   1      32.265  22.684  22.611  1.00  0.00    -0.081 SA
BRANCH  74  75
ATOM     75  C   UNL A   1      32.884  21.329  23.516  1.00  0.00     0.176 A 
ATOM     76  N   UNL A   1      32.455  20.188  23.052  1.00  0.00    -0.223 NA
ATOM     77  N   UNL A   1      33.736  21.385  24.604  1.00  0.00    -0.255 N 
ATOM     78  C   UNL A   1      32.774  19.020  23.759  1.00  0.00     0.079 A 
ATOM     79  C   UNL A   1      33.442  20.440  25.602  1.00  0.00     0.266 A 
ATOM     80  C   UNL A   1      32.672  17.760  23.170  1.00  0.00     0.029 A 
ATOM     81  C   UNL A   1      33.103  19.098  25.103  1.00  0.00     0.066 A 
ATOM     82  O   UNL A   1      33.444  20.637  26.804  1.00  0.00    -0.268 OA
ATOM     83  C   UNL A   1      32.836  16.605  23.947  1.00  0.00     0.002 A 
ATOM     84  C   UNL A   1      33.210  17.961  25.907  1.00  0.00     0.016 A 
ATOM     85  C   UNL A   1      33.067  16.706  25.322  1.00  0.00     0.001 A 
BRANCH  77  86
ATOM     86  C   UNL A   1      34.837  22.296  24.834  1.00  0.00     0.051 A 
ATOM     87  C   UNL A   1      36.095  22.035  24.251  1.00  0.00     0.027 A 
ATOM     88  C   UNL A   1      34.762  23.449  25.624  1.00  0.00     0.027 A 
ATOM     89  C   UNL A   1      37.251  22.721  24.629  1.00  0.00     0.002 A 
ATOM     90  C   UNL A   1      35.925  24.101  26.063  1.00  0.00     0.002 A 
ATOM     91  C   UNL A   1      37.174  23.710  25.595  1.00  0.00     0.000 A 
ENDBRANCH  77  86
ENDBRANCH  74  75
ENDBRANCH  73  74
ENDBRANCH  71  73
ENDBRANCH  67  68
ENDBRANCH   2  62
TORSDOF 15
ENDMDL
MODEL 3
REMARK VINA RESULT:     -12.2      3.193      6.521
REMARK SMILES O=C(NCCCNC(=O)c1ccc(-n2cc(CSc3nc4ccccc4c(=O)n3-c3ccccc3)nn2)cc1)c1ccc(-c2c3nc(c(-c4ccccc4)c4ccc([nH]4)c(-c4ccccc4)c4nc(c(-c5ccccc5)c5ccc2[nH]5)C=C4)C=C3)cc1
REMARK SMILES IDX 7 1 8 2 9 3 6 5 5 6 4 7 3 8 1 9 2 10 40 12 41 13 87 14 42 15
REMARK SMILES IDX 86 16 43 17 44 18 45 19 80 20 46 21 85 22 79 23 81 24 47 25
REMARK SMILES IDX 84 26 78 27 77 28 48 30 70 31 55 32 69 33 56 34 59 35 68 36
REMARK SMILES IDX 82 37 57 38 58 39 67 41 83 42 60 43 49 44 50 45 54 46 51 47
REMARK SMILES IDX 53 48 52 49 71 50 72 51 76 52 73 53 75 54 74 55 61 56 62 57
REMARK SMILES IDX 66 58 63 59 65 60 64 61 10 62 11 63 39 64 12 65 38 66 13 67
REMARK SMILES IDX 14 68 15 69 37 70 16 71 36 72 17 73 18 74 19 75 20 76 29 77
REMARK SMILES IDX 21 78 27 79 22 80 26 81 28 82 23 83 25 84 24 85 30 86 31 87
REMARK SMILES IDX 35 88 32 89 34 90 33 91
REMARK H PARENT 7 4 3 11 81 29 59 40
REMARK Flexibility Score: inf
ROOT
ATOM      1  N   UNL A   1      36.987  34.199  34.754  1.00  0.00    -0.352 N 
ATOM      2  C   UNL A   1      35.791  34.132  34.083  1.00  0.00     0.251 C 
ATOM      3  O   UNL A   1      34.816  34.738  34.504  1.00  0.00    -0.269 OA
ATOM      4  H   UNL A   1      36.952  34.672  35.616  1.00  0.00     0.163 HD
ENDROOT
BRANCH   1   5
ATOM      5  C   UNL A   1      38.297  33.681  34.397  1.00  0.00     0.118 C 
BRANCH   5   6
ATOM      6  C   UNL A   1      39.002  34.517  33.332  1.00  0.00     0.042 C 
BRANCH   6   7
ATOM      7  C   UNL A   1      38.810  34.022  31.899  1.00  0.00     0.118 C 
BRANCH   7   8
ATOM      8  N   UNL A   1      39.750  34.559  30.935  1.00  0.00    -0.352 N 
ATOM      9  O   UNL A   1      41.152  34.787  29.248  1.00  0.00    -0.269 OA
ATOM     10  C   UNL A   1      40.676  34.019  30.089  1.00  0.00     0.251 C 
ATOM     11  H   UNL A   1      39.712  35.541  30.876  1.00  0.00     0.163 HD
BRANCH  10  12
ATOM     12  C   UNL A   1      41.211  32.635  30.170  1.00  0.00     0.039 A 
ATOM     13  C   UNL A   1      42.558  32.270  30.128  1.00  0.00     0.014 A 
ATOM     14  C   UNL A   1      40.239  31.617  30.202  1.00  0.00     0.014 A 
ATOM     15  C   UNL A   1      42.921  30.935  29.978  1.00  0.00     0.010 A 
ATOM     16  C   UNL A   1      40.594  30.284  30.071  1.00  0.00     0.010 A 
ATOM     17  C   UNL A   1      41.933  29.953  29.898  1.00  0.00    -0.014 A 
BRANCH  17  18
ATOM     18  C   UNL A   1      42.333  28.561  29.738  1.00  0.00     0.031 A 
ATOM     19  C   UNL A   1      43.036  27.966  30.910  1.00  0.00     0.074 A 
ATOM     20  C   UNL A   1      41.936  27.817  28.686  1.00  0.00     0.049 A 
ATOM     21  N   UNL A   1      44.199  27.403  30.949  1.00  0.00    -0.248 NA
ATOM     22  C   UNL A   1      42.388  28.093  32.227  1.00  0.00     0.031 C 
ATOM     23  C   UNL A   1      41.002  28.193  27.620  1.00  0.00     0.029 A 
ATOM     24  N   UNL A   1      42.187  26.505  28.421  1.00  0.00    -0.354 N 
ATOM     25  C   UNL A   1      44.368  26.957  32.258  1.00  0.00     0.074 A 
ATOM     26  C   UNL A   1      43.287  27.520  33.026  1.00  0.00     0.031 C 
ATOM     27  C   UNL A   1      40.578  27.076  26.986  1.00  0.00     0.029 A 
ATOM     28  C   UNL A   1      41.309  25.934  27.508  1.00  0.00     0.049 A 
ATOM     29  H   UNL A   1      42.925  26.005  28.839  1.00  0.00     0.167 HD
ATOM     30  C   UNL A   1      45.256  25.978  32.584  1.00  0.00     0.031 A 
ATOM     31  C   UNL A   1      41.139  24.612  27.258  1.00  0.00     0.031 A 
ATOM     32  C   UNL A   1      46.248  25.782  31.564  1.00  0.00     0.049 A 
ATOM     33  C   UNL A   1      42.332  23.900  27.770  1.00  0.00     0.074 A 
ATOM     34  C   UNL A   1      47.234  26.564  30.996  1.00  0.00     0.029 A 
ATOM     35  N   UNL A   1      46.083  24.717  30.714  1.00  0.00    -0.354 N 
ATOM     36  N   UNL A   1      43.518  24.026  27.250  1.00  0.00    -0.248 NA
ATOM     37  C   UNL A   1      42.296  23.399  29.135  1.00  0.00     0.031 C 
ATOM     38  C   UNL A   1      47.237  26.202  29.617  1.00  0.00     0.029 A 
ATOM     39  C   UNL A   1      46.298  25.184  29.444  1.00  0.00     0.049 A 
ATOM     40  H   UNL A   1      45.852  23.795  30.969  1.00  0.00     0.167 HD
ATOM     41  C   UNL A   1      44.377  24.052  28.339  1.00  0.00     0.074 A 
ATOM     42  C   UNL A   1      43.581  23.564  29.464  1.00  0.00     0.031 C 
ATOM     43  C   UNL A   1      45.560  24.732  28.287  1.00  0.00     0.031 A 
BRANCH  30  44
ATOM     44  C   UNL A   1      44.976  24.927  33.631  1.00  0.00    -0.014 A 
ATOM     45  C   UNL A   1      46.060  24.328  34.301  1.00  0.00     0.009 A 
ATOM     46  C   UNL A   1      43.725  24.294  33.764  1.00  0.00     0.009 A 
ATOM     47  C   UNL A   1      45.911  23.119  34.991  1.00  0.00     0.001 A 
ATOM     48  C   UNL A   1      43.565  23.110  34.487  1.00  0.00     0.001 A 
ATOM     49  C   UNL A   1      44.666  22.505  35.075  1.00  0.00     0.000 A 
ENDBRANCH  30  44
BRANCH  31  50
ATOM     50  C   UNL A   1      39.890  23.900  26.907  1.00  0.00    -0.014 A 
ATOM     51  C   UNL A   1      38.706  24.601  26.630  1.00  0.00     0.009 A 
ATOM     52  C   UNL A   1      39.930  22.531  26.580  1.00  0.00     0.009 A 
ATOM     53  C   UNL A   1      37.615  23.961  26.022  1.00  0.00     0.001 A 
ATOM     54  C   UNL A   1      38.843  21.892  25.975  1.00  0.00     0.001 A 
ATOM     55  C   UNL A   1      37.689  22.611  25.684  1.00  0.00     0.000 A 
ENDBRANCH  31  50
BRANCH  43  56
ATOM     56  C   UNL A   1      45.990  25.296  26.954  1.00  0.00    -0.014 A 
ATOM     57  C   UNL A   1      45.526  26.530  26.464  1.00  0.00     0.009 A 
ATOM     58  C   UNL A   1      47.009  24.641  26.249  1.00  0.00     0.009 A 
ATOM     59  C   UNL A   1      46.047  27.076  25.286  1.00  0.00     0.001 A 
ATOM     60  C   UNL A   1      47.543  25.196  25.084  1.00  0.00     0.001 A 
ATOM     61  C   UNL A   1      47.059  26.409  24.600  1.00  0.00     0.000 A 
ENDBRANCH  43  56
ENDBRANCH  17  18
ENDBRANCH  10  12
ENDBRANCH   7   8
ENDBRANCH   6   7
ENDBRANCH   5   6
ENDBRANCH   1   5
BRANCH   2  62
ATOM     62  C   UNL A   1      35.688  33.355  32.832  1.00  0.00     0.039 A 
ATOM     63  C   UNL A   1      35.209  34.000  31.685  1.00  0.00     0.016 A 
ATOM     64  C   UNL A   1      36.019  31.998  32.799  1.00  0.00     0.016 A 
ATOM     65  C   UNL A   1      35.155  33.316  30.470  1.00  0.00     0.029 A 
ATOM     66  C   UNL A   1      35.927  31.299  31.596  1.00  0.00     0.029 A 
ATOM     67  C   UNL A   1      35.507  31.966  30.431  1.00  0.00     0.066 A 
BRANCH  67  68
ATOM     68  N   UNL A   1      35.351  31.244  29.231  1.00  0.00    -0.220 N 
ATOM     69  C   UNL A   1      34.288  31.333  28.380  1.00  0.00     0.141 A 
ATOM     70  N   UNL A   1      36.242  30.352  28.748  1.00  0.00    -0.062 NA
ATOM     71  C   UNL A   1      34.559  30.480  27.339  1.00  0.00     0.093 A 
ATOM     72  N   UNL A   1      35.738  29.836  27.626  1.00  0.00    -0.134 NA
BRANCH  71  73
ATOM     73  C   UNL A   1      33.673  30.064  26.227  1.00  0.00     0.138 C 
BRANCH  73  74
ATOM     74  S   UNL A   1      33.750  28.450  25.445  1.00  0.00    -0.081 SA
BRANCH  74  75
ATOM     75  C   UNL A   1      32.278  27.985  24.636  1.00  0.00     0.176 A 
ATOM     76  N   UNL A   1      31.629  29.011  24.162  1.00  0.00    -0.223 NA
ATOM     77  N   UNL A   1      31.799  26.697  24.475  1.00  0.00    -0.255 N 
ATOM     78  C   UNL A   1      30.366  28.796  23.594  1.00  0.00     0.079 A 
ATOM     79  C   UNL A   1      30.403  26.594  24.600  1.00  0.00     0.266 A 
ATOM     80  C   UNL A   1      29.767  29.742  22.763  1.00  0.00     0.029 A 
ATOM     81  C   UNL A   1      29.641  27.665  23.939  1.00  0.00     0.066 A 
ATOM     82  O   UNL A   1      29.795  25.720  25.193  1.00  0.00    -0.268 OA
ATOM     83  C   UNL A   1      28.440  29.574  22.346  1.00  0.00     0.002 A 
ATOM     84  C   UNL A   1      28.299  27.508  23.585  1.00  0.00     0.016 A 
ATOM     85  C   UNL A   1      27.695  28.478  22.788  1.00  0.00     0.001 A 
BRANCH  77  86
ATOM     86  C   UNL A   1      32.550  25.485  24.233  1.00  0.00     0.051 A 
ATOM     87  C   UNL A   1      33.082  24.761  25.322  1.00  0.00     0.027 A 
ATOM     88  C   UNL A   1      32.815  24.954  22.965  1.00  0.00     0.027 A 
ATOM     89  C   UNL A   1      34.018  23.738  25.155  1.00  0.00     0.002 A 
ATOM     90  C   UNL A   1      33.805  23.974  22.784  1.00  0.00     0.002 A 
ATOM     91  C   UNL A   1      34.434  23.394  23.880  1.00  0.00     0.000 A 
ENDBRANCH  77  86
ENDBRANCH  74  75
ENDBRANCH  73  74
ENDBRANCH  71  73
ENDBRANCH  67  68
ENDBRANCH   2  62
TORSDOF 15
ENDMDL
