MODEL 1
REMARK VINA RESULT:     -12.7      0.000      0.000
REMARK SMILES CCCc1cc(S(F)(F)(F)(F)F)cc2c1O[C@@H](C(F)(F)F)C(C(=O)NCCCNC(=O)c1ccc(-c3c4nc(c(-c5ccccc5)c5ccc([nH]5)c(-c5ccccc5)c5nc(c(-c6ccccc6)c6ccc3[nH]6)C=C5)C=C4)cc1)=C2
REMARK SMILES IDX 27 1 26 2 25 3 23 4 24 5 22 7 4 8 5 9 15 10 6 11 14 12 16 13
REMARK SMILES IDX 13 14 80 15 17 16 3 17 2 18 1 19 7 20 8 21 9 22 10 23 11 24
REMARK SMILES IDX 12 25 18 26 19 27 20 28 21 29 28 30 29 31 30 32 31 34 32 35
REMARK SMILES IDX 33 36 79 37 34 38 78 39 35 40 36 41 37 42 72 43 38 44 77 45
REMARK SMILES IDX 71 46 73 47 39 48 76 49 70 50 69 51 40 53 62 54 47 55 61 56
REMARK SMILES IDX 48 57 51 58 60 59 74 60 49 61 50 62 59 64 75 65 52 66 41 67
REMARK SMILES IDX 42 68 46 69 43 70 45 71 44 72 63 73 64 74 68 75 65 76 67 77
REMARK SMILES IDX 66 78 53 79 54 80 58 81 55 82 57 83 56 84
REMARK H PARENT 25 6 29 33 73 52 51 63
REMARK Flexibility Score: inf
ROOT
ATOM      1  C   UNL A   1      32.963  27.879  26.012  1.00  0.00     0.042 C 
ENDROOT
BRANCH   1   2
ATOM      2  C   UNL A   1      33.601  26.775  25.185  1.00  0.00     0.118 C 
BRANCH   2   3
ATOM      3  N   UNL A   1      33.582  27.152  23.764  1.00  0.00    -0.352 N 
ATOM      4  C   UNL A   1      33.640  26.112  22.727  1.00  0.00     0.251 C 
ATOM      5  O   UNL A   1      33.623  26.439  21.499  1.00  0.00    -0.270 OA
ATOM      6  H   UNL A   1      33.530  28.101  23.509  1.00  0.00     0.163 HD
BRANCH   4   7
ATOM      7  C   UNL A   1      33.720  24.647  23.123  1.00  0.00     0.067 C 
ATOM      8  C   UNL A   1      33.718  20.759  24.651  1.00  0.00    -0.004 A 
ATOM      9  C   UNL A   1      34.914  20.141  24.964  1.00  0.00     0.032 A 
ATOM     10  C   UNL A   1      33.744  22.057  24.200  1.00  0.00     0.131 A 
ATOM     11  C   UNL A   1      36.106  20.805  24.835  1.00  0.00     0.108 A 
ATOM     12  C   UNL A   1      34.929  22.752  24.040  1.00  0.00     0.019 A 
ATOM     13  O   UNL A   1      32.544  22.695  24.002  1.00  0.00    -0.475 OA
ATOM     14  C   UNL A   1      36.114  22.102  24.368  1.00  0.00     0.036 A 
ATOM     15  C   UNL A   1      34.850  24.134  23.596  1.00  0.00     0.025 C 
ATOM     16  C   UNL A   1      32.507  23.738  22.987  1.00  0.00     0.314 C 
BRANCH   8  17
ATOM     17  C   UNL A   1      32.399  20.019  24.802  1.00  0.00     0.039 C 
BRANCH  17  18
ATOM     18  C   UNL A   1      32.603  18.549  24.472  1.00  0.00     0.001 C 
ATOM     19  C   UNL A   1      32.415  18.334  22.979  1.00  0.00     0.004 C 
ENDBRANCH  17  18
ENDBRANCH   8  17
BRANCH  11  20
ATOM     20  S   UNL A   1      37.659  19.984  25.273  1.00  0.00     0.310 S 
ATOM     21  F   UNL A   1      38.040  20.065  23.736  1.00  0.00    -0.094 F 
ATOM     22  F   UNL A   1      37.048  18.564  24.977  1.00  0.00    -0.094 F 
ATOM     23  F   UNL A   1      39.060  19.360  25.525  1.00  0.00    -0.094 F 
ATOM     24  F   UNL A   1      38.284  21.427  25.429  1.00  0.00    -0.094 F 
ATOM     25  F   UNL A   1      36.269  20.642  24.910  1.00  0.00    -0.094 F 
ENDBRANCH  11  20
BRANCH  16  26
ATOM     26  C   UNL A   1      31.244  24.563  23.170  1.00  0.00     0.429 C 
ATOM     27  F   UNL A   1      31.287  25.183  24.346  1.00  0.00    -0.167 F 
ATOM     28  F   UNL A   1      31.159  25.465  22.197  1.00  0.00    -0.167 F 
ATOM     29  F   UNL A   1      30.183  23.763  23.129  1.00  0.00    -0.167 F 
ENDBRANCH  16  26
ENDBRANCH   4   7
ENDBRANCH   2   3
ENDBRANCH   1   2
BRANCH   1  30
ATOM     30  C   UNL A   1      33.985  28.437  26.987  1.00  0.00     0.118 C 
BRANCH  30  31
ATOM     31  N   UNL A   1      33.553  29.767  27.442  1.00  0.00    -0.352 N 
ATOM     32  C   UNL A   1      34.501  30.649  28.138  1.00  0.00     0.251 C 
ATOM     33  H   UNL A   1      32.629  30.066  27.280  1.00  0.00     0.163 HD
ATOM     34  O   UNL A   1      34.127  31.799  28.531  1.00  0.00    -0.269 OA
BRANCH  32  35
ATOM     35  C   UNL A   1      35.927  30.189  28.387  1.00  0.00     0.039 A 
ATOM     36  C   UNL A   1      36.878  30.351  27.393  1.00  0.00     0.014 A 
ATOM     37  C   UNL A   1      36.239  29.640  29.556  1.00  0.00     0.014 A 
ATOM     38  C   UNL A   1      38.074  29.631  27.621  1.00  0.00     0.010 A 
ATOM     39  C   UNL A   1      37.477  29.075  29.755  1.00  0.00     0.010 A 
ATOM     40  C   UNL A   1      38.445  29.146  28.792  1.00  0.00    -0.014 A 
BRANCH  40  41
ATOM     41  C   UNL A   1      39.871  28.689  29.055  1.00  0.00     0.031 A 
ATOM     42  C   UNL A   1      40.230  27.400  28.659  1.00  0.00     0.074 A 
ATOM     43  C   UNL A   1      40.733  29.577  29.675  1.00  0.00     0.049 A 
ATOM     44  N   UNL A   1      41.426  26.820  28.765  1.00  0.00    -0.248 NA
ATOM     45  C   UNL A   1      39.306  26.443  28.033  1.00  0.00     0.031 C 
ATOM     46  C   UNL A   1      40.380  30.883  30.070  1.00  0.00     0.029 A 
ATOM     47  N   UNL A   1      42.053  29.376  30.015  1.00  0.00    -0.354 N 
ATOM     48  C   UNL A   1      41.387  25.586  28.257  1.00  0.00     0.074 A 
ATOM     49  C   UNL A   1      40.021  25.324  27.785  1.00  0.00     0.031 C 
ATOM     50  C   UNL A   1      41.468  31.455  30.651  1.00  0.00     0.029 A 
ATOM     51  C   UNL A   1      42.518  30.518  30.627  1.00  0.00     0.049 A 
ATOM     52  H   UNL A   1      42.573  28.556  29.849  1.00  0.00     0.167 HD
ATOM     53  C   UNL A   1      42.437  24.671  28.169  1.00  0.00     0.031 A 
ATOM     54  C   UNL A   1      43.783  30.749  31.145  1.00  0.00     0.031 A 
ATOM     55  C   UNL A   1      43.714  24.917  28.647  1.00  0.00     0.049 A 
ATOM     56  C   UNL A   1      44.818  29.811  31.109  1.00  0.00     0.074 A 
ATOM     57  C   UNL A   1      44.786  24.009  28.559  1.00  0.00     0.029 A 
ATOM     58  N   UNL A   1      44.172  26.051  29.282  1.00  0.00    -0.354 N 
ATOM     59  N   UNL A   1      44.789  28.593  30.567  1.00  0.00    -0.248 NA
ATOM     60  C   UNL A   1      46.152  30.032  31.682  1.00  0.00     0.031 C 
ATOM     61  C   UNL A   1      45.873  24.581  29.140  1.00  0.00     0.029 A 
ATOM     62  C   UNL A   1      45.498  25.858  29.602  1.00  0.00     0.049 A 
ATOM     63  H   UNL A   1      43.644  26.859  29.473  1.00  0.00     0.167 HD
ATOM     64  C   UNL A   1      45.975  27.997  30.710  1.00  0.00     0.074 A 
ATOM     65  C   UNL A   1      46.866  28.912  31.437  1.00  0.00     0.031 C 
ATOM     66  C   UNL A   1      46.350  26.730  30.261  1.00  0.00     0.031 A 
BRANCH  53  67
ATOM     67  C   UNL A   1      42.164  23.328  27.509  1.00  0.00    -0.014 A 
ATOM     68  C   UNL A   1      41.631  22.279  28.240  1.00  0.00     0.009 A 
ATOM     69  C   UNL A   1      42.465  23.191  26.223  1.00  0.00     0.009 A 
ATOM     70  C   UNL A   1      41.721  21.026  27.591  1.00  0.00     0.001 A 
ATOM     71  C   UNL A   1      42.401  21.959  25.618  1.00  0.00     0.001 A 
ATOM     72  C   UNL A   1      41.939  20.865  26.298  1.00  0.00     0.000 A 
ENDBRANCH  53  67
BRANCH  54  73
ATOM     73  C   UNL A   1      44.060  32.098  31.788  1.00  0.00    -0.014 A 
ATOM     74  C   UNL A   1      43.809  32.239  33.143  1.00  0.00     0.009 A 
ATOM     75  C   UNL A   1      44.535  33.107  31.066  1.00  0.00     0.009 A 
ATOM     76  C   UNL A   1      43.819  33.582  33.590  1.00  0.00     0.001 A 
ATOM     77  C   UNL A   1      44.645  34.363  31.609  1.00  0.00     0.001 A 
ATOM     78  C   UNL A   1      44.357  34.588  32.926  1.00  0.00     0.000 A 
ENDBRANCH  54  73
BRANCH  66  79
ATOM     79  C   UNL A   1      47.781  26.280  30.509  1.00  0.00    -0.014 A 
ATOM     80  C   UNL A   1      48.710  26.376  29.485  1.00  0.00     0.009 A 
ATOM     81  C   UNL A   1      48.117  25.802  31.701  1.00  0.00     0.009 A 
ATOM     82  C   UNL A   1      49.909  25.668  29.731  1.00  0.00     0.001 A 
ATOM     83  C   UNL A   1      49.356  25.246  31.907  1.00  0.00     0.001 A 
ATOM     84  C   UNL A   1      50.304  25.254  30.922  1.00  0.00     0.000 A 
ENDBRANCH  66  79
ENDBRANCH  40  41
ENDBRANCH  32  35
ENDBRANCH  30  31
ENDBRANCH   1  30
TORSDOF 14
ENDMDL
MODEL 2
REMARK VINA RESULT:     -12.5      0.259      5.653
REMARK SMILES CCCc1cc(S(F)(F)(F)(F)F)cc2c1O[C@@H](C(F)(F)F)C(C(=O)NCCCNC(=O)c1ccc(-c3c4nc(c(-c5ccccc5)c5ccc([nH]5)c(-c5ccccc5)c5nc(c(-c6ccccc6)c6ccc3[nH]6)C=C5)C=C4)cc1)=C2
REMARK SMILES IDX 27 1 26 2 25 3 23 4 24 5 22 7 4 8 5 9 15 10 6 11 14 12 16 13
REMARK SMILES IDX 13 14 80 15 17 16 3 17 2 18 1 19 7 20 8 21 9 22 10 23 11 24
REMARK SMILES IDX 12 25 18 26 19 27 20 28 21 29 28 30 29 31 30 32 31 34 32 35
REMARK SMILES IDX 33 36 79 37 34 38 78 39 35 40 36 41 37 42 72 43 38 44 77 45
REMARK SMILES IDX 71 46 73 47 39 48 76 49 70 50 69 51 40 53 62 54 47 55 61 56
REMARK SMILES IDX 48 57 51 58 60 59 74 60 49 61 50 62 59 64 75 65 52 66 41 67
REMARK SMILES IDX 42 68 46 69 43 70 45 71 44 72 63 73 64 74 68 75 65 76 67 77
REMARK SMILES IDX 66 78 53 79 54 80 58 81 55 82 57 83 56 84
REMARK H PARENT 25 6 29 33 73 52 51 63
REMARK Flexibility Score: inf
ROOT
ATOM      1  C   UNL A   1      33.139  27.659  26.354  1.00  0.00     0.042 C 
ENDROOT
BRANCH   1   2
ATOM      2  C   UNL A   1      33.596  26.522  25.455  1.00  0.00     0.118 C 
BRANCH   2   3
ATOM      3  N   UNL A   1      33.620  26.982  24.059  1.00  0.00    -0.352 N 
ATOM      4  C   UNL A   1      33.732  26.005  22.965  1.00  0.00     0.251 C 
ATOM      5  O   UNL A   1      33.753  26.403  21.759  1.00  0.00    -0.270 OA
ATOM      6  H   UNL A   1      33.562  27.943  23.856  1.00  0.00     0.163 HD
BRANCH   4   7
ATOM      7  C   UNL A   1      33.822  24.521  23.278  1.00  0.00     0.067 C 
ATOM      8  C   UNL A   1      33.828  20.550  24.578  1.00  0.00    -0.004 A 
ATOM      9  C   UNL A   1      35.022  19.932  24.898  1.00  0.00     0.032 A 
ATOM     10  C   UNL A   1      33.849  21.873  24.204  1.00  0.00     0.131 A 
ATOM     11  C   UNL A   1      36.206  20.618  24.850  1.00  0.00     0.108 A 
ATOM     12  C   UNL A   1      35.027  22.592  24.128  1.00  0.00     0.019 A 
ATOM     13  O   UNL A   1      32.646  22.505  24.000  1.00  0.00    -0.475 OA
ATOM     14  C   UNL A   1      36.210  21.940  24.460  1.00  0.00     0.036 A 
ATOM     15  C   UNL A   1      34.942  23.996  23.761  1.00  0.00     0.025 C 
ATOM     16  C   UNL A   1      32.628  23.604  23.047  1.00  0.00     0.314 C 
BRANCH   8  17
ATOM     17  C   UNL A   1      32.516  19.784  24.638  1.00  0.00     0.039 C 
BRANCH  17  18
ATOM     18  C   UNL A   1      32.756  18.337  24.238  1.00  0.00     0.001 C 
ATOM     19  C   UNL A   1      32.460  18.165  22.758  1.00  0.00     0.004 C 
ENDBRANCH  17  18
ENDBRANCH   8  17
BRANCH  11  20
ATOM     20  S   UNL A   1      37.756  19.795  25.296  1.00  0.00     0.310 S 
ATOM     21  F   UNL A   1      38.093  19.771  23.746  1.00  0.00    -0.094 F 
ATOM     22  F   UNL A   1      37.110  18.372  25.108  1.00  0.00    -0.094 F 
ATOM     23  F   UNL A   1      39.152  19.159  25.546  1.00  0.00    -0.094 F 
ATOM     24  F   UNL A   1      38.412  21.232  25.342  1.00  0.00    -0.094 F 
ATOM     25  F   UNL A   1      36.369  20.458  24.930  1.00  0.00    -0.094 F 
ENDBRANCH  11  20
BRANCH  16  26
ATOM     26  C   UNL A   1      31.347  24.400  23.232  1.00  0.00     0.429 C 
ATOM     27  F   UNL A   1      31.277  25.349  22.304  1.00  0.00    -0.167 F 
ATOM     28  F   UNL A   1      30.300  23.588  23.115  1.00  0.00    -0.167 F 
ATOM     29  F   UNL A   1      31.343  24.958  24.439  1.00  0.00    -0.167 F 
ENDBRANCH  16  26
ENDBRANCH   4   7
ENDBRANCH   2   3
ENDBRANCH   1   2
BRANCH   1  30
ATOM     30  C   UNL A   1      34.225  28.719  26.422  1.00  0.00     0.118 C 
BRANCH  30  31
ATOM     31  N   UNL A   1      33.687  29.932  27.055  1.00  0.00    -0.352 N 
ATOM     32  C   UNL A   1      34.524  30.712  27.978  1.00  0.00     0.251 C 
ATOM     33  H   UNL A   1      32.767  30.222  26.859  1.00  0.00     0.163 HD
ATOM     34  O   UNL A   1      34.058  31.762  28.524  1.00  0.00    -0.269 OA
BRANCH  32  35
ATOM     35  C   UNL A   1      35.944  30.266  28.280  1.00  0.00     0.039 A 
ATOM     36  C   UNL A   1      36.935  30.463  27.332  1.00  0.00     0.014 A 
ATOM     37  C   UNL A   1      36.213  29.694  29.450  1.00  0.00     0.014 A 
ATOM     38  C   UNL A   1      38.131  29.755  27.598  1.00  0.00     0.010 A 
ATOM     39  C   UNL A   1      37.448  29.142  29.691  1.00  0.00     0.010 A 
ATOM     40  C   UNL A   1      38.457  29.249  28.773  1.00  0.00    -0.014 A 
BRANCH  40  41
ATOM     41  C   UNL A   1      39.876  28.806  29.089  1.00  0.00     0.031 A 
ATOM     42  C   UNL A   1      40.708  29.702  29.762  1.00  0.00     0.074 A 
ATOM     43  C   UNL A   1      40.265  27.539  28.690  1.00  0.00     0.049 A 
ATOM     44  N   UNL A   1      41.965  29.502  30.161  1.00  0.00    -0.248 NA
ATOM     45  C   UNL A   1      40.308  31.060  30.157  1.00  0.00     0.031 C 
ATOM     46  C   UNL A   1      39.429  26.626  28.017  1.00  0.00     0.029 A 
ATOM     47  N   UNL A   1      41.493  26.938  28.860  1.00  0.00    -0.354 N 
ATOM     48  C   UNL A   1      42.426  30.584  30.792  1.00  0.00     0.074 A 
ATOM     49  C   UNL A   1      41.369  31.604  30.792  1.00  0.00     0.031 C 
ATOM     50  C   UNL A   1      40.146  25.497  27.775  1.00  0.00     0.029 A 
ATOM     51  C   UNL A   1      41.441  25.684  28.294  1.00  0.00     0.049 A 
ATOM     52  H   UNL A   1      42.273  27.337  29.311  1.00  0.00     0.167 HD
ATOM     53  C   UNL A   1      43.686  30.759  31.367  1.00  0.00     0.031 A 
ATOM     54  C   UNL A   1      42.456  24.742  28.221  1.00  0.00     0.031 A 
ATOM     55  C   UNL A   1      44.687  29.801  31.333  1.00  0.00     0.049 A 
ATOM     56  C   UNL A   1      43.736  24.940  28.746  1.00  0.00     0.074 A 
ATOM     57  C   UNL A   1      45.959  29.958  31.915  1.00  0.00     0.029 A 
ATOM     58  N   UNL A   1      44.642  28.556  30.744  1.00  0.00    -0.354 N 
ATOM     59  N   UNL A   1      44.183  26.007  29.410  1.00  0.00    -0.248 NA
ATOM     60  C   UNL A   1      44.827  23.964  28.646  1.00  0.00     0.031 C 
ATOM     61  C   UNL A   1      46.676  28.829  31.673  1.00  0.00     0.029 A 
ATOM     62  C   UNL A   1      45.863  27.947  30.935  1.00  0.00     0.049 A 
ATOM     63  H   UNL A   1      43.872  28.170  30.270  1.00  0.00     0.167 HD
ATOM     64  C   UNL A   1      45.454  25.822  29.773  1.00  0.00     0.074 A 
ATOM     65  C   UNL A   1      45.889  24.508  29.280  1.00  0.00     0.031 C 
ATOM     66  C   UNL A   1      46.267  26.696  30.497  1.00  0.00     0.031 A 
BRANCH  53  67
ATOM     67  C   UNL A   1      43.975  32.075  32.073  1.00  0.00    -0.014 A 
ATOM     68  C   UNL A   1      43.685  32.232  33.418  1.00  0.00     0.009 A 
ATOM     69  C   UNL A   1      44.498  33.065  31.359  1.00  0.00     0.009 A 
ATOM     70  C   UNL A   1      43.715  33.577  33.856  1.00  0.00     0.001 A 
ATOM     71  C   UNL A   1      44.623  34.323  31.896  1.00  0.00     0.001 A 
ATOM     72  C   UNL A   1      44.299  34.566  33.203  1.00  0.00     0.000 A 
ENDBRANCH  53  67
BRANCH  54  73
ATOM     73  C   UNL A   1      42.160  23.421  27.531  1.00  0.00    -0.014 A 
ATOM     74  C   UNL A   1      41.620  22.395  28.288  1.00  0.00     0.009 A 
ATOM     75  C   UNL A   1      42.411  23.264  26.236  1.00  0.00     0.009 A 
ATOM     76  C   UNL A   1      41.646  21.134  27.647  1.00  0.00     0.001 A 
ATOM     77  C   UNL A   1      42.286  22.030  25.645  1.00  0.00     0.001 A 
ATOM     78  C   UNL A   1      41.813  20.958  26.349  1.00  0.00     0.000 A 
ENDBRANCH  54  73
BRANCH  66  79
ATOM     79  C   UNL A   1      47.681  26.246  30.828  1.00  0.00    -0.014 A 
ATOM     80  C   UNL A   1      48.669  26.347  29.862  1.00  0.00     0.009 A 
ATOM     81  C   UNL A   1      47.946  25.763  32.036  1.00  0.00     0.009 A 
ATOM     82  C   UNL A   1      49.852  25.639  30.177  1.00  0.00     0.001 A 
ATOM     83  C   UNL A   1      49.171  25.207  32.314  1.00  0.00     0.001 A 
ATOM     84  C   UNL A   1      50.176  25.220  31.387  1.00  0.00     0.000 A 
ENDBRANCH  66  79
ENDBRANCH  40  41
ENDBRANCH  32  35
ENDBRANCH  30  31
ENDBRANCH   1  30
TORSDOF 14
ENDMDL
MODEL 3
REMARK VINA RESULT:     -12.1      3.365      8.218
REMARK SMILES CCCc1cc(S(F)(F)(F)(F)F)cc2c1O[C@@H](C(F)(F)F)C(C(=O)NCCCNC(=O)c1ccc(-c3c4nc(c(-c5ccccc5)c5ccc([nH]5)c(-c5ccccc5)c5nc(c(-c6ccccc6)c6ccc3[nH]6)C=C5)C=C4)cc1)=C2
REMARK SMILES IDX 27 1 26 2 25 3 23 4 24 5 22 7 4 8 5 9 15 10 6 11 14 12 16 13
REMARK SMILES IDX 13 14 80 15 17 16 3 17 2 18 1 19 7 20 8 21 9 22 10 23 11 24
REMARK SMILES IDX 12 25 18 26 19 27 20 28 21 29 28 30 29 31 30 32 31 34 32 35
REMARK SMILES IDX 33 36 79 37 34 38 78 39 35 40 36 41 37 42 72 43 38 44 77 45
REMARK SMILES IDX 71 46 73 47 39 48 76 49 70 50 69 51 40 53 62 54 47 55 61 56
REMARK SMILES IDX 48 57 51 58 60 59 74 60 49 61 50 62 59 64 75 65 52 66 41 67
REMARK SMILES IDX 42 68 46 69 43 70 45 71 44 72 63 73 64 74 68 75 65 76 67 77
REMARK SMILES IDX 66 78 53 79 54 80 58 81 55 82 57 83 56 84
REMARK H PARENT 25 6 29 33 73 52 51 63
REMARK Flexibility Score: inf
ROOT
ATOM      1  C   UNL A   1      35.932  23.841  26.130  1.00  0.00     0.042 C 
ENDROOT
BRANCH   1   2
ATOM      2  C   UNL A   1      34.654  23.445  25.409  1.00  0.00     0.118 C 
BRANCH   2   3
ATOM      3  N   UNL A   1      33.777  22.712  26.333  1.00  0.00    -0.352 N 
ATOM      4  C   UNL A   1      32.450  23.250  26.669  1.00  0.00     0.251 C 
ATOM      5  O   UNL A   1      31.692  22.616  27.468  1.00  0.00    -0.270 OA
ATOM      6  H   UNL A   1      34.078  21.862  26.727  1.00  0.00     0.163 HD
BRANCH   4   7
ATOM      7  C   UNL A   1      31.986  24.563  26.061  1.00  0.00     0.067 C 
ATOM      8  C   UNL A   1      31.049  28.083  24.016  1.00  0.00    -0.004 A 
ATOM      9  C   UNL A   1      31.354  29.309  24.577  1.00  0.00     0.032 A 
ATOM     10  C   UNL A   1      31.416  26.940  24.685  1.00  0.00     0.131 A 
ATOM     11  C   UNL A   1      32.014  29.391  25.775  1.00  0.00     0.108 A 
ATOM     12  C   UNL A   1      32.067  26.984  25.905  1.00  0.00     0.019 A 
ATOM     13  O   UNL A   1      31.208  25.734  24.063  1.00  0.00    -0.475 OA
ATOM     14  C   UNL A   1      32.363  28.234  26.439  1.00  0.00     0.036 A 
ATOM     15  C   UNL A   1      32.449  25.722  26.515  1.00  0.00     0.025 C 
ATOM     16  C   UNL A   1      30.981  24.577  24.917  1.00  0.00     0.314 C 
BRANCH   8  17
ATOM     17  C   UNL A   1      30.322  27.999  22.683  1.00  0.00     0.039 C 
BRANCH  17  18
ATOM     18  C   UNL A   1      29.286  29.110  22.602  1.00  0.00     0.001 C 
ATOM     19  C   UNL A   1      27.926  28.563  23.005  1.00  0.00     0.004 C 
ENDBRANCH  17  18
ENDBRANCH   8  17
BRANCH  11  20
ATOM     20  S   UNL A   1      32.426  31.006  26.482  1.00  0.00     0.310 S 
ATOM     21  F   UNL A   1      32.369  30.306  27.904  1.00  0.00    -0.094 F 
ATOM     22  F   UNL A   1      30.904  31.363  26.673  1.00  0.00    -0.094 F 
ATOM     23  F   UNL A   1      32.852  32.312  27.209  1.00  0.00    -0.094 F 
ATOM     24  F   UNL A   1      33.941  30.564  26.406  1.00  0.00    -0.094 F 
ATOM     25  F   UNL A   1      32.006  29.623  25.843  1.00  0.00    -0.094 F 
ENDBRANCH  11  20
BRANCH  16  26
ATOM     26  C   UNL A   1      31.148  23.312  24.093  1.00  0.00     0.429 C 
ATOM     27  F   UNL A   1      30.904  22.251  24.856  1.00  0.00    -0.167 F 
ATOM     28  F   UNL A   1      30.294  23.331  23.074  1.00  0.00    -0.167 F 
ATOM     29  F   UNL A   1      32.392  23.247  23.629  1.00  0.00    -0.167 F 
ENDBRANCH  16  26
ENDBRANCH   4   7
ENDBRANCH   2   3
ENDBRANCH   1   2
BRANCH   1  30
ATOM     30  C   UNL A   1      37.091  23.832  25.147  1.00  0.00     0.118 C 
BRANCH  30  31
ATOM     31  N   UNL A   1      37.912  22.632  25.368  1.00  0.00    -0.352 N 
ATOM     32  C   UNL A   1      39.122  22.712  26.199  1.00  0.00     0.251 C 
ATOM     33  H   UNL A   1      37.650  21.775  24.959  1.00  0.00     0.163 HD
ATOM     34  O   UNL A   1      39.831  21.674  26.391  1.00  0.00    -0.269 OA
BRANCH  32  35
ATOM     35  C   UNL A   1      39.525  24.033  26.831  1.00  0.00     0.039 A 
ATOM     36  C   UNL A   1      39.194  24.284  28.153  1.00  0.00     0.014 A 
ATOM     37  C   UNL A   1      40.191  24.926  26.106  1.00  0.00     0.014 A 
ATOM     38  C   UNL A   1      39.356  25.636  28.537  1.00  0.00     0.010 A 
ATOM     39  C   UNL A   1      40.433  26.186  26.599  1.00  0.00     0.010 A 
ATOM     40  C   UNL A   1      40.080  26.521  27.876  1.00  0.00    -0.014 A 
BRANCH  40  41
ATOM     41  C   UNL A   1      40.495  27.843  28.501  1.00  0.00     0.031 A 
ATOM     42  C   UNL A   1      39.528  28.841  28.629  1.00  0.00     0.074 A 
ATOM     43  C   UNL A   1      41.811  27.984  28.907  1.00  0.00     0.049 A 
ATOM     44  N   UNL A   1      39.673  30.049  29.174  1.00  0.00    -0.248 NA
ATOM     45  C   UNL A   1      38.139  28.706  28.167  1.00  0.00     0.031 C 
ATOM     46  C   UNL A   1      42.791  26.979  28.789  1.00  0.00     0.029 A 
ATOM     47  N   UNL A   1      42.405  29.086  29.484  1.00  0.00    -0.354 N 
ATOM     48  C   UNL A   1      38.517  30.716  29.133  1.00  0.00     0.074 A 
ATOM     49  C   UNL A   1      37.516  29.863  28.479  1.00  0.00     0.031 C 
ATOM     50  C   UNL A   1      43.961  27.472  29.275  1.00  0.00     0.029 A 
ATOM     51  C   UNL A   1      43.731  28.792  29.708  1.00  0.00     0.049 A 
ATOM     52  H   UNL A   1      41.957  29.936  29.699  1.00  0.00     0.167 HD
ATOM     53  C   UNL A   1      38.259  32.000  29.616  1.00  0.00     0.031 A 
ATOM     54  C   UNL A   1      44.703  29.615  30.255  1.00  0.00     0.031 A 
ATOM     55  C   UNL A   1      39.220  32.808  30.202  1.00  0.00     0.049 A 
ATOM     56  C   UNL A   1      44.458  30.922  30.685  1.00  0.00     0.074 A 
ATOM     57  C   UNL A   1      38.975  34.101  30.702  1.00  0.00     0.029 A 
ATOM     58  N   UNL A   1      40.553  32.523  30.403  1.00  0.00    -0.354 N 
ATOM     59  N   UNL A   1      43.294  31.573  30.679  1.00  0.00    -0.248 NA
ATOM     60  C   UNL A   1      45.486  31.814  31.236  1.00  0.00     0.031 C 
ATOM     61  C   UNL A   1      40.145  34.594  31.188  1.00  0.00     0.029 A 
ATOM     62  C   UNL A   1      41.141  33.615  31.001  1.00  0.00     0.049 A 
ATOM     63  H   UNL A   1      41.006  31.683  30.162  1.00  0.00     0.167 HD
ATOM     64  C   UNL A   1      43.449  32.798  31.187  1.00  0.00     0.074 A 
ATOM     65  C   UNL A   1      44.863  32.973  31.545  1.00  0.00     0.031 C 
ATOM     66  C   UNL A   1      42.468  33.774  31.368  1.00  0.00     0.031 A 
BRANCH  53  67
ATOM     67  C   UNL A   1      36.844  32.542  29.492  1.00  0.00    -0.014 A 
ATOM     68  C   UNL A   1      36.486  33.340  28.419  1.00  0.00     0.009 A 
ATOM     69  C   UNL A   1      35.973  32.239  30.448  1.00  0.00     0.009 A 
ATOM     70  C   UNL A   1      35.254  34.014  28.592  1.00  0.00     0.001 A 
ATOM     71  C   UNL A   1      34.735  32.835  30.480  1.00  0.00     0.001 A 
ATOM     72  C   UNL A   1      34.336  33.681  29.482  1.00  0.00     0.000 A 
ENDBRANCH  53  67
BRANCH  54  73
ATOM     73  C   UNL A   1      46.113  29.067  30.394  1.00  0.00    -0.014 A 
ATOM     74  C   UNL A   1      46.988  29.238  29.334  1.00  0.00     0.009 A 
ATOM     75  C   UNL A   1      46.491  28.446  31.506  1.00  0.00     0.009 A 
ATOM     76  C   UNL A   1      48.165  28.459  29.431  1.00  0.00     0.001 A 
ATOM     77  C   UNL A   1      47.711  27.820  31.577  1.00  0.00     0.001 A 
ATOM     78  C   UNL A   1      48.603  27.899  30.544  1.00  0.00     0.000 A 
ENDBRANCH  54  73
BRANCH  66  79
ATOM     79  C   UNL A   1      42.880  35.090  32.009  1.00  0.00    -0.014 A 
ATOM     80  C   UNL A   1      43.418  36.091  31.217  1.00  0.00     0.009 A 
ATOM     81  C   UNL A   1      42.718  35.257  33.315  1.00  0.00     0.009 A 
ATOM     82  C   UNL A   1      44.026  37.136  31.950  1.00  0.00     0.001 A 
ATOM     83  C   UNL A   1      43.220  36.369  33.945  1.00  0.00     0.001 A 
ATOM     84  C   UNL A   1      43.817  37.373  33.233  1.00  0.00     0.000 A 
ENDBRANCH  66  79
ENDBRANCH  40  41
ENDBRANCH  32  35
ENDBRANCH  30  31
ENDBRANCH   1  30
TORSDOF 14
ENDMDL
