MODEL 1
REMARK VINA RESULT:     -11.8      0.000      0.000
REMARK SMILES CCCc1cc2c(cc1Cl)C=C(C(=O)NCCCNC(=O)c1ccc(-c3c4nc(c(-c5ccccc5)c5ccc([nH]5)c(-c5ccccc5)c5nc(c(-c6ccccc6)c6ccc3[nH]6)C=C5)C=C4)cc1)[C@@H](C(F)(F)F)O2
REMARK SMILES IDX 17 1 16 2 15 3 13 4 14 5 12 7 4 8 5 9 9 10 6 11 8 12 10 13
REMARK SMILES IDX 7 14 75 15 11 16 70 17 3 18 2 19 1 20 71 21 72 22 73 23
REMARK SMILES IDX 74 24 18 25 19 26 20 27 21 29 22 30 23 31 69 32 24 33 68 34
REMARK SMILES IDX 25 35 26 36 27 37 62 38 28 39 67 40 61 41 63 42 29 43 66 44
REMARK SMILES IDX 60 45 59 46 30 48 52 49 37 50 51 51 38 52 41 53 50 54 64 55
REMARK SMILES IDX 39 56 40 57 49 59 65 60 42 61 31 62 32 63 36 64 33 65 35 66
REMARK SMILES IDX 34 67 53 68 54 69 58 70 55 71 57 72 56 73 43 74 44 75 48 76
REMARK SMILES IDX 45 77 47 78 46 79
REMARK H PARENT 15 6 19 28 63 47 41 58
REMARK Flexibility Score: inf
ROOT
ATOM      1  C   UNL A   1      37.785  19.985  24.796  1.00  0.00     0.042 C 
ENDROOT
BRANCH   1   2
ATOM      2  C   UNL A   1      36.464  20.680  25.088  1.00  0.00     0.118 C 
BRANCH   2   3
ATOM      3  N   UNL A   1      35.336  19.769  24.965  1.00  0.00    -0.352 N 
ATOM      4  C   UNL A   1      33.986  19.858  24.928  1.00  0.00     0.251 C 
ATOM      5  O   UNL A   1      33.397  18.775  24.843  1.00  0.00    -0.270 OA
ATOM      6  H   UNL A   1      35.636  18.835  24.885  1.00  0.00     0.163 HD
BRANCH   4   7
ATOM      7  C   UNL A   1      33.203  21.126  24.982  1.00  0.00     0.067 C 
ATOM      8  C   UNL A   1      31.017  25.519  23.741  1.00  0.00    -0.026 A 
ATOM      9  C   UNL A   1      30.993  24.686  24.874  1.00  0.00     0.052 A 
ATOM     10  C   UNL A   1      31.752  25.095  22.622  1.00  0.00     0.045 A 
ATOM     11  C   UNL A   1      31.694  23.481  24.891  1.00  0.00     0.128 A 
ATOM     12  C   UNL A   1      32.465  23.891  22.651  1.00  0.00     0.032 A 
ATOM     13  Cl  UNL A   1      31.805  26.007  21.156  1.00  0.00    -0.084 Cl
ATOM     14  C   UNL A   1      32.440  23.081  23.788  1.00  0.00     0.019 A 
ATOM     15  O   UNL A   1      31.558  22.715  26.011  1.00  0.00    -0.475 OA
ATOM     16  C   UNL A   1      33.152  21.813  23.826  1.00  0.00     0.025 C 
ATOM     17  C   UNL A   1      32.538  21.660  26.220  1.00  0.00     0.314 C 
BRANCH   8  18
ATOM     18  C   UNL A   1      30.257  26.825  23.799  1.00  0.00     0.037 C 
BRANCH  18  19
ATOM     19  C   UNL A   1      31.027  27.955  24.494  1.00  0.00     0.001 C 
ATOM     20  C   UNL A   1      30.680  29.343  23.975  1.00  0.00     0.004 C 
ENDBRANCH  18  19
ENDBRANCH   8  18
BRANCH  17  21
ATOM     21  C   UNL A   1      33.536  22.136  27.291  1.00  0.00     0.429 C 
ATOM     22  F   UNL A   1      32.869  22.600  28.380  1.00  0.00    -0.167 F 
ATOM     23  F   UNL A   1      34.346  21.148  27.735  1.00  0.00    -0.167 F 
ATOM     24  F   UNL A   1      34.336  23.132  26.851  1.00  0.00    -0.167 F 
ENDBRANCH  17  21
ENDBRANCH   4   7
ENDBRANCH   2   3
ENDBRANCH   1   2
BRANCH   1  25
ATOM     25  C   UNL A   1      38.888  20.400  25.761  1.00  0.00     0.118 C 
BRANCH  25  26
ATOM     26  N   UNL A   1      39.968  19.416  25.826  1.00  0.00    -0.352 N 
ATOM     27  C   UNL A   1      41.307  19.572  26.092  1.00  0.00     0.251 C 
ATOM     28  H   UNL A   1      39.689  18.488  25.653  1.00  0.00     0.163 HD
ATOM     29  O   UNL A   1      42.086  18.648  25.873  1.00  0.00    -0.269 OA
BRANCH  27  30
ATOM     30  C   UNL A   1      41.815  20.855  26.617  1.00  0.00     0.039 A 
ATOM     31  C   UNL A   1      41.887  21.073  27.992  1.00  0.00     0.014 A 
ATOM     32  C   UNL A   1      42.232  21.853  25.730  1.00  0.00     0.014 A 
ATOM     33  C   UNL A   1      42.165  22.343  28.472  1.00  0.00     0.010 A 
ATOM     34  C   UNL A   1      42.630  23.100  26.224  1.00  0.00     0.010 A 
ATOM     35  C   UNL A   1      42.547  23.373  27.596  1.00  0.00    -0.014 A 
BRANCH  35  36
ATOM     36  C   UNL A   1      42.858  24.711  28.163  1.00  0.00     0.031 A 
ATOM     37  C   UNL A   1      44.281  25.160  28.355  1.00  0.00     0.074 A 
ATOM     38  C   UNL A   1      41.842  25.560  28.413  1.00  0.00     0.049 A 
ATOM     39  N   UNL A   1      44.725  26.325  28.756  1.00  0.00    -0.248 NA
ATOM     40  C   UNL A   1      45.345  24.185  28.067  1.00  0.00     0.031 C 
ATOM     41  C   UNL A   1      40.421  25.241  28.249  1.00  0.00     0.029 A 
ATOM     42  N   UNL A   1      41.842  26.874  28.804  1.00  0.00    -0.354 N 
ATOM     43  C   UNL A   1      46.109  26.215  28.790  1.00  0.00     0.074 A 
ATOM     44  C   UNL A   1      46.436  24.864  28.394  1.00  0.00     0.031 C 
ATOM     45  C   UNL A   1      39.696  26.350  28.444  1.00  0.00     0.029 A 
ATOM     46  C   UNL A   1      40.590  27.438  28.826  1.00  0.00     0.049 A 
ATOM     47  H   UNL A   1      42.661  27.366  29.044  1.00  0.00     0.167 HD
ATOM     48  C   UNL A   1      47.024  27.159  29.115  1.00  0.00     0.031 A 
ATOM     49  C   UNL A   1      40.194  28.690  29.124  1.00  0.00     0.031 A 
ATOM     50  C   UNL A   1      46.695  28.508  29.492  1.00  0.00     0.049 A 
ATOM     51  C   UNL A   1      41.227  29.707  29.507  1.00  0.00     0.074 A 
ATOM     52  C   UNL A   1      47.557  29.540  29.824  1.00  0.00     0.029 A 
ATOM     53  N   UNL A   1      45.409  29.015  29.580  1.00  0.00    -0.354 N 
ATOM     54  N   UNL A   1      42.531  29.583  29.538  1.00  0.00    -0.248 NA
ATOM     55  C   UNL A   1      40.736  31.033  29.908  1.00  0.00     0.031 C 
ATOM     56  C   UNL A   1      46.789  30.656  30.166  1.00  0.00     0.029 A 
ATOM     57  C   UNL A   1      45.452  30.338  29.986  1.00  0.00     0.049 A 
ATOM     58  H   UNL A   1      44.587  28.510  29.385  1.00  0.00     0.167 HD
ATOM     59  C   UNL A   1      43.018  30.812  29.959  1.00  0.00     0.074 A 
ATOM     60  C   UNL A   1      41.871  31.677  30.143  1.00  0.00     0.031 C 
ATOM     61  C   UNL A   1      44.302  31.184  30.178  1.00  0.00     0.031 A 
BRANCH  48  62
ATOM     62  C   UNL A   1      48.477  26.771  29.098  1.00  0.00    -0.014 A 
ATOM     63  C   UNL A   1      49.233  26.964  27.931  1.00  0.00     0.009 A 
ATOM     64  C   UNL A   1      49.074  26.134  30.196  1.00  0.00     0.009 A 
ATOM     65  C   UNL A   1      50.553  26.516  27.858  1.00  0.00     0.001 A 
ATOM     66  C   UNL A   1      50.404  25.710  30.130  1.00  0.00     0.001 A 
ATOM     67  C   UNL A   1      51.139  25.894  28.958  1.00  0.00     0.000 A 
ENDBRANCH  48  62
BRANCH  49  68
ATOM     68  C   UNL A   1      38.749  29.032  29.062  1.00  0.00    -0.014 A 
ATOM     69  C   UNL A   1      38.176  29.493  27.864  1.00  0.00     0.009 A 
ATOM     70  C   UNL A   1      37.950  28.965  30.212  1.00  0.00     0.009 A 
ATOM     71  C   UNL A   1      36.846  29.911  27.827  1.00  0.00     0.001 A 
ATOM     72  C   UNL A   1      36.609  29.353  30.164  1.00  0.00     0.001 A 
ATOM     73  C   UNL A   1      36.062  29.837  28.976  1.00  0.00     0.000 A 
ENDBRANCH  49  68
BRANCH  61  74
ATOM     74  C   UNL A   1      44.547  32.589  30.647  1.00  0.00    -0.014 A 
ATOM     75  C   UNL A   1      44.777  33.608  29.707  1.00  0.00     0.009 A 
ATOM     76  C   UNL A   1      44.643  32.887  32.014  1.00  0.00     0.009 A 
ATOM     77  C   UNL A   1      45.111  34.895  30.129  1.00  0.00     0.001 A 
ATOM     78  C   UNL A   1      44.949  34.182  32.433  1.00  0.00     0.001 A 
ATOM     79  C   UNL A   1      45.192  35.182  31.491  1.00  0.00     0.000 A 
ENDBRANCH  61  74
ENDBRANCH  35  36
ENDBRANCH  27  30
ENDBRANCH  25  26
ENDBRANCH   1  25
TORSDOF 13
ENDMDL
MODEL 2
REMARK VINA RESULT:     -11.8      1.657      2.127
REMARK SMILES CCCc1cc2c(cc1Cl)C=C(C(=O)NCCCNC(=O)c1ccc(-c3c4nc(c(-c5ccccc5)c5ccc([nH]5)c(-c5ccccc5)c5nc(c(-c6ccccc6)c6ccc3[nH]6)C=C5)C=C4)cc1)[C@@H](C(F)(F)F)O2
REMARK SMILES IDX 17 1 16 2 15 3 13 4 14 5 12 7 4 8 5 9 9 10 6 11 8 12 10 13
REMARK SMILES IDX 7 14 75 15 11 16 70 17 3 18 2 19 1 20 71 21 72 22 73 23
REMARK SMILES IDX 74 24 18 25 19 26 20 27 21 29 22 30 23 31 69 32 24 33 68 34
REMARK SMILES IDX 25 35 26 36 27 37 62 38 28 39 67 40 61 41 63 42 29 43 66 44
REMARK SMILES IDX 60 45 59 46 30 48 52 49 37 50 51 51 38 52 41 53 50 54 64 55
REMARK SMILES IDX 39 56 40 57 49 59 65 60 42 61 31 62 32 63 36 64 33 65 35 66
REMARK SMILES IDX 34 67 53 68 54 69 58 70 55 71 57 72 56 73 43 74 44 75 48 76
REMARK SMILES IDX 45 77 47 78 46 79
REMARK H PARENT 15 6 19 28 63 47 41 58
REMARK Flexibility Score: inf
ROOT
ATOM      1  C   UNL A   1      37.981  19.682  25.003  1.00  0.00     0.042 C 
ENDROOT
BRANCH   1   2
ATOM      2  C   UNL A   1      36.997  20.779  24.625  1.00  0.00     0.118 C 
BRANCH   2   3
ATOM      3  N   UNL A   1      35.799  20.737  25.449  1.00  0.00    -0.352 N 
ATOM      4  C   UNL A   1      34.700  21.502  25.646  1.00  0.00     0.251 C 
ATOM      5  O   UNL A   1      33.921  21.080  26.507  1.00  0.00    -0.270 OA
ATOM      6  H   UNL A   1      35.782  19.933  26.017  1.00  0.00     0.163 HD
BRANCH   4   7
ATOM      7  C   UNL A   1      34.387  22.767  24.919  1.00  0.00     0.067 C 
ATOM      8  C   UNL A   1      33.421  27.616  23.842  1.00  0.00    -0.026 A 
ATOM      9  C   UNL A   1      33.602  26.450  23.078  1.00  0.00     0.052 A 
ATOM     10  C   UNL A   1      33.571  27.526  25.236  1.00  0.00     0.045 A 
ATOM     11  C   UNL A   1      33.907  25.234  23.690  1.00  0.00     0.128 A 
ATOM     12  C   UNL A   1      33.862  26.300  25.845  1.00  0.00     0.032 A 
ATOM     13  Cl  UNL A   1      33.430  28.904  26.268  1.00  0.00    -0.084 Cl
ATOM     14  C   UNL A   1      34.029  25.149  25.072  1.00  0.00     0.019 A 
ATOM     15  O   UNL A   1      34.125  24.175  22.860  1.00  0.00    -0.475 OA
ATOM     16  C   UNL A   1      34.359  23.872  25.685  1.00  0.00     0.025 C 
ATOM     17  C   UNL A   1      34.078  22.845  23.449  1.00  0.00     0.314 C 
BRANCH   8  18
ATOM     18  C   UNL A   1      33.065  28.895  23.119  1.00  0.00     0.037 C 
BRANCH  18  19
ATOM     19  C   UNL A   1      31.591  28.979  22.703  1.00  0.00     0.001 C 
ATOM     20  C   UNL A   1      30.646  29.286  23.855  1.00  0.00     0.004 C 
ENDBRANCH  18  19
ENDBRANCH   8  18
BRANCH  17  21
ATOM     21  C   UNL A   1      32.730  22.201  23.075  1.00  0.00     0.429 C 
ATOM     22  F   UNL A   1      32.548  22.246  21.730  1.00  0.00    -0.167 F 
ATOM     23  F   UNL A   1      32.653  20.896  23.425  1.00  0.00    -0.167 F 
ATOM     24  F   UNL A   1      31.678  22.825  23.648  1.00  0.00    -0.167 F 
ENDBRANCH  17  21
ENDBRANCH   4   7
ENDBRANCH   2   3
ENDBRANCH   1   2
BRANCH   1  25
ATOM     25  C   UNL A   1      39.176  20.214  25.784  1.00  0.00     0.118 C 
BRANCH  25  26
ATOM     26  N   UNL A   1      40.276  19.253  25.838  1.00  0.00    -0.352 N 
ATOM     27  C   UNL A   1      41.616  19.439  26.080  1.00  0.00     0.251 C 
ATOM     28  H   UNL A   1      40.013  18.318  25.676  1.00  0.00     0.163 HD
ATOM     29  O   UNL A   1      42.410  18.529  25.855  1.00  0.00    -0.269 OA
BRANCH  27  30
ATOM     30  C   UNL A   1      42.106  20.736  26.589  1.00  0.00     0.039 A 
ATOM     31  C   UNL A   1      42.256  20.942  27.958  1.00  0.00     0.014 A 
ATOM     32  C   UNL A   1      42.427  21.758  25.689  1.00  0.00     0.014 A 
ATOM     33  C   UNL A   1      42.515  22.217  28.436  1.00  0.00     0.010 A 
ATOM     34  C   UNL A   1      42.807  23.015  26.172  1.00  0.00     0.010 A 
ATOM     35  C   UNL A   1      42.800  23.270  27.550  1.00  0.00    -0.014 A 
BRANCH  35  36
ATOM     36  C   UNL A   1      43.095  24.614  28.112  1.00  0.00     0.031 A 
ATOM     37  C   UNL A   1      44.512  25.084  28.298  1.00  0.00     0.074 A 
ATOM     38  C   UNL A   1      42.067  25.449  28.365  1.00  0.00     0.049 A 
ATOM     39  N   UNL A   1      44.940  26.256  28.695  1.00  0.00    -0.248 NA
ATOM     40  C   UNL A   1      45.588  24.123  28.008  1.00  0.00     0.031 C 
ATOM     41  C   UNL A   1      40.650  25.110  28.207  1.00  0.00     0.029 A 
ATOM     42  N   UNL A   1      42.051  26.765  28.753  1.00  0.00    -0.354 N 
ATOM     43  C   UNL A   1      46.326  26.166  28.724  1.00  0.00     0.074 A 
ATOM     44  C   UNL A   1      46.671  24.819  28.330  1.00  0.00     0.031 C 
ATOM     45  C   UNL A   1      39.910  26.209  28.402  1.00  0.00     0.029 A 
ATOM     46  C   UNL A   1      40.790  27.311  28.777  1.00  0.00     0.049 A 
ATOM     47  H   UNL A   1      42.863  27.269  28.988  1.00  0.00     0.167 HD
ATOM     48  C   UNL A   1      47.228  27.123  29.043  1.00  0.00     0.031 A 
ATOM     49  C   UNL A   1      40.378  28.557  29.074  1.00  0.00     0.031 A 
ATOM     50  C   UNL A   1      46.882  28.469  29.418  1.00  0.00     0.049 A 
ATOM     51  C   UNL A   1      41.397  29.590  29.451  1.00  0.00     0.074 A 
ATOM     52  C   UNL A   1      47.730  29.514  29.744  1.00  0.00     0.029 A 
ATOM     53  N   UNL A   1      45.589  28.958  29.510  1.00  0.00    -0.354 N 
ATOM     54  N   UNL A   1      42.703  29.484  29.477  1.00  0.00    -0.248 NA
ATOM     55  C   UNL A   1      40.889  30.910  29.851  1.00  0.00     0.031 C 
ATOM     56  C   UNL A   1      46.948  30.619  30.086  1.00  0.00     0.029 A 
ATOM     57  C   UNL A   1      45.615  30.282  29.912  1.00  0.00     0.049 A 
ATOM     58  H   UNL A   1      44.773  28.440  29.319  1.00  0.00     0.167 HD
ATOM     59  C   UNL A   1      43.174  30.721  29.893  1.00  0.00     0.074 A 
ATOM     60  C   UNL A   1      42.016  31.571  30.080  1.00  0.00     0.031 C 
ATOM     61  C   UNL A   1      44.454  31.112  30.106  1.00  0.00     0.031 A 
BRANCH  48  62
ATOM     62  C   UNL A   1      48.687  26.757  29.022  1.00  0.00    -0.014 A 
ATOM     63  C   UNL A   1      49.289  26.234  30.178  1.00  0.00     0.009 A 
ATOM     64  C   UNL A   1      49.486  27.012  27.898  1.00  0.00     0.009 A 
ATOM     65  C   UNL A   1      50.662  25.985  30.214  1.00  0.00     0.001 A 
ATOM     66  C   UNL A   1      50.856  26.737  27.927  1.00  0.00     0.001 A 
ATOM     67  C   UNL A   1      51.444  26.233  29.088  1.00  0.00     0.000 A 
ENDBRANCH  48  62
BRANCH  49  68
ATOM     68  C   UNL A   1      38.928  28.879  29.016  1.00  0.00    -0.014 A 
ATOM     69  C   UNL A   1      38.338  29.298  27.812  1.00  0.00     0.009 A 
ATOM     70  C   UNL A   1      38.141  28.834  30.176  1.00  0.00     0.009 A 
ATOM     71  C   UNL A   1      37.001  29.697  27.776  1.00  0.00     0.001 A 
ATOM     72  C   UNL A   1      36.794  29.204  30.130  1.00  0.00     0.001 A 
ATOM     73  C   UNL A   1      36.229  29.646  28.935  1.00  0.00     0.000 A 
ENDBRANCH  49  68
BRANCH  61  74
ATOM     74  C   UNL A   1      44.681  32.522  30.571  1.00  0.00    -0.014 A 
ATOM     75  C   UNL A   1      44.670  32.814  31.944  1.00  0.00     0.009 A 
ATOM     76  C   UNL A   1      44.813  33.572  29.650  1.00  0.00     0.009 A 
ATOM     77  C   UNL A   1      44.774  34.133  32.386  1.00  0.00     0.001 A 
ATOM     78  C   UNL A   1      44.944  34.888  30.097  1.00  0.00     0.001 A 
ATOM     79  C   UNL A   1      44.915  35.168  31.462  1.00  0.00     0.000 A 
ENDBRANCH  61  74
ENDBRANCH  35  36
ENDBRANCH  27  30
ENDBRANCH  25  26
ENDBRANCH   1  25
TORSDOF 13
ENDMDL
MODEL 3
REMARK VINA RESULT:     -11.7      1.667      6.245
REMARK SMILES CCCc1cc2c(cc1Cl)C=C(C(=O)NCCCNC(=O)c1ccc(-c3c4nc(c(-c5ccccc5)c5ccc([nH]5)c(-c5ccccc5)c5nc(c(-c6ccccc6)c6ccc3[nH]6)C=C5)C=C4)cc1)[C@@H](C(F)(F)F)O2
REMARK SMILES IDX 17 1 16 2 15 3 13 4 14 5 12 7 4 8 5 9 9 10 6 11 8 12 10 13
REMARK SMILES IDX 7 14 75 15 11 16 70 17 3 18 2 19 1 20 71 21 72 22 73 23
REMARK SMILES IDX 74 24 18 25 19 26 20 27 21 29 22 30 23 31 69 32 24 33 68 34
REMARK SMILES IDX 25 35 26 36 27 37 62 38 28 39 67 40 61 41 63 42 29 43 66 44
REMARK SMILES IDX 60 45 59 46 30 48 52 49 37 50 51 51 38 52 41 53 50 54 64 55
REMARK SMILES IDX 39 56 40 57 49 59 65 60 42 61 31 62 32 63 36 64 33 65 35 66
REMARK SMILES IDX 34 67 53 68 54 69 58 70 55 71 57 72 56 73 43 74 44 75 48 76
REMARK SMILES IDX 45 77 47 78 46 79
REMARK H PARENT 15 6 19 28 63 47 41 58
REMARK Flexibility Score: inf
ROOT
ATOM      1  C   UNL A   1      38.038  19.720  25.001  1.00  0.00     0.042 C 
ENDROOT
BRANCH   1   2
ATOM      2  C   UNL A   1      37.007  20.765  24.602  1.00  0.00     0.118 C 
BRANCH   2   3
ATOM      3  N   UNL A   1      35.862  20.766  25.501  1.00  0.00    -0.352 N 
ATOM      4  C   UNL A   1      34.787  21.550  25.740  1.00  0.00     0.251 C 
ATOM      5  O   UNL A   1      34.059  21.167  26.662  1.00  0.00    -0.270 OA
ATOM      6  H   UNL A   1      35.873  19.981  26.095  1.00  0.00     0.163 HD
BRANCH   4   7
ATOM      7  C   UNL A   1      34.443  22.795  24.992  1.00  0.00     0.067 C 
ATOM      8  C   UNL A   1      33.445  27.616  23.821  1.00  0.00    -0.026 A 
ATOM      9  C   UNL A   1      33.581  26.426  23.085  1.00  0.00     0.052 A 
ATOM     10  C   UNL A   1      33.666  27.567  25.207  1.00  0.00     0.045 A 
ATOM     11  C   UNL A   1      33.911  25.227  23.716  1.00  0.00     0.128 A 
ATOM     12  C   UNL A   1      33.983  26.358  25.837  1.00  0.00     0.032 A 
ATOM     13  Cl  UNL A   1      33.586  28.976  26.203  1.00  0.00    -0.084 Cl
ATOM     14  C   UNL A   1      34.104  25.183  25.092  1.00  0.00     0.019 A 
ATOM     15  O   UNL A   1      34.080  24.142  22.908  1.00  0.00    -0.475 OA
ATOM     16  C   UNL A   1      34.460  23.923  25.726  1.00  0.00     0.025 C 
ATOM     17  C   UNL A   1      34.057  22.831  23.539  1.00  0.00     0.314 C 
BRANCH   8  18
ATOM     18  C   UNL A   1      33.058  28.875  23.078  1.00  0.00     0.037 C 
BRANCH  18  19
ATOM     19  C   UNL A   1      31.566  28.953  22.733  1.00  0.00     0.001 C 
ATOM     20  C   UNL A   1      30.682  29.327  23.914  1.00  0.00     0.004 C 
ENDBRANCH  18  19
ENDBRANCH   8  18
BRANCH  17  21
ATOM     21  C   UNL A   1      32.690  22.184  23.255  1.00  0.00     0.429 C 
ATOM     22  F   UNL A   1      32.279  22.491  21.997  1.00  0.00    -0.167 F 
ATOM     23  F   UNL A   1      32.719  20.834  23.325  1.00  0.00    -0.167 F 
ATOM     24  F   UNL A   1      31.729  22.603  24.108  1.00  0.00    -0.167 F 
ENDBRANCH  17  21
ENDBRANCH   4   7
ENDBRANCH   2   3
ENDBRANCH   1   2
BRANCH   1  25
ATOM     25  C   UNL A   1      39.206  20.318  25.774  1.00  0.00     0.118 C 
BRANCH  25  26
ATOM     26  N   UNL A   1      40.284  19.354  25.984  1.00  0.00    -0.352 N 
ATOM     27  C   UNL A   1      41.616  19.548  26.266  1.00  0.00     0.251 C 
ATOM     28  H   UNL A   1      40.012  18.411  25.913  1.00  0.00     0.163 HD
ATOM     29  O   UNL A   1      42.402  18.608  26.179  1.00  0.00    -0.269 OA
BRANCH  27  30
ATOM     30  C   UNL A   1      42.107  20.886  26.652  1.00  0.00     0.039 A 
ATOM     31  C   UNL A   1      42.187  21.244  27.996  1.00  0.00     0.014 A 
ATOM     32  C   UNL A   1      42.498  21.794  25.663  1.00  0.00     0.014 A 
ATOM     33  C   UNL A   1      42.448  22.561  28.341  1.00  0.00     0.010 A 
ATOM     34  C   UNL A   1      42.879  23.091  26.021  1.00  0.00     0.010 A 
ATOM     35  C   UNL A   1      42.804  23.502  27.359  1.00  0.00    -0.014 A 
BRANCH  35  36
ATOM     36  C   UNL A   1      43.098  24.896  27.782  1.00  0.00     0.031 A 
ATOM     37  C   UNL A   1      41.988  25.873  28.056  1.00  0.00     0.074 A 
ATOM     38  C   UNL A   1      44.379  25.247  28.011  1.00  0.00     0.049 A 
ATOM     39  N   UNL A   1      42.069  27.098  28.514  1.00  0.00    -0.248 NA
ATOM     40  C   UNL A   1      40.611  25.430  27.784  1.00  0.00     0.031 C 
ATOM     41  C   UNL A   1      45.539  24.377  27.795  1.00  0.00     0.029 A 
ATOM     42  N   UNL A   1      44.919  26.398  28.523  1.00  0.00    -0.354 N 
ATOM     43  C   UNL A   1      40.765  27.575  28.560  1.00  0.00     0.074 A 
ATOM     44  C   UNL A   1      39.911  26.521  28.063  1.00  0.00     0.031 C 
ATOM     45  C   UNL A   1      46.638  24.988  28.258  1.00  0.00     0.029 A 
ATOM     46  C   UNL A   1      46.276  26.321  28.729  1.00  0.00     0.049 A 
ATOM     47  H   UNL A   1      44.387  27.201  28.726  1.00  0.00     0.167 HD
ATOM     48  C   UNL A   1      40.323  28.781  28.987  1.00  0.00     0.031 A 
ATOM     49  C   UNL A   1      47.141  27.219  29.234  1.00  0.00     0.031 A 
ATOM     50  C   UNL A   1      41.176  29.821  29.499  1.00  0.00     0.049 A 
ATOM     51  C   UNL A   1      46.626  28.558  29.673  1.00  0.00     0.074 A 
ATOM     52  C   UNL A   1      40.814  31.073  29.970  1.00  0.00     0.029 A 
ATOM     53  N   UNL A   1      42.553  29.732  29.614  1.00  0.00    -0.354 N 
ATOM     54  N   UNL A   1      45.391  28.992  29.706  1.00  0.00    -0.248 NA
ATOM     55  C   UNL A   1      47.623  29.533  30.135  1.00  0.00     0.031 C 
ATOM     56  C   UNL A   1      41.979  31.760  30.319  1.00  0.00     0.029 A 
ATOM     57  C   UNL A   1      43.060  30.915  30.125  1.00  0.00     0.049 A 
ATOM     58  H   UNL A   1      43.092  28.945  29.368  1.00  0.00     0.167 HD
ATOM     59  C   UNL A   1      45.459  30.290  30.192  1.00  0.00     0.074 A 
ATOM     60  C   UNL A   1      46.854  30.562  30.468  1.00  0.00     0.031 C 
ATOM     61  C   UNL A   1      44.452  31.176  30.383  1.00  0.00     0.031 A 
BRANCH  48  62
ATOM     62  C   UNL A   1      38.848  29.062  28.908  1.00  0.00    -0.014 A 
ATOM     63  C   UNL A   1      38.288  29.500  27.697  1.00  0.00     0.009 A 
ATOM     64  C   UNL A   1      38.029  28.985  30.045  1.00  0.00     0.009 A 
ATOM     65  C   UNL A   1      36.942  29.866  27.627  1.00  0.00     0.001 A 
ATOM     66  C   UNL A   1      36.676  29.327  29.967  1.00  0.00     0.001 A 
ATOM     67  C   UNL A   1      36.137  29.776  28.761  1.00  0.00     0.000 A 
ENDBRANCH  48  62
BRANCH  49  68
ATOM     68  C   UNL A   1      48.580  26.863  29.347  1.00  0.00    -0.014 A 
ATOM     69  C   UNL A   1      49.074  26.258  30.515  1.00  0.00     0.009 A 
ATOM     70  C   UNL A   1      49.477  27.185  28.319  1.00  0.00     0.009 A 
ATOM     71  C   UNL A   1      50.440  26.014  30.665  1.00  0.00     0.001 A 
ATOM     72  C   UNL A   1      50.840  26.910  28.460  1.00  0.00     0.001 A 
ATOM     73  C   UNL A   1      51.321  26.337  29.636  1.00  0.00     0.000 A 
ENDBRANCH  49  68
BRANCH  61  74
ATOM     74  C   UNL A   1      44.814  32.533  30.917  1.00  0.00    -0.014 A 
ATOM     75  C   UNL A   1      44.806  32.762  32.302  1.00  0.00     0.009 A 
ATOM     76  C   UNL A   1      45.072  33.604  30.049  1.00  0.00     0.009 A 
ATOM     77  C   UNL A   1      45.036  34.042  32.807  1.00  0.00     0.001 A 
ATOM     78  C   UNL A   1      45.330  34.877  30.558  1.00  0.00     0.001 A 
ATOM     79  C   UNL A   1      45.303  35.097  31.935  1.00  0.00     0.000 A 
ENDBRANCH  61  74
ENDBRANCH  35  36
ENDBRANCH  27  30
ENDBRANCH  25  26
ENDBRANCH   1  25
TORSDOF 13
ENDMDL
