MODEL 1
REMARK VINA RESULT:     -11.1      0.000      0.000
REMARK SMILES Cc1cccc(C[N@@H+](C)C[C@]2(C(=O)NCCCNC(=O)c3ccc(-c4c5nc(c(-c6ccccc6)c6ccc([nH]6)c(-c6ccccc6)c6nc(c(-c7ccccc7)c7ccc4[nH]7)C=C6)C=C5)cc3)CCOC2)n1
REMARK SMILES IDX 15 1 14 2 12 3 13 4 11 6 69 7 72 8 70 9 71 10 10 11 8 12
REMARK SMILES IDX 9 13 7 15 6 16 1 17 2 18 3 19 73 20 4 21 5 22 16 23 17 24
REMARK SMILES IDX 18 25 19 26 20 28 21 29 22 30 68 31 23 32 67 33 24 34 25 35
REMARK SMILES IDX 26 36 61 37 27 38 66 39 60 40 62 41 28 42 65 43 59 44 58 45
REMARK SMILES IDX 29 47 51 48 36 49 50 50 37 51 40 52 49 53 63 54 38 55 39 56
REMARK SMILES IDX 48 58 64 59 41 60 30 61 31 62 35 63 32 64 34 65 33 66 52 67
REMARK SMILES IDX 53 68 57 69 54 70 56 71 55 72 42 73 43 74 47 75 44 76 46 77
REMARK SMILES IDX 45 78
REMARK H PARENT 14 5 8 14 18 27 62 46 40 57
REMARK Flexibility Score: inf
ROOT
ATOM      1  C   UNL A   1      36.457  20.643  25.236  1.00  0.00     0.117 C 
ENDROOT
BRANCH   1   2
ATOM      2  N   UNL A   1      36.721  21.923  25.860  1.00  0.00    -0.355 N 
ATOM      3  C   UNL A   1      36.232  23.169  25.666  1.00  0.00     0.234 C 
ATOM      4  O   UNL A   1      37.006  24.043  26.057  1.00  0.00    -0.274 OA
ATOM      5  H   UNL A   1      37.398  21.876  26.574  1.00  0.00     0.163 HD
BRANCH   3   6
ATOM      6  C   UNL A   1      34.863  23.472  25.047  1.00  0.00     0.123 C 
ATOM      7  C   UNL A   1      34.508  24.962  25.044  1.00  0.00     0.054 C 
ATOM      8  C   UNL A   1      34.935  23.133  23.536  1.00  0.00     0.183 C 
ATOM      9  C   UNL A   1      33.971  25.213  23.651  1.00  0.00     0.161 C 
ATOM     10  O   UNL A   1      34.711  24.344  22.800  1.00  0.00    -0.380 OA
BRANCH   6  11
ATOM     11  C   UNL A   1      33.709  22.592  25.654  1.00  0.00     0.281 C 
BRANCH  11  12
ATOM     12  N   UNL A   1      32.676  21.868  24.897  1.00  0.00    -0.331 N 
ATOM     13  C   UNL A   1      31.490  22.628  24.551  1.00  0.00     0.333 C 
ATOM     14  H   UNL A   1      33.198  21.725  24.033  1.00  0.00     0.348 HD
BRANCH  12  15
ATOM     15  C   UNL A   1      32.320  20.506  25.363  1.00  0.00     0.319 C 
BRANCH  15  16
ATOM     16  C   UNL A   1      32.740  19.345  24.471  1.00  0.00     0.095 A 
ATOM     17  C   UNL A   1      34.879  16.381  24.852  1.00  0.00     0.067 C 
ATOM     18  C   UNL A   1      33.918  17.352  24.238  1.00  0.00     0.038 A 
ATOM     19  C   UNL A   1      33.425  17.156  22.954  1.00  0.00     0.023 A 
ATOM     20  N   UNL A   1      33.577  18.418  25.000  1.00  0.00    -0.252 NA
ATOM     21  C   UNL A   1      32.577  18.112  22.413  1.00  0.00     0.004 A 
ATOM     22  C   UNL A   1      32.245  19.228  23.171  1.00  0.00     0.030 A 
ENDBRANCH  15  16
ENDBRANCH  12  15
ENDBRANCH  11  12
ENDBRANCH   6  11
ENDBRANCH   3   6
ENDBRANCH   1   2
BRANCH   1  23
ATOM     23  C   UNL A   1      37.768  19.925  24.919  1.00  0.00     0.042 C 
BRANCH  23  24
ATOM     24  C   UNL A   1      38.951  20.363  25.784  1.00  0.00     0.118 C 
BRANCH  24  25
ATOM     25  N   UNL A   1      40.028  19.382  25.809  1.00  0.00    -0.352 N 
ATOM     26  C   UNL A   1      41.362  19.550  26.090  1.00  0.00     0.251 C 
ATOM     27  H   UNL A   1      39.759  18.461  25.590  1.00  0.00     0.163 HD
ATOM     28  O   UNL A   1      42.154  18.641  25.886  1.00  0.00    -0.269 OA
BRANCH  26  29
ATOM     29  C   UNL A   1      41.837  20.845  26.612  1.00  0.00     0.039 A 
ATOM     30  C   UNL A   1      42.406  21.760  25.725  1.00  0.00     0.014 A 
ATOM     31  C   UNL A   1      41.707  21.159  27.968  1.00  0.00     0.014 A 
ATOM     32  C   UNL A   1      42.775  23.024  26.184  1.00  0.00     0.010 A 
ATOM     33  C   UNL A   1      42.001  22.445  28.406  1.00  0.00     0.010 A 
ATOM     34  C   UNL A   1      42.535  23.392  27.519  1.00  0.00    -0.014 A 
BRANCH  34  35
ATOM     35  C   UNL A   1      42.823  24.766  27.999  1.00  0.00     0.031 A 
ATOM     36  C   UNL A   1      44.227  25.165  28.359  1.00  0.00     0.074 A 
ATOM     37  C   UNL A   1      41.807  25.634  28.173  1.00  0.00     0.049 A 
ATOM     38  N   UNL A   1      44.662  26.299  28.846  1.00  0.00    -0.248 NA
ATOM     39  C   UNL A   1      45.276  24.150  28.172  1.00  0.00     0.031 C 
ATOM     40  C   UNL A   1      40.395  25.356  27.900  1.00  0.00     0.029 A 
ATOM     41  N   UNL A   1      41.807  26.930  28.625  1.00  0.00    -0.354 N 
ATOM     42  C   UNL A   1      46.027  26.127  29.040  1.00  0.00     0.074 A 
ATOM     43  C   UNL A   1      46.341  24.767  28.665  1.00  0.00     0.031 C 
ATOM     44  C   UNL A   1      39.671  26.456  28.160  1.00  0.00     0.029 A 
ATOM     45  C   UNL A   1      40.558  27.502  28.658  1.00  0.00     0.049 A 
ATOM     46  H   UNL A   1      42.625  27.405  28.900  1.00  0.00     0.167 HD
ATOM     47  C   UNL A   1      46.941  27.028  29.472  1.00  0.00     0.031 A 
ATOM     48  C   UNL A   1      40.169  28.729  29.052  1.00  0.00     0.031 A 
ATOM     49  C   UNL A   1      46.631  28.385  29.833  1.00  0.00     0.049 A 
ATOM     50  C   UNL A   1      41.203  29.704  29.542  1.00  0.00     0.074 A 
ATOM     51  C   UNL A   1      47.497  29.391  30.224  1.00  0.00     0.029 A 
ATOM     52  N   UNL A   1      45.355  28.926  29.848  1.00  0.00    -0.354 N 
ATOM     53  N   UNL A   1      42.501  29.548  29.649  1.00  0.00    -0.248 NA
ATOM     54  C   UNL A   1      40.719  31.028  29.956  1.00  0.00     0.031 C 
ATOM     55  C   UNL A   1      46.739  30.525  30.529  1.00  0.00     0.029 A 
ATOM     56  C   UNL A   1      45.408  30.244  30.270  1.00  0.00     0.049 A 
ATOM     57  H   UNL A   1      44.534  28.444  29.598  1.00  0.00     0.167 HD
ATOM     58  C   UNL A   1      42.990  30.762  30.113  1.00  0.00     0.074 A 
ATOM     59  C   UNL A   1      41.852  31.648  30.250  1.00  0.00     0.031 C 
ATOM     60  C   UNL A   1      44.267  31.112  30.400  1.00  0.00     0.031 A 
BRANCH  47  61
ATOM     61  C   UNL A   1      48.369  26.568  29.585  1.00  0.00    -0.014 A 
ATOM     62  C   UNL A   1      49.277  26.748  28.529  1.00  0.00     0.009 A 
ATOM     63  C   UNL A   1      48.824  25.991  30.781  1.00  0.00     0.009 A 
ATOM     64  C   UNL A   1      50.602  26.326  28.656  1.00  0.00     0.001 A 
ATOM     65  C   UNL A   1      50.157  25.598  30.916  1.00  0.00     0.001 A 
ATOM     66  C   UNL A   1      51.042  25.758  29.851  1.00  0.00     0.000 A 
ENDBRANCH  47  61
BRANCH  48  67
ATOM     67  C   UNL A   1      38.735  29.117  28.988  1.00  0.00    -0.014 A 
ATOM     68  C   UNL A   1      38.192  29.645  27.807  1.00  0.00     0.009 A 
ATOM     69  C   UNL A   1      37.906  28.979  30.113  1.00  0.00     0.009 A 
ATOM     70  C   UNL A   1      36.858  30.056  27.762  1.00  0.00     0.001 A 
ATOM     71  C   UNL A   1      36.564  29.362  30.055  1.00  0.00     0.001 A 
ATOM     72  C   UNL A   1      36.044  29.911  28.883  1.00  0.00     0.000 A 
ENDBRANCH  48  67
BRANCH  60  73
ATOM     73  C   UNL A   1      44.507  32.525  30.853  1.00  0.00    -0.014 A 
ATOM     74  C   UNL A   1      44.739  33.558  29.932  1.00  0.00     0.009 A 
ATOM     75  C   UNL A   1      44.462  32.831  32.222  1.00  0.00     0.009 A 
ATOM     76  C   UNL A   1      44.954  34.864  30.376  1.00  0.00     0.001 A 
ATOM     77  C   UNL A   1      44.647  34.142  32.662  1.00  0.00     0.001 A 
ATOM     78  C   UNL A   1      44.903  35.155  31.739  1.00  0.00     0.000 A 
ENDBRANCH  60  73
ENDBRANCH  34  35
ENDBRANCH  26  29
ENDBRANCH  24  25
ENDBRANCH  23  24
ENDBRANCH   1  23
TORSDOF 14
ENDMDL
MODEL 2
REMARK VINA RESULT:     -11.0      4.736      9.738
REMARK SMILES Cc1cccc(C[N@@H+](C)C[C@]2(C(=O)NCCCNC(=O)c3ccc(-c4c5nc(c(-c6ccccc6)c6ccc([nH]6)c(-c6ccccc6)c6nc(c(-c7ccccc7)c7ccc4[nH]7)C=C6)C=C5)cc3)CCOC2)n1
REMARK SMILES IDX 15 1 14 2 12 3 13 4 11 6 69 7 72 8 70 9 71 10 10 11 8 12
REMARK SMILES IDX 9 13 7 15 6 16 1 17 2 18 3 19 73 20 4 21 5 22 16 23 17 24
REMARK SMILES IDX 18 25 19 26 20 28 21 29 22 30 68 31 23 32 67 33 24 34 25 35
REMARK SMILES IDX 26 36 61 37 27 38 66 39 60 40 62 41 28 42 65 43 59 44 58 45
REMARK SMILES IDX 29 47 51 48 36 49 50 50 37 51 40 52 49 53 63 54 38 55 39 56
REMARK SMILES IDX 48 58 64 59 41 60 30 61 31 62 35 63 32 64 34 65 33 66 52 67
REMARK SMILES IDX 53 68 57 69 54 70 56 71 55 72 42 73 43 74 47 75 44 76 46 77
REMARK SMILES IDX 45 78
REMARK H PARENT 14 5 8 14 18 27 62 46 40 57
REMARK Flexibility Score: inf
ROOT
ATOM      1  C   UNL A   1      32.065  30.137  25.850  1.00  0.00     0.117 C 
ENDROOT
BRANCH   1   2
ATOM      2  N   UNL A   1      31.704  29.042  26.727  1.00  0.00    -0.355 N 
ATOM      3  C   UNL A   1      31.567  27.710  26.539  1.00  0.00     0.234 C 
ATOM      4  O   UNL A   1      30.828  27.192  27.377  1.00  0.00    -0.274 OA
ATOM      5  H   UNL A   1      31.522  29.326  27.652  1.00  0.00     0.163 HD
BRANCH   3   6
ATOM      6  C   UNL A   1      32.261  26.918  25.426  1.00  0.00     0.123 C 
ATOM      7  C   UNL A   1      33.789  27.002  25.475  1.00  0.00     0.054 C 
ATOM      8  C   UNL A   1      31.991  25.411  25.669  1.00  0.00     0.183 C 
ATOM      9  C   UNL A   1      34.247  25.573  25.273  1.00  0.00     0.161 C 
ATOM     10  O   UNL A   1      33.253  24.767  25.899  1.00  0.00    -0.380 OA
BRANCH   6  11
ATOM     11  C   UNL A   1      31.698  27.252  23.995  1.00  0.00     0.281 C 
BRANCH  11  12
ATOM     12  N   UNL A   1      30.313  27.625  23.669  1.00  0.00    -0.331 N 
ATOM     13  C   UNL A   1      29.307  26.608  23.909  1.00  0.00     0.333 C 
ATOM     14  H   UNL A   1      30.182  28.345  24.380  1.00  0.00     0.348 HD
BRANCH  12  15
ATOM     15  C   UNL A   1      30.079  28.312  22.376  1.00  0.00     0.319 C 
BRANCH  15  16
ATOM     16  C   UNL A   1      29.491  29.716  22.443  1.00  0.00     0.095 A 
ATOM     17  C   UNL A   1      27.920  32.021  20.051  1.00  0.00     0.067 C 
ATOM     18  C   UNL A   1      28.417  31.468  21.350  1.00  0.00     0.038 A 
ATOM     19  C   UNL A   1      28.296  32.192  22.530  1.00  0.00     0.023 A 
ATOM     20  N   UNL A   1      28.991  30.242  21.297  1.00  0.00    -0.252 NA
ATOM     21  C   UNL A   1      28.818  31.654  23.698  1.00  0.00     0.004 A 
ATOM     22  C   UNL A   1      29.439  30.412  23.652  1.00  0.00     0.030 A 
ENDBRANCH  15  16
ENDBRANCH  12  15
ENDBRANCH  11  12
ENDBRANCH   6  11
ENDBRANCH   3   6
ENDBRANCH   1   2
BRANCH   1  23
ATOM     23  C   UNL A   1      31.710  31.476  26.498  1.00  0.00     0.042 C 
BRANCH  23  24
ATOM     24  C   UNL A   1      32.880  32.163  27.202  1.00  0.00     0.118 C 
BRANCH  24  25
ATOM     25  N   UNL A   1      32.574  33.528  27.609  1.00  0.00    -0.352 N 
ATOM     26  C   UNL A   1      33.212  34.340  28.515  1.00  0.00     0.251 C 
ATOM     27  H   UNL A   1      31.791  33.929  27.168  1.00  0.00     0.163 HD
ATOM     28  O   UNL A   1      32.704  35.396  28.861  1.00  0.00    -0.269 OA
BRANCH  26  29
ATOM     29  C   UNL A   1      34.501  33.912  29.091  1.00  0.00     0.039 A 
ATOM     30  C   UNL A   1      34.494  33.085  30.215  1.00  0.00     0.014 A 
ATOM     31  C   UNL A   1      35.709  34.314  28.514  1.00  0.00     0.014 A 
ATOM     32  C   UNL A   1      35.700  32.596  30.716  1.00  0.00     0.010 A 
ATOM     33  C   UNL A   1      36.903  33.763  28.965  1.00  0.00     0.010 A 
ATOM     34  C   UNL A   1      36.911  32.896  30.068  1.00  0.00    -0.014 A 
BRANCH  34  35
ATOM     35  C   UNL A   1      38.192  32.301  30.523  1.00  0.00     0.031 A 
ATOM     36  C   UNL A   1      38.681  31.009  29.929  1.00  0.00     0.074 A 
ATOM     37  C   UNL A   1      38.881  32.892  31.519  1.00  0.00     0.049 A 
ATOM     38  N   UNL A   1      39.744  30.311  30.236  1.00  0.00    -0.248 NA
ATOM     39  C   UNL A   1      37.854  30.410  28.868  1.00  0.00     0.031 C 
ATOM     40  C   UNL A   1      38.493  34.125  32.207  1.00  0.00     0.029 A 
ATOM     41  N   UNL A   1      40.056  32.529  32.129  1.00  0.00    -0.354 N 
ATOM     42  C   UNL A   1      39.704  29.186  29.423  1.00  0.00     0.074 A 
ATOM     43  C   UNL A   1      38.489  29.268  28.643  1.00  0.00     0.031 C 
ATOM     44  C   UNL A   1      39.426  34.433  33.121  1.00  0.00     0.029 A 
ATOM     45  C   UNL A   1      40.456  33.399  33.115  1.00  0.00     0.049 A 
ATOM     46  H   UNL A   1      40.564  31.723  31.883  1.00  0.00     0.167 HD
ATOM     47  C   UNL A   1      40.608  28.184  29.319  1.00  0.00     0.031 A 
ATOM     48  C   UNL A   1      41.529  33.365  33.927  1.00  0.00     0.031 A 
ATOM     49  C   UNL A   1      41.824  28.108  30.085  1.00  0.00     0.049 A 
ATOM     50  C   UNL A   1      42.509  32.232  33.802  1.00  0.00     0.074 A 
ATOM     51  C   UNL A   1      42.833  27.164  30.007  1.00  0.00     0.029 A 
ATOM     52  N   UNL A   1      42.193  29.011  31.069  1.00  0.00    -0.354 N 
ATOM     53  N   UNL A   1      42.493  31.214  32.975  1.00  0.00    -0.248 NA
ATOM     54  C   UNL A   1      43.661  32.249  34.714  1.00  0.00     0.031 C 
ATOM     55  C   UNL A   1      43.787  27.465  30.983  1.00  0.00     0.029 A 
ATOM     56  C   UNL A   1      43.402  28.630  31.626  1.00  0.00     0.049 A 
ATOM     57  H   UNL A   1      41.673  29.804  31.333  1.00  0.00     0.167 HD
ATOM     58  C   UNL A   1      43.646  30.488  33.247  1.00  0.00     0.074 A 
ATOM     59  C   UNL A   1      44.344  31.192  34.303  1.00  0.00     0.031 C 
ATOM     60  C   UNL A   1      44.085  29.342  32.675  1.00  0.00     0.031 A 
BRANCH  47  61
ATOM     61  C   UNL A   1      40.312  27.079  28.342  1.00  0.00    -0.014 A 
ATOM     62  C   UNL A   1      40.857  27.086  27.048  1.00  0.00     0.009 A 
ATOM     63  C   UNL A   1      39.515  25.993  28.737  1.00  0.00     0.009 A 
ATOM     64  C   UNL A   1      40.580  26.046  26.159  1.00  0.00     0.001 A 
ATOM     65  C   UNL A   1      39.265  24.939  27.856  1.00  0.00     0.001 A 
ATOM     66  C   UNL A   1      39.790  24.971  26.565  1.00  0.00     0.000 A 
ENDBRANCH  47  61
BRANCH  48  67
ATOM     67  C   UNL A   1      41.746  34.443  34.928  1.00  0.00    -0.014 A 
ATOM     68  C   UNL A   1      41.228  34.324  36.226  1.00  0.00     0.009 A 
ATOM     69  C   UNL A   1      42.457  35.605  34.586  1.00  0.00     0.009 A 
ATOM     70  C   UNL A   1      41.389  35.357  37.152  1.00  0.00     0.001 A 
ATOM     71  C   UNL A   1      42.643  36.624  35.522  1.00  0.00     0.001 A 
ATOM     72  C   UNL A   1      42.099  36.504  36.801  1.00  0.00     0.000 A 
ENDBRANCH  48  67
BRANCH  60  73
ATOM     73  C   UNL A   1      45.403  28.798  33.150  1.00  0.00    -0.014 A 
ATOM     74  C   UNL A   1      45.473  27.868  34.199  1.00  0.00     0.009 A 
ATOM     75  C   UNL A   1      46.588  29.193  32.511  1.00  0.00     0.009 A 
ATOM     76  C   UNL A   1      46.709  27.373  34.621  1.00  0.00     0.001 A 
ATOM     77  C   UNL A   1      47.818  28.673  32.913  1.00  0.00     0.001 A 
ATOM     78  C   UNL A   1      47.879  27.771  33.974  1.00  0.00     0.000 A 
ENDBRANCH  60  73
ENDBRANCH  34  35
ENDBRANCH  26  29
ENDBRANCH  24  25
ENDBRANCH  23  24
ENDBRANCH   1  23
TORSDOF 14
ENDMDL
MODEL 3
REMARK VINA RESULT:     -10.9      2.459      7.482
REMARK SMILES Cc1cccc(C[N@@H+](C)C[C@]2(C(=O)NCCCNC(=O)c3ccc(-c4c5nc(c(-c6ccccc6)c6ccc([nH]6)c(-c6ccccc6)c6nc(c(-c7ccccc7)c7ccc4[nH]7)C=C6)C=C5)cc3)CCOC2)n1
REMARK SMILES IDX 15 1 14 2 12 3 13 4 11 6 69 7 72 8 70 9 71 10 10 11 8 12
REMARK SMILES IDX 9 13 7 15 6 16 1 17 2 18 3 19 73 20 4 21 5 22 16 23 17 24
REMARK SMILES IDX 18 25 19 26 20 28 21 29 22 30 68 31 23 32 67 33 24 34 25 35
REMARK SMILES IDX 26 36 61 37 27 38 66 39 60 40 62 41 28 42 65 43 59 44 58 45
REMARK SMILES IDX 29 47 51 48 36 49 50 50 37 51 40 52 49 53 63 54 38 55 39 56
REMARK SMILES IDX 48 58 64 59 41 60 30 61 31 62 35 63 32 64 34 65 33 66 52 67
REMARK SMILES IDX 53 68 57 69 54 70 56 71 55 72 42 73 43 74 47 75 44 76 46 77
REMARK SMILES IDX 45 78
REMARK H PARENT 14 5 8 14 18 27 62 46 40 57
REMARK Flexibility Score: inf
ROOT
ATOM      1  C   UNL A   1      33.116  27.421  25.232  1.00  0.00     0.117 C 
ENDROOT
BRANCH   1   2
ATOM      2  N   UNL A   1      31.941  27.016  25.978  1.00  0.00    -0.355 N 
ATOM      3  C   UNL A   1      31.295  25.837  26.122  1.00  0.00     0.234 C 
ATOM      4  O   UNL A   1      30.118  25.985  26.451  1.00  0.00    -0.274 OA
ATOM      5  H   UNL A   1      31.527  27.752  26.484  1.00  0.00     0.163 HD
BRANCH   3   6
ATOM      6  C   UNL A   1      31.947  24.464  25.921  1.00  0.00     0.123 C 
ATOM      7  C   UNL A   1      33.181  24.237  26.799  1.00  0.00     0.054 C 
ATOM      8  C   UNL A   1      30.958  23.385  26.432  1.00  0.00     0.183 C 
ATOM      9  C   UNL A   1      32.987  22.844  27.359  1.00  0.00     0.161 C 
ATOM     10  O   UNL A   1      31.580  22.697  27.527  1.00  0.00    -0.380 OA
BRANCH   6  11
ATOM     11  C   UNL A   1      32.231  24.137  24.409  1.00  0.00     0.281 C 
BRANCH  11  12
ATOM     12  N   UNL A   1      33.534  24.216  23.730  1.00  0.00    -0.331 N 
ATOM     13  C   UNL A   1      33.580  25.040  22.537  1.00  0.00     0.333 C 
ATOM     14  H   UNL A   1      34.049  24.714  24.455  1.00  0.00     0.348 HD
BRANCH  12  15
ATOM     15  C   UNL A   1      34.275  22.948  23.531  1.00  0.00     0.319 C 
BRANCH  15  16
ATOM     16  C   UNL A   1      35.557  22.770  24.336  1.00  0.00     0.095 A 
ATOM     17  C   UNL A   1      37.895  20.008  24.975  1.00  0.00     0.067 C 
ATOM     18  C   UNL A   1      37.312  21.387  24.987  1.00  0.00     0.038 A 
ATOM     19  C   UNL A   1      37.943  22.426  25.659  1.00  0.00     0.023 A 
ATOM     20  N   UNL A   1      36.144  21.547  24.320  1.00  0.00    -0.252 NA
ATOM     21  C   UNL A   1      37.334  23.673  25.681  1.00  0.00     0.004 A 
ATOM     22  C   UNL A   1      36.119  23.844  25.029  1.00  0.00     0.030 A 
ENDBRANCH  15  16
ENDBRANCH  12  15
ENDBRANCH  11  12
ENDBRANCH   6  11
ENDBRANCH   3   6
ENDBRANCH   1   2
BRANCH   1  23
ATOM     23  C   UNL A   1      34.012  28.310  26.094  1.00  0.00     0.042 C 
BRANCH  23  24
ATOM     24  C   UNL A   1      33.411  28.686  27.449  1.00  0.00     0.118 C 
BRANCH  24  25
ATOM     25  N   UNL A   1      33.497  30.113  27.730  1.00  0.00    -0.352 N 
ATOM     26  C   UNL A   1      34.535  30.844  28.254  1.00  0.00     0.251 C 
ATOM     27  H   UNL A   1      32.689  30.630  27.512  1.00  0.00     0.163 HD
ATOM     28  O   UNL A   1      34.363  32.006  28.589  1.00  0.00    -0.269 OA
BRANCH  26  29
ATOM     29  C   UNL A   1      35.853  30.206  28.438  1.00  0.00     0.039 A 
ATOM     30  C   UNL A   1      36.777  30.258  27.394  1.00  0.00     0.014 A 
ATOM     31  C   UNL A   1      36.177  29.573  29.641  1.00  0.00     0.014 A 
ATOM     32  C   UNL A   1      38.059  29.743  27.584  1.00  0.00     0.010 A 
ATOM     33  C   UNL A   1      37.478  29.132  29.857  1.00  0.00     0.010 A 
ATOM     34  C   UNL A   1      38.433  29.215  28.832  1.00  0.00    -0.014 A 
BRANCH  34  35
ATOM     35  C   UNL A   1      39.822  28.759  29.086  1.00  0.00     0.031 A 
ATOM     36  C   UNL A   1      40.821  29.687  29.719  1.00  0.00     0.074 A 
ATOM     37  C   UNL A   1      40.200  27.528  28.685  1.00  0.00     0.049 A 
ATOM     38  N   UNL A   1      42.090  29.486  29.969  1.00  0.00    -0.248 NA
ATOM     39  C   UNL A   1      40.339  31.025  30.099  1.00  0.00     0.031 C 
ATOM     40  C   UNL A   1      39.337  26.548  28.022  1.00  0.00     0.029 A 
ATOM     41  N   UNL A   1      41.413  26.893  28.776  1.00  0.00    -0.354 N 
ATOM     42  C   UNL A   1      42.559  30.673  30.515  1.00  0.00     0.074 A 
ATOM     43  C   UNL A   1      41.454  31.606  30.517  1.00  0.00     0.031 C 
ATOM     44  C   UNL A   1      40.039  25.426  27.795  1.00  0.00     0.029 A 
ATOM     45  C   UNL A   1      41.410  25.622  28.255  1.00  0.00     0.049 A 
ATOM     46  H   UNL A   1      42.211  27.310  29.176  1.00  0.00     0.167 HD
ATOM     47  C   UNL A   1      43.794  30.956  30.992  1.00  0.00     0.031 A 
ATOM     48  C   UNL A   1      42.401  24.717  28.153  1.00  0.00     0.031 A 
ATOM     49  C   UNL A   1      44.890  30.025  31.002  1.00  0.00     0.049 A 
ATOM     50  C   UNL A   1      43.767  25.063  28.676  1.00  0.00     0.074 A 
ATOM     51  C   UNL A   1      46.162  30.197  31.519  1.00  0.00     0.029 A 
ATOM     52  N   UNL A   1      44.844  28.746  30.469  1.00  0.00    -0.354 N 
ATOM     53  N   UNL A   1      44.174  26.166  29.257  1.00  0.00    -0.248 NA
ATOM     54  C   UNL A   1      44.808  24.034  28.538  1.00  0.00     0.031 C 
ATOM     55  C   UNL A   1      46.903  29.043  31.250  1.00  0.00     0.029 A 
ATOM     56  C   UNL A   1      46.074  28.129  30.620  1.00  0.00     0.049 A 
ATOM     57  H   UNL A   1      44.054  28.339  30.046  1.00  0.00     0.167 HD
ATOM     58  C   UNL A   1      45.508  25.952  29.581  1.00  0.00     0.074 A 
ATOM     59  C   UNL A   1      45.834  24.609  29.147  1.00  0.00     0.031 C 
ATOM     60  C   UNL A   1      46.383  26.792  30.184  1.00  0.00     0.031 A 
BRANCH  47  61
ATOM     61  C   UNL A   1      44.028  32.338  31.538  1.00  0.00    -0.014 A 
ATOM     62  C   UNL A   1      43.823  32.628  32.896  1.00  0.00     0.009 A 
ATOM     63  C   UNL A   1      44.507  33.351  30.693  1.00  0.00     0.009 A 
ATOM     64  C   UNL A   1      44.056  33.914  33.388  1.00  0.00     0.001 A 
ATOM     65  C   UNL A   1      44.769  34.628  31.193  1.00  0.00     0.001 A 
ATOM     66  C   UNL A   1      44.535  34.910  32.538  1.00  0.00     0.000 A 
ENDBRANCH  47  61
BRANCH  48  67
ATOM     67  C   UNL A   1      42.141  23.386  27.541  1.00  0.00    -0.014 A 
ATOM     68  C   UNL A   1      41.625  22.336  28.315  1.00  0.00     0.009 A 
ATOM     69  C   UNL A   1      42.424  23.154  26.186  1.00  0.00     0.009 A 
ATOM     70  C   UNL A   1      41.427  21.073  27.754  1.00  0.00     0.001 A 
ATOM     71  C   UNL A   1      42.196  21.898  25.619  1.00  0.00     0.001 A 
ATOM     72  C   UNL A   1      41.709  20.856  26.406  1.00  0.00     0.000 A 
ENDBRANCH  48  67
BRANCH  60  73
ATOM     73  C   UNL A   1      47.768  26.270  30.445  1.00  0.00    -0.014 A 
ATOM     74  C   UNL A   1      48.127  25.749  31.697  1.00  0.00     0.009 A 
ATOM     75  C   UNL A   1      48.714  26.264  29.408  1.00  0.00     0.009 A 
ATOM     76  C   UNL A   1      49.419  25.264  31.916  1.00  0.00     0.001 A 
ATOM     77  C   UNL A   1      49.994  25.751  29.619  1.00  0.00     0.001 A 
ATOM     78  C   UNL A   1      50.348  25.261  30.876  1.00  0.00     0.000 A 
ENDBRANCH  60  73
ENDBRANCH  34  35
ENDBRANCH  26  29
ENDBRANCH  24  25
ENDBRANCH  23  24
ENDBRANCH   1  23
TORSDOF 14
ENDMDL
