MODEL 1
REMARK VINA RESULT:     -11.1      0.000      0.000
REMARK SMILES C[C@@H]1[C@H](C)CC[C@@H]1NC(=O)N1CCO[C@H](CC(=O)NCCCNC(=O)c2ccc(-c3c4nc(c(-c5ccccc5)c5ccc([nH]5)c(-c5ccccc5)c5nc(c(-c6ccccc6)c6ccc3[nH]6)C=C5)C=C4)cc2)C1
REMARK SMILES IDX 20 1 19 2 17 3 18 4 16 6 15 7 11 8 12 9 74 10 13 11 14 12
REMARK SMILES IDX 9 13 8 14 10 16 7 17 1 18 2 19 3 20 4 21 5 22 6 23 21 24
REMARK SMILES IDX 22 25 23 26 24 27 25 29 26 30 27 31 73 32 28 33 72 34 29 35
REMARK SMILES IDX 30 36 31 37 66 38 32 39 71 40 65 41 67 42 33 43 70 44 64 45
REMARK SMILES IDX 63 46 34 48 56 49 41 50 55 51 42 52 45 53 54 54 68 55 43 56
REMARK SMILES IDX 44 57 53 59 69 60 46 61 35 62 36 63 40 64 37 65 39 66 38 67
REMARK SMILES IDX 57 68 58 69 62 70 59 71 61 72 60 73 47 74 48 75 52 76 49 77
REMARK SMILES IDX 51 78 50 79
REMARK H PARENT 19 5 8 15 23 28 67 47 45 58
REMARK Flexibility Score: inf
ROOT
ATOM      1  C   UNL A   1      36.158  20.270  24.959  1.00  0.00     0.117 C 
ENDROOT
BRANCH   1   2
ATOM      2  N   UNL A   1      34.992  19.390  24.900  1.00  0.00    -0.356 N 
ATOM      3  C   UNL A   1      33.716  19.462  24.421  1.00  0.00     0.222 C 
ATOM      4  O   UNL A   1      33.117  18.403  24.206  1.00  0.00    -0.275 OA
ATOM      5  H   UNL A   1      35.175  18.517  25.317  1.00  0.00     0.163 HD
BRANCH   3   6
ATOM      6  C   UNL A   1      32.995  20.766  24.184  1.00  0.00     0.133 C 
BRANCH   6   7
ATOM      7  C   UNL A   1      32.355  21.398  25.436  1.00  0.00     0.147 C 
ATOM      8  N   UNL A   1      32.692  23.858  25.480  1.00  0.00    -0.320 N 
ATOM      9  C   UNL A   1      33.191  23.783  26.834  1.00  0.00     0.150 C 
ATOM     10  C   UNL A   1      31.733  22.788  25.238  1.00  0.00     0.154 C 
ATOM     11  C   UNL A   1      33.965  22.470  26.956  1.00  0.00     0.182 C 
ATOM     12  O   UNL A   1      33.161  21.314  26.639  1.00  0.00    -0.374 OA
BRANCH   8  13
ATOM     13  C   UNL A   1      33.078  24.690  24.487  1.00  0.00     0.317 C 
ATOM     14  N   UNL A   1      32.480  25.837  24.190  1.00  0.00    -0.335 N 
ATOM     15  H   UNL A   1      32.291  25.946  23.230  1.00  0.00     0.165 HD
ATOM     16  O   UNL A   1      34.004  24.465  23.713  1.00  0.00    -0.249 OA
BRANCH  14  17
ATOM     17  C   UNL A   1      32.051  26.956  24.997  1.00  0.00     0.087 C 
ATOM     18  C   UNL A   1      31.136  27.842  22.769  1.00  0.00     0.010 C 
ATOM     19  C   UNL A   1      31.805  28.180  24.103  1.00  0.00     0.011 C 
ATOM     20  C   UNL A   1      33.170  28.900  23.999  1.00  0.00    -0.009 C 
ATOM     21  C   UNL A   1      34.040  28.587  22.780  1.00  0.00     0.008 C 
ATOM     22  C   UNL A   1      33.911  28.545  25.295  1.00  0.00     0.006 C 
ATOM     23  C   UNL A   1      33.152  27.401  25.960  1.00  0.00     0.025 C 
ENDBRANCH  14  17
ENDBRANCH   8  13
ENDBRANCH   6   7
ENDBRANCH   3   6
ENDBRANCH   1   2
BRANCH   1  24
ATOM     24  C   UNL A   1      37.633  19.781  24.815  1.00  0.00     0.042 C 
BRANCH  24  25
ATOM     25  C   UNL A   1      38.842  20.159  25.704  1.00  0.00     0.118 C 
BRANCH  25  26
ATOM     26  N   UNL A   1      39.978  19.257  25.696  1.00  0.00    -0.352 N 
ATOM     27  C   UNL A   1      41.276  19.537  26.067  1.00  0.00     0.251 C 
ATOM     28  H   UNL A   1      39.802  18.338  25.390  1.00  0.00     0.163 HD
ATOM     29  O   UNL A   1      42.162  18.689  25.960  1.00  0.00    -0.269 OA
BRANCH  27  30
ATOM     30  C   UNL A   1      41.632  20.872  26.602  1.00  0.00     0.039 A 
ATOM     31  C   UNL A   1      42.124  21.853  25.736  1.00  0.00     0.014 A 
ATOM     32  C   UNL A   1      41.562  21.128  27.976  1.00  0.00     0.014 A 
ATOM     33  C   UNL A   1      42.496  23.108  26.239  1.00  0.00     0.010 A 
ATOM     34  C   UNL A   1      41.917  22.393  28.472  1.00  0.00     0.010 A 
ATOM     35  C   UNL A   1      42.377  23.402  27.609  1.00  0.00    -0.014 A 
BRANCH  35  36
ATOM     36  C   UNL A   1      42.693  24.770  28.124  1.00  0.00     0.031 A 
ATOM     37  C   UNL A   1      44.098  25.160  28.507  1.00  0.00     0.074 A 
ATOM     38  C   UNL A   1      41.701  25.674  28.261  1.00  0.00     0.049 A 
ATOM     39  N   UNL A   1      44.542  26.305  28.966  1.00  0.00    -0.248 NA
ATOM     40  C   UNL A   1      45.138  24.130  28.360  1.00  0.00     0.031 C 
ATOM     41  C   UNL A   1      40.291  25.435  27.946  1.00  0.00     0.029 A 
ATOM     42  N   UNL A   1      41.724  26.978  28.700  1.00  0.00    -0.354 N 
ATOM     43  C   UNL A   1      45.911  26.139  29.153  1.00  0.00     0.074 A 
ATOM     44  C   UNL A   1      46.214  24.766  28.806  1.00  0.00     0.031 C 
ATOM     45  C   UNL A   1      39.591  26.557  28.178  1.00  0.00     0.029 A 
ATOM     46  C   UNL A   1      40.490  27.585  28.694  1.00  0.00     0.049 A 
ATOM     47  H   UNL A   1      42.546  27.434  28.989  1.00  0.00     0.167 HD
ATOM     48  C   UNL A   1      46.836  27.047  29.554  1.00  0.00     0.031 A 
ATOM     49  C   UNL A   1      40.117  28.826  29.069  1.00  0.00     0.031 A 
ATOM     50  C   UNL A   1      46.544  28.410  29.919  1.00  0.00     0.049 A 
ATOM     51  C   UNL A   1      41.157  29.792  29.571  1.00  0.00     0.074 A 
ATOM     52  C   UNL A   1      47.420  29.402  30.328  1.00  0.00     0.029 A 
ATOM     53  N   UNL A   1      45.278  28.975  29.920  1.00  0.00    -0.354 N 
ATOM     54  N   UNL A   1      42.452  29.629  29.688  1.00  0.00    -0.248 NA
ATOM     55  C   UNL A   1      40.681  31.123  29.982  1.00  0.00     0.031 C 
ATOM     56  C   UNL A   1      46.680  30.552  30.623  1.00  0.00     0.029 A 
ATOM     57  C   UNL A   1      45.350  30.295  30.338  1.00  0.00     0.049 A 
ATOM     58  H   UNL A   1      44.451  28.509  29.661  1.00  0.00     0.167 HD
ATOM     59  C   UNL A   1      42.947  30.844  30.147  1.00  0.00     0.074 A 
ATOM     60  C   UNL A   1      41.817  31.740  30.269  1.00  0.00     0.031 C 
ATOM     61  C   UNL A   1      44.224  31.186  30.444  1.00  0.00     0.031 A 
BRANCH  48  62
ATOM     62  C   UNL A   1      48.272  26.599  29.615  1.00  0.00    -0.014 A 
ATOM     63  C   UNL A   1      49.141  26.818  28.533  1.00  0.00     0.009 A 
ATOM     64  C   UNL A   1      48.784  26.018  30.786  1.00  0.00     0.009 A 
ATOM     65  C   UNL A   1      50.482  26.435  28.611  1.00  0.00     0.001 A 
ATOM     66  C   UNL A   1      50.132  25.664  30.872  1.00  0.00     0.001 A 
ATOM     67  C   UNL A   1      50.978  25.864  29.782  1.00  0.00     0.000 A 
ENDBRANCH  48  62
BRANCH  49  68
ATOM     68  C   UNL A   1      38.689  29.242  28.997  1.00  0.00    -0.014 A 
ATOM     69  C   UNL A   1      37.860  29.165  30.129  1.00  0.00     0.009 A 
ATOM     70  C   UNL A   1      38.130  29.662  27.779  1.00  0.00     0.009 A 
ATOM     71  C   UNL A   1      36.496  29.455  30.031  1.00  0.00     0.001 A 
ATOM     72  C   UNL A   1      36.774  29.987  27.693  1.00  0.00     0.001 A 
ATOM     73  C   UNL A   1      35.955  29.867  28.814  1.00  0.00     0.000 A 
ENDBRANCH  49  68
BRANCH  61  74
ATOM     74  C   UNL A   1      44.479  32.604  30.878  1.00  0.00    -0.014 A 
ATOM     75  C   UNL A   1      44.746  33.619  29.947  1.00  0.00     0.009 A 
ATOM     76  C   UNL A   1      44.420  32.932  32.242  1.00  0.00     0.009 A 
ATOM     77  C   UNL A   1      44.986  34.927  30.377  1.00  0.00     0.001 A 
ATOM     78  C   UNL A   1      44.628  34.244  32.666  1.00  0.00     0.001 A 
ATOM     79  C   UNL A   1      44.921  35.239  31.735  1.00  0.00     0.000 A 
ENDBRANCH  61  74
ENDBRANCH  35  36
ENDBRANCH  27  30
ENDBRANCH  25  26
ENDBRANCH  24  25
ENDBRANCH   1  24
TORSDOF 13
ENDMDL
MODEL 2
REMARK VINA RESULT:     -11.0      1.918      7.634
REMARK SMILES C[C@@H]1[C@H](C)CC[C@@H]1NC(=O)N1CCO[C@H](CC(=O)NCCCNC(=O)c2ccc(-c3c4nc(c(-c5ccccc5)c5ccc([nH]5)c(-c5ccccc5)c5nc(c(-c6ccccc6)c6ccc3[nH]6)C=C5)C=C4)cc2)C1
REMARK SMILES IDX 20 1 19 2 17 3 18 4 16 6 15 7 11 8 12 9 74 10 13 11 14 12
REMARK SMILES IDX 9 13 8 14 10 16 7 17 1 18 2 19 3 20 4 21 5 22 6 23 21 24
REMARK SMILES IDX 22 25 23 26 24 27 25 29 26 30 27 31 73 32 28 33 72 34 29 35
REMARK SMILES IDX 30 36 31 37 66 38 32 39 71 40 65 41 67 42 33 43 70 44 64 45
REMARK SMILES IDX 63 46 34 48 56 49 41 50 55 51 42 52 45 53 54 54 68 55 43 56
REMARK SMILES IDX 44 57 53 59 69 60 46 61 35 62 36 63 40 64 37 65 39 66 38 67
REMARK SMILES IDX 57 68 58 69 62 70 59 71 61 72 60 73 47 74 48 75 52 76 49 77
REMARK SMILES IDX 51 78 50 79
REMARK H PARENT 19 5 8 15 23 28 67 47 45 58
REMARK Flexibility Score: inf
ROOT
ATOM      1  C   UNL A   1      33.455  28.613  24.655  1.00  0.00     0.117 C 
ENDROOT
BRANCH   1   2
ATOM      2  N   UNL A   1      33.800  27.906  23.422  1.00  0.00    -0.356 N 
ATOM      3  C   UNL A   1      33.750  26.621  22.966  1.00  0.00     0.222 C 
ATOM      4  O   UNL A   1      33.771  26.438  21.745  1.00  0.00    -0.275 OA
ATOM      5  H   UNL A   1      34.165  28.519  22.743  1.00  0.00     0.163 HD
BRANCH   3   6
ATOM      6  C   UNL A   1      33.713  25.421  23.881  1.00  0.00     0.133 C 
BRANCH   6   7
ATOM      7  C   UNL A   1      32.351  25.146  24.548  1.00  0.00     0.147 C 
ATOM      8  N   UNL A   1      32.545  23.425  26.328  1.00  0.00    -0.320 N 
ATOM      9  C   UNL A   1      31.441  22.687  25.759  1.00  0.00     0.150 C 
ATOM     10  C   UNL A   1      32.392  24.849  26.054  1.00  0.00     0.154 C 
ATOM     11  C   UNL A   1      31.526  22.849  24.241  1.00  0.00     0.182 C 
ATOM     12  O   UNL A   1      31.492  24.229  23.821  1.00  0.00    -0.374 OA
BRANCH   8  13
ATOM     13  C   UNL A   1      33.650  22.945  26.941  1.00  0.00     0.317 C 
ATOM     14  N   UNL A   1      34.820  22.754  26.342  1.00  0.00    -0.335 N 
ATOM     15  H   UNL A   1      35.215  21.871  26.523  1.00  0.00     0.165 HD
ATOM     16  O   UNL A   1      33.695  22.590  28.115  1.00  0.00    -0.249 OA
BRANCH  14  17
ATOM     17  C   UNL A   1      35.626  23.586  25.479  1.00  0.00     0.087 C 
ATOM     18  C   UNL A   1      34.893  21.921  23.669  1.00  0.00     0.010 C 
ATOM     19  C   UNL A   1      36.017  22.804  24.216  1.00  0.00     0.011 C 
ATOM     20  C   UNL A   1      37.328  22.066  24.573  1.00  0.00    -0.009 C 
ATOM     21  C   UNL A   1      37.214  20.615  25.046  1.00  0.00     0.008 C 
ATOM     22  C   UNL A   1      37.996  22.932  25.649  1.00  0.00     0.006 C 
ATOM     23  C   UNL A   1      36.960  23.940  26.136  1.00  0.00     0.025 C 
ENDBRANCH  14  17
ENDBRANCH   8  13
ENDBRANCH   6   7
ENDBRANCH   3   6
ENDBRANCH   1   2
BRANCH   1  24
ATOM     24  C   UNL A   1      34.134  28.349  26.036  1.00  0.00     0.042 C 
BRANCH  24  25
ATOM     25  C   UNL A   1      33.600  28.733  27.436  1.00  0.00     0.118 C 
BRANCH  25  26
ATOM     26  N   UNL A   1      33.510  30.148  27.745  1.00  0.00    -0.352 N 
ATOM     27  C   UNL A   1      34.497  30.961  28.260  1.00  0.00     0.251 C 
ATOM     28  H   UNL A   1      32.642  30.578  27.566  1.00  0.00     0.163 HD
ATOM     29  O   UNL A   1      34.270  32.141  28.528  1.00  0.00    -0.269 OA
BRANCH  27  30
ATOM     30  C   UNL A   1      35.857  30.426  28.505  1.00  0.00     0.039 A 
ATOM     31  C   UNL A   1      36.800  30.443  27.474  1.00  0.00     0.014 A 
ATOM     32  C   UNL A   1      36.174  29.825  29.729  1.00  0.00     0.014 A 
ATOM     33  C   UNL A   1      38.079  29.908  27.686  1.00  0.00     0.010 A 
ATOM     34  C   UNL A   1      37.461  29.307  29.942  1.00  0.00     0.010 A 
ATOM     35  C   UNL A   1      38.434  29.353  28.929  1.00  0.00    -0.014 A 
BRANCH  35  36
ATOM     36  C   UNL A   1      39.825  28.863  29.174  1.00  0.00     0.031 A 
ATOM     37  C   UNL A   1      40.247  27.469  28.785  1.00  0.00     0.074 A 
ATOM     38  C   UNL A   1      40.722  29.679  29.766  1.00  0.00     0.049 A 
ATOM     39  N   UNL A   1      41.415  26.889  28.925  1.00  0.00    -0.248 NA
ATOM     40  C   UNL A   1      39.225  26.613  28.164  1.00  0.00     0.031 C 
ATOM     41  C   UNL A   1      40.454  31.047  30.211  1.00  0.00     0.029 A 
ATOM     42  N   UNL A   1      42.043  29.479  30.095  1.00  0.00    -0.354 N 
ATOM     43  C   UNL A   1      41.273  25.608  28.402  1.00  0.00     0.074 A 
ATOM     44  C   UNL A   1      39.891  25.478  27.989  1.00  0.00     0.031 C 
ATOM     45  C   UNL A   1      41.576  31.570  30.732  1.00  0.00     0.029 A 
ATOM     46  C   UNL A   1      42.635  30.566  30.694  1.00  0.00     0.049 A 
ATOM     47  H   UNL A   1      42.520  28.637  29.917  1.00  0.00     0.167 HD
ATOM     48  C   UNL A   1      42.208  24.636  28.255  1.00  0.00     0.031 A 
ATOM     49  C   UNL A   1      43.885  30.738  31.169  1.00  0.00     0.031 A 
ATOM     50  C   UNL A   1      43.581  24.746  28.677  1.00  0.00     0.049 A 
ATOM     51  C   UNL A   1      44.883  29.617  31.051  1.00  0.00     0.074 A 
ATOM     52  C   UNL A   1      44.599  23.814  28.560  1.00  0.00     0.029 A 
ATOM     53  N   UNL A   1      44.130  25.857  29.299  1.00  0.00    -0.354 N 
ATOM     54  N   UNL A   1      44.741  28.435  30.504  1.00  0.00    -0.248 NA
ATOM     55  C   UNL A   1      46.224  29.862  31.607  1.00  0.00     0.031 C 
ATOM     56  C   UNL A   1      45.751  24.341  29.154  1.00  0.00     0.029 A 
ATOM     57  C   UNL A   1      45.467  25.625  29.585  1.00  0.00     0.049 A 
ATOM     58  H   UNL A   1      43.644  26.687  29.506  1.00  0.00     0.167 HD
ATOM     59  C   UNL A   1      45.979  27.814  30.615  1.00  0.00     0.074 A 
ATOM     60  C   UNL A   1      46.866  28.756  31.263  1.00  0.00     0.031 C 
ATOM     61  C   UNL A   1      46.348  26.572  30.218  1.00  0.00     0.031 A 
BRANCH  48  62
ATOM     62  C   UNL A   1      41.779  23.350  27.597  1.00  0.00    -0.014 A 
ATOM     63  C   UNL A   1      42.011  23.131  26.229  1.00  0.00     0.009 A 
ATOM     64  C   UNL A   1      41.205  22.321  28.359  1.00  0.00     0.009 A 
ATOM     65  C   UNL A   1      41.648  21.920  25.633  1.00  0.00     0.001 A 
ATOM     66  C   UNL A   1      40.869  21.102  27.767  1.00  0.00     0.001 A 
ATOM     67  C   UNL A   1      41.083  20.905  26.403  1.00  0.00     0.000 A 
ENDBRANCH  48  62
BRANCH  49  68
ATOM     68  C   UNL A   1      44.281  32.021  31.814  1.00  0.00    -0.014 A 
ATOM     69  C   UNL A   1      44.831  33.067  31.054  1.00  0.00     0.009 A 
ATOM     70  C   UNL A   1      44.166  32.185  33.204  1.00  0.00     0.009 A 
ATOM     71  C   UNL A   1      45.300  34.227  31.678  1.00  0.00     0.001 A 
ATOM     72  C   UNL A   1      44.601  33.360  33.820  1.00  0.00     0.001 A 
ATOM     73  C   UNL A   1      45.182  34.373  33.059  1.00  0.00     0.000 A 
ENDBRANCH  49  68
BRANCH  61  74
ATOM     74  C   UNL A   1      47.785  26.177  30.423  1.00  0.00    -0.014 A 
ATOM     75  C   UNL A   1      48.244  25.691  31.657  1.00  0.00     0.009 A 
ATOM     76  C   UNL A   1      48.688  26.266  29.351  1.00  0.00     0.009 A 
ATOM     77  C   UNL A   1      49.585  25.338  31.823  1.00  0.00     0.001 A 
ATOM     78  C   UNL A   1      50.019  25.882  29.510  1.00  0.00     0.001 A 
ATOM     79  C   UNL A   1      50.470  25.428  30.749  1.00  0.00     0.000 A 
ENDBRANCH  61  74
ENDBRANCH  35  36
ENDBRANCH  27  30
ENDBRANCH  25  26
ENDBRANCH  24  25
ENDBRANCH   1  24
TORSDOF 13
ENDMDL
MODEL 3
REMARK VINA RESULT:     -10.9      0.542      5.973
REMARK SMILES C[C@@H]1[C@H](C)CC[C@@H]1NC(=O)N1CCO[C@H](CC(=O)NCCCNC(=O)c2ccc(-c3c4nc(c(-c5ccccc5)c5ccc([nH]5)c(-c5ccccc5)c5nc(c(-c6ccccc6)c6ccc3[nH]6)C=C5)C=C4)cc2)C1
REMARK SMILES IDX 20 1 19 2 17 3 18 4 16 6 15 7 11 8 12 9 74 10 13 11 14 12
REMARK SMILES IDX 9 13 8 14 10 16 7 17 1 18 2 19 3 20 4 21 5 22 6 23 21 24
REMARK SMILES IDX 22 25 23 26 24 27 25 29 26 30 27 31 73 32 28 33 72 34 29 35
REMARK SMILES IDX 30 36 31 37 66 38 32 39 71 40 65 41 67 42 33 43 70 44 64 45
REMARK SMILES IDX 63 46 34 48 56 49 41 50 55 51 42 52 45 53 54 54 68 55 43 56
REMARK SMILES IDX 44 57 53 59 69 60 46 61 35 62 36 63 40 64 37 65 39 66 38 67
REMARK SMILES IDX 57 68 58 69 62 70 59 71 61 72 60 73 47 74 48 75 52 76 49 77
REMARK SMILES IDX 51 78 50 79
REMARK H PARENT 19 5 8 15 23 28 67 47 45 58
REMARK Flexibility Score: inf
ROOT
ATOM      1  C   UNL A   1      36.271  20.370  25.008  1.00  0.00     0.117 C 
ENDROOT
BRANCH   1   2
ATOM      2  N   UNL A   1      35.160  19.422  24.951  1.00  0.00    -0.356 N 
ATOM      3  C   UNL A   1      33.884  19.414  24.465  1.00  0.00     0.222 C 
ATOM      4  O   UNL A   1      33.350  18.320  24.255  1.00  0.00    -0.275 OA
ATOM      5  H   UNL A   1      35.392  18.564  25.375  1.00  0.00     0.163 HD
BRANCH   3   6
ATOM      6  C   UNL A   1      33.088  20.672  24.215  1.00  0.00     0.133 C 
BRANCH   6   7
ATOM      7  C   UNL A   1      32.414  21.279  25.462  1.00  0.00     0.147 C 
ATOM      8  N   UNL A   1      32.661  23.750  25.509  1.00  0.00    -0.320 N 
ATOM      9  C   UNL A   1      33.150  23.693  26.868  1.00  0.00     0.150 C 
ATOM     10  C   UNL A   1      31.743  22.645  25.258  1.00  0.00     0.154 C 
ATOM     11  C   UNL A   1      33.971  22.409  26.996  1.00  0.00     0.182 C 
ATOM     12  O   UNL A   1      33.213  21.224  26.672  1.00  0.00    -0.374 OA
BRANCH   8  13
ATOM     13  C   UNL A   1      33.024  24.596  24.519  1.00  0.00     0.317 C 
ATOM     14  N   UNL A   1      32.455  25.773  24.288  1.00  0.00    -0.335 N 
ATOM     15  H   UNL A   1      32.220  25.918  23.344  1.00  0.00     0.165 HD
ATOM     16  O   UNL A   1      33.898  24.359  23.690  1.00  0.00    -0.249 OA
BRANCH  14  17
ATOM     17  C   UNL A   1      32.116  26.883  25.148  1.00  0.00     0.087 C 
ATOM     18  C   UNL A   1      31.034  27.827  23.021  1.00  0.00     0.010 C 
ATOM     19  C   UNL A   1      31.817  28.128  24.300  1.00  0.00     0.011 C 
ATOM     20  C   UNL A   1      33.181  28.828  24.095  1.00  0.00    -0.009 C 
ATOM     21  C   UNL A   1      33.941  28.525  22.802  1.00  0.00     0.008 C 
ATOM     22  C   UNL A   1      34.021  28.435  25.318  1.00  0.00     0.006 C 
ATOM     23  C   UNL A   1      33.300  27.291  26.024  1.00  0.00     0.025 C 
ENDBRANCH  14  17
ENDBRANCH   8  13
ENDBRANCH   6   7
ENDBRANCH   3   6
ENDBRANCH   1   2
BRANCH   1  24
ATOM     24  C   UNL A   1      37.769  19.978  24.815  1.00  0.00     0.042 C 
BRANCH  24  25
ATOM     25  C   UNL A   1      38.954  20.289  25.760  1.00  0.00     0.118 C 
BRANCH  25  26
ATOM     26  N   UNL A   1      40.049  19.338  25.786  1.00  0.00    -0.352 N 
ATOM     27  C   UNL A   1      41.363  19.578  26.126  1.00  0.00     0.251 C 
ATOM     28  H   UNL A   1      39.828  18.413  25.531  1.00  0.00     0.163 HD
ATOM     29  O   UNL A   1      42.209  18.686  26.053  1.00  0.00    -0.269 OA
BRANCH  27  30
ATOM     30  C   UNL A   1      41.786  20.922  26.585  1.00  0.00     0.039 A 
ATOM     31  C   UNL A   1      42.166  21.884  25.645  1.00  0.00     0.014 A 
ATOM     32  C   UNL A   1      41.890  21.205  27.952  1.00  0.00     0.014 A 
ATOM     33  C   UNL A   1      42.600  23.147  26.072  1.00  0.00     0.010 A 
ATOM     34  C   UNL A   1      42.308  22.477  28.374  1.00  0.00     0.010 A 
ATOM     35  C   UNL A   1      42.656  23.468  27.441  1.00  0.00    -0.014 A 
BRANCH  35  36
ATOM     36  C   UNL A   1      43.036  24.844  27.884  1.00  0.00     0.031 A 
ATOM     37  C   UNL A   1      41.995  25.906  28.130  1.00  0.00     0.074 A 
ATOM     38  C   UNL A   1      44.339  25.150  28.057  1.00  0.00     0.049 A 
ATOM     39  N   UNL A   1      42.156  27.148  28.521  1.00  0.00    -0.248 NA
ATOM     40  C   UNL A   1      40.592  25.527  27.905  1.00  0.00     0.031 C 
ATOM     41  C   UNL A   1      45.458  24.231  27.842  1.00  0.00     0.029 A 
ATOM     42  N   UNL A   1      44.945  26.319  28.456  1.00  0.00    -0.354 N 
ATOM     43  C   UNL A   1      40.879  27.695  28.598  1.00  0.00     0.074 A 
ATOM     44  C   UNL A   1      39.959  26.665  28.164  1.00  0.00     0.031 C 
ATOM     45  C   UNL A   1      46.608  24.861  28.132  1.00  0.00     0.029 A 
ATOM     46  C   UNL A   1      46.317  26.238  28.517  1.00  0.00     0.049 A 
ATOM     47  H   UNL A   1      44.444  27.136  28.678  1.00  0.00     0.167 HD
ATOM     48  C   UNL A   1      40.502  28.931  29.012  1.00  0.00     0.031 A 
ATOM     49  C   UNL A   1      47.240  27.167  28.838  1.00  0.00     0.031 A 
ATOM     50  C   UNL A   1      41.410  29.970  29.429  1.00  0.00     0.049 A 
ATOM     51  C   UNL A   1      46.795  28.550  29.232  1.00  0.00     0.074 A 
ATOM     52  C   UNL A   1      41.114  31.248  29.873  1.00  0.00     0.029 A 
ATOM     53  N   UNL A   1      42.790  29.851  29.454  1.00  0.00    -0.354 N 
ATOM     54  N   UNL A   1      45.580  29.028  29.349  1.00  0.00    -0.248 NA
ATOM     55  C   UNL A   1      47.853  29.522  29.552  1.00  0.00     0.031 C 
ATOM     56  C   UNL A   1      42.317  31.919  30.119  1.00  0.00     0.029 A 
ATOM     57  C   UNL A   1      43.359  31.038  29.889  1.00  0.00     0.049 A 
ATOM     58  H   UNL A   1      43.293  29.043  29.201  1.00  0.00     0.167 HD
ATOM     59  C   UNL A   1      45.728  30.336  29.791  1.00  0.00     0.074 A 
ATOM     60  C   UNL A   1      47.148  30.573  29.941  1.00  0.00     0.031 C 
ATOM     61  C   UNL A   1      44.772  31.262  30.049  1.00  0.00     0.031 A 
BRANCH  48  62
ATOM     62  C   UNL A   1      39.027  29.235  29.044  1.00  0.00    -0.014 A 
ATOM     63  C   UNL A   1      38.344  29.605  27.874  1.00  0.00     0.009 A 
ATOM     64  C   UNL A   1      38.298  29.083  30.234  1.00  0.00     0.009 A 
ATOM     65  C   UNL A   1      36.968  29.847  27.903  1.00  0.00     0.001 A 
ATOM     66  C   UNL A   1      36.919  29.297  30.254  1.00  0.00     0.001 A 
ATOM     67  C   UNL A   1      36.256  29.688  29.091  1.00  0.00     0.000 A 
ENDBRANCH  48  62
BRANCH  49  68
ATOM     68  C   UNL A   1      48.692  26.837  28.799  1.00  0.00    -0.014 A 
ATOM     69  C   UNL A   1      49.426  26.965  27.607  1.00  0.00     0.009 A 
ATOM     70  C   UNL A   1      49.340  26.334  29.938  1.00  0.00     0.009 A 
ATOM     71  C   UNL A   1      50.760  26.553  27.547  1.00  0.00     0.001 A 
ATOM     72  C   UNL A   1      50.684  25.958  29.885  1.00  0.00     0.001 A 
ATOM     73  C   UNL A   1      51.388  26.053  28.687  1.00  0.00     0.000 A 
ENDBRANCH  49  68
BRANCH  61  74
ATOM     74  C   UNL A   1      45.224  32.599  30.569  1.00  0.00    -0.014 A 
ATOM     75  C   UNL A   1      45.351  32.846  31.945  1.00  0.00     0.009 A 
ATOM     76  C   UNL A   1      45.558  33.619  29.664  1.00  0.00     0.009 A 
ATOM     77  C   UNL A   1      45.766  34.099  32.403  1.00  0.00     0.001 A 
ATOM     78  C   UNL A   1      46.004  34.859  30.123  1.00  0.00     0.001 A 
ATOM     79  C   UNL A   1      46.098  35.102  31.492  1.00  0.00     0.000 A 
ENDBRANCH  61  74
ENDBRANCH  35  36
ENDBRANCH  27  30
ENDBRANCH  25  26
ENDBRANCH  24  25
ENDBRANCH   1  24
TORSDOF 13
ENDMDL
