MODEL 1
REMARK VINA RESULT:     -10.5      0.000      0.000
REMARK SMILES CCOc1cccc(OCC)c1-c1ccc([C@@H](C)C(=O)NCCCNC(=O)c2ccc(-c3c4nc(c(-c5ccccc5)c5ccc([nH]5)c(-c5ccccc5)c5nc(c(-c6ccccc6)c6ccc3[nH]6)C=C5)C=C4)cc2)cc1F
REMARK SMILES IDX 22 1 21 2 19 3 20 4 17 6 18 7 16 8 13 9 14 10 77 11 15 12
REMARK SMILES IDX 76 13 78 14 12 15 4 16 5 17 6 18 8 19 7 20 3 21 2 22 1 23
REMARK SMILES IDX 9 24 10 25 11 26 23 27 24 28 25 29 26 30 27 32 28 33 29 34
REMARK SMILES IDX 75 35 30 36 74 37 31 38 32 39 33 40 68 41 34 42 73 43 67 44
REMARK SMILES IDX 69 45 35 46 72 47 66 48 65 49 36 51 58 52 43 53 57 54 44 55
REMARK SMILES IDX 47 56 56 57 70 58 45 59 46 60 55 62 71 63 48 64 37 65 38 66
REMARK SMILES IDX 42 67 39 68 41 69 40 70 59 71 60 72 64 73 61 74 63 75 62 76
REMARK SMILES IDX 49 77 50 78 54 79 51 80 53 81 52 82
REMARK H PARENT 21 5 25 31 69 50 47 61
REMARK Flexibility Score: inf
ROOT
ATOM      1  C   UNL A   1      37.336  21.254  24.986  1.00  0.00     0.117 C 
ENDROOT
BRANCH   1   2
ATOM      2  N   UNL A   1      35.932  20.959  24.732  1.00  0.00    -0.356 N 
ATOM      3  C   UNL A   1      34.751  21.394  25.257  1.00  0.00     0.227 C 
ATOM      4  O   UNL A   1      33.743  20.837  24.801  1.00  0.00    -0.274 OA
ATOM      5  H   UNL A   1      35.807  20.292  24.018  1.00  0.00     0.163 HD
BRANCH   3   6
ATOM      6  C   UNL A   1      34.583  22.479  26.347  1.00  0.00     0.105 C 
ATOM      7  C   UNL A   1      34.054  21.976  27.685  1.00  0.00     0.023 C 
BRANCH   6   8
ATOM      8  C   UNL A   1      33.880  23.734  25.857  1.00  0.00    -0.033 A 
ATOM      9  C   UNL A   1      32.447  25.944  24.772  1.00  0.00     0.025 A 
ATOM     10  C   UNL A   1      31.794  24.819  25.269  1.00  0.00     0.012 A 
ATOM     11  C   UNL A   1      33.849  25.936  24.818  1.00  0.00     0.131 A 
ATOM     12  C   UNL A   1      32.496  23.813  25.911  1.00  0.00     0.005 A 
ATOM     13  C   UNL A   1      34.561  24.831  25.316  1.00  0.00     0.044 A 
ATOM     14  F   UNL A   1      34.547  26.983  24.351  1.00  0.00    -0.206 F 
BRANCH   9  15
ATOM     15  C   UNL A   1      31.631  27.001  24.156  1.00  0.00     0.069 A 
ATOM     16  C   UNL A   1      31.332  28.138  24.957  1.00  0.00     0.130 A 
ATOM     17  C   UNL A   1      30.672  29.260  24.451  1.00  0.00     0.047 A 
ATOM     18  C   UNL A   1      30.313  29.292  23.114  1.00  0.00     0.008 A 
ATOM     19  C   UNL A   1      31.239  27.040  22.797  1.00  0.00     0.130 A 
ATOM     20  C   UNL A   1      30.585  28.190  22.307  1.00  0.00     0.047 A 
BRANCH  16  21
ATOM     21  O   UNL A   1      31.629  28.112  26.301  1.00  0.00    -0.493 OA
BRANCH  21  22
ATOM     22  C   UNL A   1      32.065  29.377  26.808  1.00  0.00     0.226 C 
ATOM     23  C   UNL A   1      33.535  29.555  26.464  1.00  0.00     0.049 C 
ENDBRANCH  21  22
ENDBRANCH  16  21
BRANCH  19  24
ATOM     24  O   UNL A   1      31.338  26.117  21.791  1.00  0.00    -0.493 OA
BRANCH  24  25
ATOM     25  C   UNL A   1      32.545  25.718  21.160  1.00  0.00     0.226 C 
ATOM     26  C   UNL A   1      32.967  24.337  21.644  1.00  0.00     0.049 C 
ENDBRANCH  24  25
ENDBRANCH  19  24
ENDBRANCH   9  15
ENDBRANCH   6   8
ENDBRANCH   3   6
ENDBRANCH   1   2
BRANCH   1  27
ATOM     27  C   UNL A   1      38.235  20.026  24.787  1.00  0.00     0.042 C 
BRANCH  27  28
ATOM     28  C   UNL A   1      38.969  19.531  26.022  1.00  0.00     0.118 C 
BRANCH  28  29
ATOM     29  N   UNL A   1      40.320  19.097  25.724  1.00  0.00    -0.352 N 
ATOM     30  C   UNL A   1      41.526  19.745  25.810  1.00  0.00     0.251 C 
ATOM     31  H   UNL A   1      40.384  18.168  25.403  1.00  0.00     0.163 HD
ATOM     32  O   UNL A   1      42.510  19.199  25.301  1.00  0.00    -0.269 OA
BRANCH  30  33
ATOM     33  C   UNL A   1      41.701  21.064  26.473  1.00  0.00     0.039 A 
ATOM     34  C   UNL A   1      42.043  22.162  25.669  1.00  0.00     0.014 A 
ATOM     35  C   UNL A   1      41.645  21.240  27.858  1.00  0.00     0.014 A 
ATOM     36  C   UNL A   1      42.312  23.410  26.242  1.00  0.00     0.010 A 
ATOM     37  C   UNL A   1      41.822  22.508  28.423  1.00  0.00     0.010 A 
ATOM     38  C   UNL A   1      42.193  23.599  27.626  1.00  0.00    -0.014 A 
BRANCH  38  39
ATOM     39  C   UNL A   1      42.511  24.915  28.244  1.00  0.00     0.031 A 
ATOM     40  C   UNL A   1      43.922  25.243  28.663  1.00  0.00     0.074 A 
ATOM     41  C   UNL A   1      41.533  25.817  28.453  1.00  0.00     0.049 A 
ATOM     42  N   UNL A   1      44.393  26.346  29.195  1.00  0.00    -0.248 NA
ATOM     43  C   UNL A   1      44.932  24.188  28.487  1.00  0.00     0.031 C 
ATOM     44  C   UNL A   1      40.116  25.615  28.146  1.00  0.00     0.029 A 
ATOM     45  N   UNL A   1      41.584  27.089  28.968  1.00  0.00    -0.354 N 
ATOM     46  C   UNL A   1      45.741  26.106  29.437  1.00  0.00     0.074 A 
ATOM     47  C   UNL A   1      46.002  24.739  29.041  1.00  0.00     0.031 C 
ATOM     48  C   UNL A   1      39.438  26.735  28.448  1.00  0.00     0.029 A 
ATOM     49  C   UNL A   1      40.366  27.722  28.991  1.00  0.00     0.049 A 
ATOM     50  H   UNL A   1      42.415  27.506  29.292  1.00  0.00     0.167 HD
ATOM     51  C   UNL A   1      46.685  26.946  29.925  1.00  0.00     0.031 A 
ATOM     52  C   UNL A   1      40.032  28.964  29.392  1.00  0.00     0.031 A 
ATOM     53  C   UNL A   1      46.440  28.313  30.299  1.00  0.00     0.049 A 
ATOM     54  C   UNL A   1      41.101  29.896  29.888  1.00  0.00     0.074 A 
ATOM     55  C   UNL A   1      47.345  29.265  30.738  1.00  0.00     0.029 A 
ATOM     56  N   UNL A   1      45.197  28.925  30.278  1.00  0.00    -0.354 N 
ATOM     57  N   UNL A   1      42.384  29.675  30.035  1.00  0.00    -0.248 NA
ATOM     58  C   UNL A   1      40.674  31.254  30.251  1.00  0.00     0.031 C 
ATOM     59  C   UNL A   1      46.641  30.441  31.023  1.00  0.00     0.029 A 
ATOM     60  C   UNL A   1      45.306  30.235  30.714  1.00  0.00     0.049 A 
ATOM     61  H   UNL A   1      44.359  28.492  29.996  1.00  0.00     0.167 HD
ATOM     62  C   UNL A   1      42.923  30.874  30.486  1.00  0.00     0.074 A 
ATOM     63  C   UNL A   1      41.830  31.821  30.569  1.00  0.00     0.031 C 
ATOM     64  C   UNL A   1      44.209  31.164  30.801  1.00  0.00     0.031 A 
BRANCH  51  65
ATOM     65  C   UNL A   1      48.076  26.397  30.090  1.00  0.00    -0.014 A 
ATOM     66  C   UNL A   1      48.495  25.819  31.301  1.00  0.00     0.009 A 
ATOM     67  C   UNL A   1      48.980  26.450  29.017  1.00  0.00     0.009 A 
ATOM     68  C   UNL A   1      49.802  25.349  31.447  1.00  0.00     0.001 A 
ATOM     69  C   UNL A   1      50.277  25.952  29.157  1.00  0.00     0.001 A 
ATOM     70  C   UNL A   1      50.691  25.414  30.374  1.00  0.00     0.000 A 
ENDBRANCH  51  65
BRANCH  52  71
ATOM     71  C   UNL A   1      38.618  29.411  29.297  1.00  0.00    -0.014 A 
ATOM     72  C   UNL A   1      37.763  29.308  30.404  1.00  0.00     0.009 A 
ATOM     73  C   UNL A   1      38.123  29.958  28.102  1.00  0.00     0.009 A 
ATOM     74  C   UNL A   1      36.434  29.725  30.312  1.00  0.00     0.001 A 
ATOM     75  C   UNL A   1      36.800  30.398  28.021  1.00  0.00     0.001 A 
ATOM     76  C   UNL A   1      35.955  30.274  29.123  1.00  0.00     0.000 A 
ENDBRANCH  52  71
BRANCH  64  77
ATOM     77  C   UNL A   1      44.504  32.570  31.243  1.00  0.00    -0.014 A 
ATOM     78  C   UNL A   1      44.452  32.935  32.596  1.00  0.00     0.009 A 
ATOM     79  C   UNL A   1      44.851  33.539  30.288  1.00  0.00     0.009 A 
ATOM     80  C   UNL A   1      44.703  34.254  32.982  1.00  0.00     0.001 A 
ATOM     81  C   UNL A   1      45.128  34.850  30.679  1.00  0.00     0.001 A 
ATOM     82  C   UNL A   1      45.043  35.210  32.023  1.00  0.00     0.000 A 
ENDBRANCH  64  77
ENDBRANCH  38  39
ENDBRANCH  30  33
ENDBRANCH  28  29
ENDBRANCH  27  28
ENDBRANCH   1  27
TORSDOF 16
ENDMDL
MODEL 2
REMARK VINA RESULT:     -10.5      2.042      7.846
REMARK SMILES CCOc1cccc(OCC)c1-c1ccc([C@@H](C)C(=O)NCCCNC(=O)c2ccc(-c3c4nc(c(-c5ccccc5)c5ccc([nH]5)c(-c5ccccc5)c5nc(c(-c6ccccc6)c6ccc3[nH]6)C=C5)C=C4)cc2)cc1F
REMARK SMILES IDX 22 1 21 2 19 3 20 4 17 6 18 7 16 8 13 9 14 10 77 11 15 12
REMARK SMILES IDX 76 13 78 14 12 15 4 16 5 17 6 18 8 19 7 20 3 21 2 22 1 23
REMARK SMILES IDX 9 24 10 25 11 26 23 27 24 28 25 29 26 30 27 32 28 33 29 34
REMARK SMILES IDX 75 35 30 36 74 37 31 38 32 39 33 40 68 41 34 42 73 43 67 44
REMARK SMILES IDX 69 45 35 46 72 47 66 48 65 49 36 51 58 52 43 53 57 54 44 55
REMARK SMILES IDX 47 56 56 57 70 58 45 59 46 60 55 62 71 63 48 64 37 65 38 66
REMARK SMILES IDX 42 67 39 68 41 69 40 70 59 71 60 72 64 73 61 74 63 75 62 76
REMARK SMILES IDX 49 77 50 78 54 79 51 80 53 81 52 82
REMARK H PARENT 21 5 25 31 69 50 47 61
REMARK Flexibility Score: inf
ROOT
ATOM      1  C   UNL A   1      31.724  29.812  25.650  1.00  0.00     0.117 C 
ENDROOT
BRANCH   1   2
ATOM      2  N   UNL A   1      31.260  29.150  24.439  1.00  0.00    -0.356 N 
ATOM      3  C   UNL A   1      31.854  28.386  23.478  1.00  0.00     0.227 C 
ATOM      4  O   UNL A   1      31.110  28.054  22.544  1.00  0.00    -0.274 OA
ATOM      5  H   UNL A   1      30.299  29.285  24.276  1.00  0.00     0.163 HD
BRANCH   3   6
ATOM      6  C   UNL A   1      33.333  27.931  23.459  1.00  0.00     0.105 C 
ATOM      7  C   UNL A   1      34.178  28.523  22.337  1.00  0.00     0.023 C 
BRANCH   6   8
ATOM      8  C   UNL A   1      33.514  26.431  23.619  1.00  0.00    -0.033 A 
ATOM      9  C   UNL A   1      34.085  23.665  23.992  1.00  0.00     0.025 A 
ATOM     10  C   UNL A   1      34.221  24.588  25.025  1.00  0.00     0.012 A 
ATOM     11  C   UNL A   1      33.663  24.162  22.749  1.00  0.00     0.131 A 
ATOM     12  C   UNL A   1      33.816  25.902  24.865  1.00  0.00     0.005 A 
ATOM     13  C   UNL A   1      33.419  25.531  22.550  1.00  0.00     0.044 A 
ATOM     14  F   UNL A   1      33.516  23.332  21.705  1.00  0.00    -0.206 F 
BRANCH   9  15
ATOM     15  C   UNL A   1      34.480  22.273  24.252  1.00  0.00     0.069 A 
ATOM     16  C   UNL A   1      35.869  22.015  24.424  1.00  0.00     0.130 A 
ATOM     17  C   UNL A   1      36.358  20.761  24.796  1.00  0.00     0.047 A 
ATOM     18  C   UNL A   1      35.468  19.727  25.035  1.00  0.00     0.008 A 
ATOM     19  C   UNL A   1      33.585  21.201  24.478  1.00  0.00     0.130 A 
ATOM     20  C   UNL A   1      34.103  19.947  24.865  1.00  0.00     0.047 A 
BRANCH  16  21
ATOM     21  O   UNL A   1      36.779  23.008  24.142  1.00  0.00    -0.493 OA
BRANCH  21  22
ATOM     22  C   UNL A   1      37.897  23.020  25.035  1.00  0.00     0.226 C 
ATOM     23  C   UNL A   1      37.561  23.914  26.218  1.00  0.00     0.049 C 
ENDBRANCH  21  22
ENDBRANCH  16  21
BRANCH  19  24
ATOM     24  O   UNL A   1      32.224  21.107  24.362  1.00  0.00    -0.493 OA
BRANCH  24  25
ATOM     25  C   UNL A   1      31.283  21.831  25.139  1.00  0.00     0.226 C 
ATOM     26  C   UNL A   1      31.896  22.242  26.472  1.00  0.00     0.049 C 
ENDBRANCH  24  25
ENDBRANCH  19  24
ENDBRANCH   9  15
ENDBRANCH   6   8
ENDBRANCH   3   6
ENDBRANCH   1   2
BRANCH   1  27
ATOM     27  C   UNL A   1      32.134  28.811  26.740  1.00  0.00     0.042 C 
BRANCH  27  28
ATOM     28  C   UNL A   1      33.501  29.033  27.366  1.00  0.00     0.118 C 
BRANCH  28  29
ATOM     29  N   UNL A   1      33.634  30.355  27.948  1.00  0.00    -0.352 N 
ATOM     30  C   UNL A   1      34.673  30.962  28.606  1.00  0.00     0.251 C 
ATOM     31  H   UNL A   1      32.833  30.920  27.852  1.00  0.00     0.163 HD
ATOM     32  O   UNL A   1      34.446  32.033  29.175  1.00  0.00    -0.269 OA
BRANCH  30  33
ATOM     33  C   UNL A   1      36.045  30.391  28.672  1.00  0.00     0.039 A 
ATOM     34  C   UNL A   1      36.462  29.827  29.887  1.00  0.00     0.014 A 
ATOM     35  C   UNL A   1      36.965  30.484  27.625  1.00  0.00     0.014 A 
ATOM     36  C   UNL A   1      37.770  29.355  30.042  1.00  0.00     0.010 A 
ATOM     37  C   UNL A   1      38.244  29.930  27.749  1.00  0.00     0.010 A 
ATOM     38  C   UNL A   1      38.673  29.392  28.970  1.00  0.00    -0.014 A 
BRANCH  38  39
ATOM     39  C   UNL A   1      40.076  28.925  29.140  1.00  0.00     0.031 A 
ATOM     40  C   UNL A   1      41.111  29.822  29.773  1.00  0.00     0.074 A 
ATOM     41  C   UNL A   1      40.437  27.700  28.711  1.00  0.00     0.049 A 
ATOM     42  N   UNL A   1      42.375  29.578  30.025  1.00  0.00    -0.248 NA
ATOM     43  C   UNL A   1      40.678  31.177  30.147  1.00  0.00     0.031 C 
ATOM     44  C   UNL A   1      39.555  26.747  28.035  1.00  0.00     0.029 A 
ATOM     45  N   UNL A   1      41.641  27.045  28.784  1.00  0.00    -0.354 N 
ATOM     46  C   UNL A   1      42.888  30.753  30.561  1.00  0.00     0.074 A 
ATOM     47  C   UNL A   1      41.814  31.724  30.552  1.00  0.00     0.031 C 
ATOM     48  C   UNL A   1      40.239  25.618  27.785  1.00  0.00     0.029 A 
ATOM     49  C   UNL A   1      41.610  25.776  28.261  1.00  0.00     0.049 A 
ATOM     50  H   UNL A   1      42.450  27.448  29.174  1.00  0.00     0.167 HD
ATOM     51  C   UNL A   1      44.131  31.004  31.038  1.00  0.00     0.031 A 
ATOM     52  C   UNL A   1      42.572  24.837  28.182  1.00  0.00     0.031 A 
ATOM     53  C   UNL A   1      45.197  30.039  31.073  1.00  0.00     0.049 A 
ATOM     54  C   UNL A   1      43.931  25.119  28.756  1.00  0.00     0.074 A 
ATOM     55  C   UNL A   1      46.471  30.176  31.600  1.00  0.00     0.029 A 
ATOM     56  N   UNL A   1      45.114  28.755  30.560  1.00  0.00    -0.354 N 
ATOM     57  N   UNL A   1      44.375  26.210  29.331  1.00  0.00    -0.248 NA
ATOM     58  C   UNL A   1      44.914  24.029  28.689  1.00  0.00     0.031 C 
ATOM     59  C   UNL A   1      47.172  28.987  31.367  1.00  0.00     0.029 A 
ATOM     60  C   UNL A   1      46.318  28.094  30.739  1.00  0.00     0.049 A 
ATOM     61  H   UNL A   1      44.317  28.369  30.130  1.00  0.00     0.167 HD
ATOM     62  C   UNL A   1      45.680  25.930  29.715  1.00  0.00     0.074 A 
ATOM     63  C   UNL A   1      45.948  24.561  29.325  1.00  0.00     0.031 C 
ATOM     64  C   UNL A   1      46.576  26.736  30.338  1.00  0.00     0.031 A 
BRANCH  51  65
ATOM     65  C   UNL A   1      44.404  32.392  31.554  1.00  0.00    -0.014 A 
ATOM     66  C   UNL A   1      44.178  32.729  32.899  1.00  0.00     0.009 A 
ATOM     67  C   UNL A   1      44.903  33.374  30.684  1.00  0.00     0.009 A 
ATOM     68  C   UNL A   1      44.402  34.032  33.349  1.00  0.00     0.001 A 
ATOM     69  C   UNL A   1      45.153  34.668  31.144  1.00  0.00     0.001 A 
ATOM     70  C   UNL A   1      44.891  35.000  32.472  1.00  0.00     0.000 A 
ENDBRANCH  51  65
BRANCH  52  71
ATOM     71  C   UNL A   1      42.265  23.520  27.568  1.00  0.00    -0.014 A 
ATOM     72  C   UNL A   1      42.614  23.257  26.234  1.00  0.00     0.009 A 
ATOM     73  C   UNL A   1      41.635  22.514  28.318  1.00  0.00     0.009 A 
ATOM     74  C   UNL A   1      42.321  22.020  25.657  1.00  0.00     0.001 A 
ATOM     75  C   UNL A   1      41.367  21.269  27.745  1.00  0.00     0.001 A 
ATOM     76  C   UNL A   1      41.703  21.025  26.414  1.00  0.00     0.000 A 
ENDBRANCH  52  71
BRANCH  64  77
ATOM     77  C   UNL A   1      47.921  26.145  30.654  1.00  0.00    -0.014 A 
ATOM     78  C   UNL A   1      48.920  26.042  29.675  1.00  0.00     0.009 A 
ATOM     79  C   UNL A   1      48.194  25.697  31.957  1.00  0.00     0.009 A 
ATOM     80  C   UNL A   1      50.154  25.465  29.984  1.00  0.00     0.001 A 
ATOM     81  C   UNL A   1      49.437  25.147  32.269  1.00  0.00     0.001 A 
ATOM     82  C   UNL A   1      50.413  25.020  31.281  1.00  0.00     0.000 A 
ENDBRANCH  64  77
ENDBRANCH  38  39
ENDBRANCH  30  33
ENDBRANCH  28  29
ENDBRANCH  27  28
ENDBRANCH   1  27
TORSDOF 16
ENDMDL
MODEL 3
REMARK VINA RESULT:     -10.3      3.441      7.172
REMARK SMILES CCOc1cccc(OCC)c1-c1ccc([C@@H](C)C(=O)NCCCNC(=O)c2ccc(-c3c4nc(c(-c5ccccc5)c5ccc([nH]5)c(-c5ccccc5)c5nc(c(-c6ccccc6)c6ccc3[nH]6)C=C5)C=C4)cc2)cc1F
REMARK SMILES IDX 22 1 21 2 19 3 20 4 17 6 18 7 16 8 13 9 14 10 77 11 15 12
REMARK SMILES IDX 76 13 78 14 12 15 4 16 5 17 6 18 8 19 7 20 3 21 2 22 1 23
REMARK SMILES IDX 9 24 10 25 11 26 23 27 24 28 25 29 26 30 27 32 28 33 29 34
REMARK SMILES IDX 75 35 30 36 74 37 31 38 32 39 33 40 68 41 34 42 73 43 67 44
REMARK SMILES IDX 69 45 35 46 72 47 66 48 65 49 36 51 58 52 43 53 57 54 44 55
REMARK SMILES IDX 47 56 56 57 70 58 45 59 46 60 55 62 71 63 48 64 37 65 38 66
REMARK SMILES IDX 42 67 39 68 41 69 40 70 59 71 60 72 64 73 61 74 63 75 62 76
REMARK SMILES IDX 49 77 50 78 54 79 51 80 53 81 52 82
REMARK H PARENT 21 5 25 31 69 50 47 61
REMARK Flexibility Score: inf
ROOT
ATOM      1  C   UNL A   1      37.409  22.848  26.085  1.00  0.00     0.117 C 
ENDROOT
BRANCH   1   2
ATOM      2  N   UNL A   1      36.274  22.036  25.667  1.00  0.00    -0.356 N 
ATOM      3  C   UNL A   1      34.959  21.975  26.020  1.00  0.00     0.227 C 
ATOM      4  O   UNL A   1      34.312  21.077  25.463  1.00  0.00    -0.274 OA
ATOM      5  H   UNL A   1      36.511  21.381  24.971  1.00  0.00     0.163 HD
BRANCH   3   6
ATOM      6  C   UNL A   1      34.243  22.898  27.035  1.00  0.00     0.105 C 
ATOM      7  C   UNL A   1      33.323  22.187  28.021  1.00  0.00     0.023 C 
BRANCH   6   8
ATOM      8  C   UNL A   1      33.610  24.126  26.403  1.00  0.00    -0.033 A 
ATOM      9  C   UNL A   1      32.284  26.275  25.083  1.00  0.00     0.025 A 
ATOM     10  C   UNL A   1      31.581  25.304  25.792  1.00  0.00     0.012 A 
ATOM     11  C   UNL A   1      33.679  26.141  25.037  1.00  0.00     0.131 A 
ATOM     12  C   UNL A   1      32.246  24.343  26.535  1.00  0.00     0.005 A 
ATOM     13  C   UNL A   1      34.335  25.061  25.653  1.00  0.00     0.044 A 
ATOM     14  F   UNL A   1      34.422  27.036  24.366  1.00  0.00    -0.206 F 
BRANCH   9  15
ATOM     15  C   UNL A   1      31.512  27.300  24.365  1.00  0.00     0.069 A 
ATOM     16  C   UNL A   1      31.323  28.547  25.023  1.00  0.00     0.130 A 
ATOM     17  C   UNL A   1      30.716  29.640  24.401  1.00  0.00     0.047 A 
ATOM     18  C   UNL A   1      30.301  29.528  23.084  1.00  0.00     0.008 A 
ATOM     19  C   UNL A   1      31.064  27.195  23.027  1.00  0.00     0.130 A 
ATOM     20  C   UNL A   1      30.465  28.316  22.416  1.00  0.00     0.047 A 
BRANCH  16  21
ATOM     21  O   UNL A   1      31.676  28.670  26.348  1.00  0.00    -0.493 OA
BRANCH  21  22
ATOM     22  C   UNL A   1      32.521  29.796  26.606  1.00  0.00     0.226 C 
ATOM     23  C   UNL A   1      33.945  29.298  26.792  1.00  0.00     0.049 C 
ENDBRANCH  21  22
ENDBRANCH  16  21
BRANCH  19  24
ATOM     24  O   UNL A   1      31.059  26.148  22.146  1.00  0.00    -0.493 OA
BRANCH  24  25
ATOM     25  C   UNL A   1      32.107  25.831  21.242  1.00  0.00     0.226 C 
ATOM     26  C   UNL A   1      32.976  24.714  21.805  1.00  0.00     0.049 C 
ENDBRANCH  24  25
ENDBRANCH  19  24
ENDBRANCH   9  15
ENDBRANCH   6   8
ENDBRANCH   3   6
ENDBRANCH   1   2
BRANCH   1  27
ATOM     27  C   UNL A   1      38.752  22.160  25.804  1.00  0.00     0.042 C 
BRANCH  27  28
ATOM     28  C   UNL A   1      39.891  22.516  26.746  1.00  0.00     0.118 C 
BRANCH  28  29
ATOM     29  N   UNL A   1      41.058  23.008  26.039  1.00  0.00    -0.352 N 
ATOM     30  C   UNL A   1      41.698  24.221  26.069  1.00  0.00     0.251 C 
ATOM     31  H   UNL A   1      41.466  22.352  25.428  1.00  0.00     0.163 HD
ATOM     32  O   UNL A   1      42.559  24.437  25.211  1.00  0.00    -0.269 OA
BRANCH  30  33
ATOM     33  C   UNL A   1      41.401  25.279  27.070  1.00  0.00     0.039 A 
ATOM     34  C   UNL A   1      42.174  26.449  27.036  1.00  0.00     0.014 A 
ATOM     35  C   UNL A   1      40.469  25.121  28.099  1.00  0.00     0.014 A 
ATOM     36  C   UNL A   1      42.006  27.443  28.007  1.00  0.00     0.010 A 
ATOM     37  C   UNL A   1      40.236  26.153  29.014  1.00  0.00     0.010 A 
ATOM     38  C   UNL A   1      41.026  27.311  29.001  1.00  0.00    -0.014 A 
BRANCH  38  39
ATOM     39  C   UNL A   1      40.868  28.348  30.057  1.00  0.00     0.031 A 
ATOM     40  C   UNL A   1      39.760  29.368  29.969  1.00  0.00     0.074 A 
ATOM     41  C   UNL A   1      41.730  28.396  31.091  1.00  0.00     0.049 A 
ATOM     42  N   UNL A   1      39.452  30.330  30.805  1.00  0.00    -0.248 NA
ATOM     43  C   UNL A   1      38.901  29.317  28.776  1.00  0.00     0.031 C 
ATOM     44  C   UNL A   1      42.878  27.507  31.276  1.00  0.00     0.029 A 
ATOM     45  N   UNL A   1      41.769  29.225  32.184  1.00  0.00    -0.354 N 
ATOM     46  C   UNL A   1      38.386  31.009  30.227  1.00  0.00     0.074 A 
ATOM     47  C   UNL A   1      38.131  30.381  28.948  1.00  0.00     0.031 C 
ATOM     48  C   UNL A   1      43.490  27.817  32.431  1.00  0.00     0.029 A 
ATOM     49  C   UNL A   1      42.793  28.939  33.054  1.00  0.00     0.049 A 
ATOM     50  H   UNL A   1      41.126  29.955  32.330  1.00  0.00     0.167 HD
ATOM     51  C   UNL A   1      37.666  32.047  30.718  1.00  0.00     0.031 A 
ATOM     52  C   UNL A   1      43.128  29.506  34.228  1.00  0.00     0.031 A 
ATOM     53  C   UNL A   1      37.897  32.662  31.998  1.00  0.00     0.049 A 
ATOM     54  C   UNL A   1      42.292  30.627  34.776  1.00  0.00     0.074 A 
ATOM     55  C   UNL A   1      37.178  33.674  32.613  1.00  0.00     0.029 A 
ATOM     56  N   UNL A   1      38.925  32.321  32.861  1.00  0.00    -0.354 N 
ATOM     57  N   UNL A   1      41.238  31.203  34.251  1.00  0.00    -0.248 NA
ATOM     58  C   UNL A   1      42.679  31.158  36.090  1.00  0.00     0.031 C 
ATOM     59  C   UNL A   1      37.799  33.973  33.831  1.00  0.00     0.029 A 
ATOM     60  C   UNL A   1      38.874  33.115  33.995  1.00  0.00     0.049 A 
ATOM     61  H   UNL A   1      39.595  31.620  32.693  1.00  0.00     0.167 HD
ATOM     62  C   UNL A   1      40.824  32.149  35.181  1.00  0.00     0.074 A 
ATOM     63  C   UNL A   1      41.727  32.054  36.308  1.00  0.00     0.031 C 
ATOM     64  C   UNL A   1      39.785  33.018  35.106  1.00  0.00     0.031 A 
BRANCH  51  65
ATOM     65  C   UNL A   1      36.562  32.589  29.851  1.00  0.00    -0.014 A 
ATOM     66  C   UNL A   1      36.774  33.685  28.997  1.00  0.00     0.009 A 
ATOM     67  C   UNL A   1      35.292  31.991  29.882  1.00  0.00     0.009 A 
ATOM     68  C   UNL A   1      35.727  34.198  28.228  1.00  0.00     0.001 A 
ATOM     69  C   UNL A   1      34.255  32.488  29.090  1.00  0.00     0.001 A 
ATOM     70  C   UNL A   1      34.469  33.597  28.274  1.00  0.00     0.000 A 
ENDBRANCH  51  65
BRANCH  52  71
ATOM     71  C   UNL A   1      44.295  28.987  34.989  1.00  0.00    -0.014 A 
ATOM     72  C   UNL A   1      44.136  27.940  35.909  1.00  0.00     0.009 A 
ATOM     73  C   UNL A   1      45.575  29.527  34.785  1.00  0.00     0.009 A 
ATOM     74  C   UNL A   1      45.233  27.457  36.626  1.00  0.00     0.001 A 
ATOM     75  C   UNL A   1      46.674  29.024  35.484  1.00  0.00     0.001 A 
ATOM     76  C   UNL A   1      46.501  27.995  36.409  1.00  0.00     0.000 A 
ENDBRANCH  52  71
BRANCH  64  77
ATOM     77  C   UNL A   1      39.560  33.916  36.290  1.00  0.00    -0.014 A 
ATOM     78  C   UNL A   1      40.023  35.241  36.297  1.00  0.00     0.009 A 
ATOM     79  C   UNL A   1      38.862  33.431  37.407  1.00  0.00     0.009 A 
ATOM     80  C   UNL A   1      39.826  36.050  37.418  1.00  0.00     0.001 A 
ATOM     81  C   UNL A   1      38.644  34.251  38.515  1.00  0.00     0.001 A 
ATOM     82  C   UNL A   1      39.135  35.556  38.525  1.00  0.00     0.000 A 
ENDBRANCH  64  77
ENDBRANCH  38  39
ENDBRANCH  30  33
ENDBRANCH  28  29
ENDBRANCH  27  28
ENDBRANCH   1  27
TORSDOF 16
ENDMDL
