MODEL 1
REMARK VINA RESULT:     -10.4      0.000      0.000
REMARK SMILES O=C(CNC(=O)CNC(=O)OCc1ccccc1)NCCCNC(=O)c1ccc(-c2c3nc(c(-c4ccccc4)c4ccc([nH]4)c(-c4ccccc4)c4nc(c(-c5ccccc5)c5ccc2[nH]5)C=C4)C=C3)cc1
REMARK SMILES IDX 1 1 2 2 19 3 3 5 4 6 5 7 6 9 7 10 8 11 9 12 10 14 11 15
REMARK SMILES IDX 12 16 13 17 14 18 18 19 15 20 17 21 16 22 20 23 21 24 22 25
REMARK SMILES IDX 23 26 24 27 25 29 26 30 27 31 73 32 28 33 72 34 29 35 30 36
REMARK SMILES IDX 31 37 66 38 32 39 71 40 65 41 67 42 33 43 70 44 64 45 63 46
REMARK SMILES IDX 34 48 56 49 41 50 55 51 42 52 45 53 54 54 68 55 43 56 44 57
REMARK SMILES IDX 53 59 69 60 46 61 35 62 36 63 40 64 37 65 39 66 38 67 57 68
REMARK SMILES IDX 58 69 62 70 59 71 61 72 60 73 47 74 48 75 52 76 49 77 51 78
REMARK SMILES IDX 50 79
REMARK H PARENT 19 4 4 8 8 13 23 28 67 47 45 58
REMARK Flexibility Score: inf
ROOT
ATOM      1  O   UNL A   1      33.533  28.480  25.547  1.00  0.00    -0.273 OA
ATOM      2  C   UNL A   1      33.010  29.129  24.644  1.00  0.00     0.239 C 
ATOM      3  N   UNL A   1      32.044  30.087  24.865  1.00  0.00    -0.355 N 
ATOM      4  H   UNL A   1      31.759  30.656  24.113  1.00  0.00     0.163 HD
ENDROOT
BRANCH   2   5
ATOM      5  C   UNL A   1      33.449  28.960  23.181  1.00  0.00     0.216 C 
BRANCH   5   6
ATOM      6  N   UNL A   1      33.878  27.607  22.842  1.00  0.00    -0.346 N 
ATOM      7  C   UNL A   1      33.165  26.587  22.283  1.00  0.00     0.239 C 
ATOM      8  H   UNL A   1      34.818  27.400  23.048  1.00  0.00     0.164 HD
ATOM      9  O   UNL A   1      33.728  25.501  22.131  1.00  0.00    -0.273 OA
BRANCH   7  10
ATOM     10  C   UNL A   1      31.692  26.778  21.928  1.00  0.00     0.219 C 
BRANCH  10  11
ATOM     11  N   UNL A   1      30.888  26.194  22.983  1.00  0.00    -0.312 N 
ATOM     12  C   UNL A   1      30.122  26.869  23.881  1.00  0.00     0.407 C 
ATOM     13  H   UNL A   1      30.898  25.212  23.058  1.00  0.00     0.167 HD
ATOM     14  O   UNL A   1      29.702  26.309  24.886  1.00  0.00    -0.225 OA
BRANCH  12  15
ATOM     15  O   UNL A   1      29.944  28.169  23.557  1.00  0.00    -0.445 OA
BRANCH  15  16
ATOM     16  C   UNL A   1      28.646  28.518  23.054  1.00  0.00     0.270 C 
BRANCH  16  17
ATOM     17  C   UNL A   1      28.542  29.961  22.630  1.00  0.00    -0.011 A 
ATOM     18  C   UNL A   1      28.196  30.308  21.318  1.00  0.00     0.007 A 
ATOM     19  C   UNL A   1      28.781  30.982  23.562  1.00  0.00     0.007 A 
ATOM     20  C   UNL A   1      28.103  31.652  20.947  1.00  0.00     0.000 A 
ATOM     21  C   UNL A   1      28.678  32.322  23.193  1.00  0.00     0.000 A 
ATOM     22  C   UNL A   1      28.341  32.657  21.884  1.00  0.00     0.000 A 
ENDBRANCH  16  17
ENDBRANCH  15  16
ENDBRANCH  12  15
ENDBRANCH  10  11
ENDBRANCH   7  10
ENDBRANCH   5   6
ENDBRANCH   2   5
BRANCH   3  23
ATOM     23  C   UNL A   1      31.433  30.289  26.164  1.00  0.00     0.117 C 
BRANCH  23  24
ATOM     24  C   UNL A   1      31.239  31.754  26.545  1.00  0.00     0.042 C 
BRANCH  24  25
ATOM     25  C   UNL A   1      32.526  32.555  26.725  1.00  0.00     0.118 C 
BRANCH  25  26
ATOM     26  N   UNL A   1      32.360  33.752  27.537  1.00  0.00    -0.352 N 
ATOM     27  C   UNL A   1      33.124  34.289  28.539  1.00  0.00     0.251 C 
ATOM     28  H   UNL A   1      31.550  34.270  27.325  1.00  0.00     0.163 HD
ATOM     29  O   UNL A   1      32.710  35.301  29.105  1.00  0.00    -0.269 OA
BRANCH  27  30
ATOM     30  C   UNL A   1      34.408  33.691  28.984  1.00  0.00     0.039 A 
ATOM     31  C   UNL A   1      35.552  33.981  28.228  1.00  0.00     0.014 A 
ATOM     32  C   UNL A   1      34.512  32.806  30.060  1.00  0.00     0.014 A 
ATOM     33  C   UNL A   1      36.787  33.421  28.564  1.00  0.00     0.010 A 
ATOM     34  C   UNL A   1      35.761  32.301  30.439  1.00  0.00     0.010 A 
ATOM     35  C   UNL A   1      36.909  32.590  29.687  1.00  0.00    -0.014 A 
BRANCH  35  36
ATOM     36  C   UNL A   1      38.228  32.008  30.055  1.00  0.00     0.031 A 
ATOM     37  C   UNL A   1      39.143  32.725  31.014  1.00  0.00     0.074 A 
ATOM     38  C   UNL A   1      38.617  30.834  29.519  1.00  0.00     0.049 A 
ATOM     39  N   UNL A   1      40.317  32.357  31.468  1.00  0.00    -0.248 NA
ATOM     40  C   UNL A   1      38.691  34.033  31.513  1.00  0.00     0.031 C 
ATOM     41  C   UNL A   1      37.849  30.049  28.551  1.00  0.00     0.029 A 
ATOM     42  N   UNL A   1      39.756  30.094  29.720  1.00  0.00    -0.354 N 
ATOM     43  C   UNL A   1      40.746  33.390  32.290  1.00  0.00     0.074 A 
ATOM     44  C   UNL A   1      39.730  34.419  32.238  1.00  0.00     0.031 C 
ATOM     45  C   UNL A   1      38.524  28.922  28.267  1.00  0.00     0.029 A 
ATOM     46  C   UNL A   1      39.780  28.918  29.010  1.00  0.00     0.049 A 
ATOM     47  H   UNL A   1      40.486  30.379  30.316  1.00  0.00     0.167 HD
ATOM     48  C   UNL A   1      41.873  33.473  33.038  1.00  0.00     0.031 A 
ATOM     49  C   UNL A   1      40.704  27.939  28.968  1.00  0.00     0.031 A 
ATOM     50  C   UNL A   1      42.884  32.451  33.107  1.00  0.00     0.049 A 
ATOM     51  C   UNL A   1      41.937  28.046  29.818  1.00  0.00     0.074 A 
ATOM     52  C   UNL A   1      44.040  32.429  33.870  1.00  0.00     0.029 A 
ATOM     53  N   UNL A   1      42.860  31.269  32.385  1.00  0.00    -0.354 N 
ATOM     54  N   UNL A   1      42.296  29.002  30.639  1.00  0.00    -0.248 NA
ATOM     55  C   UNL A   1      42.884  26.922  29.752  1.00  0.00     0.031 C 
ATOM     56  C   UNL A   1      44.732  31.247  33.583  1.00  0.00     0.029 A 
ATOM     57  C   UNL A   1      43.984  30.514  32.678  1.00  0.00     0.049 A 
ATOM     58  H   UNL A   1      42.149  31.004  31.757  1.00  0.00     0.167 HD
ATOM     59  C   UNL A   1      43.490  28.581  31.212  1.00  0.00     0.074 A 
ATOM     60  C   UNL A   1      43.787  27.279  30.654  1.00  0.00     0.031 C 
ATOM     61  C   UNL A   1      44.268  29.216  32.121  1.00  0.00     0.031 A 
BRANCH  48  62
ATOM     62  C   UNL A   1      42.073  34.726  33.844  1.00  0.00    -0.014 A 
ATOM     63  C   UNL A   1      41.642  34.807  35.178  1.00  0.00     0.009 A 
ATOM     64  C   UNL A   1      42.727  35.830  33.275  1.00  0.00     0.009 A 
ATOM     65  C   UNL A   1      41.825  35.981  35.912  1.00  0.00     0.001 A 
ATOM     66  C   UNL A   1      42.933  36.993  34.019  1.00  0.00     0.001 A 
ATOM     67  C   UNL A   1      42.475  37.071  35.333  1.00  0.00     0.000 A 
ENDBRANCH  48  62
BRANCH  49  68
ATOM     68  C   UNL A   1      40.481  26.744  28.114  1.00  0.00    -0.014 A 
ATOM     69  C   UNL A   1      41.019  26.686  26.819  1.00  0.00     0.009 A 
ATOM     70  C   UNL A   1      39.720  25.662  28.583  1.00  0.00     0.009 A 
ATOM     71  C   UNL A   1      40.775  25.582  26.000  1.00  0.00     0.001 A 
ATOM     72  C   UNL A   1      39.500  24.548  27.771  1.00  0.00     0.001 A 
ATOM     73  C   UNL A   1      40.019  24.513  26.477  1.00  0.00     0.000 A 
ENDBRANCH  49  68
BRANCH  61  74
ATOM     74  C   UNL A   1      45.490  28.489  32.605  1.00  0.00    -0.014 A 
ATOM     75  C   UNL A   1      45.431  27.589  33.679  1.00  0.00     0.009 A 
ATOM     76  C   UNL A   1      46.721  28.698  31.960  1.00  0.00     0.009 A 
ATOM     77  C   UNL A   1      46.586  26.945  34.125  1.00  0.00     0.001 A 
ATOM     78  C   UNL A   1      47.868  28.032  32.390  1.00  0.00     0.001 A 
ATOM     79  C   UNL A   1      47.803  27.164  33.480  1.00  0.00     0.000 A 
ENDBRANCH  61  74
ENDBRANCH  35  36
ENDBRANCH  27  30
ENDBRANCH  25  26
ENDBRANCH  24  25
ENDBRANCH  23  24
ENDBRANCH   3  23
TORSDOF 16
ENDMDL
MODEL 2
REMARK VINA RESULT:     -10.4      1.414      3.608
REMARK SMILES O=C(CNC(=O)CNC(=O)OCc1ccccc1)NCCCNC(=O)c1ccc(-c2c3nc(c(-c4ccccc4)c4ccc([nH]4)c(-c4ccccc4)c4nc(c(-c5ccccc5)c5ccc2[nH]5)C=C4)C=C3)cc1
REMARK SMILES IDX 1 1 2 2 19 3 3 5 4 6 5 7 6 9 7 10 8 11 9 12 10 14 11 15
REMARK SMILES IDX 12 16 13 17 14 18 18 19 15 20 17 21 16 22 20 23 21 24 22 25
REMARK SMILES IDX 23 26 24 27 25 29 26 30 27 31 73 32 28 33 72 34 29 35 30 36
REMARK SMILES IDX 31 37 66 38 32 39 71 40 65 41 67 42 33 43 70 44 64 45 63 46
REMARK SMILES IDX 34 48 56 49 41 50 55 51 42 52 45 53 54 54 68 55 43 56 44 57
REMARK SMILES IDX 53 59 69 60 46 61 35 62 36 63 40 64 37 65 39 66 38 67 57 68
REMARK SMILES IDX 58 69 62 70 59 71 61 72 60 73 47 74 48 75 52 76 49 77 51 78
REMARK SMILES IDX 50 79
REMARK H PARENT 19 4 4 8 8 13 23 28 67 47 45 58
REMARK Flexibility Score: inf
ROOT
ATOM      1  O   UNL A   1      32.206  28.194  25.853  1.00  0.00    -0.273 OA
ATOM      2  C   UNL A   1      32.873  29.001  25.210  1.00  0.00     0.239 C 
ATOM      3  N   UNL A   1      33.566  30.041  25.791  1.00  0.00    -0.355 N 
ATOM      4  H   UNL A   1      34.179  30.573  25.233  1.00  0.00     0.163 HD
ENDROOT
BRANCH   2   5
ATOM      5  C   UNL A   1      33.035  28.870  23.687  1.00  0.00     0.216 C 
BRANCH   5   6
ATOM      6  N   UNL A   1      31.849  29.253  22.929  1.00  0.00    -0.346 N 
ATOM      7  C   UNL A   1      30.876  28.466  22.384  1.00  0.00     0.239 C 
ATOM      8  H   UNL A   1      31.733  30.221  22.790  1.00  0.00     0.164 HD
ATOM      9  O   UNL A   1      29.984  29.013  21.735  1.00  0.00    -0.273 OA
BRANCH   7  10
ATOM     10  C   UNL A   1      30.947  26.946  22.520  1.00  0.00     0.219 C 
BRANCH  10  11
ATOM     11  N   UNL A   1      31.508  26.404  21.299  1.00  0.00    -0.312 N 
ATOM     12  C   UNL A   1      32.594  25.593  21.201  1.00  0.00     0.407 C 
ATOM     13  H   UNL A   1      31.057  26.645  20.457  1.00  0.00     0.167 HD
ATOM     14  O   UNL A   1      33.140  25.411  20.119  1.00  0.00    -0.225 OA
BRANCH  12  15
ATOM     15  O   UNL A   1      32.993  25.090  22.391  1.00  0.00    -0.445 OA
BRANCH  15  16
ATOM     16  C   UNL A   1      33.676  23.830  22.341  1.00  0.00     0.270 C 
BRANCH  16  17
ATOM     17  C   UNL A   1      34.735  23.687  23.406  1.00  0.00    -0.011 A 
ATOM     18  C   UNL A   1      35.833  22.836  23.227  1.00  0.00     0.007 A 
ATOM     19  C   UNL A   1      34.635  24.427  24.594  1.00  0.00     0.007 A 
ATOM     20  C   UNL A   1      36.804  22.721  24.225  1.00  0.00     0.000 A 
ATOM     21  C   UNL A   1      35.610  24.319  25.584  1.00  0.00     0.000 A 
ATOM     22  C   UNL A   1      36.693  23.464  25.401  1.00  0.00     0.000 A 
ENDBRANCH  16  17
ENDBRANCH  15  16
ENDBRANCH  12  15
ENDBRANCH  10  11
ENDBRANCH   7  10
ENDBRANCH   5   6
ENDBRANCH   2   5
BRANCH   3  23
ATOM     23  C   UNL A   1      33.427  30.379  27.194  1.00  0.00     0.117 C 
BRANCH  23  24
ATOM     24  C   UNL A   1      32.342  31.411  27.485  1.00  0.00     0.042 C 
BRANCH  24  25
ATOM     25  C   UNL A   1      32.488  32.737  26.742  1.00  0.00     0.118 C 
BRANCH  25  26
ATOM     26  N   UNL A   1      32.320  33.905  27.594  1.00  0.00    -0.352 N 
ATOM     27  C   UNL A   1      33.083  34.411  28.613  1.00  0.00     0.251 C 
ATOM     28  H   UNL A   1      31.508  34.428  27.400  1.00  0.00     0.163 HD
ATOM     29  O   UNL A   1      32.667  35.402  29.213  1.00  0.00    -0.269 OA
BRANCH  27  30
ATOM     30  C   UNL A   1      34.370  33.802  29.036  1.00  0.00     0.039 A 
ATOM     31  C   UNL A   1      35.494  34.048  28.238  1.00  0.00     0.014 A 
ATOM     32  C   UNL A   1      34.490  32.946  30.134  1.00  0.00     0.014 A 
ATOM     33  C   UNL A   1      36.729  33.474  28.553  1.00  0.00     0.010 A 
ATOM     34  C   UNL A   1      35.741  32.428  30.490  1.00  0.00     0.010 A 
ATOM     35  C   UNL A   1      36.870  32.674  29.696  1.00  0.00    -0.014 A 
BRANCH  35  36
ATOM     36  C   UNL A   1      38.189  32.078  30.041  1.00  0.00     0.031 A 
ATOM     37  C   UNL A   1      39.132  32.788  30.977  1.00  0.00     0.074 A 
ATOM     38  C   UNL A   1      38.553  30.896  29.505  1.00  0.00     0.049 A 
ATOM     39  N   UNL A   1      40.310  32.409  31.409  1.00  0.00    -0.248 NA
ATOM     40  C   UNL A   1      38.706  34.105  31.478  1.00  0.00     0.031 C 
ATOM     41  C   UNL A   1      37.756  30.115  28.557  1.00  0.00     0.029 A 
ATOM     42  N   UNL A   1      39.687  30.143  29.686  1.00  0.00    -0.354 N 
ATOM     43  C   UNL A   1      40.768  33.441  32.217  1.00  0.00     0.074 A 
ATOM     44  C   UNL A   1      39.764  34.482  32.179  1.00  0.00     0.031 C 
ATOM     45  C   UNL A   1      38.411  28.978  28.266  1.00  0.00     0.029 A 
ATOM     46  C   UNL A   1      39.682  28.963  28.984  1.00  0.00     0.049 A 
ATOM     47  H   UNL A   1      40.432  30.422  30.266  1.00  0.00     0.167 HD
ATOM     48  C   UNL A   1      41.911  33.514  32.942  1.00  0.00     0.031 A 
ATOM     49  C   UNL A   1      40.593  27.972  28.929  1.00  0.00     0.031 A 
ATOM     50  C   UNL A   1      42.911  32.481  32.997  1.00  0.00     0.049 A 
ATOM     51  C   UNL A   1      41.844  28.069  29.754  1.00  0.00     0.074 A 
ATOM     52  C   UNL A   1      44.081  32.449  33.737  1.00  0.00     0.029 A 
ATOM     53  N   UNL A   1      42.857  31.295  32.282  1.00  0.00    -0.354 N 
ATOM     54  N   UNL A   1      42.231  29.026  30.561  1.00  0.00    -0.248 NA
ATOM     55  C   UNL A   1      42.775  26.933  29.675  1.00  0.00     0.031 C 
ATOM     56  C   UNL A   1      44.753  31.257  33.442  1.00  0.00     0.029 A 
ATOM     57  C   UNL A   1      43.978  30.528  32.557  1.00  0.00     0.049 A 
ATOM     58  H   UNL A   1      42.131  31.035  31.670  1.00  0.00     0.167 HD
ATOM     59  C   UNL A   1      43.431  28.593  31.112  1.00  0.00     0.074 A 
ATOM     60  C   UNL A   1      43.701  27.284  30.557  1.00  0.00     0.031 C 
ATOM     61  C   UNL A   1      44.235  29.224  32.003  1.00  0.00     0.031 A 
BRANCH  48  62
ATOM     62  C   UNL A   1      42.142  34.770  33.736  1.00  0.00    -0.014 A 
ATOM     63  C   UNL A   1      41.719  34.871  35.072  1.00  0.00     0.009 A 
ATOM     64  C   UNL A   1      42.817  35.854  33.155  1.00  0.00     0.009 A 
ATOM     65  C   UNL A   1      41.932  36.048  35.794  1.00  0.00     0.001 A 
ATOM     66  C   UNL A   1      43.053  37.018  33.888  1.00  0.00     0.001 A 
ATOM     67  C   UNL A   1      42.602  37.118  35.203  1.00  0.00     0.000 A 
ENDBRANCH  48  62
BRANCH  49  68
ATOM     68  C   UNL A   1      40.338  26.775  28.086  1.00  0.00    -0.014 A 
ATOM     69  C   UNL A   1      39.572  25.709  28.581  1.00  0.00     0.009 A 
ATOM     70  C   UNL A   1      40.869  26.687  26.791  1.00  0.00     0.009 A 
ATOM     71  C   UNL A   1      39.367  24.565  27.806  1.00  0.00     0.001 A 
ATOM     72  C   UNL A   1      40.640  25.553  26.009  1.00  0.00     0.001 A 
ATOM     73  C   UNL A   1      39.898  24.490  26.520  1.00  0.00     0.000 A 
ENDBRANCH  49  68
BRANCH  61  74
ATOM     74  C   UNL A   1      45.457  28.484  32.466  1.00  0.00    -0.014 A 
ATOM     75  C   UNL A   1      46.691  28.625  31.813  1.00  0.00     0.009 A 
ATOM     76  C   UNL A   1      45.373  27.643  33.588  1.00  0.00     0.009 A 
ATOM     77  C   UNL A   1      47.806  27.906  32.249  1.00  0.00     0.001 A 
ATOM     78  C   UNL A   1      46.496  26.946  34.037  1.00  0.00     0.001 A 
ATOM     79  C   UNL A   1      47.709  27.070  33.361  1.00  0.00     0.000 A 
ENDBRANCH  61  74
ENDBRANCH  35  36
ENDBRANCH  27  30
ENDBRANCH  25  26
ENDBRANCH  24  25
ENDBRANCH  23  24
ENDBRANCH   3  23
TORSDOF 16
ENDMDL
MODEL 3
REMARK VINA RESULT:     -10.3      1.740      2.280
REMARK SMILES O=C(CNC(=O)CNC(=O)OCc1ccccc1)NCCCNC(=O)c1ccc(-c2c3nc(c(-c4ccccc4)c4ccc([nH]4)c(-c4ccccc4)c4nc(c(-c5ccccc5)c5ccc2[nH]5)C=C4)C=C3)cc1
REMARK SMILES IDX 1 1 2 2 19 3 3 5 4 6 5 7 6 9 7 10 8 11 9 12 10 14 11 15
REMARK SMILES IDX 12 16 13 17 14 18 18 19 15 20 17 21 16 22 20 23 21 24 22 25
REMARK SMILES IDX 23 26 24 27 25 29 26 30 27 31 73 32 28 33 72 34 29 35 30 36
REMARK SMILES IDX 31 37 66 38 32 39 71 40 65 41 67 42 33 43 70 44 64 45 63 46
REMARK SMILES IDX 34 48 56 49 41 50 55 51 42 52 45 53 54 54 68 55 43 56 44 57
REMARK SMILES IDX 53 59 69 60 46 61 35 62 36 63 40 64 37 65 39 66 38 67 57 68
REMARK SMILES IDX 58 69 62 70 59 71 61 72 60 73 47 74 48 75 52 76 49 77 51 78
REMARK SMILES IDX 50 79
REMARK H PARENT 19 4 4 8 8 13 23 28 67 47 45 58
REMARK Flexibility Score: inf
ROOT
ATOM      1  O   UNL A   1      33.810  28.703  25.339  1.00  0.00    -0.273 OA
ATOM      2  C   UNL A   1      33.082  29.171  24.466  1.00  0.00     0.239 C 
ATOM      3  N   UNL A   1      31.988  29.964  24.742  1.00  0.00    -0.355 N 
ATOM      4  H   UNL A   1      31.523  30.407  23.995  1.00  0.00     0.163 HD
ENDROOT
BRANCH   2   5
ATOM      5  C   UNL A   1      33.379  28.952  22.975  1.00  0.00     0.216 C 
BRANCH   5   6
ATOM      6  N   UNL A   1      33.809  27.596  22.648  1.00  0.00    -0.346 N 
ATOM      7  C   UNL A   1      33.088  26.561  22.129  1.00  0.00     0.239 C 
ATOM      8  H   UNL A   1      34.756  27.400  22.829  1.00  0.00     0.164 HD
ATOM      9  O   UNL A   1      33.655  25.477  21.980  1.00  0.00    -0.273 OA
BRANCH   7  10
ATOM     10  C   UNL A   1      31.603  26.734  21.815  1.00  0.00     0.219 C 
BRANCH  10  11
ATOM     11  N   UNL A   1      30.837  26.210  22.929  1.00  0.00    -0.312 N 
ATOM     12  C   UNL A   1      30.119  26.936  23.826  1.00  0.00     0.407 C 
ATOM     13  H   UNL A   1      30.836  25.233  23.046  1.00  0.00     0.167 HD
ATOM     14  O   UNL A   1      29.734  26.428  24.872  1.00  0.00    -0.225 OA
BRANCH  12  15
ATOM     15  O   UNL A   1      29.945  28.224  23.452  1.00  0.00    -0.445 OA
BRANCH  15  16
ATOM     16  C   UNL A   1      28.620  28.582  23.036  1.00  0.00     0.270 C 
BRANCH  16  17
ATOM     17  C   UNL A   1      28.502  30.023  22.608  1.00  0.00    -0.011 A 
ATOM     18  C   UNL A   1      28.771  31.069  23.499  1.00  0.00     0.007 A 
ATOM     19  C   UNL A   1      28.130  30.332  21.291  1.00  0.00     0.007 A 
ATOM     20  C   UNL A   1      28.658  32.397  23.081  1.00  0.00     0.000 A 
ATOM     21  C   UNL A   1      28.028  31.658  20.872  1.00  0.00     0.000 A 
ATOM     22  C   UNL A   1      28.289  32.690  21.768  1.00  0.00     0.000 A 
ENDBRANCH  16  17
ENDBRANCH  15  16
ENDBRANCH  12  15
ENDBRANCH  10  11
ENDBRANCH   7  10
ENDBRANCH   5   6
ENDBRANCH   2   5
BRANCH   3  23
ATOM     23  C   UNL A   1      31.497  30.171  26.090  1.00  0.00     0.117 C 
BRANCH  23  24
ATOM     24  C   UNL A   1      31.393  31.636  26.501  1.00  0.00     0.042 C 
BRANCH  24  25
ATOM     25  C   UNL A   1      32.713  32.301  26.885  1.00  0.00     0.118 C 
BRANCH  25  26
ATOM     26  N   UNL A   1      32.552  33.615  27.488  1.00  0.00    -0.352 N 
ATOM     27  C   UNL A   1      33.273  34.275  28.449  1.00  0.00     0.251 C 
ATOM     28  H   UNL A   1      31.783  34.123  27.141  1.00  0.00     0.163 HD
ATOM     29  O   UNL A   1      32.872  35.377  28.820  1.00  0.00    -0.269 OA
BRANCH  27  30
ATOM     30  C   UNL A   1      34.496  33.706  29.071  1.00  0.00     0.039 A 
ATOM     31  C   UNL A   1      34.331  32.635  29.958  1.00  0.00     0.014 A 
ATOM     32  C   UNL A   1      35.774  34.234  28.873  1.00  0.00     0.014 A 
ATOM     33  C   UNL A   1      35.432  32.076  30.611  1.00  0.00     0.010 A 
ATOM     34  C   UNL A   1      36.886  33.630  29.473  1.00  0.00     0.010 A 
ATOM     35  C   UNL A   1      36.727  32.555  30.359  1.00  0.00    -0.014 A 
BRANCH  35  36
ATOM     36  C   UNL A   1      37.901  31.948  31.041  1.00  0.00     0.031 A 
ATOM     37  C   UNL A   1      38.314  32.407  32.416  1.00  0.00     0.074 A 
ATOM     38  C   UNL A   1      38.614  30.987  30.422  1.00  0.00     0.049 A 
ATOM     39  N   UNL A   1      39.294  31.975  33.172  1.00  0.00    -0.248 NA
ATOM     40  C   UNL A   1      37.537  33.504  33.012  1.00  0.00     0.031 C 
ATOM     41  C   UNL A   1      38.351  30.471  29.077  1.00  0.00     0.029 A 
ATOM     42  N   UNL A   1      39.704  30.267  30.847  1.00  0.00    -0.354 N 
ATOM     43  C   UNL A   1      39.259  32.756  34.320  1.00  0.00     0.074 A 
ATOM     44  C   UNL A   1      38.191  33.716  34.144  1.00  0.00     0.031 C 
ATOM     45  C   UNL A   1      39.234  29.496  28.801  1.00  0.00     0.029 A 
ATOM     46  C   UNL A   1      40.138  29.337  29.935  1.00  0.00     0.049 A 
ATOM     47  H   UNL A   1      40.131  30.404  31.723  1.00  0.00     0.167 HD
ATOM     48  C   UNL A   1      40.030  32.673  35.431  1.00  0.00     0.031 A 
ATOM     49  C   UNL A   1      41.147  28.447  30.005  1.00  0.00     0.031 A 
ATOM     50  C   UNL A   1      41.087  31.715  35.623  1.00  0.00     0.049 A 
ATOM     51  C   UNL A   1      41.978  28.363  31.253  1.00  0.00     0.074 A 
ATOM     52  C   UNL A   1      41.893  31.529  36.733  1.00  0.00     0.029 A 
ATOM     53  N   UNL A   1      41.483  30.780  34.680  1.00  0.00    -0.354 N 
ATOM     54  N   UNL A   1      41.889  29.068  32.355  1.00  0.00    -0.248 NA
ATOM     55  C   UNL A   1      43.036  27.342  31.274  1.00  0.00     0.031 C 
ATOM     56  C   UNL A   1      42.802  30.503  36.447  1.00  0.00     0.029 A 
ATOM     57  C   UNL A   1      42.528  30.020  35.179  1.00  0.00     0.049 A 
ATOM     58  H   UNL A   1      41.081  30.672  33.787  1.00  0.00     0.167 HD
ATOM     59  C   UNL A   1      42.855  28.553  33.211  1.00  0.00     0.074 A 
ATOM     60  C   UNL A   1      43.507  27.470  32.507  1.00  0.00     0.031 C 
ATOM     61  C   UNL A   1      43.168  28.941  34.471  1.00  0.00     0.031 A 
BRANCH  48  62
ATOM     62  C   UNL A   1      39.758  33.660  36.533  1.00  0.00    -0.014 A 
ATOM     63  C   UNL A   1      38.868  33.355  37.575  1.00  0.00     0.009 A 
ATOM     64  C   UNL A   1      40.419  34.898  36.546  1.00  0.00     0.009 A 
ATOM     65  C   UNL A   1      38.616  34.286  38.586  1.00  0.00     0.001 A 
ATOM     66  C   UNL A   1      40.187  35.814  37.572  1.00  0.00     0.001 A 
ATOM     67  C   UNL A   1      39.280  35.512  38.586  1.00  0.00     0.000 A 
ENDBRANCH  48  62
BRANCH  49  68
ATOM     68  C   UNL A   1      41.407  27.529  28.866  1.00  0.00    -0.014 A 
ATOM     69  C   UNL A   1      40.702  26.320  28.753  1.00  0.00     0.009 A 
ATOM     70  C   UNL A   1      42.367  27.848  27.895  1.00  0.00     0.009 A 
ATOM     71  C   UNL A   1      40.975  25.437  27.707  1.00  0.00     0.001 A 
ATOM     72  C   UNL A   1      42.620  26.975  26.835  1.00  0.00     0.001 A 
ATOM     73  C   UNL A   1      41.930  25.766  26.747  1.00  0.00     0.000 A 
ENDBRANCH  49  68
BRANCH  61  74
ATOM     74  C   UNL A   1      44.234  28.158  35.184  1.00  0.00    -0.014 A 
ATOM     75  C   UNL A   1      43.923  27.023  35.946  1.00  0.00     0.009 A 
ATOM     76  C   UNL A   1      45.576  28.559  35.076  1.00  0.00     0.009 A 
ATOM     77  C   UNL A   1      44.930  26.327  36.619  1.00  0.00     0.001 A 
ATOM     78  C   UNL A   1      46.582  27.847  35.728  1.00  0.00     0.001 A 
ATOM     79  C   UNL A   1      46.258  26.738  36.508  1.00  0.00     0.000 A 
ENDBRANCH  61  74
ENDBRANCH  35  36
ENDBRANCH  27  30
ENDBRANCH  25  26
ENDBRANCH  24  25
ENDBRANCH  23  24
ENDBRANCH   3  23
TORSDOF 16
ENDMDL
