MODEL 1
REMARK VINA RESULT:     -10.0      0.000      0.000
REMARK SMILES COC(=O)[C@@H]([NH2+]CC(C)(C)C(=O)NCCCNC(=O)c1ccc(-c2c3nc(c(-c4ccccc4)c4ccc([nH]4)c(-c4ccccc4)c4nc(c(-c5ccccc5)c5ccc2[nH]5)C=C4)C=C3)cc1)c1ccccc1
REMARK SMILES IDX 11 1 12 2 13 3 8 5 9 6 10 7 7 8 6 9 5 12 3 13 4 14 2 15 1 16
REMARK SMILES IDX 68 17 69 18 73 19 70 20 72 21 71 22 14 23 15 24 16 25 17 26
REMARK SMILES IDX 18 27 19 29 20 30 21 31 67 32 22 33 66 34 23 35 24 36 25 37
REMARK SMILES IDX 60 38 26 39 65 40 59 41 61 42 27 43 64 44 58 45 57 46 28 48
REMARK SMILES IDX 50 49 35 50 49 51 36 52 39 53 48 54 62 55 37 56 38 57 47 59
REMARK SMILES IDX 63 60 40 61 29 62 30 63 34 64 31 65 33 66 32 67 51 68 52 69
REMARK SMILES IDX 56 70 53 71 55 72 54 73 41 74 42 75 46 76 43 77 45 78 44 79
REMARK H PARENT 13 4 6 10 6 11 17 28 61 47 39 58
REMARK Flexibility Score: inf
ROOT
ATOM      1  C   UNL A   1      32.242  28.505  23.579  1.00  0.00     0.231 C 
ATOM      2  O   UNL A   1      32.428  29.086  22.511  1.00  0.00    -0.274 OA
ATOM      3  N   UNL A   1      31.435  29.192  24.429  1.00  0.00    -0.355 N 
ATOM      4  H   UNL A   1      30.606  29.543  24.030  1.00  0.00     0.163 HD
ENDROOT
BRANCH   1   5
ATOM      5  C   UNL A   1      32.905  27.163  23.949  1.00  0.00     0.092 C 
ATOM      6  C   UNL A   1      34.149  27.401  24.822  1.00  0.00     0.027 C 
ATOM      7  C   UNL A   1      33.281  26.449  22.634  1.00  0.00     0.027 C 
BRANCH   5   8
ATOM      8  C   UNL A   1      31.955  26.158  24.712  1.00  0.00     0.277 C 
BRANCH   8   9
ATOM      9  N   UNL A   1      32.414  25.334  25.839  1.00  0.00    -0.330 N 
ATOM     10  H   UNL A   1      33.262  25.763  26.212  1.00  0.00     0.347 HD
ATOM     11  H   UNL A   1      31.631  25.310  26.493  1.00  0.00     0.347 HD
BRANCH   9  12
ATOM     12  C   UNL A   1      32.723  23.907  25.537  1.00  0.00     0.324 C 
BRANCH  12  13
ATOM     13  C   UNL A   1      32.263  23.027  26.729  1.00  0.00     0.369 C 
ATOM     14  O   UNL A   1      32.775  21.942  26.996  1.00  0.00    -0.245 OA
BRANCH  13  15
ATOM     15  O   UNL A   1      31.191  23.536  27.401  1.00  0.00    -0.464 OA
ATOM     16  C   UNL A   1      29.949  22.916  27.059  1.00  0.00     0.282 C 
ENDBRANCH  13  15
ENDBRANCH  12  13
BRANCH  12  17
ATOM     17  C   UNL A   1      34.144  23.625  25.019  1.00  0.00     0.021 A 
ATOM     18  C   UNL A   1      34.429  23.055  23.771  1.00  0.00     0.010 A 
ATOM     19  C   UNL A   1      35.257  23.995  25.803  1.00  0.00     0.010 A 
ATOM     20  C   UNL A   1      35.752  22.885  23.334  1.00  0.00     0.001 A 
ATOM     21  C   UNL A   1      36.575  23.806  25.385  1.00  0.00     0.001 A 
ATOM     22  C   UNL A   1      36.823  23.257  24.141  1.00  0.00     0.000 A 
ENDBRANCH  12  17
ENDBRANCH   9  12
ENDBRANCH   8   9
ENDBRANCH   5   8
ENDBRANCH   1   5
BRANCH   3  23
ATOM     23  C   UNL A   1      31.618  29.483  25.837  1.00  0.00     0.117 C 
BRANCH  23  24
ATOM     24  C   UNL A   1      31.465  30.980  26.114  1.00  0.00     0.042 C 
BRANCH  24  25
ATOM     25  C   UNL A   1      32.560  31.571  27.001  1.00  0.00     0.118 C 
BRANCH  25  26
ATOM     26  N   UNL A   1      32.327  32.975  27.320  1.00  0.00    -0.352 N 
ATOM     27  C   UNL A   1      33.022  33.823  28.140  1.00  0.00     0.251 C 
ATOM     28  H   UNL A   1      31.546  33.376  26.874  1.00  0.00     0.163 HD
ATOM     29  O   UNL A   1      32.531  34.905  28.458  1.00  0.00    -0.269 OA
BRANCH  27  30
ATOM     30  C   UNL A   1      34.346  33.436  28.660  1.00  0.00     0.039 A 
ATOM     31  C   UNL A   1      34.423  32.742  29.869  1.00  0.00     0.014 A 
ATOM     32  C   UNL A   1      35.512  33.771  27.967  1.00  0.00     0.014 A 
ATOM     33  C   UNL A   1      35.664  32.321  30.347  1.00  0.00     0.010 A 
ATOM     34  C   UNL A   1      36.738  33.277  28.399  1.00  0.00     0.010 A 
ATOM     35  C   UNL A   1      36.828  32.550  29.595  1.00  0.00    -0.014 A 
BRANCH  35  36
ATOM     36  C   UNL A   1      38.147  32.036  30.042  1.00  0.00     0.031 A 
ATOM     37  C   UNL A   1      38.662  30.720  29.526  1.00  0.00     0.074 A 
ATOM     38  C   UNL A   1      38.856  32.729  30.955  1.00  0.00     0.049 A 
ATOM     39  N   UNL A   1      39.760  30.081  29.843  1.00  0.00    -0.248 NA
ATOM     40  C   UNL A   1      37.823  30.015  28.542  1.00  0.00     0.031 C 
ATOM     41  C   UNL A   1      38.451  34.000  31.560  1.00  0.00     0.029 A 
ATOM     42  N   UNL A   1      40.069  32.458  31.538  1.00  0.00    -0.354 N 
ATOM     43  C   UNL A   1      39.737  28.902  29.110  1.00  0.00     0.074 A 
ATOM     44  C   UNL A   1      38.492  28.884  28.375  1.00  0.00     0.031 C 
ATOM     45  C   UNL A   1      39.412  34.413  32.403  1.00  0.00     0.029 A 
ATOM     46  C   UNL A   1      40.476  33.416  32.436  1.00  0.00     0.049 A 
ATOM     47  H   UNL A   1      40.598  31.653  31.334  1.00  0.00     0.167 HD
ATOM     48  C   UNL A   1      40.677  27.930  29.037  1.00  0.00     0.031 A 
ATOM     49  C   UNL A   1      41.577  33.479  33.207  1.00  0.00     0.031 A 
ATOM     50  C   UNL A   1      41.918  27.952  29.762  1.00  0.00     0.049 A 
ATOM     51  C   UNL A   1      42.589  32.368  33.130  1.00  0.00     0.074 A 
ATOM     52  C   UNL A   1      42.956  27.036  29.721  1.00  0.00     0.029 A 
ATOM     53  N   UNL A   1      42.290  28.937  30.662  1.00  0.00    -0.354 N 
ATOM     54  N   UNL A   1      42.581  31.292  32.381  1.00  0.00    -0.248 NA
ATOM     55  C   UNL A   1      43.769  32.488  33.999  1.00  0.00     0.031 C 
ATOM     56  C   UNL A   1      43.930  27.439  30.638  1.00  0.00     0.029 A 
ATOM     57  C   UNL A   1      43.530  28.640  31.200  1.00  0.00     0.049 A 
ATOM     58  H   UNL A   1      41.752  29.732  30.885  1.00  0.00     0.167 HD
ATOM     59  C   UNL A   1      43.767  30.626  32.663  1.00  0.00     0.074 A 
ATOM     60  C   UNL A   1      44.478  31.429  33.636  1.00  0.00     0.031 C 
ATOM     61  C   UNL A   1      44.227  29.453  32.164  1.00  0.00     0.031 A 
BRANCH  48  62
ATOM     62  C   UNL A   1      40.398  26.758  28.136  1.00  0.00    -0.014 A 
ATOM     63  C   UNL A   1      40.968  26.675  26.854  1.00  0.00     0.009 A 
ATOM     64  C   UNL A   1      39.601  25.698  28.593  1.00  0.00     0.009 A 
ATOM     65  C   UNL A   1      40.717  25.570  26.039  1.00  0.00     0.001 A 
ATOM     66  C   UNL A   1      39.377  24.580  27.787  1.00  0.00     0.001 A 
ATOM     67  C   UNL A   1      39.929  24.521  26.509  1.00  0.00     0.000 A 
ENDBRANCH  48  62
BRANCH  49  68
ATOM     68  C   UNL A   1      41.793  34.632  34.122  1.00  0.00    -0.014 A 
ATOM     69  C   UNL A   1      42.463  35.782  33.676  1.00  0.00     0.009 A 
ATOM     70  C   UNL A   1      41.362  34.576  35.457  1.00  0.00     0.009 A 
ATOM     71  C   UNL A   1      42.732  36.833  34.557  1.00  0.00     0.001 A 
ATOM     72  C   UNL A   1      41.602  35.643  36.326  1.00  0.00     0.001 A 
ATOM     73  C   UNL A   1      42.299  36.764  35.879  1.00  0.00     0.000 A 
ENDBRANCH  49  68
BRANCH  61  74
ATOM     74  C   UNL A   1      45.580  28.991  32.625  1.00  0.00    -0.014 A 
ATOM     75  C   UNL A   1      45.727  28.145  33.735  1.00  0.00     0.009 A 
ATOM     76  C   UNL A   1      46.725  29.380  31.911  1.00  0.00     0.009 A 
ATOM     77  C   UNL A   1      46.996  27.730  34.143  1.00  0.00     0.001 A 
ATOM     78  C   UNL A   1      47.989  28.936  32.300  1.00  0.00     0.001 A 
ATOM     79  C   UNL A   1      48.125  28.120  33.422  1.00  0.00     0.000 A 
ENDBRANCH  61  74
ENDBRANCH  35  36
ENDBRANCH  27  30
ENDBRANCH  25  26
ENDBRANCH  24  25
ENDBRANCH  23  24
ENDBRANCH   3  23
TORSDOF 16
ENDMDL
MODEL 2
REMARK VINA RESULT:      -9.8      2.515      7.012
REMARK SMILES COC(=O)[C@@H]([NH2+]CC(C)(C)C(=O)NCCCNC(=O)c1ccc(-c2c3nc(c(-c4ccccc4)c4ccc([nH]4)c(-c4ccccc4)c4nc(c(-c5ccccc5)c5ccc2[nH]5)C=C4)C=C3)cc1)c1ccccc1
REMARK SMILES IDX 11 1 12 2 13 3 8 5 9 6 10 7 7 8 6 9 5 12 3 13 4 14 2 15 1 16
REMARK SMILES IDX 68 17 69 18 73 19 70 20 72 21 71 22 14 23 15 24 16 25 17 26
REMARK SMILES IDX 18 27 19 29 20 30 21 31 67 32 22 33 66 34 23 35 24 36 25 37
REMARK SMILES IDX 60 38 26 39 65 40 59 41 61 42 27 43 64 44 58 45 57 46 28 48
REMARK SMILES IDX 50 49 35 50 49 51 36 52 39 53 48 54 62 55 37 56 38 57 47 59
REMARK SMILES IDX 63 60 40 61 29 62 30 63 34 64 31 65 33 66 32 67 51 68 52 69
REMARK SMILES IDX 56 70 53 71 55 72 54 73 41 74 42 75 46 76 43 77 45 78 44 79
REMARK H PARENT 13 4 6 10 6 11 17 28 61 47 39 58
REMARK Flexibility Score: inf
ROOT
ATOM      1  C   UNL A   1      31.546  25.408  25.924  1.00  0.00     0.231 C 
ATOM      2  O   UNL A   1      30.955  24.637  26.676  1.00  0.00    -0.274 OA
ATOM      3  N   UNL A   1      31.773  26.628  26.477  1.00  0.00    -0.355 N 
ATOM      4  H   UNL A   1      32.146  26.614  27.388  1.00  0.00     0.163 HD
ENDROOT
BRANCH   1   5
ATOM      5  C   UNL A   1      31.941  25.056  24.476  1.00  0.00     0.092 C 
ATOM      6  C   UNL A   1      33.265  25.741  24.098  1.00  0.00     0.027 C 
ATOM      7  C   UNL A   1      30.794  25.521  23.553  1.00  0.00     0.027 C 
BRANCH   5   8
ATOM      8  C   UNL A   1      32.094  23.508  24.201  1.00  0.00     0.277 C 
BRANCH   8   9
ATOM      9  N   UNL A   1      33.320  22.920  23.645  1.00  0.00    -0.330 N 
ATOM     10  H   UNL A   1      33.089  22.527  22.732  1.00  0.00     0.347 HD
ATOM     11  H   UNL A   1      33.998  23.681  23.617  1.00  0.00     0.347 HD
BRANCH   9  12
ATOM     12  C   UNL A   1      33.966  21.844  24.450  1.00  0.00     0.324 C 
BRANCH  12  13
ATOM     13  C   UNL A   1      32.999  21.410  25.582  1.00  0.00     0.369 C 
ATOM     14  O   UNL A   1      33.096  21.815  26.739  1.00  0.00    -0.245 OA
BRANCH  13  15
ATOM     15  O   UNL A   1      32.080  20.481  25.189  1.00  0.00    -0.464 OA
ATOM     16  C   UNL A   1      32.621  19.452  24.357  1.00  0.00     0.282 C 
ENDBRANCH  13  15
ENDBRANCH  12  13
BRANCH  12  17
ATOM     17  C   UNL A   1      35.415  22.116  24.890  1.00  0.00     0.021 A 
ATOM     18  C   UNL A   1      35.887  23.363  25.320  1.00  0.00     0.010 A 
ATOM     19  C   UNL A   1      36.344  21.054  24.922  1.00  0.00     0.010 A 
ATOM     20  C   UNL A   1      37.207  23.526  25.770  1.00  0.00     0.001 A 
ATOM     21  C   UNL A   1      37.664  21.214  25.344  1.00  0.00     0.001 A 
ATOM     22  C   UNL A   1      38.094  22.454  25.779  1.00  0.00     0.000 A 
ENDBRANCH  12  17
ENDBRANCH   9  12
ENDBRANCH   8   9
ENDBRANCH   5   8
ENDBRANCH   1   5
BRANCH   3  23
ATOM     23  C   UNL A   1      31.544  27.947  25.920  1.00  0.00     0.117 C 
BRANCH  23  24
ATOM     24  C   UNL A   1      32.845  28.748  25.850  1.00  0.00     0.042 C 
BRANCH  24  25
ATOM     25  C   UNL A   1      33.590  28.858  27.180  1.00  0.00     0.118 C 
BRANCH  25  26
ATOM     26  N   UNL A   1      33.628  30.223  27.690  1.00  0.00    -0.352 N 
ATOM     27  C   UNL A   1      34.593  30.869  28.418  1.00  0.00     0.251 C 
ATOM     28  H   UNL A   1      32.836  30.767  27.477  1.00  0.00     0.163 HD
ATOM     29  O   UNL A   1      34.337  31.948  28.951  1.00  0.00    -0.269 OA
BRANCH  27  30
ATOM     30  C   UNL A   1      35.928  30.266  28.582  1.00  0.00     0.039 A 
ATOM     31  C   UNL A   1      36.818  30.289  27.506  1.00  0.00     0.014 A 
ATOM     32  C   UNL A   1      36.298  29.665  29.788  1.00  0.00     0.014 A 
ATOM     33  C   UNL A   1      38.104  29.772  27.663  1.00  0.00     0.010 A 
ATOM     34  C   UNL A   1      37.606  29.229  29.969  1.00  0.00     0.010 A 
ATOM     35  C   UNL A   1      38.522  29.274  28.908  1.00  0.00    -0.014 A 
BRANCH  35  36
ATOM     36  C   UNL A   1      39.912  28.799  29.120  1.00  0.00     0.031 A 
ATOM     37  C   UNL A   1      40.947  29.720  29.707  1.00  0.00     0.074 A 
ATOM     38  C   UNL A   1      40.256  27.554  28.733  1.00  0.00     0.049 A 
ATOM     39  N   UNL A   1      42.222  29.505  29.913  1.00  0.00    -0.248 NA
ATOM     40  C   UNL A   1      40.498  31.069  30.091  1.00  0.00     0.031 C 
ATOM     41  C   UNL A   1      39.356  26.576  28.119  1.00  0.00     0.029 A 
ATOM     42  N   UNL A   1      41.461  26.900  28.796  1.00  0.00    -0.354 N 
ATOM     43  C   UNL A   1      42.725  30.689  30.437  1.00  0.00     0.074 A 
ATOM     44  C   UNL A   1      41.634  31.637  30.466  1.00  0.00     0.031 C 
ATOM     45  C   UNL A   1      40.031  25.438  27.890  1.00  0.00     0.029 A 
ATOM     46  C   UNL A   1      41.420  25.620  28.296  1.00  0.00     0.049 A 
ATOM     47  H   UNL A   1      42.278  27.308  29.162  1.00  0.00     0.167 HD
ATOM     48  C   UNL A   1      43.977  30.957  30.877  1.00  0.00     0.031 A 
ATOM     49  C   UNL A   1      42.394  24.700  28.170  1.00  0.00     0.031 A 
ATOM     50  C   UNL A   1      45.060  30.012  30.855  1.00  0.00     0.049 A 
ATOM     51  C   UNL A   1      43.785  25.037  28.636  1.00  0.00     0.074 A 
ATOM     52  C   UNL A   1      46.355  30.174  31.319  1.00  0.00     0.029 A 
ATOM     53  N   UNL A   1      44.978  28.728  30.340  1.00  0.00    -0.354 N 
ATOM     54  N   UNL A   1      44.226  26.140  29.191  1.00  0.00    -0.248 NA
ATOM     55  C   UNL A   1      44.808  23.996  28.468  1.00  0.00     0.031 C 
ATOM     56  C   UNL A   1      47.069  29.008  31.034  1.00  0.00     0.029 A 
ATOM     57  C   UNL A   1      46.203  28.096  30.452  1.00  0.00     0.049 A 
ATOM     58  H   UNL A   1      44.167  28.326  29.952  1.00  0.00     0.167 HD
ATOM     59  C   UNL A   1      45.568  25.912  29.468  1.00  0.00     0.074 A 
ATOM     60  C   UNL A   1      45.862  24.561  29.038  1.00  0.00     0.031 C 
ATOM     61  C   UNL A   1      46.478  26.748  30.026  1.00  0.00     0.031 A 
BRANCH  48  62
ATOM     62  C   UNL A   1      44.244  32.334  31.423  1.00  0.00    -0.014 A 
ATOM     63  C   UNL A   1      44.090  32.615  32.791  1.00  0.00     0.009 A 
ATOM     64  C   UNL A   1      44.706  33.347  30.570  1.00  0.00     0.009 A 
ATOM     65  C   UNL A   1      44.363  33.891  33.285  1.00  0.00     0.001 A 
ATOM     66  C   UNL A   1      45.007  34.614  31.073  1.00  0.00     0.001 A 
ATOM     67  C   UNL A   1      44.828  34.888  32.428  1.00  0.00     0.000 A 
ENDBRANCH  48  62
BRANCH  49  68
ATOM     68  C   UNL A   1      42.101  23.366  27.580  1.00  0.00    -0.014 A 
ATOM     69  C   UNL A   1      42.325  23.123  26.216  1.00  0.00     0.009 A 
ATOM     70  C   UNL A   1      41.560  22.338  28.370  1.00  0.00     0.009 A 
ATOM     71  C   UNL A   1      41.978  21.895  25.647  1.00  0.00     0.001 A 
ATOM     72  C   UNL A   1      41.246  21.100  27.806  1.00  0.00     0.001 A 
ATOM     73  C   UNL A   1      41.441  20.884  26.443  1.00  0.00     0.000 A 
ENDBRANCH  49  68
BRANCH  61  74
ATOM     74  C   UNL A   1      47.863  26.209  30.247  1.00  0.00    -0.014 A 
ATOM     75  C   UNL A   1      48.267  25.715  31.498  1.00  0.00     0.009 A 
ATOM     76  C   UNL A   1      48.767  26.161  29.174  1.00  0.00     0.009 A 
ATOM     77  C   UNL A   1      49.559  25.220  31.677  1.00  0.00     0.001 A 
ATOM     78  C   UNL A   1      50.047  25.634  29.347  1.00  0.00     0.001 A 
ATOM     79  C   UNL A   1      50.446  25.174  30.601  1.00  0.00     0.000 A 
ENDBRANCH  61  74
ENDBRANCH  35  36
ENDBRANCH  27  30
ENDBRANCH  25  26
ENDBRANCH  24  25
ENDBRANCH  23  24
ENDBRANCH   3  23
TORSDOF 16
ENDMDL
MODEL 3
REMARK VINA RESULT:      -9.7      2.855      7.227
REMARK SMILES COC(=O)[C@@H]([NH2+]CC(C)(C)C(=O)NCCCNC(=O)c1ccc(-c2c3nc(c(-c4ccccc4)c4ccc([nH]4)c(-c4ccccc4)c4nc(c(-c5ccccc5)c5ccc2[nH]5)C=C4)C=C3)cc1)c1ccccc1
REMARK SMILES IDX 11 1 12 2 13 3 8 5 9 6 10 7 7 8 6 9 5 12 3 13 4 14 2 15 1 16
REMARK SMILES IDX 68 17 69 18 73 19 70 20 72 21 71 22 14 23 15 24 16 25 17 26
REMARK SMILES IDX 18 27 19 29 20 30 21 31 67 32 22 33 66 34 23 35 24 36 25 37
REMARK SMILES IDX 60 38 26 39 65 40 59 41 61 42 27 43 64 44 58 45 57 46 28 48
REMARK SMILES IDX 50 49 35 50 49 51 36 52 39 53 48 54 62 55 37 56 38 57 47 59
REMARK SMILES IDX 63 60 40 61 29 62 30 63 34 64 31 65 33 66 32 67 51 68 52 69
REMARK SMILES IDX 56 70 53 71 55 72 54 73 41 74 42 75 46 76 43 77 45 78 44 79
REMARK H PARENT 13 4 6 10 6 11 17 28 61 47 39 58
REMARK Flexibility Score: inf
ROOT
ATOM      1  C   UNL A   1      31.106  25.158  26.088  1.00  0.00     0.231 C 
ATOM      2  O   UNL A   1      30.271  24.567  26.769  1.00  0.00    -0.274 OA
ATOM      3  N   UNL A   1      31.401  26.398  26.559  1.00  0.00    -0.355 N 
ATOM      4  H   UNL A   1      31.584  26.448  27.525  1.00  0.00     0.163 HD
ENDROOT
BRANCH   1   5
ATOM      5  C   UNL A   1      31.716  24.584  24.794  1.00  0.00     0.092 C 
ATOM      6  C   UNL A   1      33.184  25.023  24.651  1.00  0.00     0.027 C 
ATOM      7  C   UNL A   1      30.869  25.097  23.610  1.00  0.00     0.027 C 
BRANCH   5   8
ATOM      8  C   UNL A   1      31.664  23.009  24.693  1.00  0.00     0.277 C 
BRANCH   8   9
ATOM      9  N   UNL A   1      32.699  22.224  24.007  1.00  0.00    -0.330 N 
ATOM     10  H   UNL A   1      32.253  21.731  23.232  1.00  0.00     0.347 HD
ATOM     11  H   UNL A   1      33.409  22.900  23.725  1.00  0.00     0.347 HD
BRANCH   9  12
ATOM     12  C   UNL A   1      33.421  21.213  24.831  1.00  0.00     0.324 C 
BRANCH  12  13
ATOM     13  C   UNL A   1      34.783  21.805  25.280  1.00  0.00     0.369 C 
ATOM     14  O   UNL A   1      35.754  21.897  24.531  1.00  0.00    -0.245 OA
BRANCH  13  15
ATOM     15  O   UNL A   1      34.822  22.143  26.601  1.00  0.00    -0.464 OA
ATOM     16  C   UNL A   1      33.788  21.537  27.381  1.00  0.00     0.282 C 
ENDBRANCH  13  15
ENDBRANCH  12  13
BRANCH  12  17
ATOM     17  C   UNL A   1      33.483  19.792  24.245  1.00  0.00     0.021 A 
ATOM     18  C   UNL A   1      34.418  18.821  24.628  1.00  0.00     0.010 A 
ATOM     19  C   UNL A   1      32.521  19.389  23.294  1.00  0.00     0.010 A 
ATOM     20  C   UNL A   1      34.376  17.521  24.099  1.00  0.00     0.001 A 
ATOM     21  C   UNL A   1      32.489  18.106  22.745  1.00  0.00     0.001 A 
ATOM     22  C   UNL A   1      33.415  17.166  23.157  1.00  0.00     0.000 A 
ENDBRANCH  12  17
ENDBRANCH   9  12
ENDBRANCH   8   9
ENDBRANCH   5   8
ENDBRANCH   1   5
BRANCH   3  23
ATOM     23  C   UNL A   1      31.485  27.657  25.845  1.00  0.00     0.117 C 
BRANCH  23  24
ATOM     24  C   UNL A   1      32.899  28.236  25.913  1.00  0.00     0.042 C 
BRANCH  24  25
ATOM     25  C   UNL A   1      33.382  28.556  27.327  1.00  0.00     0.118 C 
BRANCH  25  26
ATOM     26  N   UNL A   1      33.450  29.989  27.586  1.00  0.00    -0.352 N 
ATOM     27  C   UNL A   1      34.453  30.741  28.139  1.00  0.00     0.251 C 
ATOM     28  H   UNL A   1      32.650  30.496  27.320  1.00  0.00     0.163 HD
ATOM     29  O   UNL A   1      34.228  31.900  28.485  1.00  0.00    -0.269 OA
BRANCH  27  30
ATOM     30  C   UNL A   1      35.794  30.161  28.339  1.00  0.00     0.039 A 
ATOM     31  C   UNL A   1      36.681  30.120  27.262  1.00  0.00     0.014 A 
ATOM     32  C   UNL A   1      36.170  29.643  29.580  1.00  0.00     0.014 A 
ATOM     33  C   UNL A   1      37.972  29.624  27.449  1.00  0.00     0.010 A 
ATOM     34  C   UNL A   1      37.482  29.230  29.787  1.00  0.00     0.010 A 
ATOM     35  C   UNL A   1      38.396  29.213  28.723  1.00  0.00    -0.014 A 
BRANCH  35  36
ATOM     36  C   UNL A   1      39.790  28.763  28.963  1.00  0.00     0.031 A 
ATOM     37  C   UNL A   1      40.805  29.715  29.536  1.00  0.00     0.074 A 
ATOM     38  C   UNL A   1      40.156  27.514  28.612  1.00  0.00     0.049 A 
ATOM     39  N   UNL A   1      42.081  29.524  29.761  1.00  0.00    -0.248 NA
ATOM     40  C   UNL A   1      40.333  31.066  29.880  1.00  0.00     0.031 C 
ATOM     41  C   UNL A   1      39.276  26.508  28.014  1.00  0.00     0.029 A 
ATOM     42  N   UNL A   1      41.370  26.879  28.705  1.00  0.00    -0.354 N 
ATOM     43  C   UNL A   1      42.561  30.728  30.260  1.00  0.00     0.074 A 
ATOM     44  C   UNL A   1      41.456  31.661  30.252  1.00  0.00     0.031 C 
ATOM     45  C   UNL A   1      39.970  25.373  27.823  1.00  0.00     0.029 A 
ATOM     46  C   UNL A   1      41.352  25.586  28.239  1.00  0.00     0.049 A 
ATOM     47  H   UNL A   1      42.176  27.309  29.070  1.00  0.00     0.167 HD
ATOM     48  C   UNL A   1      43.805  31.026  30.706  1.00  0.00     0.031 A 
ATOM     49  C   UNL A   1      42.341  24.677  28.148  1.00  0.00     0.031 A 
ATOM     50  C   UNL A   1      44.900  30.095  30.721  1.00  0.00     0.049 A 
ATOM     51  C   UNL A   1      43.721  25.047  28.619  1.00  0.00     0.074 A 
ATOM     52  C   UNL A   1      46.187  30.288  31.194  1.00  0.00     0.029 A 
ATOM     53  N   UNL A   1      44.842  28.798  30.239  1.00  0.00    -0.354 N 
ATOM     54  N   UNL A   1      44.140  26.170  29.150  1.00  0.00    -0.248 NA
ATOM     55  C   UNL A   1      44.761  24.016  28.490  1.00  0.00     0.031 C 
ATOM     56  C   UNL A   1      46.922  29.125  30.948  1.00  0.00     0.029 A 
ATOM     57  C   UNL A   1      46.075  28.187  30.381  1.00  0.00     0.049 A 
ATOM     58  H   UNL A   1      44.041  28.374  29.852  1.00  0.00     0.167 HD
ATOM     59  C   UNL A   1      45.482  25.969  29.447  1.00  0.00     0.074 A 
ATOM     60  C   UNL A   1      45.800  24.611  29.057  1.00  0.00     0.031 C 
ATOM     61  C   UNL A   1      46.374  26.832  29.993  1.00  0.00     0.031 A 
BRANCH  48  62
ATOM     62  C   UNL A   1      44.045  32.419  31.218  1.00  0.00    -0.014 A 
ATOM     63  C   UNL A   1      43.867  32.735  32.576  1.00  0.00     0.009 A 
ATOM     64  C   UNL A   1      44.507  33.415  30.346  1.00  0.00     0.009 A 
ATOM     65  C   UNL A   1      44.116  34.028  33.039  1.00  0.00     0.001 A 
ATOM     66  C   UNL A   1      44.785  34.699  30.818  1.00  0.00     0.001 A 
ATOM     67  C   UNL A   1      44.582  35.007  32.163  1.00  0.00     0.000 A 
ENDBRANCH  48  62
BRANCH  49  68
ATOM     68  C   UNL A   1      42.072  23.324  27.589  1.00  0.00    -0.014 A 
ATOM     69  C   UNL A   1      41.522  22.315  28.395  1.00  0.00     0.009 A 
ATOM     70  C   UNL A   1      42.399  23.023  26.257  1.00  0.00     0.009 A 
ATOM     71  C   UNL A   1      41.342  21.024  27.891  1.00  0.00     0.001 A 
ATOM     72  C   UNL A   1      42.185  21.741  25.746  1.00  0.00     0.001 A 
ATOM     73  C   UNL A   1      41.670  20.740  26.567  1.00  0.00     0.000 A 
ENDBRANCH  49  68
BRANCH  61  74
ATOM     74  C   UNL A   1      47.764  26.319  30.243  1.00  0.00    -0.014 A 
ATOM     75  C   UNL A   1      48.734  26.305  29.228  1.00  0.00     0.009 A 
ATOM     76  C   UNL A   1      48.119  25.878  31.528  1.00  0.00     0.009 A 
ATOM     77  C   UNL A   1      50.019  25.824  29.487  1.00  0.00     0.001 A 
ATOM     78  C   UNL A   1      49.413  25.430  31.792  1.00  0.00     0.001 A 
ATOM     79  C   UNL A   1      50.359  25.393  30.769  1.00  0.00     0.000 A 
ENDBRANCH  61  74
ENDBRANCH  35  36
ENDBRANCH  27  30
ENDBRANCH  25  26
ENDBRANCH  24  25
ENDBRANCH  23  24
ENDBRANCH   3  23
TORSDOF 16
ENDMDL
