MODEL 1
REMARK VINA RESULT:      -9.9      0.000      0.000
REMARK SMILES [NH3+]CCOCC(=O)N[C@H](C(=O)NCCCNC(=O)c1ccc(-c2c3nc(c(-c4ccccc4)c4ccc([nH]4)c(-c4ccccc4)c4nc(c(-c5ccccc5)c5ccc2[nH]5)C=C4)C=C3)cc1)C1CCCCC1
REMARK SMILES IDX 10 1 11 2 12 3 9 5 8 6 6 7 7 8 5 10 4 11 3 12 2 13 1 14
REMARK SMILES IDX 67 18 68 19 72 20 69 21 71 22 70 23 13 24 14 25 15 26 16 27
REMARK SMILES IDX 17 28 18 30 19 31 20 32 66 33 21 34 65 35 22 36 23 37 24 38
REMARK SMILES IDX 59 39 25 40 64 41 58 42 60 43 26 44 63 45 57 46 56 47 27 49
REMARK SMILES IDX 49 50 34 51 48 52 35 53 38 54 47 55 61 56 36 57 37 58 46 60
REMARK SMILES IDX 62 61 39 62 28 63 29 64 33 65 30 66 32 67 31 68 50 69 51 70
REMARK SMILES IDX 55 71 52 72 54 73 53 74 40 75 41 76 45 77 42 78 44 79 43 80
REMARK H PARENT 12 4 8 9 1 15 1 16 1 17 16 29 60 48 38 59
REMARK Flexibility Score: inf
ROOT
ATOM      1  C   UNL A   1      33.677  25.980  23.358  1.00  0.00     0.242 C 
ATOM      2  O   UNL A   1      33.988  26.012  22.169  1.00  0.00    -0.273 OA
ATOM      3  N   UNL A   1      33.099  27.109  23.870  1.00  0.00    -0.354 N 
ATOM      4  H   UNL A   1      32.902  27.811  23.206  1.00  0.00     0.163 HD
ENDROOT
BRANCH   1   5
ATOM      5  C   UNL A   1      34.015  24.805  24.311  1.00  0.00     0.174 C 
BRANCH   5   6
ATOM      6  N   UNL A   1      33.034  23.715  24.154  1.00  0.00    -0.342 N 
ATOM      7  C   UNL A   1      32.084  23.263  25.025  1.00  0.00     0.246 C 
ATOM      8  O   UNL A   1      31.316  22.379  24.638  1.00  0.00    -0.272 OA
ATOM      9  H   UNL A   1      33.068  23.242  23.291  1.00  0.00     0.164 HD
BRANCH   7  10
ATOM     10  C   UNL A   1      32.024  23.785  26.469  1.00  0.00     0.260 C 
BRANCH  10  11
ATOM     11  O   UNL A   1      32.109  22.840  27.520  1.00  0.00    -0.366 OA
BRANCH  11  12
ATOM     12  C   UNL A   1      33.419  22.534  27.987  1.00  0.00     0.222 C 
BRANCH  12  13
ATOM     13  C   UNL A   1      34.117  21.415  27.203  1.00  0.00     0.287 C 
BRANCH  13  14
ATOM     14  N   UNL A   1      33.248  20.294  26.845  1.00  0.00    -0.356 N 
ATOM     15  H   UNL A   1      33.189  19.646  27.630  1.00  0.00     0.344 HD
ATOM     16  H   UNL A   1      33.634  19.811  26.033  1.00  0.00     0.344 HD
ATOM     17  H   UNL A   1      32.317  20.644  26.620  1.00  0.00     0.344 HD
ENDBRANCH  13  14
ENDBRANCH  12  13
ENDBRANCH  11  12
ENDBRANCH  10  11
ENDBRANCH   7  10
ENDBRANCH   5   6
BRANCH   5  18
ATOM     18  C   UNL A   1      35.465  24.249  24.361  1.00  0.00     0.021 C 
ATOM     19  C   UNL A   1      36.058  24.108  25.775  1.00  0.00     0.006 C 
ATOM     20  C   UNL A   1      35.494  22.868  23.657  1.00  0.00     0.006 C 
ATOM     21  C   UNL A   1      37.446  23.472  25.763  1.00  0.00     0.000 C 
ATOM     22  C   UNL A   1      36.882  22.236  23.654  1.00  0.00     0.000 C 
ATOM     23  C   UNL A   1      37.447  22.122  25.063  1.00  0.00     0.000 C 
ENDBRANCH   5  18
ENDBRANCH   1   5
BRANCH   3  24
ATOM     24  C   UNL A   1      32.730  27.439  25.235  1.00  0.00     0.117 C 
BRANCH  24  25
ATOM     25  C   UNL A   1      33.497  28.643  25.757  1.00  0.00     0.042 C 
BRANCH  25  26
ATOM     26  C   UNL A   1      33.421  28.836  27.264  1.00  0.00     0.118 C 
BRANCH  26  27
ATOM     27  N   UNL A   1      33.485  30.230  27.678  1.00  0.00    -0.352 N 
ATOM     28  C   UNL A   1      34.541  30.907  28.248  1.00  0.00     0.251 C 
ATOM     29  H   UNL A   1      32.667  30.757  27.532  1.00  0.00     0.163 HD
ATOM     30  O   UNL A   1      34.404  32.057  28.642  1.00  0.00    -0.269 OA
BRANCH  28  31
ATOM     31  C   UNL A   1      35.833  30.209  28.421  1.00  0.00     0.039 A 
ATOM     32  C   UNL A   1      36.737  30.190  27.358  1.00  0.00     0.014 A 
ATOM     33  C   UNL A   1      36.171  29.632  29.648  1.00  0.00     0.014 A 
ATOM     34  C   UNL A   1      38.017  29.665  27.553  1.00  0.00     0.010 A 
ATOM     35  C   UNL A   1      37.469  29.185  29.863  1.00  0.00     0.010 A 
ATOM     36  C   UNL A   1      38.408  29.202  28.819  1.00  0.00    -0.014 A 
BRANCH  36  37
ATOM     37  C   UNL A   1      39.794  28.737  29.079  1.00  0.00     0.031 A 
ATOM     38  C   UNL A   1      40.799  29.671  29.695  1.00  0.00     0.074 A 
ATOM     39  C   UNL A   1      40.172  27.505  28.687  1.00  0.00     0.049 A 
ATOM     40  N   UNL A   1      42.073  29.477  29.925  1.00  0.00    -0.248 NA
ATOM     41  C   UNL A   1      40.315  31.008  30.078  1.00  0.00     0.031 C 
ATOM     42  C   UNL A   1      39.312  26.519  28.031  1.00  0.00     0.029 A 
ATOM     43  N   UNL A   1      41.389  26.875  28.775  1.00  0.00    -0.354 N 
ATOM     44  C   UNL A   1      42.546  30.672  30.451  1.00  0.00     0.074 A 
ATOM     45  C   UNL A   1      41.435  31.599  30.466  1.00  0.00     0.031 C 
ATOM     46  C   UNL A   1      40.019  25.401  27.800  1.00  0.00     0.029 A 
ATOM     47  C   UNL A   1      41.391  25.604  28.255  1.00  0.00     0.049 A 
ATOM     48  H   UNL A   1      42.186  27.295  29.173  1.00  0.00     0.167 HD
ATOM     49  C   UNL A   1      43.789  30.969  30.900  1.00  0.00     0.031 A 
ATOM     50  C   UNL A   1      42.385  24.702  28.149  1.00  0.00     0.031 A 
ATOM     51  C   UNL A   1      44.888  30.043  30.910  1.00  0.00     0.049 A 
ATOM     52  C   UNL A   1      43.753  25.050  28.667  1.00  0.00     0.074 A 
ATOM     53  C   UNL A   1      46.165  30.229  31.411  1.00  0.00     0.029 A 
ATOM     54  N   UNL A   1      44.840  28.757  30.399  1.00  0.00    -0.354 N 
ATOM     55  N   UNL A   1      44.165  26.162  29.226  1.00  0.00    -0.248 NA
ATOM     56  C   UNL A   1      44.789  24.015  28.548  1.00  0.00     0.031 C 
ATOM     57  C   UNL A   1      46.904  29.067  31.162  1.00  0.00     0.029 A 
ATOM     58  C   UNL A   1      46.071  28.143  30.551  1.00  0.00     0.049 A 
ATOM     59  H   UNL A   1      44.048  28.341  29.987  1.00  0.00     0.167 HD
ATOM     60  C   UNL A   1      45.499  25.951  29.548  1.00  0.00     0.074 A 
ATOM     61  C   UNL A   1      45.823  24.601  29.134  1.00  0.00     0.031 C 
ATOM     62  C   UNL A   1      46.377  26.800  30.136  1.00  0.00     0.031 A 
BRANCH  49  63
ATOM     63  C   UNL A   1      44.022  32.362  31.416  1.00  0.00    -0.014 A 
ATOM     64  C   UNL A   1      43.832  32.675  32.771  1.00  0.00     0.009 A 
ATOM     65  C   UNL A   1      44.467  33.364  30.541  1.00  0.00     0.009 A 
ATOM     66  C   UNL A   1      44.047  33.976  33.232  1.00  0.00     0.001 A 
ATOM     67  C   UNL A   1      44.708  34.657  31.010  1.00  0.00     0.001 A 
ATOM     68  C   UNL A   1      44.489  34.964  32.352  1.00  0.00     0.000 A 
ENDBRANCH  49  63
BRANCH  50  69
ATOM     69  C   UNL A   1      42.123  23.371  27.544  1.00  0.00    -0.014 A 
ATOM     70  C   UNL A   1      41.520  22.354  28.300  1.00  0.00     0.009 A 
ATOM     71  C   UNL A   1      42.474  23.110  26.211  1.00  0.00     0.009 A 
ATOM     72  C   UNL A   1      41.298  21.093  27.739  1.00  0.00     0.001 A 
ATOM     73  C   UNL A   1      42.227  21.856  25.646  1.00  0.00     0.001 A 
ATOM     74  C   UNL A   1      41.647  20.848  26.413  1.00  0.00     0.000 A 
ENDBRANCH  50  69
BRANCH  62  75
ATOM     75  C   UNL A   1      47.763  26.284  30.395  1.00  0.00    -0.014 A 
ATOM     76  C   UNL A   1      48.126  25.768  31.648  1.00  0.00     0.009 A 
ATOM     77  C   UNL A   1      48.705  26.270  29.352  1.00  0.00     0.009 A 
ATOM     78  C   UNL A   1      49.414  25.275  31.860  1.00  0.00     0.001 A 
ATOM     79  C   UNL A   1      49.982  25.752  29.561  1.00  0.00     0.001 A 
ATOM     80  C   UNL A   1      50.339  25.262  30.816  1.00  0.00     0.000 A 
ENDBRANCH  62  75
ENDBRANCH  36  37
ENDBRANCH  28  31
ENDBRANCH  26  27
ENDBRANCH  25  26
ENDBRANCH  24  25
ENDBRANCH   3  24
TORSDOF 17
ENDMDL
MODEL 2
REMARK VINA RESULT:      -9.8      0.752      6.071
REMARK SMILES [NH3+]CCOCC(=O)N[C@H](C(=O)NCCCNC(=O)c1ccc(-c2c3nc(c(-c4ccccc4)c4ccc([nH]4)c(-c4ccccc4)c4nc(c(-c5ccccc5)c5ccc2[nH]5)C=C4)C=C3)cc1)C1CCCCC1
REMARK SMILES IDX 10 1 11 2 12 3 9 5 8 6 6 7 7 8 5 10 4 11 3 12 2 13 1 14
REMARK SMILES IDX 67 18 68 19 72 20 69 21 71 22 70 23 13 24 14 25 15 26 16 27
REMARK SMILES IDX 17 28 18 30 19 31 20 32 66 33 21 34 65 35 22 36 23 37 24 38
REMARK SMILES IDX 59 39 25 40 64 41 58 42 60 43 26 44 63 45 57 46 56 47 27 49
REMARK SMILES IDX 49 50 34 51 48 52 35 53 38 54 47 55 61 56 36 57 37 58 46 60
REMARK SMILES IDX 62 61 39 62 28 63 29 64 33 65 30 66 32 67 31 68 50 69 51 70
REMARK SMILES IDX 55 71 52 72 54 73 53 74 40 75 41 76 45 77 42 78 44 79 43 80
REMARK H PARENT 12 4 8 9 1 15 1 16 1 17 16 29 60 48 38 59
REMARK Flexibility Score: inf
ROOT
ATOM      1  C   UNL A   1      33.610  25.779  23.032  1.00  0.00     0.242 C 
ATOM      2  O   UNL A   1      33.749  25.973  21.826  1.00  0.00    -0.273 OA
ATOM      3  N   UNL A   1      33.264  26.863  23.790  1.00  0.00    -0.354 N 
ATOM      4  H   UNL A   1      33.067  27.682  23.277  1.00  0.00     0.163 HD
ENDROOT
BRANCH   1   5
ATOM      5  C   UNL A   1      33.923  24.433  23.735  1.00  0.00     0.174 C 
BRANCH   5   6
ATOM      6  N   UNL A   1      33.323  23.310  22.990  1.00  0.00    -0.342 N 
ATOM      7  C   UNL A   1      32.235  22.544  23.295  1.00  0.00     0.246 C 
ATOM      8  O   UNL A   1      31.869  21.701  22.471  1.00  0.00    -0.272 OA
ATOM      9  H   UNL A   1      33.775  23.078  22.147  1.00  0.00     0.164 HD
BRANCH   7  10
ATOM     10  C   UNL A   1      31.533  22.674  24.656  1.00  0.00     0.260 C 
BRANCH  10  11
ATOM     11  O   UNL A   1      31.639  21.591  25.562  1.00  0.00    -0.366 OA
BRANCH  11  12
ATOM     12  C   UNL A   1      32.923  20.985  25.672  1.00  0.00     0.222 C 
BRANCH  12  13
ATOM     13  C   UNL A   1      32.943  19.493  25.316  1.00  0.00     0.287 C 
BRANCH  13  14
ATOM     14  N   UNL A   1      32.811  18.595  26.463  1.00  0.00    -0.356 N 
ATOM     15  H   UNL A   1      33.496  18.849  27.174  1.00  0.00     0.344 HD
ATOM     16  H   UNL A   1      32.973  17.634  26.163  1.00  0.00     0.344 HD
ATOM     17  H   UNL A   1      31.871  18.675  26.850  1.00  0.00     0.344 HD
ENDBRANCH  13  14
ENDBRANCH  12  13
ENDBRANCH  11  12
ENDBRANCH  10  11
ENDBRANCH   7  10
ENDBRANCH   5   6
BRANCH   5  18
ATOM     18  C   UNL A   1      35.384  24.109  24.156  1.00  0.00     0.021 C 
ATOM     19  C   UNL A   1      35.648  24.156  25.672  1.00  0.00     0.006 C 
ATOM     20  C   UNL A   1      35.756  22.703  23.618  1.00  0.00     0.006 C 
ATOM     21  C   UNL A   1      37.073  23.738  26.027  1.00  0.00     0.000 C 
ATOM     22  C   UNL A   1      37.178  22.290  23.981  1.00  0.00     0.000 C 
ATOM     23  C   UNL A   1      37.413  22.359  25.484  1.00  0.00     0.000 C 
ENDBRANCH   5  18
ENDBRANCH   1   5
BRANCH   3  24
ATOM     24  C   UNL A   1      33.140  27.001  25.230  1.00  0.00     0.117 C 
BRANCH  24  25
ATOM     25  C   UNL A   1      33.557  28.383  25.707  1.00  0.00     0.042 C 
BRANCH  25  26
ATOM     26  C   UNL A   1      33.503  28.572  27.217  1.00  0.00     0.118 C 
BRANCH  26  27
ATOM     27  N   UNL A   1      33.493  29.968  27.629  1.00  0.00    -0.352 N 
ATOM     28  C   UNL A   1      34.511  30.702  28.198  1.00  0.00     0.251 C 
ATOM     29  H   UNL A   1      32.648  30.451  27.482  1.00  0.00     0.163 HD
ATOM     30  O   UNL A   1      34.313  31.843  28.591  1.00  0.00    -0.269 OA
BRANCH  28  31
ATOM     31  C   UNL A   1      35.839  30.073  28.371  1.00  0.00     0.039 A 
ATOM     32  C   UNL A   1      36.758  30.138  27.322  1.00  0.00     0.014 A 
ATOM     33  C   UNL A   1      36.192  29.480  29.586  1.00  0.00     0.014 A 
ATOM     34  C   UNL A   1      38.063  29.681  27.523  1.00  0.00     0.010 A 
ATOM     35  C   UNL A   1      37.511  29.102  29.809  1.00  0.00     0.010 A 
ATOM     36  C   UNL A   1      38.462  29.203  28.781  1.00  0.00    -0.014 A 
BRANCH  36  37
ATOM     37  C   UNL A   1      39.869  28.811  29.050  1.00  0.00     0.031 A 
ATOM     38  C   UNL A   1      40.365  27.453  28.635  1.00  0.00     0.074 A 
ATOM     39  C   UNL A   1      40.676  29.642  29.739  1.00  0.00     0.049 A 
ATOM     40  N   UNL A   1      41.531  26.900  28.853  1.00  0.00    -0.248 NA
ATOM     41  C   UNL A   1      39.418  26.595  27.905  1.00  0.00     0.031 C 
ATOM     42  C   UNL A   1      40.304  30.965  30.244  1.00  0.00     0.029 A 
ATOM     43  N   UNL A   1      41.979  29.488  30.142  1.00  0.00    -0.354 N 
ATOM     44  C   UNL A   1      41.447  25.623  28.313  1.00  0.00     0.074 A 
ATOM     45  C   UNL A   1      40.104  25.468  27.797  1.00  0.00     0.031 C 
ATOM     46  C   UNL A   1      41.362  31.511  30.866  1.00  0.00     0.029 A 
ATOM     47  C   UNL A   1      42.472  30.565  30.838  1.00  0.00     0.049 A 
ATOM     48  H   UNL A   1      42.511  28.682  29.951  1.00  0.00     0.167 HD
ATOM     49  C   UNL A   1      42.405  24.670  28.234  1.00  0.00     0.031 A 
ATOM     50  C   UNL A   1      43.679  30.767  31.398  1.00  0.00     0.031 A 
ATOM     51  C   UNL A   1      43.748  24.830  28.722  1.00  0.00     0.049 A 
ATOM     52  C   UNL A   1      44.731  29.700  31.285  1.00  0.00     0.074 A 
ATOM     53  C   UNL A   1      44.811  23.948  28.624  1.00  0.00     0.029 A 
ATOM     54  N   UNL A   1      44.213  25.946  29.397  1.00  0.00    -0.354 N 
ATOM     55  N   UNL A   1      44.657  28.525  30.710  1.00  0.00    -0.248 NA
ATOM     56  C   UNL A   1      46.038  29.990  31.893  1.00  0.00     0.031 C 
ATOM     57  C   UNL A   1      45.909  24.515  29.280  1.00  0.00     0.029 A 
ATOM     58  C   UNL A   1      45.542  25.769  29.742  1.00  0.00     0.049 A 
ATOM     59  H   UNL A   1      43.678  26.748  29.602  1.00  0.00     0.167 HD
ATOM     60  C   UNL A   1      45.911  27.948  30.862  1.00  0.00     0.074 A 
ATOM     61  C   UNL A   1      46.731  28.907  31.573  1.00  0.00     0.031 C 
ATOM     62  C   UNL A   1      46.344  26.732  30.448  1.00  0.00     0.031 A 
BRANCH  49  63
ATOM     63  C   UNL A   1      42.028  23.363  27.596  1.00  0.00    -0.014 A 
ATOM     64  C   UNL A   1      42.326  23.099  26.249  1.00  0.00     0.009 A 
ATOM     65  C   UNL A   1      41.395  22.371  28.360  1.00  0.00     0.009 A 
ATOM     66  C   UNL A   1      41.961  21.881  25.670  1.00  0.00     0.001 A 
ATOM     67  C   UNL A   1      41.058  21.143  27.786  1.00  0.00     0.001 A 
ATOM     68  C   UNL A   1      41.333  20.904  26.440  1.00  0.00     0.000 A 
ENDBRANCH  49  63
BRANCH  50  69
ATOM     69  C   UNL A   1      43.970  32.043  32.101  1.00  0.00    -0.014 A 
ATOM     70  C   UNL A   1      43.714  32.171  33.475  1.00  0.00     0.009 A 
ATOM     71  C   UNL A   1      44.500  33.140  31.404  1.00  0.00     0.009 A 
ATOM     72  C   UNL A   1      43.961  33.379  34.131  1.00  0.00     0.001 A 
ATOM     73  C   UNL A   1      44.771  34.338  32.069  1.00  0.00     0.001 A 
ATOM     74  C   UNL A   1      44.492  34.459  33.429  1.00  0.00     0.000 A 
ENDBRANCH  50  69
BRANCH  62  75
ATOM     75  C   UNL A   1      47.778  26.383  30.727  1.00  0.00    -0.014 A 
ATOM     76  C   UNL A   1      48.157  25.767  31.928  1.00  0.00     0.009 A 
ATOM     77  C   UNL A   1      48.755  26.633  29.749  1.00  0.00     0.009 A 
ATOM     78  C   UNL A   1      49.492  25.433  32.158  1.00  0.00     0.001 A 
ATOM     79  C   UNL A   1      50.084  26.273  29.971  1.00  0.00     0.001 A 
ATOM     80  C   UNL A   1      50.453  25.681  31.177  1.00  0.00     0.000 A 
ENDBRANCH  62  75
ENDBRANCH  36  37
ENDBRANCH  28  31
ENDBRANCH  26  27
ENDBRANCH  25  26
ENDBRANCH  24  25
ENDBRANCH   3  24
TORSDOF 17
ENDMDL
MODEL 3
REMARK VINA RESULT:      -9.7      2.386      7.345
REMARK SMILES [NH3+]CCOCC(=O)N[C@H](C(=O)NCCCNC(=O)c1ccc(-c2c3nc(c(-c4ccccc4)c4ccc([nH]4)c(-c4ccccc4)c4nc(c(-c5ccccc5)c5ccc2[nH]5)C=C4)C=C3)cc1)C1CCCCC1
REMARK SMILES IDX 10 1 11 2 12 3 9 5 8 6 6 7 7 8 5 10 4 11 3 12 2 13 1 14
REMARK SMILES IDX 67 18 68 19 72 20 69 21 71 22 70 23 13 24 14 25 15 26 16 27
REMARK SMILES IDX 17 28 18 30 19 31 20 32 66 33 21 34 65 35 22 36 23 37 24 38
REMARK SMILES IDX 59 39 25 40 64 41 58 42 60 43 26 44 63 45 57 46 56 47 27 49
REMARK SMILES IDX 49 50 34 51 48 52 35 53 38 54 47 55 61 56 36 57 37 58 46 60
REMARK SMILES IDX 62 61 39 62 28 63 29 64 33 65 30 66 32 67 31 68 50 69 51 70
REMARK SMILES IDX 55 71 52 72 54 73 53 74 40 75 41 76 45 77 42 78 44 79 43 80
REMARK H PARENT 12 4 8 9 1 15 1 16 1 17 16 29 60 48 38 59
REMARK Flexibility Score: inf
ROOT
ATOM      1  C   UNL A   1      34.554  21.780  26.795  1.00  0.00     0.242 C 
ATOM      2  O   UNL A   1      34.351  21.951  27.995  1.00  0.00    -0.273 OA
ATOM      3  N   UNL A   1      35.856  21.833  26.381  1.00  0.00    -0.354 N 
ATOM      4  H   UNL A   1      36.518  21.910  27.106  1.00  0.00     0.163 HD
ENDROOT
BRANCH   1   5
ATOM      5  C   UNL A   1      33.428  21.641  25.737  1.00  0.00     0.174 C 
BRANCH   5   6
ATOM      6  N   UNL A   1      32.659  20.403  25.962  1.00  0.00    -0.342 N 
ATOM      7  C   UNL A   1      32.832  19.160  25.426  1.00  0.00     0.246 C 
ATOM      8  O   UNL A   1      32.104  18.248  25.828  1.00  0.00    -0.272 OA
ATOM      9  H   UNL A   1      31.909  20.485  26.594  1.00  0.00     0.164 HD
BRANCH   7  10
ATOM     10  C   UNL A   1      33.848  18.919  24.298  1.00  0.00     0.260 C 
BRANCH  10  11
ATOM     11  O   UNL A   1      33.655  17.794  23.460  1.00  0.00    -0.366 OA
BRANCH  11  12
ATOM     12  C   UNL A   1      34.607  16.742  23.590  1.00  0.00     0.222 C 
BRANCH  12  13
ATOM     13  C   UNL A   1      34.594  16.053  24.961  1.00  0.00     0.287 C 
BRANCH  13  14
ATOM     14  N   UNL A   1      35.840  16.183  25.716  1.00  0.00    -0.356 N 
ATOM     15  H   UNL A   1      35.676  16.752  26.547  1.00  0.00     0.344 HD
ATOM     16  H   UNL A   1      36.546  16.630  25.132  1.00  0.00     0.344 HD
ATOM     17  H   UNL A   1      36.166  15.258  25.995  1.00  0.00     0.344 HD
ENDBRANCH  13  14
ENDBRANCH  12  13
ENDBRANCH  11  12
ENDBRANCH  10  11
ENDBRANCH   7  10
ENDBRANCH   5   6
BRANCH   5  18
ATOM     18  C   UNL A   1      32.484  22.844  25.457  1.00  0.00     0.021 C 
ATOM     19  C   UNL A   1      31.338  23.019  26.470  1.00  0.00     0.006 C 
ATOM     20  C   UNL A   1      33.331  24.142  25.417  1.00  0.00     0.006 C 
ATOM     21  C   UNL A   1      30.504  24.268  26.194  1.00  0.00     0.000 C 
ATOM     22  C   UNL A   1      32.491  25.386  25.147  1.00  0.00     0.000 C 
ATOM     23  C   UNL A   1      31.359  25.525  26.155  1.00  0.00     0.000 C 
ENDBRANCH   5  18
ENDBRANCH   1   5
BRANCH   3  24
ATOM     24  C   UNL A   1      36.418  21.793  25.043  1.00  0.00     0.117 C 
BRANCH  24  25
ATOM     25  C   UNL A   1      37.460  20.695  24.897  1.00  0.00     0.042 C 
BRANCH  25  26
ATOM     26  C   UNL A   1      38.745  20.936  25.676  1.00  0.00     0.118 C 
BRANCH  26  27
ATOM     27  N   UNL A   1      39.663  19.807  25.650  1.00  0.00    -0.352 N 
ATOM     28  C   UNL A   1      40.991  19.774  26.015  1.00  0.00     0.251 C 
ATOM     29  H   UNL A   1      39.286  18.957  25.330  1.00  0.00     0.163 HD
ATOM     30  O   UNL A   1      41.663  18.768  25.832  1.00  0.00    -0.269 OA
BRANCH  28  31
ATOM     31  C   UNL A   1      41.609  20.989  26.588  1.00  0.00     0.039 A 
ATOM     32  C   UNL A   1      42.148  21.945  25.724  1.00  0.00     0.014 A 
ATOM     33  C   UNL A   1      41.598  21.209  27.968  1.00  0.00     0.014 A 
ATOM     34  C   UNL A   1      42.600  23.161  26.240  1.00  0.00     0.010 A 
ATOM     35  C   UNL A   1      41.973  22.451  28.469  1.00  0.00     0.010 A 
ATOM     36  C   UNL A   1      42.472  23.442  27.610  1.00  0.00    -0.014 A 
BRANCH  36  37
ATOM     37  C   UNL A   1      42.848  24.767  28.166  1.00  0.00     0.031 A 
ATOM     38  C   UNL A   1      41.794  25.816  28.392  1.00  0.00     0.074 A 
ATOM     39  C   UNL A   1      44.144  25.056  28.391  1.00  0.00     0.049 A 
ATOM     40  N   UNL A   1      41.935  27.053  28.793  1.00  0.00    -0.248 NA
ATOM     41  C   UNL A   1      40.402  25.431  28.104  1.00  0.00     0.031 C 
ATOM     42  C   UNL A   1      45.271  24.148  28.166  1.00  0.00     0.029 A 
ATOM     43  N   UNL A   1      44.735  26.206  28.853  1.00  0.00    -0.354 N 
ATOM     44  C   UNL A   1      40.658  27.601  28.777  1.00  0.00     0.074 A 
ATOM     45  C   UNL A   1      39.763  26.576  28.286  1.00  0.00     0.031 C 
ATOM     46  C   UNL A   1      46.411  24.766  28.513  1.00  0.00     0.029 A 
ATOM     47  C   UNL A   1      46.102  26.124  28.948  1.00  0.00     0.049 A 
ATOM     48  H   UNL A   1      44.226  27.015  29.092  1.00  0.00     0.167 HD
ATOM     49  C   UNL A   1      40.261  28.839  29.154  1.00  0.00     0.031 A 
ATOM     50  C   UNL A   1      47.009  27.040  29.337  1.00  0.00     0.031 A 
ATOM     51  C   UNL A   1      41.144  29.851  29.667  1.00  0.00     0.049 A 
ATOM     52  C   UNL A   1      46.542  28.404  29.764  1.00  0.00     0.074 A 
ATOM     53  C   UNL A   1      40.825  31.111  30.143  1.00  0.00     0.029 A 
ATOM     54  N   UNL A   1      42.519  29.718  29.772  1.00  0.00    -0.354 N 
ATOM     55  N   UNL A   1      45.323  28.882  29.810  1.00  0.00    -0.248 NA
ATOM     56  C   UNL A   1      47.577  29.351  30.203  1.00  0.00     0.031 C 
ATOM     57  C   UNL A   1      42.014  31.758  30.496  1.00  0.00     0.029 A 
ATOM     58  C   UNL A   1      43.066  30.881  30.285  1.00  0.00     0.049 A 
ATOM     59  H   UNL A   1      43.030  28.915  29.519  1.00  0.00     0.167 HD
ATOM     60  C   UNL A   1      45.441  30.173  30.305  1.00  0.00     0.074 A 
ATOM     61  C   UNL A   1      46.849  30.399  30.558  1.00  0.00     0.031 C 
ATOM     62  C   UNL A   1      44.469  31.090  30.532  1.00  0.00     0.031 A 
BRANCH  49  63
ATOM     63  C   UNL A   1      38.800  29.165  29.022  1.00  0.00    -0.014 A 
ATOM     64  C   UNL A   1      37.921  29.018  30.107  1.00  0.00     0.009 A 
ATOM     65  C   UNL A   1      38.303  29.656  27.805  1.00  0.00     0.009 A 
ATOM     66  C   UNL A   1      36.565  29.319  29.964  1.00  0.00     0.001 A 
ATOM     67  C   UNL A   1      36.952  29.984  27.674  1.00  0.00     0.001 A 
ATOM     68  C   UNL A   1      36.083  29.806  28.750  1.00  0.00     0.000 A 
ENDBRANCH  49  63
BRANCH  50  69
ATOM     69  C   UNL A   1      48.454  26.695  29.360  1.00  0.00    -0.014 A 
ATOM     70  C   UNL A   1      49.292  27.075  28.299  1.00  0.00     0.009 A 
ATOM     71  C   UNL A   1      49.003  25.982  30.437  1.00  0.00     0.009 A 
ATOM     72  C   UNL A   1      50.644  26.726  28.307  1.00  0.00     0.001 A 
ATOM     73  C   UNL A   1      50.362  25.659  30.453  1.00  0.00     0.001 A 
ATOM     74  C   UNL A   1      51.178  26.023  29.385  1.00  0.00     0.000 A 
ENDBRANCH  50  69
BRANCH  62  75
ATOM     75  C   UNL A   1      44.890  32.410  31.110  1.00  0.00    -0.014 A 
ATOM     76  C   UNL A   1      44.985  32.601  32.497  1.00  0.00     0.009 A 
ATOM     77  C   UNL A   1      45.245  33.462  30.250  1.00  0.00     0.009 A 
ATOM     78  C   UNL A   1      45.398  33.830  33.012  1.00  0.00     0.001 A 
ATOM     79  C   UNL A   1      45.683  34.681  30.769  1.00  0.00     0.001 A 
ATOM     80  C   UNL A   1      45.752  34.867  32.149  1.00  0.00     0.000 A 
ENDBRANCH  62  75
ENDBRANCH  36  37
ENDBRANCH  28  31
ENDBRANCH  26  27
ENDBRANCH  25  26
ENDBRANCH  24  25
ENDBRANCH   3  24
TORSDOF 17
ENDMDL
