MODEL 1
REMARK VINA RESULT:     -12.8      0.000      0.000
REMARK SMILES CC(C)c1cc(N2CCC(C(=O)NCCCNC(=O)c3ccc(-c4c5nc(c(-c6ccccc6)c6ccc([nH]6)c(-c6ccccc6)c6nc(c(-c7ccccc7)c7ccc4[nH]7)C=C6)C=C5)cc3)CC2)nc(-c2ccc(F)cc2)n1
REMARK SMILES IDX 15 1 14 2 13 3 11 4 12 5 10 7 7 8 8 9 69 10 9 11 68 12 6 13
REMARK SMILES IDX 4 14 5 15 79 16 71 17 70 18 2 19 1 20 3 21 72 22 73 23 78 24
REMARK SMILES IDX 74 25 77 26 75 27 76 28 16 29 17 30 18 31 19 33 20 34 21 35
REMARK SMILES IDX 67 36 22 37 66 38 23 39 24 40 25 41 60 42 26 43 65 44 59 45
REMARK SMILES IDX 61 46 27 47 64 48 58 49 57 50 28 52 50 53 35 54 49 55 36 56
REMARK SMILES IDX 39 57 48 58 62 59 37 60 38 61 47 63 63 64 40 65 29 66 30 67
REMARK SMILES IDX 34 68 31 69 33 70 32 71 51 72 52 73 56 74 53 75 55 76 54 77
REMARK SMILES IDX 41 78 42 79 46 80 43 81 45 82 44 83
REMARK H PARENT 13 6 17 32 61 51 39 62
REMARK Flexibility Score: inf
ROOT
ATOM      1  C   UNL A   1      33.804  28.474  25.862  1.00  0.00     0.042 C 
ENDROOT
BRANCH   1   2
ATOM      2  C   UNL A   1      33.043  27.336  25.193  1.00  0.00     0.117 C 
BRANCH   2   3
ATOM      3  N   UNL A   1      31.763  27.760  24.638  1.00  0.00    -0.356 N 
ATOM      4  C   UNL A   1      30.647  27.051  24.313  1.00  0.00     0.223 C 
ATOM      5  O   UNL A   1      29.682  27.673  23.863  1.00  0.00    -0.275 OA
ATOM      6  H   UNL A   1      31.695  28.728  24.467  1.00  0.00     0.163 HD
BRANCH   4   7
ATOM      7  C   UNL A   1      30.577  25.539  24.486  1.00  0.00     0.082 C 
ATOM      8  N   UNL A   1      32.269  23.307  24.678  1.00  0.00    -0.356 N 
ATOM      9  C   UNL A   1      31.482  23.390  23.461  1.00  0.00     0.119 C 
ATOM     10  C   UNL A   1      31.586  23.643  25.910  1.00  0.00     0.119 C 
ATOM     11  C   UNL A   1      31.122  24.844  23.228  1.00  0.00     0.035 C 
ATOM     12  C   UNL A   1      31.170  25.110  25.845  1.00  0.00     0.035 C 
BRANCH   8  13
ATOM     13  C   UNL A   1      33.344  22.449  24.641  1.00  0.00     0.132 A 
ATOM     14  C   UNL A   1      35.660  21.987  24.673  1.00  0.00     0.049 A 
ATOM     15  C   UNL A   1      34.641  22.916  24.569  1.00  0.00     0.071 A 
ATOM     16  N   UNL A   1      35.409  20.673  24.824  1.00  0.00    -0.233 NA
ATOM     17  C   UNL A   1      34.119  20.301  24.825  1.00  0.00     0.161 A 
ATOM     18  N   UNL A   1      33.072  21.138  24.755  1.00  0.00    -0.211 NA
BRANCH  14  19
ATOM     19  C   UNL A   1      37.106  22.438  24.706  1.00  0.00     0.032 C 
ATOM     20  C   UNL A   1      37.227  23.745  25.491  1.00  0.00     0.014 C 
ATOM     21  C   UNL A   1      38.029  21.370  25.301  1.00  0.00     0.014 C 
ENDBRANCH  14  19
BRANCH  17  22
ATOM     22  C   UNL A   1      33.845  18.862  24.871  1.00  0.00     0.019 A 
ATOM     23  C   UNL A   1      32.698  18.364  25.517  1.00  0.00     0.015 A 
ATOM     24  C   UNL A   1      34.746  17.939  24.307  1.00  0.00     0.015 A 
ATOM     25  C   UNL A   1      32.458  16.990  25.597  1.00  0.00     0.040 A 
ATOM     26  C   UNL A   1      34.518  16.564  24.405  1.00  0.00     0.040 A 
ATOM     27  C   UNL A   1      33.374  16.103  25.046  1.00  0.00     0.123 A 
ATOM     28  F   UNL A   1      33.157  14.786  25.142  1.00  0.00    -0.207 F 
ENDBRANCH  17  22
ENDBRANCH   8  13
ENDBRANCH   4   7
ENDBRANCH   2   3
ENDBRANCH   1   2
BRANCH   1  29
ATOM     29  C   UNL A   1      33.332  28.795  27.274  1.00  0.00     0.118 C 
BRANCH  29  30
ATOM     30  N   UNL A   1      33.508  30.198  27.625  1.00  0.00    -0.352 N 
ATOM     31  C   UNL A   1      34.569  30.841  28.214  1.00  0.00     0.251 C 
ATOM     32  H   UNL A   1      32.743  30.778  27.406  1.00  0.00     0.163 HD
ATOM     33  O   UNL A   1      34.442  32.001  28.603  1.00  0.00    -0.269 OA
BRANCH  31  34
ATOM     34  C   UNL A   1      35.853  30.139  28.413  1.00  0.00     0.039 A 
ATOM     35  C   UNL A   1      36.774  30.104  27.361  1.00  0.00     0.014 A 
ATOM     36  C   UNL A   1      36.156  29.518  29.627  1.00  0.00     0.014 A 
ATOM     37  C   UNL A   1      38.036  29.541  27.563  1.00  0.00     0.010 A 
ATOM     38  C   UNL A   1      37.439  29.029  29.853  1.00  0.00     0.010 A 
ATOM     39  C   UNL A   1      38.398  29.053  28.829  1.00  0.00    -0.014 A 
BRANCH  39  40
ATOM     40  C   UNL A   1      39.787  28.620  29.125  1.00  0.00     0.031 A 
ATOM     41  C   UNL A   1      40.775  29.580  29.726  1.00  0.00     0.074 A 
ATOM     42  C   UNL A   1      40.183  27.384  28.762  1.00  0.00     0.049 A 
ATOM     43  N   UNL A   1      42.054  29.414  29.950  1.00  0.00    -0.248 NA
ATOM     44  C   UNL A   1      40.264  30.907  30.107  1.00  0.00     0.031 C 
ATOM     45  C   UNL A   1      39.328  26.366  28.144  1.00  0.00     0.029 A 
ATOM     46  N   UNL A   1      41.411  26.777  28.843  1.00  0.00    -0.354 N 
ATOM     47  C   UNL A   1      42.503  30.616  30.483  1.00  0.00     0.074 A 
ATOM     48  C   UNL A   1      41.370  31.516  30.509  1.00  0.00     0.031 C 
ATOM     49  C   UNL A   1      40.051  25.258  27.923  1.00  0.00     0.029 A 
ATOM     50  C   UNL A   1      41.431  25.504  28.325  1.00  0.00     0.049 A 
ATOM     51  H   UNL A   1      42.203  27.213  29.235  1.00  0.00     0.167 HD
ATOM     52  C   UNL A   1      43.743  30.935  30.923  1.00  0.00     0.031 A 
ATOM     53  C   UNL A   1      42.451  24.638  28.168  1.00  0.00     0.031 A 
ATOM     54  C   UNL A   1      44.870  30.040  30.891  1.00  0.00     0.049 A 
ATOM     55  C   UNL A   1      43.831  25.042  28.608  1.00  0.00     0.074 A 
ATOM     56  C   UNL A   1      46.153  30.253  31.364  1.00  0.00     0.029 A 
ATOM     57  N   UNL A   1      44.851  28.766  30.343  1.00  0.00    -0.354 N 
ATOM     58  N   UNL A   1      44.224  26.155  29.176  1.00  0.00    -0.248 NA
ATOM     59  C   UNL A   1      44.909  24.068  28.382  1.00  0.00     0.031 C 
ATOM     60  C   UNL A   1      46.929  29.136  31.042  1.00  0.00     0.029 A 
ATOM     61  C   UNL A   1      46.113  28.200  30.426  1.00  0.00     0.049 A 
ATOM     62  H   UNL A   1      44.060  28.330  29.953  1.00  0.00     0.167 HD
ATOM     63  C   UNL A   1      45.587  26.009  29.395  1.00  0.00     0.074 A 
ATOM     64  C   UNL A   1      45.950  24.691  28.917  1.00  0.00     0.031 C 
ATOM     65  C   UNL A   1      46.462  26.890  29.939  1.00  0.00     0.031 A 
BRANCH  52  66
ATOM     66  C   UNL A   1      43.954  32.324  31.462  1.00  0.00    -0.014 A 
ATOM     67  C   UNL A   1      44.279  33.394  30.613  1.00  0.00     0.009 A 
ATOM     68  C   UNL A   1      43.776  32.576  32.832  1.00  0.00     0.009 A 
ATOM     69  C   UNL A   1      44.459  34.680  31.131  1.00  0.00     0.001 A 
ATOM     70  C   UNL A   1      43.926  33.866  33.342  1.00  0.00     0.001 A 
ATOM     71  C   UNL A   1      44.277  34.915  32.493  1.00  0.00     0.000 A 
ENDBRANCH  52  66
BRANCH  53  72
ATOM     72  C   UNL A   1      42.210  23.309  27.548  1.00  0.00    -0.014 A 
ATOM     73  C   UNL A   1      41.690  22.250  28.308  1.00  0.00     0.009 A 
ATOM     74  C   UNL A   1      42.503  23.087  26.192  1.00  0.00     0.009 A 
ATOM     75  C   UNL A   1      41.494  20.993  27.732  1.00  0.00     0.001 A 
ATOM     76  C   UNL A   1      42.276  21.838  25.610  1.00  0.00     0.001 A 
ATOM     77  C   UNL A   1      41.782  20.790  26.383  1.00  0.00     0.000 A 
ENDBRANCH  53  72
BRANCH  65  78
ATOM     78  C   UNL A   1      47.896  26.455  30.063  1.00  0.00    -0.014 A 
ATOM     79  C   UNL A   1      48.369  25.839  31.231  1.00  0.00     0.009 A 
ATOM     80  C   UNL A   1      48.768  26.610  28.975  1.00  0.00     0.009 A 
ATOM     81  C   UNL A   1      49.694  25.409  31.316  1.00  0.00     0.001 A 
ATOM     82  C   UNL A   1      50.084  26.151  29.050  1.00  0.00     0.001 A 
ATOM     83  C   UNL A   1      50.547  25.558  30.223  1.00  0.00     0.000 A 
ENDBRANCH  65  78
ENDBRANCH  39  40
ENDBRANCH  31  34
ENDBRANCH  29  30
ENDBRANCH   1  29
TORSDOF 13
ENDMDL
MODEL 2
REMARK VINA RESULT:     -12.4      1.542      2.850
REMARK SMILES CC(C)c1cc(N2CCC(C(=O)NCCCNC(=O)c3ccc(-c4c5nc(c(-c6ccccc6)c6ccc([nH]6)c(-c6ccccc6)c6nc(c(-c7ccccc7)c7ccc4[nH]7)C=C6)C=C5)cc3)CC2)nc(-c2ccc(F)cc2)n1
REMARK SMILES IDX 15 1 14 2 13 3 11 4 12 5 10 7 7 8 8 9 69 10 9 11 68 12 6 13
REMARK SMILES IDX 4 14 5 15 79 16 71 17 70 18 2 19 1 20 3 21 72 22 73 23 78 24
REMARK SMILES IDX 74 25 77 26 75 27 76 28 16 29 17 30 18 31 19 33 20 34 21 35
REMARK SMILES IDX 67 36 22 37 66 38 23 39 24 40 25 41 60 42 26 43 65 44 59 45
REMARK SMILES IDX 61 46 27 47 64 48 58 49 57 50 28 52 50 53 35 54 49 55 36 56
REMARK SMILES IDX 39 57 48 58 62 59 37 60 38 61 47 63 63 64 40 65 29 66 30 67
REMARK SMILES IDX 34 68 31 69 33 70 32 71 51 72 52 73 56 74 53 75 55 76 54 77
REMARK SMILES IDX 41 78 42 79 46 80 43 81 45 82 44 83
REMARK H PARENT 13 6 17 32 61 51 39 62
REMARK Flexibility Score: inf
ROOT
ATOM      1  C   UNL A   1      34.095  28.547  25.756  1.00  0.00     0.042 C 
ENDROOT
BRANCH   1   2
ATOM      2  C   UNL A   1      33.090  27.753  24.929  1.00  0.00     0.117 C 
BRANCH   2   3
ATOM      3  N   UNL A   1      32.262  28.602  24.080  1.00  0.00    -0.356 N 
ATOM      4  C   UNL A   1      31.436  28.296  23.040  1.00  0.00     0.223 C 
ATOM      5  O   UNL A   1      30.834  29.224  22.494  1.00  0.00    -0.275 OA
ATOM      6  H   UNL A   1      32.308  29.562  24.295  1.00  0.00     0.163 HD
BRANCH   4   7
ATOM      7  C   UNL A   1      31.256  26.866  22.551  1.00  0.00     0.082 C 
ATOM      8  N   UNL A   1      32.048  24.248  23.190  1.00  0.00    -0.356 N 
ATOM      9  C   UNL A   1      32.616  24.791  21.969  1.00  0.00     0.119 C 
ATOM     10  C   UNL A   1      30.645  24.518  23.422  1.00  0.00     0.119 C 
ATOM     11  C   UNL A   1      32.604  26.304  22.072  1.00  0.00     0.035 C 
ATOM     12  C   UNL A   1      30.463  26.026  23.574  1.00  0.00     0.035 C 
BRANCH   8  13
ATOM     13  C   UNL A   1      32.682  23.143  23.706  1.00  0.00     0.132 A 
ATOM     14  C   UNL A   1      32.823  20.829  24.163  1.00  0.00     0.049 A 
ATOM     15  C   UNL A   1      32.063  21.909  23.754  1.00  0.00     0.071 A 
ATOM     16  N   UNL A   1      34.114  20.965  24.519  1.00  0.00    -0.233 NA
ATOM     17  C   UNL A   1      34.618  22.209  24.500  1.00  0.00     0.161 A 
ATOM     18  N   UNL A   1      33.958  23.305  24.092  1.00  0.00    -0.211 NA
BRANCH  14  19
ATOM     19  C   UNL A   1      32.240  19.430  24.140  1.00  0.00     0.032 C 
ATOM     20  C   UNL A   1      32.469  18.793  22.769  1.00  0.00     0.014 C 
ATOM     21  C   UNL A   1      32.824  18.546  25.246  1.00  0.00     0.014 C 
ENDBRANCH  14  19
BRANCH  17  22
ATOM     22  C   UNL A   1      35.985  22.378  24.999  1.00  0.00     0.019 A 
ATOM     23  C   UNL A   1      36.903  21.310  24.971  1.00  0.00     0.015 A 
ATOM     24  C   UNL A   1      36.403  23.601  25.558  1.00  0.00     0.015 A 
ATOM     25  C   UNL A   1      38.194  21.459  25.485  1.00  0.00     0.040 A 
ATOM     26  C   UNL A   1      37.686  23.744  26.091  1.00  0.00     0.040 A 
ATOM     27  C   UNL A   1      38.570  22.673  26.046  1.00  0.00     0.123 A 
ATOM     28  F   UNL A   1      39.799  22.810  26.559  1.00  0.00    -0.207 F 
ENDBRANCH  17  22
ENDBRANCH   8  13
ENDBRANCH   4   7
ENDBRANCH   2   3
ENDBRANCH   1   2
BRANCH   1  29
ATOM     29  C   UNL A   1      33.695  28.734  27.213  1.00  0.00     0.118 C 
BRANCH  29  30
ATOM     30  N   UNL A   1      33.794  30.118  27.655  1.00  0.00    -0.352 N 
ATOM     31  C   UNL A   1      34.800  30.768  28.328  1.00  0.00     0.251 C 
ATOM     32  H   UNL A   1      33.014  30.678  27.437  1.00  0.00     0.163 HD
ATOM     33  O   UNL A   1      34.605  31.895  28.780  1.00  0.00    -0.269 OA
BRANCH  31  34
ATOM     34  C   UNL A   1      36.105  30.110  28.541  1.00  0.00     0.039 A 
ATOM     35  C   UNL A   1      37.063  30.164  27.524  1.00  0.00     0.014 A 
ATOM     36  C   UNL A   1      36.389  29.442  29.734  1.00  0.00     0.014 A 
ATOM     37  C   UNL A   1      38.340  29.643  27.746  1.00  0.00     0.010 A 
ATOM     38  C   UNL A   1      37.684  28.995  29.984  1.00  0.00     0.010 A 
ATOM     39  C   UNL A   1      38.677  29.108  29.000  1.00  0.00    -0.014 A 
BRANCH  39  40
ATOM     40  C   UNL A   1      40.071  28.718  29.327  1.00  0.00     0.031 A 
ATOM     41  C   UNL A   1      40.996  29.686  30.010  1.00  0.00     0.074 A 
ATOM     42  C   UNL A   1      40.531  27.518  28.920  1.00  0.00     0.049 A 
ATOM     43  N   UNL A   1      42.272  29.561  30.274  1.00  0.00    -0.248 NA
ATOM     44  C   UNL A   1      40.416  30.970  30.434  1.00  0.00     0.031 C 
ATOM     45  C   UNL A   1      39.743  26.498  28.223  1.00  0.00     0.029 A 
ATOM     46  N   UNL A   1      41.781  26.958  29.018  1.00  0.00    -0.354 N 
ATOM     47  C   UNL A   1      42.651  30.753  30.880  1.00  0.00     0.074 A 
ATOM     48  C   UNL A   1      41.480  31.603  30.907  1.00  0.00     0.031 C 
ATOM     49  C   UNL A   1      40.520  25.433  27.976  1.00  0.00     0.029 A 
ATOM     50  C   UNL A   1      41.873  25.714  28.441  1.00  0.00     0.049 A 
ATOM     51  H   UNL A   1      42.539  27.406  29.461  1.00  0.00     0.167 HD
ATOM     52  C   UNL A   1      43.860  31.099  31.381  1.00  0.00     0.031 A 
ATOM     53  C   UNL A   1      42.934  24.899  28.282  1.00  0.00     0.031 A 
ATOM     54  C   UNL A   1      45.023  30.253  31.349  1.00  0.00     0.049 A 
ATOM     55  C   UNL A   1      44.279  25.336  28.792  1.00  0.00     0.074 A 
ATOM     56  C   UNL A   1      46.279  30.495  31.880  1.00  0.00     0.029 A 
ATOM     57  N   UNL A   1      45.078  29.008  30.741  1.00  0.00    -0.354 N 
ATOM     58  N   UNL A   1      44.604  26.435  29.427  1.00  0.00    -0.248 NA
ATOM     59  C   UNL A   1      45.404  24.419  28.560  1.00  0.00     0.031 C 
ATOM     60  C   UNL A   1      47.112  29.427  31.534  1.00  0.00     0.029 A 
ATOM     61  C   UNL A   1      46.359  28.490  30.844  1.00  0.00     0.049 A 
ATOM     62  H   UNL A   1      44.321  28.560  30.301  1.00  0.00     0.167 HD
ATOM     63  C   UNL A   1      45.963  26.334  29.689  1.00  0.00     0.074 A 
ATOM     64  C   UNL A   1      46.398  25.057  29.163  1.00  0.00     0.031 C 
ATOM     65  C   UNL A   1      46.780  27.221  30.308  1.00  0.00     0.031 A 
BRANCH  52  66
ATOM     66  C   UNL A   1      43.992  32.467  31.994  1.00  0.00    -0.014 A 
ATOM     67  C   UNL A   1      44.343  33.583  31.217  1.00  0.00     0.009 A 
ATOM     68  C   UNL A   1      43.714  32.652  33.358  1.00  0.00     0.009 A 
ATOM     69  C   UNL A   1      44.449  34.848  31.801  1.00  0.00     0.001 A 
ATOM     70  C   UNL A   1      43.790  33.921  33.932  1.00  0.00     0.001 A 
ATOM     71  C   UNL A   1      44.168  35.016  33.156  1.00  0.00     0.000 A 
ENDBRANCH  52  66
BRANCH  53  72
ATOM     72  C   UNL A   1      42.771  23.594  27.589  1.00  0.00    -0.014 A 
ATOM     73  C   UNL A   1      42.979  23.489  26.206  1.00  0.00     0.009 A 
ATOM     74  C   UNL A   1      42.399  22.444  28.306  1.00  0.00     0.009 A 
ATOM     75  C   UNL A   1      42.793  22.269  25.551  1.00  0.00     0.001 A 
ATOM     76  C   UNL A   1      42.246  21.218  27.654  1.00  0.00     0.001 A 
ATOM     77  C   UNL A   1      42.433  21.135  26.276  1.00  0.00     0.000 A 
ENDBRANCH  53  72
BRANCH  65  78
ATOM     78  C   UNL A   1      48.225  26.838  30.465  1.00  0.00    -0.014 A 
ATOM     79  C   UNL A   1      49.189  27.248  29.531  1.00  0.00     0.009 A 
ATOM     80  C   UNL A   1      48.636  26.108  31.591  1.00  0.00     0.009 A 
ATOM     81  C   UNL A   1      50.533  26.912  29.711  1.00  0.00     0.001 A 
ATOM     82  C   UNL A   1      49.983  25.802  31.784  1.00  0.00     0.001 A 
ATOM     83  C   UNL A   1      50.929  26.198  30.840  1.00  0.00     0.000 A 
ENDBRANCH  65  78
ENDBRANCH  39  40
ENDBRANCH  31  34
ENDBRANCH  29  30
ENDBRANCH   1  29
TORSDOF 13
ENDMDL
MODEL 3
REMARK VINA RESULT:     -12.4      3.378      8.638
REMARK SMILES CC(C)c1cc(N2CCC(C(=O)NCCCNC(=O)c3ccc(-c4c5nc(c(-c6ccccc6)c6ccc([nH]6)c(-c6ccccc6)c6nc(c(-c7ccccc7)c7ccc4[nH]7)C=C6)C=C5)cc3)CC2)nc(-c2ccc(F)cc2)n1
REMARK SMILES IDX 15 1 14 2 13 3 11 4 12 5 10 7 7 8 8 9 69 10 9 11 68 12 6 13
REMARK SMILES IDX 4 14 5 15 79 16 71 17 70 18 2 19 1 20 3 21 72 22 73 23 78 24
REMARK SMILES IDX 74 25 77 26 75 27 76 28 16 29 17 30 18 31 19 33 20 34 21 35
REMARK SMILES IDX 67 36 22 37 66 38 23 39 24 40 25 41 60 42 26 43 65 44 59 45
REMARK SMILES IDX 61 46 27 47 64 48 58 49 57 50 28 52 50 53 35 54 49 55 36 56
REMARK SMILES IDX 39 57 48 58 62 59 37 60 38 61 47 63 63 64 40 65 29 66 30 67
REMARK SMILES IDX 34 68 31 69 33 70 32 71 51 72 52 73 56 74 53 75 55 76 54 77
REMARK SMILES IDX 41 78 42 79 46 80 43 81 45 82 44 83
REMARK H PARENT 13 6 17 32 61 51 39 62
REMARK Flexibility Score: inf
ROOT
ATOM      1  C   UNL A   1      36.425  22.708  23.997  1.00  0.00     0.042 C 
ENDROOT
BRANCH   1   2
ATOM      2  C   UNL A   1      34.934  22.628  24.300  1.00  0.00     0.117 C 
BRANCH   2   3
ATOM      3  N   UNL A   1      34.496  21.275  24.627  1.00  0.00    -0.356 N 
ATOM      4  C   UNL A   1      33.261  20.777  24.913  1.00  0.00     0.223 C 
ATOM      5  O   UNL A   1      33.170  19.570  25.147  1.00  0.00    -0.275 OA
ATOM      6  H   UNL A   1      35.219  20.607  24.645  1.00  0.00     0.163 HD
BRANCH   4   7
ATOM      7  C   UNL A   1      32.026  21.667  24.955  1.00  0.00     0.082 C 
ATOM      8  N   UNL A   1      31.323  24.384  25.047  1.00  0.00    -0.356 N 
ATOM      9  C   UNL A   1      31.046  23.626  26.255  1.00  0.00     0.119 C 
ATOM     10  C   UNL A   1      31.011  23.731  23.793  1.00  0.00     0.119 C 
ATOM     11  C   UNL A   1      31.977  22.430  26.288  1.00  0.00     0.035 C 
ATOM     12  C   UNL A   1      31.897  22.495  23.660  1.00  0.00     0.035 C 
BRANCH   8  13
ATOM     13  C   UNL A   1      31.329  25.752  25.186  1.00  0.00     0.132 A 
ATOM     14  C   UNL A   1      32.130  27.759  26.139  1.00  0.00     0.049 A 
ATOM     15  C   UNL A   1      32.079  26.378  26.162  1.00  0.00     0.071 A 
ATOM     16  N   UNL A   1      31.467  28.479  25.215  1.00  0.00    -0.233 NA
ATOM     17  C   UNL A   1      30.715  27.791  24.340  1.00  0.00     0.161 A 
ATOM     18  N   UNL A   1      30.631  26.452  24.277  1.00  0.00    -0.211 NA
BRANCH  14  19
ATOM     19  C   UNL A   1      33.016  28.509  27.115  1.00  0.00     0.032 C 
ATOM     20  C   UNL A   1      34.472  28.447  26.651  1.00  0.00     0.014 C 
ATOM     21  C   UNL A   1      32.573  29.963  27.293  1.00  0.00     0.014 C 
ENDBRANCH  14  19
BRANCH  17  22
ATOM     22  C   UNL A   1      29.900  28.574  23.408  1.00  0.00     0.019 A 
ATOM     23  C   UNL A   1      28.507  28.388  23.332  1.00  0.00     0.015 A 
ATOM     24  C   UNL A   1      30.496  29.503  22.535  1.00  0.00     0.015 A 
ATOM     25  C   UNL A   1      27.735  29.105  22.414  1.00  0.00     0.040 A 
ATOM     26  C   UNL A   1      29.729  30.206  21.602  1.00  0.00     0.040 A 
ATOM     27  C   UNL A   1      28.355  30.001  21.553  1.00  0.00     0.123 A 
ATOM     28  F   UNL A   1      27.620  30.673  20.658  1.00  0.00    -0.207 F 
ENDBRANCH  17  22
ENDBRANCH   8  13
ENDBRANCH   4   7
ENDBRANCH   2   3
ENDBRANCH   1   2
BRANCH   1  29
ATOM     29  C   UNL A   1      37.247  23.386  25.085  1.00  0.00     0.118 C 
BRANCH  29  30
ATOM     30  N   UNL A   1      38.401  22.597  25.498  1.00  0.00    -0.352 N 
ATOM     31  C   UNL A   1      39.536  22.968  26.176  1.00  0.00     0.251 C 
ATOM     32  H   UNL A   1      38.360  21.645  25.252  1.00  0.00     0.163 HD
ATOM     33  O   UNL A   1      40.483  22.188  26.258  1.00  0.00    -0.269 OA
BRANCH  31  34
ATOM     34  C   UNL A   1      39.641  24.312  26.781  1.00  0.00     0.039 A 
ATOM     35  C   UNL A   1      39.100  24.525  28.052  1.00  0.00     0.014 A 
ATOM     36  C   UNL A   1      40.269  25.361  26.104  1.00  0.00     0.014 A 
ATOM     37  C   UNL A   1      39.284  25.756  28.687  1.00  0.00     0.010 A 
ATOM     38  C   UNL A   1      40.520  26.559  26.767  1.00  0.00     0.010 A 
ATOM     39  C   UNL A   1      40.047  26.761  28.072  1.00  0.00    -0.014 A 
BRANCH  39  40
ATOM     40  C   UNL A   1      40.416  28.005  28.793  1.00  0.00     0.031 A 
ATOM     41  C   UNL A   1      41.730  28.110  29.515  1.00  0.00     0.074 A 
ATOM     42  C   UNL A   1      39.520  29.008  28.875  1.00  0.00     0.049 A 
ATOM     43  N   UNL A   1      42.172  29.071  30.286  1.00  0.00    -0.248 NA
ATOM     44  C   UNL A   1      42.659  26.978  29.367  1.00  0.00     0.031 C 
ATOM     45  C   UNL A   1      38.197  29.020  28.242  1.00  0.00     0.029 A 
ATOM     46  N   UNL A   1      39.576  30.208  29.539  1.00  0.00    -0.354 N 
ATOM     47  C   UNL A   1      43.423  28.655  30.727  1.00  0.00     0.074 A 
ATOM     48  C   UNL A   1      43.650  27.338  30.171  1.00  0.00     0.031 C 
ATOM     49  C   UNL A   1      37.580  30.175  28.532  1.00  0.00     0.029 A 
ATOM     50  C   UNL A   1      38.433  30.960  29.417  1.00  0.00     0.049 A 
ATOM     51  H   UNL A   1      40.363  30.502  30.055  1.00  0.00     0.167 HD
ATOM     52  C   UNL A   1      44.307  29.317  31.510  1.00  0.00     0.031 A 
ATOM     53  C   UNL A   1      38.095  32.140  29.973  1.00  0.00     0.031 A 
ATOM     54  C   UNL A   1      44.077  30.625  32.065  1.00  0.00     0.049 A 
ATOM     55  C   UNL A   1      39.071  32.824  30.890  1.00  0.00     0.074 A 
ATOM     56  C   UNL A   1      44.934  31.400  32.826  1.00  0.00     0.029 A 
ATOM     57  N   UNL A   1      42.899  31.344  31.930  1.00  0.00    -0.354 N 
ATOM     58  N   UNL A   1      40.278  32.451  31.238  1.00  0.00    -0.248 NA
ATOM     59  C   UNL A   1      38.635  34.092  31.493  1.00  0.00     0.031 C 
ATOM     60  C   UNL A   1      44.251  32.559  33.209  1.00  0.00     0.029 A 
ATOM     61  C   UNL A   1      42.991  32.535  32.632  1.00  0.00     0.049 A 
ATOM     62  H   UNL A   1      42.114  31.052  31.413  1.00  0.00     0.167 HD
ATOM     63  C   UNL A   1      40.753  33.446  32.082  1.00  0.00     0.074 A 
ATOM     64  C   UNL A   1      39.713  34.448  32.177  1.00  0.00     0.031 C 
ATOM     65  C   UNL A   1      41.945  33.520  32.725  1.00  0.00     0.031 A 
BRANCH  52  66
ATOM     66  C   UNL A   1      45.604  28.626  31.833  1.00  0.00    -0.014 A 
ATOM     67  C   UNL A   1      46.739  28.789  31.023  1.00  0.00     0.009 A 
ATOM     68  C   UNL A   1      45.706  27.840  32.993  1.00  0.00     0.009 A 
ATOM     69  C   UNL A   1      47.938  28.149  31.347  1.00  0.00     0.001 A 
ATOM     70  C   UNL A   1      46.914  27.227  33.330  1.00  0.00     0.001 A 
ATOM     71  C   UNL A   1      48.025  27.374  32.502  1.00  0.00     0.000 A 
ENDBRANCH  52  66
BRANCH  53  72
ATOM     72  C   UNL A   1      36.765  32.741  29.694  1.00  0.00    -0.014 A 
ATOM     73  C   UNL A   1      36.587  33.608  28.606  1.00  0.00     0.009 A 
ATOM     74  C   UNL A   1      35.663  32.456  30.519  1.00  0.00     0.009 A 
ATOM     75  C   UNL A   1      35.344  34.198  28.364  1.00  0.00     0.001 A 
ATOM     76  C   UNL A   1      34.413  33.021  30.255  1.00  0.00     0.001 A 
ATOM     77  C   UNL A   1      34.258  33.900  29.185  1.00  0.00     0.000 A 
ENDBRANCH  53  72
BRANCH  65  78
ATOM     78  C   UNL A   1      42.197  34.733  33.577  1.00  0.00    -0.014 A 
ATOM     79  C   UNL A   1      42.827  35.870  33.051  1.00  0.00     0.009 A 
ATOM     80  C   UNL A   1      41.746  34.758  34.906  1.00  0.00     0.009 A 
ATOM     81  C   UNL A   1      43.022  37.001  33.847  1.00  0.00     0.001 A 
ATOM     82  C   UNL A   1      41.912  35.900  35.689  1.00  0.00     0.001 A 
ATOM     83  C   UNL A   1      42.557  37.018  35.162  1.00  0.00     0.000 A 
ENDBRANCH  65  78
ENDBRANCH  39  40
ENDBRANCH  31  34
ENDBRANCH  29  30
ENDBRANCH   1  29
TORSDOF 13
ENDMDL
