MODEL 1
REMARK VINA RESULT:     -11.6      0.000      0.000
REMARK SMILES C[C@@H]1[C@@H](C(=O)NCCCNC(=O)c2ccc(-c3c4nc(c(-c5ccccc5)c5ccc([nH]5)c(-c5ccccc5)c5nc(c(-c6ccccc6)c6ccc3[nH]6)C=C5)C=C4)cc2)CC[N@@H+]1C[C@H]1Cc2ccccc2O1
REMARK SMILES IDX 8 1 7 2 6 3 4 4 5 5 3 7 1 8 2 9 63 10 61 11 62 12 64 14
REMARK SMILES IDX 65 15 66 16 73 17 67 18 72 19 68 20 71 21 69 22 70 23 9 24
REMARK SMILES IDX 10 25 11 26 12 28 13 29 14 30 60 31 15 32 59 33 16 34 17 35
REMARK SMILES IDX 18 36 53 37 19 38 58 39 52 40 54 41 20 42 57 43 51 44 50 45
REMARK SMILES IDX 21 47 43 48 28 49 42 50 29 51 32 52 41 53 55 54 30 55 31 56
REMARK SMILES IDX 40 58 56 59 33 60 22 61 23 62 27 63 24 64 26 65 25 66 44 67
REMARK SMILES IDX 45 68 49 69 46 70 48 71 47 72 34 73 35 74 39 75 36 76 38 77
REMARK SMILES IDX 37 78
REMARK H PARENT 6 6 63 13 10 27 54 46 32 57
REMARK Flexibility Score: inf
ROOT
ATOM      1  C   UNL A   1      37.743  20.008  24.626  1.00  0.00     0.042 C 
ENDROOT
BRANCH   1   2
ATOM      2  C   UNL A   1      37.027  21.299  24.251  1.00  0.00     0.117 C 
BRANCH   2   3
ATOM      3  N   UNL A   1      37.595  22.466  24.905  1.00  0.00    -0.356 N 
ATOM      4  C   UNL A   1      37.094  23.400  25.748  1.00  0.00     0.229 C 
ATOM      5  O   UNL A   1      37.912  24.231  26.168  1.00  0.00    -0.275 OA
ATOM      6  H   UNL A   1      38.546  22.607  24.690  1.00  0.00     0.163 HD
BRANCH   4   7
ATOM      7  C   UNL A   1      35.624  23.568  26.125  1.00  0.00     0.142 C 
ATOM      8  C   UNL A   1      34.108  22.221  27.625  1.00  0.00     0.076 C 
ATOM      9  C   UNL A   1      34.733  22.324  26.231  1.00  0.00     0.193 C 
ATOM     10  N   UNL A   1      33.790  22.443  25.112  1.00  0.00    -0.329 N 
ATOM     11  C   UNL A   1      34.897  24.511  25.179  1.00  0.00     0.081 C 
ATOM     12  C   UNL A   1      34.064  23.609  24.300  1.00  0.00     0.263 C 
ATOM     13  H   UNL A   1      34.021  21.605  24.580  1.00  0.00     0.348 HD
BRANCH  10  14
ATOM     14  C   UNL A   1      32.436  21.916  25.155  1.00  0.00     0.308 C 
BRANCH  14  15
ATOM     15  C   UNL A   1      32.231  20.446  24.741  1.00  0.00     0.232 C 
ATOM     16  C   UNL A   1      33.085  19.986  23.553  1.00  0.00     0.090 C 
ATOM     17  O   UNL A   1      32.543  19.556  25.857  1.00  0.00    -0.484 OA
ATOM     18  C   UNL A   1      33.138  18.545  23.872  1.00  0.00    -0.002 A 
ATOM     19  C   UNL A   1      32.848  18.377  25.218  1.00  0.00     0.123 A 
ATOM     20  C   UNL A   1      33.452  17.474  23.059  1.00  0.00     0.007 A 
ATOM     21  C   UNL A   1      32.865  17.136  25.811  1.00  0.00     0.047 A 
ATOM     22  C   UNL A   1      33.447  16.203  23.632  1.00  0.00     0.001 A 
ATOM     23  C   UNL A   1      33.157  16.034  24.999  1.00  0.00     0.004 A 
ENDBRANCH  14  15
ENDBRANCH  10  14
ENDBRANCH   4   7
ENDBRANCH   2   3
ENDBRANCH   1   2
BRANCH   1  24
ATOM     24  C   UNL A   1      38.579  20.094  25.891  1.00  0.00     0.118 C 
BRANCH  24  25
ATOM     25  N   UNL A   1      39.778  19.272  25.833  1.00  0.00    -0.352 N 
ATOM     26  C   UNL A   1      41.101  19.584  26.032  1.00  0.00     0.251 C 
ATOM     27  H   UNL A   1      39.613  18.327  25.613  1.00  0.00     0.163 HD
ATOM     28  O   UNL A   1      41.956  18.748  25.751  1.00  0.00    -0.269 OA
BRANCH  26  29
ATOM     29  C   UNL A   1      41.524  20.905  26.559  1.00  0.00     0.039 A 
ATOM     30  C   UNL A   1      41.901  21.898  25.649  1.00  0.00     0.014 A 
ATOM     31  C   UNL A   1      41.621  21.161  27.928  1.00  0.00     0.014 A 
ATOM     32  C   UNL A   1      42.322  23.151  26.106  1.00  0.00     0.010 A 
ATOM     33  C   UNL A   1      41.945  22.439  28.382  1.00  0.00     0.010 A 
ATOM     34  C   UNL A   1      42.319  23.442  27.478  1.00  0.00    -0.014 A 
BRANCH  34  35
ATOM     35  C   UNL A   1      42.751  24.768  27.993  1.00  0.00     0.031 A 
ATOM     36  C   UNL A   1      41.726  25.829  28.294  1.00  0.00     0.074 A 
ATOM     37  C   UNL A   1      44.062  25.042  28.135  1.00  0.00     0.049 A 
ATOM     38  N   UNL A   1      41.907  27.071  28.669  1.00  0.00    -0.248 NA
ATOM     39  C   UNL A   1      40.313  25.455  28.126  1.00  0.00     0.031 C 
ATOM     40  C   UNL A   1      45.161  24.118  27.846  1.00  0.00     0.029 A 
ATOM     41  N   UNL A   1      44.693  26.186  28.556  1.00  0.00    -0.354 N 
ATOM     42  C   UNL A   1      40.636  27.630  28.746  1.00  0.00     0.074 A 
ATOM     43  C   UNL A   1      39.698  26.609  28.338  1.00  0.00     0.031 C 
ATOM     44  C   UNL A   1      46.327  24.721  28.128  1.00  0.00     0.029 A 
ATOM     45  C   UNL A   1      46.063  26.083  28.580  1.00  0.00     0.049 A 
ATOM     46  H   UNL A   1      44.210  27.003  28.817  1.00  0.00     0.167 HD
ATOM     47  C   UNL A   1      40.277  28.875  29.140  1.00  0.00     0.031 A 
ATOM     48  C   UNL A   1      47.001  26.984  28.925  1.00  0.00     0.031 A 
ATOM     49  C   UNL A   1      41.202  29.884  29.581  1.00  0.00     0.049 A 
ATOM     50  C   UNL A   1      46.577  28.354  29.374  1.00  0.00     0.074 A 
ATOM     51  C   UNL A   1      40.932  31.155  30.057  1.00  0.00     0.029 A 
ATOM     52  N   UNL A   1      42.579  29.729  29.609  1.00  0.00    -0.354 N 
ATOM     53  N   UNL A   1      45.369  28.850  29.486  1.00  0.00    -0.248 NA
ATOM     54  C   UNL A   1      47.650  29.285  29.755  1.00  0.00     0.031 C 
ATOM     55  C   UNL A   1      42.149  31.783  30.341  1.00  0.00     0.029 A 
ATOM     56  C   UNL A   1      43.174  30.886  30.081  1.00  0.00     0.049 A 
ATOM     57  H   UNL A   1      43.063  28.917  29.333  1.00  0.00     0.167 HD
ATOM     58  C   UNL A   1      45.534  30.140  29.973  1.00  0.00     0.074 A 
ATOM     59  C   UNL A   1      46.957  30.346  30.147  1.00  0.00     0.031 C 
ATOM     60  C   UNL A   1      44.590  31.071  30.251  1.00  0.00     0.031 A 
BRANCH  47  61
ATOM     61  C   UNL A   1      38.813  29.212  29.111  1.00  0.00    -0.014 A 
ATOM     62  C   UNL A   1      38.201  29.691  27.942  1.00  0.00     0.009 A 
ATOM     63  C   UNL A   1      38.031  29.028  30.262  1.00  0.00     0.009 A 
ATOM     64  C   UNL A   1      36.842  30.016  27.936  1.00  0.00     0.001 A 
ATOM     65  C   UNL A   1      36.667  29.328  30.245  1.00  0.00     0.001 A 
ATOM     66  C   UNL A   1      36.076  29.831  29.087  1.00  0.00     0.000 A 
ENDBRANCH  47  61
BRANCH  48  67
ATOM     67  C   UNL A   1      48.438  26.613  28.884  1.00  0.00    -0.014 A 
ATOM     68  C   UNL A   1      49.048  26.021  30.001  1.00  0.00     0.009 A 
ATOM     69  C   UNL A   1      49.207  26.845  27.734  1.00  0.00     0.009 A 
ATOM     70  C   UNL A   1      50.404  25.692  29.976  1.00  0.00     0.001 A 
ATOM     71  C   UNL A   1      50.558  26.490  27.702  1.00  0.00     0.001 A 
ATOM     72  C   UNL A   1      51.156  25.921  28.825  1.00  0.00     0.000 A 
ENDBRANCH  48  67
BRANCH  60  73
ATOM     73  C   UNL A   1      45.065  32.383  30.804  1.00  0.00    -0.014 A 
ATOM     74  C   UNL A   1      45.229  32.572  32.184  1.00  0.00     0.009 A 
ATOM     75  C   UNL A   1      45.393  33.428  29.926  1.00  0.00     0.009 A 
ATOM     76  C   UNL A   1      45.684  33.798  32.677  1.00  0.00     0.001 A 
ATOM     77  C   UNL A   1      45.870  34.642  30.421  1.00  0.00     0.001 A 
ATOM     78  C   UNL A   1      46.009  34.828  31.795  1.00  0.00     0.000 A 
ENDBRANCH  60  73
ENDBRANCH  34  35
ENDBRANCH  26  29
ENDBRANCH  24  25
ENDBRANCH   1  24
TORSDOF 12
ENDMDL
MODEL 2
REMARK VINA RESULT:     -11.6      2.650      7.421
REMARK SMILES C[C@@H]1[C@@H](C(=O)NCCCNC(=O)c2ccc(-c3c4nc(c(-c5ccccc5)c5ccc([nH]5)c(-c5ccccc5)c5nc(c(-c6ccccc6)c6ccc3[nH]6)C=C5)C=C4)cc2)CC[N@@H+]1C[C@H]1Cc2ccccc2O1
REMARK SMILES IDX 8 1 7 2 6 3 4 4 5 5 3 7 1 8 2 9 63 10 61 11 62 12 64 14
REMARK SMILES IDX 65 15 66 16 73 17 67 18 72 19 68 20 71 21 69 22 70 23 9 24
REMARK SMILES IDX 10 25 11 26 12 28 13 29 14 30 60 31 15 32 59 33 16 34 17 35
REMARK SMILES IDX 18 36 53 37 19 38 58 39 52 40 54 41 20 42 57 43 51 44 50 45
REMARK SMILES IDX 21 47 43 48 28 49 42 50 29 51 32 52 41 53 55 54 30 55 31 56
REMARK SMILES IDX 40 58 56 59 33 60 22 61 23 62 27 63 24 64 26 65 25 66 44 67
REMARK SMILES IDX 45 68 49 69 46 70 48 71 47 72 34 73 35 74 39 75 36 76 38 77
REMARK SMILES IDX 37 78
REMARK H PARENT 6 6 63 13 10 27 54 46 32 57
REMARK Flexibility Score: inf
ROOT
ATOM      1  C   UNL A   1      33.287  28.337  25.406  1.00  0.00     0.042 C 
ENDROOT
BRANCH   1   2
ATOM      2  C   UNL A   1      31.797  28.033  25.303  1.00  0.00     0.117 C 
BRANCH   2   3
ATOM      3  N   UNL A   1      31.211  28.516  24.065  1.00  0.00    -0.356 N 
ATOM      4  C   UNL A   1      30.873  27.919  22.897  1.00  0.00     0.229 C 
ATOM      5  O   UNL A   1      30.317  28.652  22.067  1.00  0.00    -0.275 OA
ATOM      6  H   UNL A   1      31.017  29.482  24.077  1.00  0.00     0.163 HD
BRANCH   4   7
ATOM      7  C   UNL A   1      31.210  26.485  22.496  1.00  0.00     0.142 C 
ATOM      8  C   UNL A   1      30.400  24.260  23.365  1.00  0.00     0.076 C 
ATOM      9  C   UNL A   1      31.373  25.422  23.589  1.00  0.00     0.193 C 
ATOM     10  N   UNL A   1      32.800  25.078  23.564  1.00  0.00    -0.329 N 
ATOM     11  C   UNL A   1      32.479  26.410  21.660  1.00  0.00     0.081 C 
ATOM     12  C   UNL A   1      33.530  25.876  22.603  1.00  0.00     0.263 C 
ATOM     13  H   UNL A   1      33.077  25.354  24.506  1.00  0.00     0.348 HD
BRANCH  10  14
ATOM     14  C   UNL A   1      33.305  23.760  23.915  1.00  0.00     0.308 C 
BRANCH  14  15
ATOM     15  C   UNL A   1      34.830  23.600  24.066  1.00  0.00     0.232 C 
ATOM     16  C   UNL A   1      35.428  24.270  25.309  1.00  0.00     0.090 C 
ATOM     17  O   UNL A   1      35.187  22.185  24.135  1.00  0.00    -0.484 OA
ATOM     18  C   UNL A   1      36.617  23.409  25.467  1.00  0.00    -0.002 A 
ATOM     19  C   UNL A   1      36.394  22.216  24.794  1.00  0.00     0.123 A 
ATOM     20  C   UNL A   1      37.782  23.635  26.174  1.00  0.00     0.007 A 
ATOM     21  C   UNL A   1      37.319  21.198  24.803  1.00  0.00     0.047 A 
ATOM     22  C   UNL A   1      38.746  22.628  26.172  1.00  0.00     0.001 A 
ATOM     23  C   UNL A   1      38.516  21.417  25.493  1.00  0.00     0.004 A 
ENDBRANCH  14  15
ENDBRANCH  10  14
ENDBRANCH   4   7
ENDBRANCH   2   3
ENDBRANCH   1   2
BRANCH   1  24
ATOM     24  C   UNL A   1      33.812  28.441  26.828  1.00  0.00     0.118 C 
BRANCH  24  25
ATOM     25  N   UNL A   1      33.712  29.786  27.371  1.00  0.00    -0.352 N 
ATOM     26  C   UNL A   1      34.595  30.531  28.114  1.00  0.00     0.251 C 
ATOM     27  H   UNL A   1      32.863  30.242  27.172  1.00  0.00     0.163 HD
ATOM     28  O   UNL A   1      34.209  31.587  28.610  1.00  0.00    -0.269 OA
BRANCH  26  29
ATOM     29  C   UNL A   1      35.993  30.089  28.345  1.00  0.00     0.039 A 
ATOM     30  C   UNL A   1      36.324  29.547  29.592  1.00  0.00     0.014 A 
ATOM     31  C   UNL A   1      36.994  30.261  27.387  1.00  0.00     0.014 A 
ATOM     32  C   UNL A   1      37.634  29.134  29.855  1.00  0.00     0.010 A 
ATOM     33  C   UNL A   1      38.275  29.760  27.612  1.00  0.00     0.010 A 
ATOM     34  C   UNL A   1      38.616  29.210  28.856  1.00  0.00    -0.014 A 
BRANCH  34  35
ATOM     35  C   UNL A   1      40.013  28.770  29.104  1.00  0.00     0.031 A 
ATOM     36  C   UNL A   1      40.994  29.707  29.759  1.00  0.00     0.074 A 
ATOM     37  C   UNL A   1      40.422  27.555  28.689  1.00  0.00     0.049 A 
ATOM     38  N   UNL A   1      42.273  29.541  29.984  1.00  0.00    -0.248 NA
ATOM     39  C   UNL A   1      40.474  31.013  30.195  1.00  0.00     0.031 C 
ATOM     40  C   UNL A   1      39.586  26.563  28.010  1.00  0.00     0.029 A 
ATOM     41  N   UNL A   1      41.651  26.950  28.777  1.00  0.00    -0.354 N 
ATOM     42  C   UNL A   1      42.713  30.731  30.553  1.00  0.00     0.074 A 
ATOM     43  C   UNL A   1      41.578  31.624  30.600  1.00  0.00     0.031 C 
ATOM     44  C   UNL A   1      40.318  25.462  27.771  1.00  0.00     0.029 A 
ATOM     45  C   UNL A   1      41.681  25.685  28.243  1.00  0.00     0.049 A 
ATOM     46  H   UNL A   1      42.436  27.382  29.183  1.00  0.00     0.167 HD
ATOM     47  C   UNL A   1      43.946  31.048  31.016  1.00  0.00     0.031 A 
ATOM     48  C   UNL A   1      42.692  24.802  28.143  1.00  0.00     0.031 A 
ATOM     49  C   UNL A   1      45.070  30.151  31.005  1.00  0.00     0.049 A 
ATOM     50  C   UNL A   1      44.047  25.170  28.678  1.00  0.00     0.074 A 
ATOM     51  C   UNL A   1      46.344  30.358  31.505  1.00  0.00     0.029 A 
ATOM     52  N   UNL A   1      45.050  28.872  30.474  1.00  0.00    -0.354 N 
ATOM     53  N   UNL A   1      44.433  26.282  29.256  1.00  0.00    -0.248 NA
ATOM     54  C   UNL A   1      45.103  24.154  28.556  1.00  0.00     0.031 C 
ATOM     55  C   UNL A   1      47.106  29.214  31.246  1.00  0.00     0.029 A 
ATOM     56  C   UNL A   1      46.292  28.280  30.623  1.00  0.00     0.049 A 
ATOM     57  H   UNL A   1      44.268  28.446  30.054  1.00  0.00     0.167 HD
ATOM     58  C   UNL A   1      45.768  26.091  29.587  1.00  0.00     0.074 A 
ATOM     59  C   UNL A   1      46.122  24.753  29.158  1.00  0.00     0.031 C 
ATOM     60  C   UNL A   1      46.624  26.948  30.193  1.00  0.00     0.031 A 
BRANCH  47  61
ATOM     61  C   UNL A   1      44.139  32.430  31.574  1.00  0.00    -0.014 A 
ATOM     62  C   UNL A   1      44.540  33.496  30.754  1.00  0.00     0.009 A 
ATOM     63  C   UNL A   1      43.895  32.673  32.935  1.00  0.00     0.009 A 
ATOM     64  C   UNL A   1      44.732  34.770  31.292  1.00  0.00     0.001 A 
ATOM     65  C   UNL A   1      44.061  33.955  33.464  1.00  0.00     0.001 A 
ATOM     66  C   UNL A   1      44.489  34.999  32.646  1.00  0.00     0.000 A 
ENDBRANCH  47  61
BRANCH  48  67
ATOM     67  C   UNL A   1      42.457  23.469  27.534  1.00  0.00    -0.014 A 
ATOM     68  C   UNL A   1      42.674  23.270  26.161  1.00  0.00     0.009 A 
ATOM     69  C   UNL A   1      42.018  22.390  28.315  1.00  0.00     0.009 A 
ATOM     70  C   UNL A   1      42.432  22.024  25.579  1.00  0.00     0.001 A 
ATOM     71  C   UNL A   1      41.801  21.137  27.735  1.00  0.00     0.001 A 
ATOM     72  C   UNL A   1      42.001  20.958  26.367  1.00  0.00     0.000 A 
ENDBRANCH  48  67
BRANCH  60  73
ATOM     73  C   UNL A   1      48.016  26.452  30.458  1.00  0.00    -0.014 A 
ATOM     74  C   UNL A   1      48.345  25.826  31.670  1.00  0.00     0.009 A 
ATOM     75  C   UNL A   1      48.998  26.575  29.463  1.00  0.00     0.009 A 
ATOM     76  C   UNL A   1      49.643  25.360  31.891  1.00  0.00     0.001 A 
ATOM     77  C   UNL A   1      50.287  26.088  29.679  1.00  0.00     0.001 A 
ATOM     78  C   UNL A   1      50.610  25.487  30.894  1.00  0.00     0.000 A 
ENDBRANCH  60  73
ENDBRANCH  34  35
ENDBRANCH  26  29
ENDBRANCH  24  25
ENDBRANCH   1  24
TORSDOF 12
ENDMDL
MODEL 3
REMARK VINA RESULT:     -11.5      2.243      7.032
REMARK SMILES C[C@@H]1[C@@H](C(=O)NCCCNC(=O)c2ccc(-c3c4nc(c(-c5ccccc5)c5ccc([nH]5)c(-c5ccccc5)c5nc(c(-c6ccccc6)c6ccc3[nH]6)C=C5)C=C4)cc2)CC[N@@H+]1C[C@H]1Cc2ccccc2O1
REMARK SMILES IDX 8 1 7 2 6 3 4 4 5 5 3 7 1 8 2 9 63 10 61 11 62 12 64 14
REMARK SMILES IDX 65 15 66 16 73 17 67 18 72 19 68 20 71 21 69 22 70 23 9 24
REMARK SMILES IDX 10 25 11 26 12 28 13 29 14 30 60 31 15 32 59 33 16 34 17 35
REMARK SMILES IDX 18 36 53 37 19 38 58 39 52 40 54 41 20 42 57 43 51 44 50 45
REMARK SMILES IDX 21 47 43 48 28 49 42 50 29 51 32 52 41 53 55 54 30 55 31 56
REMARK SMILES IDX 40 58 56 59 33 60 22 61 23 62 27 63 24 64 26 65 25 66 44 67
REMARK SMILES IDX 45 68 49 69 46 70 48 71 47 72 34 73 35 74 39 75 36 76 38 77
REMARK SMILES IDX 37 78
REMARK H PARENT 6 6 63 13 10 27 54 46 32 57
REMARK Flexibility Score: inf
ROOT
ATOM      1  C   UNL A   1      34.191  28.361  25.833  1.00  0.00     0.042 C 
ENDROOT
BRANCH   1   2
ATOM      2  C   UNL A   1      33.276  28.510  24.624  1.00  0.00     0.117 C 
BRANCH   2   3
ATOM      3  N   UNL A   1      33.703  27.705  23.494  1.00  0.00    -0.356 N 
ATOM      4  C   UNL A   1      33.326  26.495  23.014  1.00  0.00     0.229 C 
ATOM      5  O   UNL A   1      33.877  26.145  21.961  1.00  0.00    -0.275 OA
ATOM      6  H   UNL A   1      34.418  28.126  22.963  1.00  0.00     0.163 HD
BRANCH   4   7
ATOM      7  C   UNL A   1      32.384  25.513  23.706  1.00  0.00     0.142 C 
ATOM      8  C   UNL A   1      32.045  24.935  26.138  1.00  0.00     0.076 C 
ATOM      9  C   UNL A   1      32.901  24.690  24.892  1.00  0.00     0.193 C 
ATOM     10  N   UNL A   1      32.935  23.307  24.400  1.00  0.00    -0.329 N 
ATOM     11  C   UNL A   1      31.798  24.502  22.732  1.00  0.00     0.081 C 
ATOM     12  C   UNL A   1      32.548  23.221  23.008  1.00  0.00     0.263 C 
ATOM     13  H   UNL A   1      33.931  23.102  24.481  1.00  0.00     0.348 HD
BRANCH  10  14
ATOM     14  C   UNL A   1      32.734  22.152  25.260  1.00  0.00     0.308 C 
BRANCH  14  15
ATOM     15  C   UNL A   1      32.949  20.758  24.641  1.00  0.00     0.232 C 
ATOM     16  C   UNL A   1      34.401  20.264  24.654  1.00  0.00     0.090 C 
ATOM     17  O   UNL A   1      32.156  19.759  25.353  1.00  0.00    -0.484 OA
ATOM     18  C   UNL A   1      34.134  18.812  24.643  1.00  0.00    -0.002 A 
ATOM     19  C   UNL A   1      32.838  18.595  25.087  1.00  0.00     0.123 A 
ATOM     20  C   UNL A   1      34.971  17.765  24.310  1.00  0.00     0.007 A 
ATOM     21  C   UNL A   1      32.324  17.326  25.222  1.00  0.00     0.047 A 
ATOM     22  C   UNL A   1      34.461  16.471  24.411  1.00  0.00     0.001 A 
ATOM     23  C   UNL A   1      33.147  16.252  24.866  1.00  0.00     0.004 A 
ENDBRANCH  14  15
ENDBRANCH  10  14
ENDBRANCH   4   7
ENDBRANCH   2   3
ENDBRANCH   1   2
BRANCH   1  24
ATOM     24  C   UNL A   1      33.511  28.592  27.172  1.00  0.00     0.118 C 
BRANCH  24  25
ATOM     25  N   UNL A   1      33.502  29.992  27.568  1.00  0.00    -0.352 N 
ATOM     26  C   UNL A   1      34.441  30.756  28.216  1.00  0.00     0.251 C 
ATOM     27  H   UNL A   1      32.679  30.476  27.329  1.00  0.00     0.163 HD
ATOM     28  O   UNL A   1      34.128  31.880  28.599  1.00  0.00    -0.269 OA
BRANCH  26  29
ATOM     29  C   UNL A   1      35.812  30.255  28.480  1.00  0.00     0.039 A 
ATOM     30  C   UNL A   1      36.763  30.341  27.456  1.00  0.00     0.014 A 
ATOM     31  C   UNL A   1      36.161  29.643  29.685  1.00  0.00     0.014 A 
ATOM     32  C   UNL A   1      38.062  29.866  27.658  1.00  0.00     0.010 A 
ATOM     33  C   UNL A   1      37.480  29.259  29.922  1.00  0.00     0.010 A 
ATOM     34  C   UNL A   1      38.441  29.346  28.905  1.00  0.00    -0.014 A 
BRANCH  34  35
ATOM     35  C   UNL A   1      39.817  28.842  29.153  1.00  0.00     0.031 A 
ATOM     36  C   UNL A   1      40.839  29.735  29.806  1.00  0.00     0.074 A 
ATOM     37  C   UNL A   1      40.168  27.609  28.742  1.00  0.00     0.049 A 
ATOM     38  N   UNL A   1      42.110  29.511  30.031  1.00  0.00    -0.248 NA
ATOM     39  C   UNL A   1      40.381  31.065  30.238  1.00  0.00     0.031 C 
ATOM     40  C   UNL A   1      39.287  26.655  28.065  1.00  0.00     0.029 A 
ATOM     41  N   UNL A   1      41.368  26.948  28.831  1.00  0.00    -0.354 N 
ATOM     42  C   UNL A   1      42.605  30.680  30.596  1.00  0.00     0.074 A 
ATOM     43  C   UNL A   1      41.512  31.626  30.641  1.00  0.00     0.031 C 
ATOM     44  C   UNL A   1      39.967  25.521  27.829  1.00  0.00     0.029 A 
ATOM     45  C   UNL A   1      41.339  25.681  28.300  1.00  0.00     0.049 A 
ATOM     46  H   UNL A   1      42.173  27.345  29.235  1.00  0.00     0.167 HD
ATOM     47  C   UNL A   1      43.851  30.942  31.057  1.00  0.00     0.031 A 
ATOM     48  C   UNL A   1      42.309  24.752  28.203  1.00  0.00     0.031 A 
ATOM     49  C   UNL A   1      44.932  29.994  31.049  1.00  0.00     0.049 A 
ATOM     50  C   UNL A   1      43.680  25.059  28.737  1.00  0.00     0.074 A 
ATOM     51  C   UNL A   1      46.215  30.143  31.548  1.00  0.00     0.029 A 
ATOM     52  N   UNL A   1      44.853  28.715  30.522  1.00  0.00    -0.354 N 
ATOM     53  N   UNL A   1      44.117  26.153  29.311  1.00  0.00    -0.248 NA
ATOM     54  C   UNL A   1      44.688  23.995  28.617  1.00  0.00     0.031 C 
ATOM     55  C   UNL A   1      46.923  28.964  31.292  1.00  0.00     0.029 A 
ATOM     56  C   UNL A   1      46.067  28.068  30.672  1.00  0.00     0.049 A 
ATOM     57  H   UNL A   1      44.052  28.325  30.103  1.00  0.00     0.167 HD
ATOM     58  C   UNL A   1      45.441  25.902  29.642  1.00  0.00     0.074 A 
ATOM     59  C   UNL A   1      45.733  24.548  29.217  1.00  0.00     0.031 C 
ATOM     60  C   UNL A   1      46.337  26.720  30.246  1.00  0.00     0.031 A 
BRANCH  47  61
ATOM     61  C   UNL A   1      44.108  32.314  31.612  1.00  0.00    -0.014 A 
ATOM     62  C   UNL A   1      43.824  32.622  32.951  1.00  0.00     0.009 A 
ATOM     63  C   UNL A   1      44.662  33.308  30.789  1.00  0.00     0.009 A 
ATOM     64  C   UNL A   1      44.052  33.908  33.446  1.00  0.00     0.001 A 
ATOM     65  C   UNL A   1      44.914  34.585  31.294  1.00  0.00     0.001 A 
ATOM     66  C   UNL A   1      44.600  34.887  32.618  1.00  0.00     0.000 A 
ENDBRANCH  47  61
BRANCH  48  67
ATOM     67  C   UNL A   1      42.012  23.430  27.597  1.00  0.00    -0.014 A 
ATOM     68  C   UNL A   1      42.342  23.175  26.257  1.00  0.00     0.009 A 
ATOM     69  C   UNL A   1      41.401  22.416  28.351  1.00  0.00     0.009 A 
ATOM     70  C   UNL A   1      42.044  21.941  25.676  1.00  0.00     0.001 A 
ATOM     71  C   UNL A   1      41.127  21.173  27.775  1.00  0.00     0.001 A 
ATOM     72  C   UNL A   1      41.442  20.940  26.437  1.00  0.00     0.000 A 
ENDBRANCH  48  67
BRANCH  60  73
ATOM     73  C   UNL A   1      47.704  26.161  30.511  1.00  0.00    -0.014 A 
ATOM     74  C   UNL A   1      48.672  26.098  29.498  1.00  0.00     0.009 A 
ATOM     75  C   UNL A   1      48.039  25.732  31.805  1.00  0.00     0.009 A 
ATOM     76  C   UNL A   1      49.943  25.586  29.770  1.00  0.00     0.001 A 
ATOM     77  C   UNL A   1      49.317  25.242  32.078  1.00  0.00     0.001 A 
ATOM     78  C   UNL A   1      50.264  25.164  31.060  1.00  0.00     0.000 A 
ENDBRANCH  60  73
ENDBRANCH  34  35
ENDBRANCH  26  29
ENDBRANCH  24  25
ENDBRANCH   1  24
TORSDOF 12
ENDMDL
