MODEL 1
REMARK VINA RESULT:     -11.8      0.000      0.000
REMARK SMILES CC(C)c1cc(C#N)cc2nc(-c3ccc(C(=O)NCCCNC(=O)c4ccc(-c5c6nc(c(-c7ccccc7)c7ccc([nH]7)c(-c7ccccc7)c7nc(c(-c8ccccc8)c8ccc5[nH]8)C=C7)C=C6)cc4)cc3)oc12
REMARK SMILES IDX 21 1 20 2 19 3 17 4 18 5 16 7 13 8 14 9 75 10 15 11 74 12
REMARK SMILES IDX 12 13 4 14 5 15 77 16 6 17 10 18 76 19 9 20 11 21 2 22 1 23
REMARK SMILES IDX 3 24 7 25 8 26 22 27 23 28 24 29 25 31 26 32 27 33 73 34
REMARK SMILES IDX 28 35 72 36 29 37 30 38 31 39 66 40 32 41 71 42 65 43 67 44
REMARK SMILES IDX 33 45 70 46 64 47 63 48 34 50 56 51 41 52 55 53 42 54 45 55
REMARK SMILES IDX 54 56 68 57 43 58 44 59 53 61 69 62 46 63 35 64 36 65 40 66
REMARK SMILES IDX 37 67 39 68 38 69 57 70 58 71 62 72 59 73 61 74 60 75 47 76
REMARK SMILES IDX 48 77 52 78 49 79 51 80 50 81
REMARK H PARENT 19 6 23 30 67 49 45 60
REMARK Flexibility Score: inf
ROOT
ATOM      1  C   UNL A   1      31.883  28.856  26.763  1.00  0.00     0.042 C 
ENDROOT
BRANCH   1   2
ATOM      2  C   UNL A   1      31.715  28.587  25.267  1.00  0.00     0.118 C 
BRANCH   2   3
ATOM      3  N   UNL A   1      30.953  27.393  24.916  1.00  0.00    -0.352 N 
ATOM      4  C   UNL A   1      31.238  26.042  24.888  1.00  0.00     0.251 C 
ATOM      5  O   UNL A   1      30.311  25.279  24.603  1.00  0.00    -0.269 OA
ATOM      6  H   UNL A   1      30.030  27.595  24.637  1.00  0.00     0.163 HD
BRANCH   4   7
ATOM      7  C   UNL A   1      32.592  25.452  25.120  1.00  0.00     0.039 A 
ATOM      8  C   UNL A   1      35.054  24.101  25.531  1.00  0.00     0.037 A 
ATOM      9  C   UNL A   1      33.990  23.893  26.409  1.00  0.00     0.014 A 
ATOM     10  C   UNL A   1      34.898  25.045  24.509  1.00  0.00     0.014 A 
ATOM     11  C   UNL A   1      32.766  24.559  26.197  1.00  0.00     0.014 A 
ATOM     12  C   UNL A   1      33.709  25.753  24.350  1.00  0.00     0.014 A 
BRANCH   8  13
ATOM     13  C   UNL A   1      36.361  23.472  25.644  1.00  0.00     0.227 A 
ATOM     14  C   UNL A   1      39.673  23.402  26.878  1.00  0.00     0.001 A 
ATOM     15  C   UNL A   1      40.500  22.257  26.753  1.00  0.00     0.027 A 
ATOM     16  C   UNL A   1      38.396  23.242  26.325  1.00  0.00     0.158 A 
ATOM     17  C   UNL A   1      40.062  21.059  26.162  1.00  0.00     0.055 A 
ATOM     18  C   UNL A   1      37.934  22.070  25.748  1.00  0.00     0.111 A 
ATOM     19  O   UNL A   1      37.380  24.166  26.248  1.00  0.00    -0.436 OA
ATOM     20  C   UNL A   1      38.761  20.948  25.665  1.00  0.00     0.052 A 
ATOM     21  N   UNL A   1      36.646  22.222  25.336  1.00  0.00    -0.209 NA
BRANCH  14  22
ATOM     22  C   UNL A   1      40.156  24.676  27.531  1.00  0.00     0.017 C 
ATOM     23  C   UNL A   1      39.062  25.349  28.367  1.00  0.00     0.012 C 
ATOM     24  C   UNL A   1      41.401  24.406  28.376  1.00  0.00     0.012 C 
ENDBRANCH  14  22
BRANCH  17  25
ATOM     25  C   UNL A   1      40.947  19.943  26.055  1.00  0.00     0.099 C 
ATOM     26  N   UNL A   1      41.678  19.036  25.965  1.00  0.00    -0.192 NA
ENDBRANCH  17  25
ENDBRANCH   8  13
ENDBRANCH   4   7
ENDBRANCH   2   3
ENDBRANCH   1   2
BRANCH   1  27
ATOM     27  C   UNL A   1      33.306  29.092  27.249  1.00  0.00     0.118 C 
BRANCH  27  28
ATOM     28  N   UNL A   1      33.640  30.483  27.485  1.00  0.00    -0.352 N 
ATOM     29  C   UNL A   1      34.768  31.216  27.719  1.00  0.00     0.251 C 
ATOM     30  H   UNL A   1      32.837  31.053  27.474  1.00  0.00     0.163 HD
ATOM     31  O   UNL A   1      34.614  32.437  27.618  1.00  0.00    -0.269 OA
BRANCH  29  32
ATOM     32  C   UNL A   1      36.107  30.719  28.156  1.00  0.00     0.039 A 
ATOM     33  C   UNL A   1      37.123  31.452  28.761  1.00  0.00     0.014 A 
ATOM     34  C   UNL A   1      36.379  29.373  27.818  1.00  0.00     0.014 A 
ATOM     35  C   UNL A   1      38.409  30.888  28.879  1.00  0.00     0.010 A 
ATOM     36  C   UNL A   1      37.646  28.807  27.948  1.00  0.00     0.010 A 
ATOM     37  C   UNL A   1      38.695  29.584  28.408  1.00  0.00    -0.014 A 
BRANCH  37  38
ATOM     38  C   UNL A   1      40.014  28.966  28.648  1.00  0.00     0.031 A 
ATOM     39  C   UNL A   1      40.266  28.830  30.105  1.00  0.00     0.074 A 
ATOM     40  C   UNL A   1      40.909  28.492  27.740  1.00  0.00     0.049 A 
ATOM     41  N   UNL A   1      41.021  29.614  30.797  1.00  0.00    -0.248 NA
ATOM     42  C   UNL A   1      39.446  27.920  30.920  1.00  0.00     0.031 C 
ATOM     43  C   UNL A   1      40.768  28.401  26.282  1.00  0.00     0.029 A 
ATOM     44  N   UNL A   1      42.164  27.951  27.930  1.00  0.00    -0.354 N 
ATOM     45  C   UNL A   1      40.972  29.139  32.098  1.00  0.00     0.074 A 
ATOM     46  C   UNL A   1      39.854  28.234  32.153  1.00  0.00     0.031 C 
ATOM     47  C   UNL A   1      41.774  27.653  25.757  1.00  0.00     0.029 A 
ATOM     48  C   UNL A   1      42.721  27.317  26.808  1.00  0.00     0.049 A 
ATOM     49  H   UNL A   1      42.637  28.005  28.792  1.00  0.00     0.167 HD
ATOM     50  C   UNL A   1      42.051  29.307  32.910  1.00  0.00     0.031 A 
ATOM     51  C   UNL A   1      43.922  26.673  26.687  1.00  0.00     0.031 A 
ATOM     52  C   UNL A   1      42.945  30.303  32.362  1.00  0.00     0.049 A 
ATOM     53  C   UNL A   1      44.793  27.202  27.748  1.00  0.00     0.074 A 
ATOM     54  C   UNL A   1      42.873  31.648  32.065  1.00  0.00     0.029 A 
ATOM     55  N   UNL A   1      43.968  29.783  31.611  1.00  0.00    -0.354 N 
ATOM     56  N   UNL A   1      45.273  28.408  27.742  1.00  0.00    -0.248 NA
ATOM     57  C   UNL A   1      44.783  26.519  29.026  1.00  0.00     0.031 C 
ATOM     58  C   UNL A   1      43.635  31.811  30.870  1.00  0.00     0.029 A 
ATOM     59  C   UNL A   1      44.237  30.593  30.548  1.00  0.00     0.049 A 
ATOM     60  H   UNL A   1      44.440  28.943  31.810  1.00  0.00     0.167 HD
ATOM     61  C   UNL A   1      45.142  28.814  29.057  1.00  0.00     0.074 A 
ATOM     62  C   UNL A   1      44.957  27.577  29.820  1.00  0.00     0.031 C 
ATOM     63  C   UNL A   1      44.890  30.123  29.344  1.00  0.00     0.031 A 
BRANCH  50  64
ATOM     64  C   UNL A   1      42.559  28.217  33.831  1.00  0.00    -0.014 A 
ATOM     65  C   UNL A   1      42.012  27.948  35.100  1.00  0.00     0.009 A 
ATOM     66  C   UNL A   1      43.411  27.232  33.297  1.00  0.00     0.009 A 
ATOM     67  C   UNL A   1      42.280  26.764  35.791  1.00  0.00     0.001 A 
ATOM     68  C   UNL A   1      43.655  26.027  33.970  1.00  0.00     0.001 A 
ATOM     69  C   UNL A   1      43.088  25.794  35.218  1.00  0.00     0.000 A 
ENDBRANCH  50  64
BRANCH  51  70
ATOM     70  C   UNL A   1      44.249  25.336  26.097  1.00  0.00    -0.014 A 
ATOM     71  C   UNL A   1      45.570  25.019  25.749  1.00  0.00     0.009 A 
ATOM     72  C   UNL A   1      43.228  24.525  25.545  1.00  0.00     0.009 A 
ATOM     73  C   UNL A   1      45.855  23.995  24.830  1.00  0.00     0.001 A 
ATOM     74  C   UNL A   1      43.515  23.501  24.626  1.00  0.00     0.001 A 
ATOM     75  C   UNL A   1      44.829  23.252  24.251  1.00  0.00     0.000 A 
ENDBRANCH  51  70
BRANCH  63  76
ATOM     76  C   UNL A   1      45.141  31.163  28.275  1.00  0.00    -0.014 A 
ATOM     77  C   UNL A   1      46.340  31.887  28.377  1.00  0.00     0.009 A 
ATOM     78  C   UNL A   1      44.202  31.563  27.309  1.00  0.00     0.009 A 
ATOM     79  C   UNL A   1      46.581  33.003  27.577  1.00  0.00     0.001 A 
ATOM     80  C   UNL A   1      44.460  32.664  26.481  1.00  0.00     0.001 A 
ATOM     81  C   UNL A   1      45.640  33.393  26.630  1.00  0.00     0.000 A 
ENDBRANCH  63  76
ENDBRANCH  37  38
ENDBRANCH  29  32
ENDBRANCH  27  28
ENDBRANCH   1  27
TORSDOF 13
ENDMDL
MODEL 2
REMARK VINA RESULT:     -11.5      2.028      3.197
REMARK SMILES CC(C)c1cc(C#N)cc2nc(-c3ccc(C(=O)NCCCNC(=O)c4ccc(-c5c6nc(c(-c7ccccc7)c7ccc([nH]7)c(-c7ccccc7)c7nc(c(-c8ccccc8)c8ccc5[nH]8)C=C7)C=C6)cc4)cc3)oc12
REMARK SMILES IDX 21 1 20 2 19 3 17 4 18 5 16 7 13 8 14 9 75 10 15 11 74 12
REMARK SMILES IDX 12 13 4 14 5 15 77 16 6 17 10 18 76 19 9 20 11 21 2 22 1 23
REMARK SMILES IDX 3 24 7 25 8 26 22 27 23 28 24 29 25 31 26 32 27 33 73 34
REMARK SMILES IDX 28 35 72 36 29 37 30 38 31 39 66 40 32 41 71 42 65 43 67 44
REMARK SMILES IDX 33 45 70 46 64 47 63 48 34 50 56 51 41 52 55 53 42 54 45 55
REMARK SMILES IDX 54 56 68 57 43 58 44 59 53 61 69 62 46 63 35 64 36 65 40 66
REMARK SMILES IDX 37 67 39 68 38 69 57 70 58 71 62 72 59 73 61 74 60 75 47 76
REMARK SMILES IDX 48 77 52 78 49 79 51 80 50 81
REMARK H PARENT 19 6 23 30 67 49 45 60
REMARK Flexibility Score: inf
ROOT
ATOM      1  C   UNL A   1      32.367  30.144  25.672  1.00  0.00     0.042 C 
ENDROOT
BRANCH   1   2
ATOM      2  C   UNL A   1      30.907  30.332  25.258  1.00  0.00     0.118 C 
BRANCH   2   3
ATOM      3  N   UNL A   1      30.626  30.195  23.833  1.00  0.00    -0.352 N 
ATOM      4  C   UNL A   1      30.640  29.137  22.946  1.00  0.00     0.251 C 
ATOM      5  O   UNL A   1      30.266  29.367  21.793  1.00  0.00    -0.269 OA
ATOM      6  H   UNL A   1      30.368  31.046  23.409  1.00  0.00     0.163 HD
BRANCH   4   7
ATOM      7  C   UNL A   1      31.128  27.761  23.269  1.00  0.00     0.039 A 
ATOM      8  C   UNL A   1      31.858  25.060  23.745  1.00  0.00     0.037 A 
ATOM      9  C   UNL A   1      30.628  25.541  24.198  1.00  0.00     0.014 A 
ATOM     10  C   UNL A   1      32.739  25.960  23.135  1.00  0.00     0.014 A 
ATOM     11  C   UNL A   1      30.266  26.880  23.953  1.00  0.00     0.014 A 
ATOM     12  C   UNL A   1      32.402  27.300  22.960  1.00  0.00     0.014 A 
BRANCH   8  13
ATOM     13  C   UNL A   1      32.341  23.702  23.937  1.00  0.00     0.227 A 
ATOM     14  C   UNL A   1      34.930  21.399  24.636  1.00  0.00     0.001 A 
ATOM     15  C   UNL A   1      34.673  20.029  24.892  1.00  0.00     0.027 A 
ATOM     16  C   UNL A   1      33.780  22.154  24.375  1.00  0.00     0.158 A 
ATOM     17  C   UNL A   1      33.376  19.488  24.918  1.00  0.00     0.055 A 
ATOM     18  C   UNL A   1      32.489  21.650  24.406  1.00  0.00     0.111 A 
ATOM     19  O   UNL A   1      33.691  23.489  24.056  1.00  0.00    -0.436 OA
ATOM     20  C   UNL A   1      32.262  20.302  24.690  1.00  0.00     0.052 A 
ATOM     21  N   UNL A   1      31.590  22.636  24.143  1.00  0.00    -0.209 NA
BRANCH  14  22
ATOM     22  C   UNL A   1      36.331  21.967  24.628  1.00  0.00     0.017 C 
ATOM     23  C   UNL A   1      37.382  20.921  25.016  1.00  0.00     0.012 C 
ATOM     24  C   UNL A   1      36.651  22.584  23.267  1.00  0.00     0.012 C 
ENDBRANCH  14  22
BRANCH  17  25
ATOM     25  C   UNL A   1      33.180  18.095  25.170  1.00  0.00     0.099 C 
ATOM     26  N   UNL A   1      33.020  16.955  25.366  1.00  0.00    -0.192 NA
ENDBRANCH  17  25
ENDBRANCH   8  13
ENDBRANCH   4   7
ENDBRANCH   2   3
ENDBRANCH   1   2
BRANCH   1  27
ATOM     27  C   UNL A   1      32.645  30.122  27.169  1.00  0.00     0.118 C 
BRANCH  27  28
ATOM     28  N   UNL A   1      33.271  31.324  27.685  1.00  0.00    -0.352 N 
ATOM     29  C   UNL A   1      34.540  31.772  27.913  1.00  0.00     0.251 C 
ATOM     30  H   UNL A   1      32.599  31.998  27.939  1.00  0.00     0.163 HD
ATOM     31  O   UNL A   1      34.621  32.982  28.142  1.00  0.00    -0.269 OA
BRANCH  29  32
ATOM     32  C   UNL A   1      35.793  30.963  28.002  1.00  0.00     0.039 A 
ATOM     33  C   UNL A   1      35.964  29.629  27.647  1.00  0.00     0.014 A 
ATOM     34  C   UNL A   1      36.885  31.628  28.608  1.00  0.00     0.014 A 
ATOM     35  C   UNL A   1      37.140  28.956  28.030  1.00  0.00     0.010 A 
ATOM     36  C   UNL A   1      38.056  30.969  28.973  1.00  0.00     0.010 A 
ATOM     37  C   UNL A   1      38.166  29.605  28.758  1.00  0.00    -0.014 A 
BRANCH  37  38
ATOM     38  C   UNL A   1      39.441  28.918  29.043  1.00  0.00     0.031 A 
ATOM     39  C   UNL A   1      39.610  28.723  30.506  1.00  0.00     0.074 A 
ATOM     40  C   UNL A   1      40.360  28.432  28.166  1.00  0.00     0.049 A 
ATOM     41  N   UNL A   1      40.363  29.448  31.262  1.00  0.00    -0.248 NA
ATOM     42  C   UNL A   1      38.708  27.827  31.246  1.00  0.00     0.031 C 
ATOM     43  C   UNL A   1      40.291  28.394  26.701  1.00  0.00     0.029 A 
ATOM     44  N   UNL A   1      41.577  27.826  28.401  1.00  0.00    -0.354 N 
ATOM     45  C   UNL A   1      40.225  28.935  32.542  1.00  0.00     0.074 A 
ATOM     46  C   UNL A   1      39.065  28.083  32.508  1.00  0.00     0.031 C 
ATOM     47  C   UNL A   1      41.288  27.616  26.201  1.00  0.00     0.029 A 
ATOM     48  C   UNL A   1      42.162  27.202  27.287  1.00  0.00     0.049 A 
ATOM     49  H   UNL A   1      42.006  27.830  29.287  1.00  0.00     0.167 HD
ATOM     50  C   UNL A   1      41.267  29.026  33.412  1.00  0.00     0.031 A 
ATOM     51  C   UNL A   1      43.337  26.507  27.206  1.00  0.00     0.031 A 
ATOM     52  C   UNL A   1      42.233  29.995  32.945  1.00  0.00     0.049 A 
ATOM     53  C   UNL A   1      44.175  26.959  28.326  1.00  0.00     0.074 A 
ATOM     54  C   UNL A   1      42.238  31.350  32.691  1.00  0.00     0.029 A 
ATOM     55  N   UNL A   1      43.268  29.452  32.229  1.00  0.00    -0.354 N 
ATOM     56  N   UNL A   1      44.710  28.141  28.387  1.00  0.00    -0.248 NA
ATOM     57  C   UNL A   1      44.067  26.237  29.578  1.00  0.00     0.031 C 
ATOM     58  C   UNL A   1      43.067  31.516  31.543  1.00  0.00     0.029 A 
ATOM     59  C   UNL A   1      43.629  30.281  31.210  1.00  0.00     0.049 A 
ATOM     60  H   UNL A   1      43.690  28.583  32.423  1.00  0.00     0.167 HD
ATOM     61  C   UNL A   1      44.528  28.510  29.706  1.00  0.00     0.074 A 
ATOM     62  C   UNL A   1      44.248  27.259  30.416  1.00  0.00     0.031 C 
ATOM     63  C   UNL A   1      44.321  29.820  30.025  1.00  0.00     0.031 A 
BRANCH  50  64
ATOM     64  C   UNL A   1      41.675  27.884  34.320  1.00  0.00    -0.014 A 
ATOM     65  C   UNL A   1      42.368  26.742  33.877  1.00  0.00     0.009 A 
ATOM     66  C   UNL A   1      41.635  28.089  35.713  1.00  0.00     0.009 A 
ATOM     67  C   UNL A   1      42.998  25.862  34.762  1.00  0.00     0.001 A 
ATOM     68  C   UNL A   1      42.296  27.231  36.601  1.00  0.00     0.001 A 
ATOM     69  C   UNL A   1      42.978  26.118  36.124  1.00  0.00     0.000 A 
ENDBRANCH  50  64
BRANCH  51  70
ATOM     70  C   UNL A   1      43.634  25.175  26.586  1.00  0.00    -0.014 A 
ATOM     71  C   UNL A   1      44.670  25.043  25.652  1.00  0.00     0.009 A 
ATOM     72  C   UNL A   1      42.679  24.131  26.638  1.00  0.00     0.009 A 
ATOM     73  C   UNL A   1      44.708  23.962  24.754  1.00  0.00     0.001 A 
ATOM     74  C   UNL A   1      42.717  23.050  25.739  1.00  0.00     0.001 A 
ATOM     75  C   UNL A   1      43.721  22.979  24.781  1.00  0.00     0.000 A 
ENDBRANCH  51  70
BRANCH  63  76
ATOM     76  C   UNL A   1      44.676  30.880  29.007  1.00  0.00    -0.014 A 
ATOM     77  C   UNL A   1      43.824  30.991  27.896  1.00  0.00     0.009 A 
ATOM     78  C   UNL A   1      45.866  31.629  29.010  1.00  0.00     0.009 A 
ATOM     79  C   UNL A   1      44.163  31.782  26.801  1.00  0.00     0.001 A 
ATOM     80  C   UNL A   1      46.190  32.452  27.922  1.00  0.00     0.001 A 
ATOM     81  C   UNL A   1      45.347  32.512  26.812  1.00  0.00     0.000 A 
ENDBRANCH  63  76
ENDBRANCH  37  38
ENDBRANCH  29  32
ENDBRANCH  27  28
ENDBRANCH   1  27
TORSDOF 13
ENDMDL
MODEL 3
REMARK VINA RESULT:     -11.3      2.105      8.550
REMARK SMILES CC(C)c1cc(C#N)cc2nc(-c3ccc(C(=O)NCCCNC(=O)c4ccc(-c5c6nc(c(-c7ccccc7)c7ccc([nH]7)c(-c7ccccc7)c7nc(c(-c8ccccc8)c8ccc5[nH]8)C=C7)C=C6)cc4)cc3)oc12
REMARK SMILES IDX 21 1 20 2 19 3 17 4 18 5 16 7 13 8 14 9 75 10 15 11 74 12
REMARK SMILES IDX 12 13 4 14 5 15 77 16 6 17 10 18 76 19 9 20 11 21 2 22 1 23
REMARK SMILES IDX 3 24 7 25 8 26 22 27 23 28 24 29 25 31 26 32 27 33 73 34
REMARK SMILES IDX 28 35 72 36 29 37 30 38 31 39 66 40 32 41 71 42 65 43 67 44
REMARK SMILES IDX 33 45 70 46 64 47 63 48 34 50 56 51 41 52 55 53 42 54 45 55
REMARK SMILES IDX 54 56 68 57 43 58 44 59 53 61 69 62 46 63 35 64 36 65 40 66
REMARK SMILES IDX 37 67 39 68 38 69 57 70 58 71 62 72 59 73 61 74 60 75 47 76
REMARK SMILES IDX 48 77 52 78 49 79 51 80 50 81
REMARK H PARENT 19 6 23 30 67 49 45 60
REMARK Flexibility Score: inf
ROOT
ATOM      1  C   UNL A   1      40.477  22.149  27.272  1.00  0.00     0.042 C 
ENDROOT
BRANCH   1   2
ATOM      2  C   UNL A   1      39.531  22.377  26.092  1.00  0.00     0.118 C 
BRANCH   2   3
ATOM      3  N   UNL A   1      38.644  21.265  25.763  1.00  0.00    -0.352 N 
ATOM      4  C   UNL A   1      37.374  21.173  25.229  1.00  0.00     0.251 C 
ATOM      5  O   UNL A   1      36.940  20.039  25.009  1.00  0.00    -0.269 OA
ATOM      6  H   UNL A   1      39.039  20.386  25.967  1.00  0.00     0.163 HD
BRANCH   4   7
ATOM      7  C   UNL A   1      36.477  22.338  24.958  1.00  0.00     0.039 A 
ATOM      8  C   UNL A   1      34.603  24.381  24.350  1.00  0.00     0.037 A 
ATOM      9  C   UNL A   1      35.128  23.589  23.327  1.00  0.00     0.014 A 
ATOM     10  C   UNL A   1      35.087  24.193  25.650  1.00  0.00     0.014 A 
ATOM     11  C   UNL A   1      36.052  22.571  23.634  1.00  0.00     0.014 A 
ATOM     12  C   UNL A   1      36.054  23.232  25.933  1.00  0.00     0.014 A 
BRANCH   8  13
ATOM     13  C   UNL A   1      33.646  25.458  24.159  1.00  0.00     0.227 A 
ATOM     14  C   UNL A   1      32.209  28.541  25.125  1.00  0.00     0.001 A 
ATOM     15  C   UNL A   1      31.301  29.244  24.294  1.00  0.00     0.027 A 
ATOM     16  C   UNL A   1      32.668  27.338  24.575  1.00  0.00     0.158 A 
ATOM     17  C   UNL A   1      30.927  28.790  23.018  1.00  0.00     0.055 A 
ATOM     18  C   UNL A   1      32.326  26.872  23.315  1.00  0.00     0.111 A 
ATOM     19  O   UNL A   1      33.518  26.413  25.137  1.00  0.00    -0.436 OA
ATOM     20  C   UNL A   1      31.452  27.600  22.505  1.00  0.00     0.052 A 
ATOM     21  N   UNL A   1      32.958  25.696  23.058  1.00  0.00    -0.209 NA
BRANCH  14  22
ATOM     22  C   UNL A   1      32.613  29.052  26.489  1.00  0.00     0.017 C 
ATOM     23  C   UNL A   1      34.109  29.374  26.568  1.00  0.00     0.012 C 
ATOM     24  C   UNL A   1      31.771  30.269  26.875  1.00  0.00     0.012 C 
ENDBRANCH  14  22
BRANCH  17  25
ATOM     25  C   UNL A   1      29.997  29.537  22.231  1.00  0.00     0.099 C 
ATOM     26  N   UNL A   1      29.243  30.147  21.580  1.00  0.00    -0.192 NA
ENDBRANCH  17  25
ENDBRANCH   8  13
ENDBRANCH   4   7
ENDBRANCH   2   3
ENDBRANCH   1   2
BRANCH   1  27
ATOM     27  C   UNL A   1      41.799  21.463  26.952  1.00  0.00     0.118 C 
BRANCH  27  28
ATOM     28  N   UNL A   1      42.521  22.037  25.834  1.00  0.00    -0.352 N 
ATOM     29  C   UNL A   1      43.115  23.229  25.532  1.00  0.00     0.251 C 
ATOM     30  H   UNL A   1      42.607  21.394  25.093  1.00  0.00     0.163 HD
ATOM     31  O   UNL A   1      43.843  23.198  24.535  1.00  0.00    -0.269 OA
BRANCH  29  32
ATOM     32  C   UNL A   1      42.914  24.547  26.204  1.00  0.00     0.039 A 
ATOM     33  C   UNL A   1      43.595  25.043  27.311  1.00  0.00     0.014 A 
ATOM     34  C   UNL A   1      41.839  25.314  25.696  1.00  0.00     0.014 A 
ATOM     35  C   UNL A   1      43.109  26.191  27.966  1.00  0.00     0.010 A 
ATOM     36  C   UNL A   1      41.366  26.459  26.333  1.00  0.00     0.010 A 
ATOM     37  C   UNL A   1      41.948  26.867  27.520  1.00  0.00    -0.014 A 
BRANCH  37  38
ATOM     38  C   UNL A   1      41.525  28.136  28.146  1.00  0.00     0.031 A 
ATOM     39  C   UNL A   1      42.518  29.206  27.874  1.00  0.00     0.074 A 
ATOM     40  C   UNL A   1      40.380  28.407  28.829  1.00  0.00     0.049 A 
ATOM     41  N   UNL A   1      43.403  29.620  28.717  1.00  0.00    -0.248 NA
ATOM     42  C   UNL A   1      42.726  29.696  26.502  1.00  0.00     0.031 C 
ATOM     43  C   UNL A   1      39.228  27.529  29.062  1.00  0.00     0.029 A 
ATOM     44  N   UNL A   1      39.977  29.565  29.461  1.00  0.00    -0.354 N 
ATOM     45  C   UNL A   1      44.120  30.609  28.062  1.00  0.00     0.074 A 
ATOM     46  C   UNL A   1      43.798  30.478  26.665  1.00  0.00     0.031 C 
ATOM     47  C   UNL A   1      38.189  28.240  29.575  1.00  0.00     0.029 A 
ATOM     48  C   UNL A   1      38.628  29.599  29.847  1.00  0.00     0.049 A 
ATOM     49  H   UNL A   1      40.592  30.316  29.629  1.00  0.00     0.167 HD
ATOM     50  C   UNL A   1      44.661  31.627  28.784  1.00  0.00     0.031 A 
ATOM     51  C   UNL A   1      37.931  30.603  30.463  1.00  0.00     0.031 A 
ATOM     52  C   UNL A   1      44.698  31.288  30.189  1.00  0.00     0.049 A 
ATOM     53  C   UNL A   1      38.922  31.442  31.155  1.00  0.00     0.074 A 
ATOM     54  C   UNL A   1      45.309  30.324  30.963  1.00  0.00     0.029 A 
ATOM     55  N   UNL A   1      43.624  31.751  30.904  1.00  0.00    -0.354 N 
ATOM     56  N   UNL A   1      39.577  31.053  32.206  1.00  0.00    -0.248 NA
ATOM     57  C   UNL A   1      39.487  32.557  30.421  1.00  0.00     0.031 C 
ATOM     58  C   UNL A   1      44.359  29.995  31.974  1.00  0.00     0.029 A 
ATOM     59  C   UNL A   1      43.258  30.845  31.855  1.00  0.00     0.049 A 
ATOM     60  H   UNL A   1      43.178  32.615  30.752  1.00  0.00     0.167 HD
ATOM     61  C   UNL A   1      40.860  31.510  31.974  1.00  0.00     0.074 A 
ATOM     62  C   UNL A   1      40.717  32.531  30.933  1.00  0.00     0.031 C 
ATOM     63  C   UNL A   1      41.930  30.797  32.429  1.00  0.00     0.031 A 
BRANCH  50  64
ATOM     64  C   UNL A   1      44.611  33.070  28.325  1.00  0.00    -0.014 A 
ATOM     65  C   UNL A   1      43.457  33.687  27.806  1.00  0.00     0.009 A 
ATOM     66  C   UNL A   1      45.662  33.929  28.702  1.00  0.00     0.009 A 
ATOM     67  C   UNL A   1      43.345  35.074  27.682  1.00  0.00     0.001 A 
ATOM     68  C   UNL A   1      45.541  35.322  28.613  1.00  0.00     0.001 A 
ATOM     69  C   UNL A   1      44.381  35.894  28.103  1.00  0.00     0.000 A 
ENDBRANCH  50  64
BRANCH  51  70
ATOM     70  C   UNL A   1      36.597  31.201  30.133  1.00  0.00    -0.014 A 
ATOM     71  C   UNL A   1      36.275  31.529  28.809  1.00  0.00     0.009 A 
ATOM     72  C   UNL A   1      35.798  31.778  31.149  1.00  0.00     0.009 A 
ATOM     73  C   UNL A   1      35.258  32.452  28.514  1.00  0.00     0.001 A 
ATOM     74  C   UNL A   1      34.781  32.702  30.854  1.00  0.00     0.001 A 
ATOM     75  C   UNL A   1      34.527  33.056  29.534  1.00  0.00     0.000 A 
ENDBRANCH  51  70
BRANCH  63  76
ATOM     76  C   UNL A   1      41.705  29.749  33.496  1.00  0.00    -0.014 A 
ATOM     77  C   UNL A   1      41.916  30.152  34.824  1.00  0.00     0.009 A 
ATOM     78  C   UNL A   1      41.469  28.386  33.243  1.00  0.00     0.009 A 
ATOM     79  C   UNL A   1      41.941  29.226  35.865  1.00  0.00     0.001 A 
ATOM     80  C   UNL A   1      41.460  27.460  34.296  1.00  0.00     0.001 A 
ATOM     81  C   UNL A   1      41.714  27.879  35.602  1.00  0.00     0.000 A 
ENDBRANCH  63  76
ENDBRANCH  37  38
ENDBRANCH  29  32
ENDBRANCH  27  28
ENDBRANCH   1  27
TORSDOF 13
ENDMDL
