MODEL 1
REMARK VINA RESULT:     -12.0      0.000      0.000
REMARK SMILES O=C(NCCCNC(=O)c1ccccc1NC(=O)c1ccc(C[NH+]2CCOCC2)cc1)c1ccc(-c2c3nc(c(-c4ccccc4)c4ccc([nH]4)c(-c4ccccc4)c4nc(c(-c5ccccc5)c5ccc2[nH]5)C=C4)C=C3)cc1
REMARK SMILES IDX 6 1 5 2 4 3 3 4 1 5 2 6 32 8 33 9 79 10 34 11 78 12 35 13
REMARK SMILES IDX 36 14 37 15 72 16 38 17 77 18 71 19 73 20 39 21 76 22 70 23
REMARK SMILES IDX 69 24 40 26 62 27 47 28 61 29 48 30 51 31 60 32 74 33 49 34
REMARK SMILES IDX 50 35 59 37 75 38 52 39 41 40 42 41 46 42 43 43 45 44 44 45
REMARK SMILES IDX 63 46 64 47 68 48 65 49 67 50 66 51 53 52 54 53 58 54 55 55
REMARK SMILES IDX 57 56 56 57 7 58 8 59 9 61 10 62 11 63 15 64 12 65 14 66
REMARK SMILES IDX 13 67 16 68 17 69 18 71 19 72 20 73 31 74 21 75 30 76 22 77
REMARK SMILES IDX 23 78 24 79 25 80 29 81 26 83 28 84 27 85
REMARK H PARENT 3 7 73 25 51 36 7 60 16 70 24 82
REMARK Flexibility Score: inf
ROOT
ATOM      1  C   UNL A   1      31.598  30.097  25.496  1.00  0.00     0.118 C 
ENDROOT
BRANCH   1   2
ATOM      2  C   UNL A   1      31.314  31.388  26.246  1.00  0.00     0.042 C 
BRANCH   2   3
ATOM      3  C   UNL A   1      32.525  31.981  26.952  1.00  0.00     0.118 C 
BRANCH   3   4
ATOM      4  N   UNL A   1      32.318  33.346  27.418  1.00  0.00    -0.352 N 
ATOM      5  O   UNL A   1      32.672  35.214  28.634  1.00  0.00    -0.269 OA
ATOM      6  C   UNL A   1      33.080  34.117  28.262  1.00  0.00     0.251 C 
ATOM      7  H   UNL A   1      31.506  33.784  27.077  1.00  0.00     0.163 HD
BRANCH   6   8
ATOM      8  C   UNL A   1      34.380  33.616  28.753  1.00  0.00     0.039 A 
ATOM      9  C   UNL A   1      35.563  33.916  28.076  1.00  0.00     0.014 A 
ATOM     10  C   UNL A   1      34.414  32.835  29.912  1.00  0.00     0.014 A 
ATOM     11  C   UNL A   1      36.747  33.293  28.449  1.00  0.00     0.010 A 
ATOM     12  C   UNL A   1      35.627  32.298  30.350  1.00  0.00     0.010 A 
ATOM     13  C   UNL A   1      36.796  32.493  29.601  1.00  0.00    -0.014 A 
BRANCH  13  14
ATOM     14  C   UNL A   1      38.098  31.934  30.039  1.00  0.00     0.031 A 
ATOM     15  C   UNL A   1      38.980  32.671  31.004  1.00  0.00     0.074 A 
ATOM     16  C   UNL A   1      38.476  30.734  29.556  1.00  0.00     0.049 A 
ATOM     17  N   UNL A   1      40.149  32.321  31.480  1.00  0.00    -0.248 NA
ATOM     18  C   UNL A   1      38.499  33.974  31.491  1.00  0.00     0.031 C 
ATOM     19  C   UNL A   1      37.707  29.930  28.602  1.00  0.00     0.029 A 
ATOM     20  N   UNL A   1      39.590  29.978  29.806  1.00  0.00    -0.354 N 
ATOM     21  C   UNL A   1      40.555  33.367  32.300  1.00  0.00     0.074 A 
ATOM     22  C   UNL A   1      39.518  34.375  32.241  1.00  0.00     0.031 C 
ATOM     23  C   UNL A   1      38.352  28.777  28.379  1.00  0.00     0.029 A 
ATOM     24  C   UNL A   1      39.609  28.791  29.116  1.00  0.00     0.049 A 
ATOM     25  H   UNL A   1      40.306  30.257  30.422  1.00  0.00     0.167 HD
ATOM     26  C   UNL A   1      41.689  33.476  33.031  1.00  0.00     0.031 A 
ATOM     27  C   UNL A   1      40.545  27.828  29.055  1.00  0.00     0.031 A 
ATOM     28  C   UNL A   1      42.719  32.470  33.086  1.00  0.00     0.049 A 
ATOM     29  C   UNL A   1      41.801  27.983  29.856  1.00  0.00     0.074 A 
ATOM     30  C   UNL A   1      43.883  32.466  33.834  1.00  0.00     0.029 A 
ATOM     31  N   UNL A   1      42.711  31.292  32.352  1.00  0.00    -0.354 N 
ATOM     32  N   UNL A   1      42.148  28.958  30.660  1.00  0.00    -0.248 NA
ATOM     33  C   UNL A   1      42.793  26.907  29.741  1.00  0.00     0.031 C 
ATOM     34  C   UNL A   1      44.606  31.311  33.512  1.00  0.00     0.029 A 
ATOM     35  C   UNL A   1      43.866  30.569  32.606  1.00  0.00     0.049 A 
ATOM     36  H   UNL A   1      41.991  31.011  31.742  1.00  0.00     0.167 HD
ATOM     37  C   UNL A   1      43.396  28.611  31.156  1.00  0.00     0.074 A 
ATOM     38  C   UNL A   1      43.734  27.326  30.578  1.00  0.00     0.031 C 
ATOM     39  C   UNL A   1      44.192  29.298  32.011  1.00  0.00     0.031 A 
BRANCH  26  40
ATOM     40  C   UNL A   1      41.897  34.749  33.805  1.00  0.00    -0.014 A 
ATOM     41  C   UNL A   1      41.412  34.900  35.114  1.00  0.00     0.009 A 
ATOM     42  C   UNL A   1      42.617  35.805  33.223  1.00  0.00     0.009 A 
ATOM     43  C   UNL A   1      41.613  36.097  35.809  1.00  0.00     0.001 A 
ATOM     44  C   UNL A   1      42.838  36.989  33.929  1.00  0.00     0.001 A 
ATOM     45  C   UNL A   1      42.327  37.138  35.217  1.00  0.00     0.000 A 
ENDBRANCH  26  40
BRANCH  27  46
ATOM     46  C   UNL A   1      40.323  26.655  28.174  1.00  0.00    -0.014 A 
ATOM     47  C   UNL A   1      39.571  25.558  28.615  1.00  0.00     0.009 A 
ATOM     48  C   UNL A   1      40.821  26.656  26.860  1.00  0.00     0.009 A 
ATOM     49  C   UNL A   1      39.330  24.480  27.760  1.00  0.00     0.001 A 
ATOM     50  C   UNL A   1      40.554  25.590  26.000  1.00  0.00     0.001 A 
ATOM     51  C   UNL A   1      39.814  24.501  26.452  1.00  0.00     0.000 A 
ENDBRANCH  27  46
BRANCH  39  52
ATOM     52  C   UNL A   1      45.499  28.661  32.384  1.00  0.00    -0.014 A 
ATOM     53  C   UNL A   1      46.660  28.894  31.630  1.00  0.00     0.009 A 
ATOM     54  C   UNL A   1      45.576  27.846  33.524  1.00  0.00     0.009 A 
ATOM     55  C   UNL A   1      47.868  28.298  31.997  1.00  0.00     0.001 A 
ATOM     56  C   UNL A   1      46.791  27.274  33.901  1.00  0.00     0.001 A 
ATOM     57  C   UNL A   1      47.933  27.493  33.134  1.00  0.00     0.000 A 
ENDBRANCH  39  52
ENDBRANCH  13  14
ENDBRANCH   6   8
ENDBRANCH   3   4
ENDBRANCH   2   3
ENDBRANCH   1   2
BRANCH   1  58
ATOM     58  N   UNL A   1      32.499  29.219  26.229  1.00  0.00    -0.352 N 
ATOM     59  C   UNL A   1      32.948  27.960  25.937  1.00  0.00     0.253 C 
ATOM     60  H   UNL A   1      32.843  29.594  27.072  1.00  0.00     0.163 HD
ATOM     61  O   UNL A   1      33.516  27.312  26.813  1.00  0.00    -0.269 OA
BRANCH  59  62
ATOM     62  C   UNL A   1      32.792  27.369  24.590  1.00  0.00     0.063 A 
ATOM     63  C   UNL A   1      33.705  27.810  23.617  1.00  0.00     0.016 A 
ATOM     64  C   UNL A   1      31.740  26.494  24.245  1.00  0.00     0.054 A 
ATOM     65  C   UNL A   1      33.582  27.388  22.296  1.00  0.00     0.001 A 
ATOM     66  C   UNL A   1      31.592  26.152  22.897  1.00  0.00     0.027 A 
ATOM     67  C   UNL A   1      32.516  26.573  21.934  1.00  0.00     0.002 A 
BRANCH  64  68
ATOM     68  N   UNL A   1      30.874  26.021  25.255  1.00  0.00    -0.321 N 
ATOM     69  C   UNL A   1      30.690  24.795  25.850  1.00  0.00     0.255 C 
ATOM     70  H   UNL A   1      30.273  26.717  25.606  1.00  0.00     0.170 HD
ATOM     71  O   UNL A   1      29.851  24.681  26.743  1.00  0.00    -0.269 OA
BRANCH  69  72
ATOM     72  C   UNL A   1      31.485  23.611  25.487  1.00  0.00     0.040 A 
ATOM     73  C   UNL A   1      32.386  23.134  26.442  1.00  0.00     0.014 A 
ATOM     74  C   UNL A   1      31.339  22.956  24.260  1.00  0.00     0.014 A 
ATOM     75  C   UNL A   1      33.067  21.942  26.213  1.00  0.00     0.010 A 
ATOM     76  C   UNL A   1      32.004  21.747  24.048  1.00  0.00     0.010 A 
ATOM     77  C   UNL A   1      32.867  21.224  25.025  1.00  0.00     0.006 A 
BRANCH  77  78
ATOM     78  C   UNL A   1      33.553  19.893  24.821  1.00  0.00     0.299 C 
BRANCH  78  79
ATOM     79  N   UNL A   1      32.710  18.731  24.564  1.00  0.00    -0.327 N 
ATOM     80  C   UNL A   1      32.646  17.729  25.637  1.00  0.00     0.291 C 
ATOM     81  C   UNL A   1      32.859  18.102  23.245  1.00  0.00     0.291 C 
ATOM     82  H   UNL A   1      31.795  19.180  24.552  1.00  0.00     0.348 HD
ATOM     83  C   UNL A   1      33.630  16.555  25.499  1.00  0.00     0.221 C 
ATOM     84  C   UNL A   1      33.839  16.918  23.192  1.00  0.00     0.221 C 
ATOM     85  O   UNL A   1      33.539  15.950  24.204  1.00  0.00    -0.370 OA
ENDBRANCH  78  79
ENDBRANCH  77  78
ENDBRANCH  69  72
ENDBRANCH  64  68
ENDBRANCH  59  62
ENDBRANCH   1  58
TORSDOF 14
ENDMDL
MODEL 2
REMARK VINA RESULT:     -12.0      1.444      5.920
REMARK SMILES O=C(NCCCNC(=O)c1ccccc1NC(=O)c1ccc(C[NH+]2CCOCC2)cc1)c1ccc(-c2c3nc(c(-c4ccccc4)c4ccc([nH]4)c(-c4ccccc4)c4nc(c(-c5ccccc5)c5ccc2[nH]5)C=C4)C=C3)cc1
REMARK SMILES IDX 6 1 5 2 4 3 3 4 1 5 2 6 32 8 33 9 79 10 34 11 78 12 35 13
REMARK SMILES IDX 36 14 37 15 72 16 38 17 77 18 71 19 73 20 39 21 76 22 70 23
REMARK SMILES IDX 69 24 40 26 62 27 47 28 61 29 48 30 51 31 60 32 74 33 49 34
REMARK SMILES IDX 50 35 59 37 75 38 52 39 41 40 42 41 46 42 43 43 45 44 44 45
REMARK SMILES IDX 63 46 64 47 68 48 65 49 67 50 66 51 53 52 54 53 58 54 55 55
REMARK SMILES IDX 57 56 56 57 7 58 8 59 9 61 10 62 11 63 15 64 12 65 14 66
REMARK SMILES IDX 13 67 16 68 17 69 18 71 19 72 20 73 31 74 21 75 30 76 22 77
REMARK SMILES IDX 23 78 24 79 25 80 29 81 26 83 28 84 27 85
REMARK H PARENT 3 7 73 25 51 36 7 60 16 70 24 82
REMARK Flexibility Score: inf
ROOT
ATOM      1  C   UNL A   1      31.656  30.676  26.033  1.00  0.00     0.118 C 
ENDROOT
BRANCH   1   2
ATOM      2  C   UNL A   1      31.404  32.078  26.561  1.00  0.00     0.042 C 
BRANCH   2   3
ATOM      3  C   UNL A   1      32.645  32.779  27.097  1.00  0.00     0.118 C 
BRANCH   3   4
ATOM      4  N   UNL A   1      32.380  34.111  27.624  1.00  0.00    -0.352 N 
ATOM      5  O   UNL A   1      32.551  35.876  29.020  1.00  0.00    -0.269 OA
ATOM      6  C   UNL A   1      33.002  34.799  28.638  1.00  0.00     0.251 C 
ATOM      7  H   UNL A   1      31.641  34.593  27.188  1.00  0.00     0.163 HD
BRANCH   6   8
ATOM      8  C   UNL A   1      34.196  34.232  29.297  1.00  0.00     0.039 A 
ATOM      9  C   UNL A   1      35.476  34.508  28.815  1.00  0.00     0.014 A 
ATOM     10  C   UNL A   1      34.030  33.411  30.415  1.00  0.00     0.014 A 
ATOM     11  C   UNL A   1      36.569  33.828  29.334  1.00  0.00     0.010 A 
ATOM     12  C   UNL A   1      35.145  32.813  31.007  1.00  0.00     0.010 A 
ATOM     13  C   UNL A   1      36.419  32.987  30.448  1.00  0.00    -0.014 A 
BRANCH  13  14
ATOM     14  C   UNL A   1      37.621  32.364  31.052  1.00  0.00     0.031 A 
ATOM     15  C   UNL A   1      38.286  31.175  30.421  1.00  0.00     0.074 A 
ATOM     16  C   UNL A   1      38.117  32.894  32.186  1.00  0.00     0.049 A 
ATOM     17  N   UNL A   1      39.339  30.511  30.826  1.00  0.00    -0.248 NA
ATOM     18  C   UNL A   1      37.689  30.653  29.181  1.00  0.00     0.031 C 
ATOM     19  C   UNL A   1      37.549  34.042  32.898  1.00  0.00     0.029 A 
ATOM     20  N   UNL A   1      39.214  32.550  32.932  1.00  0.00    -0.354 N 
ATOM     21  C   UNL A   1      39.517  29.481  29.912  1.00  0.00     0.074 A 
ATOM     22  C   UNL A   1      38.450  29.594  28.939  1.00  0.00     0.031 C 
ATOM     23  C   UNL A   1      38.322  34.331  33.955  1.00  0.00     0.029 A 
ATOM     24  C   UNL A   1      39.396  33.349  34.033  1.00  0.00     0.049 A 
ATOM     25  H   UNL A   1      39.812  31.803  32.700  1.00  0.00     0.167 HD
ATOM     26  C   UNL A   1      40.479  28.529  29.887  1.00  0.00     0.031 A 
ATOM     27  C   UNL A   1      40.308  33.288  35.019  1.00  0.00     0.031 A 
ATOM     28  C   UNL A   1      41.538  28.421  30.857  1.00  0.00     0.049 A 
ATOM     29  C   UNL A   1      41.349  32.211  34.981  1.00  0.00     0.074 A 
ATOM     30  C   UNL A   1      42.588  27.521  30.892  1.00  0.00     0.029 A 
ATOM     31  N   UNL A   1      41.674  29.237  31.972  1.00  0.00    -0.354 N 
ATOM     32  N   UNL A   1      41.528  31.273  34.083  1.00  0.00    -0.248 NA
ATOM     33  C   UNL A   1      42.311  32.184  36.089  1.00  0.00     0.031 C 
ATOM     34  C   UNL A   1      43.328  27.757  32.057  1.00  0.00     0.029 A 
ATOM     35  C   UNL A   1      42.771  28.839  32.718  1.00  0.00     0.049 A 
ATOM     36  H   UNL A   1      41.078  29.988  32.199  1.00  0.00     0.167 HD
ATOM     37  C   UNL A   1      42.629  30.547  34.513  1.00  0.00     0.074 A 
ATOM     38  C   UNL A   1      43.089  31.168  35.739  1.00  0.00     0.031 C 
ATOM     39  C   UNL A   1      43.206  29.461  33.943  1.00  0.00     0.031 A 
BRANCH  26  40
ATOM     40  C   UNL A   1      40.409  27.499  28.793  1.00  0.00    -0.014 A 
ATOM     41  C   UNL A   1      41.095  27.669  27.580  1.00  0.00     0.009 A 
ATOM     42  C   UNL A   1      39.668  26.324  28.993  1.00  0.00     0.009 A 
ATOM     43  C   UNL A   1      41.007  26.700  26.576  1.00  0.00     0.001 A 
ATOM     44  C   UNL A   1      39.603  25.345  27.999  1.00  0.00     0.001 A 
ATOM     45  C   UNL A   1      40.265  25.539  26.787  1.00  0.00     0.000 A 
ENDBRANCH  26  40
BRANCH  27  46
ATOM     46  C   UNL A   1      40.241  34.267  36.133  1.00  0.00    -0.014 A 
ATOM     47  C   UNL A   1      40.926  35.488  36.058  1.00  0.00     0.009 A 
ATOM     48  C   UNL A   1      39.440  34.003  37.256  1.00  0.00     0.009 A 
ATOM     49  C   UNL A   1      40.818  36.420  37.091  1.00  0.00     0.001 A 
ATOM     50  C   UNL A   1      39.311  34.949  38.274  1.00  0.00     0.001 A 
ATOM     51  C   UNL A   1      40.005  36.154  38.193  1.00  0.00     0.000 A 
ENDBRANCH  27  46
BRANCH  39  52
ATOM     52  C   UNL A   1      44.408  28.888  34.636  1.00  0.00    -0.014 A 
ATOM     53  C   UNL A   1      45.699  29.361  34.357  1.00  0.00     0.009 A 
ATOM     54  C   UNL A   1      44.241  27.886  35.605  1.00  0.00     0.009 A 
ATOM     55  C   UNL A   1      46.804  28.820  35.017  1.00  0.00     0.001 A 
ATOM     56  C   UNL A   1      45.345  27.367  36.280  1.00  0.00     0.001 A 
ATOM     57  C   UNL A   1      46.626  27.828  35.980  1.00  0.00     0.000 A 
ENDBRANCH  39  52
ENDBRANCH  13  14
ENDBRANCH   6   8
ENDBRANCH   3   4
ENDBRANCH   2   3
ENDBRANCH   1   2
BRANCH   1  58
ATOM     58  N   UNL A   1      31.755  29.693  27.102  1.00  0.00    -0.352 N 
ATOM     59  C   UNL A   1      31.979  28.343  27.052  1.00  0.00     0.253 C 
ATOM     60  H   UNL A   1      31.644  30.059  28.009  1.00  0.00     0.163 HD
ATOM     61  O   UNL A   1      31.787  27.671  28.062  1.00  0.00    -0.269 OA
BRANCH  59  62
ATOM     62  C   UNL A   1      32.470  27.679  25.825  1.00  0.00     0.063 A 
ATOM     63  C   UNL A   1      33.554  28.301  25.183  1.00  0.00     0.016 A 
ATOM     64  C   UNL A   1      31.847  26.550  25.253  1.00  0.00     0.054 A 
ATOM     65  C   UNL A   1      34.028  27.809  23.970  1.00  0.00     0.001 A 
ATOM     66  C   UNL A   1      32.290  26.127  23.996  1.00  0.00     0.027 A 
ATOM     67  C   UNL A   1      33.384  26.733  23.370  1.00  0.00     0.002 A 
BRANCH  64  68
ATOM     68  N   UNL A   1      30.798  25.910  25.950  1.00  0.00    -0.321 N 
ATOM     69  C   UNL A   1      30.492  24.595  26.206  1.00  0.00     0.255 C 
ATOM     70  H   UNL A   1      30.148  26.541  26.334  1.00  0.00     0.170 HD
ATOM     71  O   UNL A   1      29.496  24.328  26.878  1.00  0.00    -0.269 OA
BRANCH  69  72
ATOM     72  C   UNL A   1      31.330  23.480  25.734  1.00  0.00     0.040 A 
ATOM     73  C   UNL A   1      32.186  22.892  26.667  1.00  0.00     0.014 A 
ATOM     74  C   UNL A   1      31.266  22.994  24.425  1.00  0.00     0.014 A 
ATOM     75  C   UNL A   1      32.904  21.750  26.322  1.00  0.00     0.010 A 
ATOM     76  C   UNL A   1      31.967  21.833  24.093  1.00  0.00     0.010 A 
ATOM     77  C   UNL A   1      32.785  21.196  25.039  1.00  0.00     0.006 A 
BRANCH  77  78
ATOM     78  C   UNL A   1      33.509  19.913  24.699  1.00  0.00     0.299 C 
BRANCH  78  79
ATOM     79  N   UNL A   1      32.698  18.732  24.423  1.00  0.00    -0.327 N 
ATOM     80  C   UNL A   1      32.606  17.744  25.507  1.00  0.00     0.291 C 
ATOM     81  C   UNL A   1      32.914  18.089  23.121  1.00  0.00     0.291 C 
ATOM     82  H   UNL A   1      31.777  19.165  24.366  1.00  0.00     0.348 HD
ATOM     83  C   UNL A   1      33.615  16.587  25.427  1.00  0.00     0.221 C 
ATOM     84  C   UNL A   1      33.916  16.922  23.126  1.00  0.00     0.221 C 
ATOM     85  O   UNL A   1      33.591  15.962  24.138  1.00  0.00    -0.370 OA
ENDBRANCH  78  79
ENDBRANCH  77  78
ENDBRANCH  69  72
ENDBRANCH  64  68
ENDBRANCH  59  62
ENDBRANCH   1  58
TORSDOF 14
ENDMDL
MODEL 3
REMARK VINA RESULT:     -11.9      2.654      8.295
REMARK SMILES O=C(NCCCNC(=O)c1ccccc1NC(=O)c1ccc(C[NH+]2CCOCC2)cc1)c1ccc(-c2c3nc(c(-c4ccccc4)c4ccc([nH]4)c(-c4ccccc4)c4nc(c(-c5ccccc5)c5ccc2[nH]5)C=C4)C=C3)cc1
REMARK SMILES IDX 6 1 5 2 4 3 3 4 1 5 2 6 32 8 33 9 79 10 34 11 78 12 35 13
REMARK SMILES IDX 36 14 37 15 72 16 38 17 77 18 71 19 73 20 39 21 76 22 70 23
REMARK SMILES IDX 69 24 40 26 62 27 47 28 61 29 48 30 51 31 60 32 74 33 49 34
REMARK SMILES IDX 50 35 59 37 75 38 52 39 41 40 42 41 46 42 43 43 45 44 44 45
REMARK SMILES IDX 63 46 64 47 68 48 65 49 67 50 66 51 53 52 54 53 58 54 55 55
REMARK SMILES IDX 57 56 56 57 7 58 8 59 9 61 10 62 11 63 15 64 12 65 14 66
REMARK SMILES IDX 13 67 16 68 17 69 18 71 19 72 20 73 31 74 21 75 30 76 22 77
REMARK SMILES IDX 23 78 24 79 25 80 29 81 26 83 28 84 27 85
REMARK H PARENT 3 7 73 25 51 36 7 60 16 70 24 82
REMARK Flexibility Score: inf
ROOT
ATOM      1  C   UNL A   1      35.129  21.435  25.198  1.00  0.00     0.118 C 
ENDROOT
BRANCH   1   2
ATOM      2  C   UNL A   1      35.320  22.625  26.125  1.00  0.00     0.042 C 
BRANCH   2   3
ATOM      3  C   UNL A   1      36.633  23.370  25.927  1.00  0.00     0.118 C 
BRANCH   3   4
ATOM      4  N   UNL A   1      37.806  22.508  25.985  1.00  0.00    -0.352 N 
ATOM      5  O   UNL A   1      39.979  21.954  26.233  1.00  0.00    -0.269 OA
ATOM      6  C   UNL A   1      39.094  22.794  26.369  1.00  0.00     0.251 C 
ATOM      7  H   UNL A   1      37.654  21.577  25.705  1.00  0.00     0.163 HD
BRANCH   6   8
ATOM      8  C   UNL A   1      39.427  24.124  26.918  1.00  0.00     0.039 A 
ATOM      9  C   UNL A   1      40.011  25.103  26.113  1.00  0.00     0.014 A 
ATOM     10  C   UNL A   1      39.148  24.395  28.260  1.00  0.00     0.014 A 
ATOM     11  C   UNL A   1      40.477  26.278  26.686  1.00  0.00     0.010 A 
ATOM     12  C   UNL A   1      39.520  25.624  28.810  1.00  0.00     0.010 A 
ATOM     13  C   UNL A   1      40.220  26.560  28.037  1.00  0.00    -0.014 A 
BRANCH  13  14
ATOM     14  C   UNL A   1      40.629  27.872  28.593  1.00  0.00     0.031 A 
ATOM     15  C   UNL A   1      39.635  28.979  28.798  1.00  0.00     0.074 A 
ATOM     16  C   UNL A   1      41.923  28.054  28.922  1.00  0.00     0.049 A 
ATOM     17  N   UNL A   1      39.834  30.185  29.268  1.00  0.00    -0.248 NA
ATOM     18  C   UNL A   1      38.240  28.706  28.418  1.00  0.00     0.031 C 
ATOM     19  C   UNL A   1      42.982  27.055  28.756  1.00  0.00     0.029 A 
ATOM     20  N   UNL A   1      42.565  29.131  29.474  1.00  0.00    -0.354 N 
ATOM     21  C   UNL A   1      38.601  30.823  29.216  1.00  0.00     0.074 A 
ATOM     22  C   UNL A   1      37.662  29.877  28.651  1.00  0.00     0.031 C 
ATOM     23  C   UNL A   1      44.133  27.551  29.232  1.00  0.00     0.029 A 
ATOM     24  C   UNL A   1      43.907  28.923  29.670  1.00  0.00     0.049 A 
ATOM     25  H   UNL A   1      42.107  29.971  29.708  1.00  0.00     0.167 HD
ATOM     26  C   UNL A   1      38.284  32.081  29.604  1.00  0.00     0.031 A 
ATOM     27  C   UNL A   1      44.865  29.750  30.125  1.00  0.00     0.031 A 
ATOM     28  C   UNL A   1      39.222  33.017  30.166  1.00  0.00     0.049 A 
ATOM     29  C   UNL A   1      44.491  31.144  30.526  1.00  0.00     0.074 A 
ATOM     30  C   UNL A   1      38.988  34.298  30.634  1.00  0.00     0.029 A 
ATOM     31  N   UNL A   1      40.579  32.775  30.327  1.00  0.00    -0.354 N 
ATOM     32  N   UNL A   1      43.311  31.715  30.512  1.00  0.00    -0.248 NA
ATOM     33  C   UNL A   1      45.579  32.006  31.003  1.00  0.00     0.031 C 
ATOM     34  C   UNL A   1      40.212  34.852  31.027  1.00  0.00     0.029 A 
ATOM     35  C   UNL A   1      41.200  33.896  30.855  1.00  0.00     0.049 A 
ATOM     36  H   UNL A   1      41.034  31.932  30.098  1.00  0.00     0.167 HD
ATOM     37  C   UNL A   1      43.512  33.003  30.988  1.00  0.00     0.074 A 
ATOM     38  C   UNL A   1      44.922  33.120  31.301  1.00  0.00     0.031 C 
ATOM     39  C   UNL A   1      42.607  33.999  31.147  1.00  0.00     0.031 A 
BRANCH  26  40
ATOM     40  C   UNL A   1      36.864  32.533  29.396  1.00  0.00    -0.014 A 
ATOM     41  C   UNL A   1      36.440  33.079  28.174  1.00  0.00     0.009 A 
ATOM     42  C   UNL A   1      35.929  32.382  30.432  1.00  0.00     0.009 A 
ATOM     43  C   UNL A   1      35.116  33.499  28.009  1.00  0.00     0.001 A 
ATOM     44  C   UNL A   1      34.601  32.778  30.255  1.00  0.00     0.001 A 
ATOM     45  C   UNL A   1      34.199  33.345  29.047  1.00  0.00     0.000 A 
ENDBRANCH  26  40
BRANCH  27  46
ATOM     46  C   UNL A   1      46.268  29.270  30.188  1.00  0.00    -0.014 A 
ATOM     47  C   UNL A   1      46.758  28.633  31.337  1.00  0.00     0.009 A 
ATOM     48  C   UNL A   1      47.109  29.402  29.071  1.00  0.00     0.009 A 
ATOM     49  C   UNL A   1      48.065  28.145  31.367  1.00  0.00     0.001 A 
ATOM     50  C   UNL A   1      48.406  28.888  29.095  1.00  0.00     0.001 A 
ATOM     51  C   UNL A   1      48.885  28.265  30.245  1.00  0.00     0.000 A 
ENDBRANCH  27  46
BRANCH  39  52
ATOM     52  C   UNL A   1      43.118  35.298  31.700  1.00  0.00    -0.014 A 
ATOM     53  C   UNL A   1      43.630  36.295  30.855  1.00  0.00     0.009 A 
ATOM     54  C   UNL A   1      43.053  35.540  33.081  1.00  0.00     0.009 A 
ATOM     55  C   UNL A   1      44.093  37.499  31.388  1.00  0.00     0.001 A 
ATOM     56  C   UNL A   1      43.493  36.755  33.606  1.00  0.00     0.001 A 
ATOM     57  C   UNL A   1      44.020  37.730  32.761  1.00  0.00     0.000 A 
ENDBRANCH  39  52
ENDBRANCH  13  14
ENDBRANCH   6   8
ENDBRANCH   3   4
ENDBRANCH   2   3
ENDBRANCH   1   2
BRANCH   1  58
ATOM     58  N   UNL A   1      33.769  20.918  25.237  1.00  0.00    -0.352 N 
ATOM     59  C   UNL A   1      32.602  21.446  24.755  1.00  0.00     0.253 C 
ATOM     60  H   UNL A   1      33.673  20.045  25.683  1.00  0.00     0.163 HD
ATOM     61  O   UNL A   1      31.534  20.952  25.108  1.00  0.00    -0.269 OA
BRANCH  59  62
ATOM     62  C   UNL A   1      32.593  22.578  23.802  1.00  0.00     0.063 A 
ATOM     63  C   UNL A   1      33.231  22.347  22.571  1.00  0.00     0.016 A 
ATOM     64  C   UNL A   1      32.076  23.852  24.116  1.00  0.00     0.054 A 
ATOM     65  C   UNL A   1      33.362  23.377  21.644  1.00  0.00     0.001 A 
ATOM     66  C   UNL A   1      32.294  24.888  23.202  1.00  0.00     0.027 A 
ATOM     67  C   UNL A   1      32.908  24.651  21.968  1.00  0.00     0.002 A 
BRANCH  64  68
ATOM     68  N   UNL A   1      31.388  24.038  25.335  1.00  0.00    -0.321 N 
ATOM     69  C   UNL A   1      30.590  25.043  25.831  1.00  0.00     0.255 C 
ATOM     70  H   UNL A   1      31.505  23.290  25.964  1.00  0.00     0.170 HD
ATOM     71  O   UNL A   1      30.095  24.919  26.951  1.00  0.00    -0.269 OA
BRANCH  69  72
ATOM     72  C   UNL A   1      30.272  26.256  25.060  1.00  0.00     0.040 A 
ATOM     73  C   UNL A   1      31.124  27.351  25.221  1.00  0.00     0.014 A 
ATOM     74  C   UNL A   1      29.192  26.322  24.176  1.00  0.00     0.014 A 
ATOM     75  C   UNL A   1      30.958  28.478  24.421  1.00  0.00     0.010 A 
ATOM     76  C   UNL A   1      29.046  27.443  23.357  1.00  0.00     0.010 A 
ATOM     77  C   UNL A   1      29.932  28.528  23.466  1.00  0.00     0.006 A 
BRANCH  77  78
ATOM     78  C   UNL A   1      29.808  29.724  22.550  1.00  0.00     0.299 C 
BRANCH  78  79
ATOM     79  N   UNL A   1      28.526  30.418  22.515  1.00  0.00    -0.327 N 
ATOM     80  C   UNL A   1      27.983  30.705  21.181  1.00  0.00     0.291 C 
ATOM     81  C   UNL A   1      28.390  31.571  23.415  1.00  0.00     0.291 C 
ATOM     82  H   UNL A   1      27.926  29.693  22.907  1.00  0.00     0.348 HD
ATOM     83  C   UNL A   1      28.309  32.102  20.625  1.00  0.00     0.221 C 
ATOM     84  C   UNL A   1      28.706  32.937  22.780  1.00  0.00     0.221 C 
ATOM     85  O   UNL A   1      27.972  33.128  21.566  1.00  0.00    -0.370 OA
ENDBRANCH  78  79
ENDBRANCH  77  78
ENDBRANCH  69  72
ENDBRANCH  64  68
ENDBRANCH  59  62
ENDBRANCH   1  58
TORSDOF 14
ENDMDL
