MODEL 1
REMARK VINA RESULT:     -14.0      0.000      0.000
REMARK SMILES Cc1ccc(NC(=O)c2cnn3c2NC2=C(C(=O)CCC2)[C@H]3c2ccc(C(=O)NCCCNC(=O)c3ccc(-c4c5nc(c(-c6ccccc6)c6ccc([nH]6)c(-c6ccccc6)c6nc(c(-c7ccccc7)c7ccc4[nH]7)C=C6)C=C5)cc3)cc2)cc1
REMARK SMILES IDX 30 1 29 2 27 3 28 4 26 6 23 7 24 8 85 9 25 10 84 11 22 12
REMARK SMILES IDX 9 13 10 14 13 15 11 16 12 17 14 18 15 19 16 21 21 22 17 23
REMARK SMILES IDX 20 24 18 25 19 26 7 27 6 28 8 30 5 31 1 32 2 33 3 34 87 35
REMARK SMILES IDX 4 36 86 37 31 38 32 39 33 40 34 41 35 43 36 44 37 45 83 46
REMARK SMILES IDX 38 47 82 48 39 49 40 50 41 51 76 52 42 53 81 54 75 55 77 56
REMARK SMILES IDX 43 57 80 58 74 59 73 60 44 62 66 63 51 64 65 65 52 66 55 67
REMARK SMILES IDX 64 68 78 69 53 70 54 71 63 73 79 74 56 75 45 76 46 77 50 78
REMARK SMILES IDX 47 79 49 80 48 81 67 82 68 83 72 84 69 85 71 86 70 87 57 88
REMARK SMILES IDX 58 89 62 90 59 91 61 92 60 93
REMARK H PARENT 29 5 14 20 6 29 33 42 77 61 55 72
REMARK Flexibility Score: inf
ROOT
ATOM      1  C   UNL A   1      39.880  21.643  26.663  1.00  0.00     0.118 C 
ENDROOT
BRANCH   1   2
ATOM      2  N   UNL A   1      39.445  22.972  27.077  1.00  0.00    -0.352 N 
ATOM      3  C   UNL A   1      38.304  23.697  26.809  1.00  0.00     0.251 C 
ATOM      4  O   UNL A   1      38.125  24.732  27.451  1.00  0.00    -0.269 OA
ATOM      5  H   UNL A   1      40.089  23.439  27.658  1.00  0.00     0.163 HD
BRANCH   3   6
ATOM      6  C   UNL A   1      37.261  23.275  25.826  1.00  0.00     0.039 A 
ATOM      7  C   UNL A   1      35.243  22.755  23.887  1.00  0.00    -0.019 A 
ATOM      8  C   UNL A   1      36.484  23.294  23.506  1.00  0.00     0.007 A 
ATOM      9  C   UNL A   1      35.137  22.278  25.203  1.00  0.00     0.007 A 
ATOM     10  C   UNL A   1      37.474  23.557  24.468  1.00  0.00     0.014 A 
ATOM     11  C   UNL A   1      36.115  22.561  26.163  1.00  0.00     0.014 A 
BRANCH   7  12
ATOM     12  C   UNL A   1      33.986  22.879  22.966  1.00  0.00     0.175 C 
ATOM     13  C   UNL A   1      31.435  23.257  25.450  1.00  0.00     0.102 A 
ATOM     14  C   UNL A   1      31.057  22.075  24.742  1.00  0.00     0.151 A 
ATOM     15  C   UNL A   1      32.402  23.808  24.639  1.00  0.00     0.142 A 
ATOM     16  N   UNL A   1      31.898  21.759  23.751  1.00  0.00    -0.178 NA
ATOM     17  N   UNL A   1      32.768  22.780  23.785  1.00  0.00    -0.237 N 
ATOM     18  N   UNL A   1      33.047  25.010  24.497  1.00  0.00    -0.343 N 
ATOM     19  C   UNL A   1      33.651  25.309  23.263  1.00  0.00     0.026 C 
ATOM     20  H   UNL A   1      33.087  25.649  25.244  1.00  0.00     0.168 HD
ATOM     21  C   UNL A   1      33.884  24.282  22.407  1.00  0.00     0.044 C 
ATOM     22  C   UNL A   1      33.709  26.725  22.765  1.00  0.00     0.055 C 
ATOM     23  C   UNL A   1      33.247  24.472  21.077  1.00  0.00     0.163 C 
ATOM     24  C   UNL A   1      32.940  26.914  21.453  1.00  0.00     0.014 C 
ATOM     25  O   UNL A   1      33.384  23.637  20.190  1.00  0.00    -0.294 OA
ATOM     26  C   UNL A   1      32.268  25.633  20.974  1.00  0.00     0.081 C 
BRANCH  13  27
ATOM     27  C   UNL A   1      30.886  23.800  26.672  1.00  0.00     0.261 C 
ATOM     28  N   UNL A   1      30.602  25.152  26.746  1.00  0.00    -0.322 N 
ATOM     29  H   UNL A   1      30.518  25.496  27.665  1.00  0.00     0.170 HD
ATOM     30  O   UNL A   1      30.694  23.092  27.661  1.00  0.00    -0.269 OA
BRANCH  28  31
ATOM     31  C   UNL A   1      30.411  26.129  25.744  1.00  0.00     0.041 A 
ATOM     32  C   UNL A   1      30.176  29.095  22.603  1.00  0.00     0.044 C 
ATOM     33  C   UNL A   1      30.222  28.103  23.727  1.00  0.00    -0.051 A 
ATOM     34  C   UNL A   1      29.444  26.947  23.664  1.00  0.00     0.005 A 
ATOM     35  C   UNL A   1      31.064  28.285  24.829  1.00  0.00     0.005 A 
ATOM     36  C   UNL A   1      29.514  25.995  24.685  1.00  0.00     0.026 A 
ATOM     37  C   UNL A   1      31.150  27.311  25.833  1.00  0.00     0.026 A 
ENDBRANCH  28  31
ENDBRANCH  13  27
ENDBRANCH   7  12
ENDBRANCH   3   6
ENDBRANCH   1   2
BRANCH   1  38
ATOM     38  C   UNL A   1      41.149  21.686  25.814  1.00  0.00     0.042 C 
BRANCH  38  39
ATOM     39  C   UNL A   1      42.314  20.869  26.357  1.00  0.00     0.118 C 
BRANCH  39  40
ATOM     40  N   UNL A   1      43.045  20.132  25.329  1.00  0.00    -0.352 N 
ATOM     41  C   UNL A   1      44.160  20.527  24.594  1.00  0.00     0.251 C 
ATOM     42  H   UNL A   1      42.703  19.231  25.129  1.00  0.00     0.163 HD
ATOM     43  O   UNL A   1      44.710  19.771  23.833  1.00  0.00    -0.269 OA
BRANCH  41  44
ATOM     44  C   UNL A   1      44.729  21.869  24.875  1.00  0.00     0.039 A 
ATOM     45  C   UNL A   1      45.575  21.988  25.980  1.00  0.00     0.014 A 
ATOM     46  C   UNL A   1      44.209  22.996  24.245  1.00  0.00     0.014 A 
ATOM     47  C   UNL A   1      45.667  23.218  26.621  1.00  0.00     0.010 A 
ATOM     48  C   UNL A   1      44.219  24.193  24.934  1.00  0.00     0.010 A 
ATOM     49  C   UNL A   1      44.879  24.276  26.165  1.00  0.00    -0.014 A 
BRANCH  49  50
ATOM     50  C   UNL A   1      44.545  25.416  27.013  1.00  0.00     0.031 A 
ATOM     51  C   UNL A   1      43.236  26.082  26.913  1.00  0.00     0.074 A 
ATOM     52  C   UNL A   1      45.449  25.870  27.909  1.00  0.00     0.049 A 
ATOM     53  N   UNL A   1      43.037  27.325  27.199  1.00  0.00    -0.248 NA
ATOM     54  C   UNL A   1      42.045  25.403  26.420  1.00  0.00     0.031 C 
ATOM     55  C   UNL A   1      45.229  26.820  28.995  1.00  0.00     0.029 A 
ATOM     56  N   UNL A   1      46.830  25.717  27.865  1.00  0.00    -0.354 N 
ATOM     57  C   UNL A   1      41.679  27.527  27.222  1.00  0.00     0.074 A 
ATOM     58  C   UNL A   1      41.111  26.333  26.636  1.00  0.00     0.031 C 
ATOM     59  C   UNL A   1      46.411  27.342  29.363  1.00  0.00     0.029 A 
ATOM     60  C   UNL A   1      47.413  26.858  28.429  1.00  0.00     0.049 A 
ATOM     61  H   UNL A   1      47.314  24.940  27.500  1.00  0.00     0.167 HD
ATOM     62  C   UNL A   1      41.168  28.609  27.876  1.00  0.00     0.031 A 
ATOM     63  C   UNL A   1      48.252  27.654  27.705  1.00  0.00     0.031 A 
ATOM     64  C   UNL A   1      42.215  29.473  28.418  1.00  0.00     0.049 A 
ATOM     65  C   UNL A   1      47.757  29.075  27.537  1.00  0.00     0.074 A 
ATOM     66  C   UNL A   1      42.738  29.637  29.690  1.00  0.00     0.029 A 
ATOM     67  N   UNL A   1      43.080  30.131  27.551  1.00  0.00    -0.354 N 
ATOM     68  N   UNL A   1      46.527  29.452  27.752  1.00  0.00    -0.248 NA
ATOM     69  C   UNL A   1      48.597  30.170  27.063  1.00  0.00     0.031 C 
ATOM     70  C   UNL A   1      43.949  30.367  29.581  1.00  0.00     0.029 A 
ATOM     71  C   UNL A   1      44.149  30.665  28.245  1.00  0.00     0.049 A 
ATOM     72  H   UNL A   1      42.951  30.204  26.578  1.00  0.00     0.167 HD
ATOM     73  C   UNL A   1      46.391  30.782  27.446  1.00  0.00     0.074 A 
ATOM     74  C   UNL A   1      47.721  31.192  27.038  1.00  0.00     0.031 C 
ATOM     75  C   UNL A   1      45.184  31.415  27.543  1.00  0.00     0.031 A 
BRANCH  62  76
ATOM     76  C   UNL A   1      39.717  28.704  28.289  1.00  0.00    -0.014 A 
ATOM     77  C   UNL A   1      38.799  29.376  27.460  1.00  0.00     0.009 A 
ATOM     78  C   UNL A   1      39.203  28.209  29.498  1.00  0.00     0.009 A 
ATOM     79  C   UNL A   1      37.485  29.642  27.867  1.00  0.00     0.001 A 
ATOM     80  C   UNL A   1      37.904  28.507  29.933  1.00  0.00     0.001 A 
ATOM     81  C   UNL A   1      37.048  29.237  29.121  1.00  0.00     0.000 A 
ENDBRANCH  62  76
BRANCH  63  82
ATOM     82  C   UNL A   1      49.051  26.921  26.685  1.00  0.00    -0.014 A 
ATOM     83  C   UNL A   1      48.831  27.213  25.324  1.00  0.00     0.009 A 
ATOM     84  C   UNL A   1      50.219  26.235  27.042  1.00  0.00     0.009 A 
ATOM     85  C   UNL A   1      49.804  26.924  24.363  1.00  0.00     0.001 A 
ATOM     86  C   UNL A   1      51.187  25.937  26.074  1.00  0.00     0.001 A 
ATOM     87  C   UNL A   1      50.994  26.311  24.745  1.00  0.00     0.000 A 
ENDBRANCH  63  82
BRANCH  75  88
ATOM     88  C   UNL A   1      44.839  32.808  27.060  1.00  0.00    -0.014 A 
ATOM     89  C   UNL A   1      44.241  33.109  25.829  1.00  0.00     0.009 A 
ATOM     90  C   UNL A   1      45.023  33.898  27.945  1.00  0.00     0.009 A 
ATOM     91  C   UNL A   1      43.883  34.423  25.490  1.00  0.00     0.001 A 
ATOM     92  C   UNL A   1      44.627  35.201  27.630  1.00  0.00     0.001 A 
ATOM     93  C   UNL A   1      44.064  35.465  26.393  1.00  0.00     0.000 A 
ENDBRANCH  75  88
ENDBRANCH  49  50
ENDBRANCH  41  44
ENDBRANCH  39  40
ENDBRANCH  38  39
ENDBRANCH   1  38
TORSDOF 13
ENDMDL
MODEL 2
REMARK VINA RESULT:     -13.6      4.967     10.125
REMARK SMILES Cc1ccc(NC(=O)c2cnn3c2NC2=C(C(=O)CCC2)[C@H]3c2ccc(C(=O)NCCCNC(=O)c3ccc(-c4c5nc(c(-c6ccccc6)c6ccc([nH]6)c(-c6ccccc6)c6nc(c(-c7ccccc7)c7ccc4[nH]7)C=C6)C=C5)cc3)cc2)cc1
REMARK SMILES IDX 30 1 29 2 27 3 28 4 26 6 23 7 24 8 85 9 25 10 84 11 22 12
REMARK SMILES IDX 9 13 10 14 13 15 11 16 12 17 14 18 15 19 16 21 21 22 17 23
REMARK SMILES IDX 20 24 18 25 19 26 7 27 6 28 8 30 5 31 1 32 2 33 3 34 87 35
REMARK SMILES IDX 4 36 86 37 31 38 32 39 33 40 34 41 35 43 36 44 37 45 83 46
REMARK SMILES IDX 38 47 82 48 39 49 40 50 41 51 76 52 42 53 81 54 75 55 77 56
REMARK SMILES IDX 43 57 80 58 74 59 73 60 44 62 66 63 51 64 65 65 52 66 55 67
REMARK SMILES IDX 64 68 78 69 53 70 54 71 63 73 79 74 56 75 45 76 46 77 50 78
REMARK SMILES IDX 47 79 49 80 48 81 67 82 68 83 72 84 69 85 71 86 70 87 57 88
REMARK SMILES IDX 58 89 62 90 59 91 61 92 60 93
REMARK H PARENT 29 5 14 20 6 29 33 42 77 61 55 72
REMARK Flexibility Score: inf
ROOT
ATOM      1  C   UNL A   1      33.883  32.403  27.931  1.00  0.00     0.118 C 
ENDROOT
BRANCH   1   2
ATOM      2  N   UNL A   1      34.931  31.401  27.782  1.00  0.00    -0.352 N 
ATOM      3  C   UNL A   1      34.921  30.122  27.268  1.00  0.00     0.251 C 
ATOM      4  O   UNL A   1      36.008  29.568  27.102  1.00  0.00    -0.269 OA
ATOM      5  H   UNL A   1      35.812  31.693  28.111  1.00  0.00     0.163 HD
BRANCH   3   6
ATOM      6  C   UNL A   1      33.679  29.397  26.862  1.00  0.00     0.039 A 
ATOM      7  C   UNL A   1      31.436  27.775  26.200  1.00  0.00    -0.019 A 
ATOM      8  C   UNL A   1      31.794  27.993  27.541  1.00  0.00     0.007 A 
ATOM      9  C   UNL A   1      32.079  28.567  25.236  1.00  0.00     0.007 A 
ATOM     10  C   UNL A   1      32.908  28.788  27.863  1.00  0.00     0.014 A 
ATOM     11  C   UNL A   1      33.201  29.339  25.557  1.00  0.00     0.014 A 
BRANCH   7  12
ATOM     12  C   UNL A   1      30.533  26.568  25.786  1.00  0.00     0.175 C 
ATOM     13  C   UNL A   1      32.043  25.711  22.655  1.00  0.00     0.102 A 
ATOM     14  C   UNL A   1      30.693  26.026  22.313  1.00  0.00     0.151 A 
ATOM     15  C   UNL A   1      32.000  25.605  24.028  1.00  0.00     0.142 A 
ATOM     16  N   UNL A   1      29.947  26.376  23.367  1.00  0.00    -0.178 NA
ATOM     17  N   UNL A   1      30.805  26.210  24.385  1.00  0.00    -0.237 N 
ATOM     18  N   UNL A   1      32.786  25.111  25.035  1.00  0.00    -0.343 N 
ATOM     19  C   UNL A   1      32.185  24.795  26.267  1.00  0.00     0.026 C 
ATOM     20  H   UNL A   1      33.753  24.981  24.900  1.00  0.00     0.168 HD
ATOM     21  C   UNL A   1      30.960  25.317  26.525  1.00  0.00     0.044 C 
ATOM     22  C   UNL A   1      32.703  23.657  27.099  1.00  0.00     0.055 C 
ATOM     23  C   UNL A   1      29.934  24.285  26.826  1.00  0.00     0.163 C 
ATOM     24  C   UNL A   1      31.659  22.551  27.289  1.00  0.00     0.014 C 
ATOM     25  O   UNL A   1      28.782  24.605  27.099  1.00  0.00    -0.294 OA
ATOM     26  C   UNL A   1      30.351  22.845  26.566  1.00  0.00     0.081 C 
BRANCH  13  27
ATOM     27  C   UNL A   1      33.170  25.472  21.782  1.00  0.00     0.261 C 
ATOM     28  N   UNL A   1      33.954  24.349  21.977  1.00  0.00    -0.322 N 
ATOM     29  H   UNL A   1      34.845  24.401  21.559  1.00  0.00     0.170 HD
ATOM     30  O   UNL A   1      33.469  26.263  20.885  1.00  0.00    -0.269 OA
BRANCH  28  31
ATOM     31  C   UNL A   1      33.710  23.142  22.668  1.00  0.00     0.041 A 
ATOM     32  C   UNL A   1      32.976  19.631  25.088  1.00  0.00     0.044 C 
ATOM     33  C   UNL A   1      33.271  20.815  24.216  1.00  0.00    -0.051 A 
ATOM     34  C   UNL A   1      32.356  21.198  23.235  1.00  0.00     0.005 A 
ATOM     35  C   UNL A   1      34.429  21.579  24.387  1.00  0.00     0.005 A 
ATOM     36  C   UNL A   1      32.600  22.327  22.447  1.00  0.00     0.026 A 
ATOM     37  C   UNL A   1      34.651  22.727  23.613  1.00  0.00     0.026 A 
ENDBRANCH  28  31
ENDBRANCH  13  27
ENDBRANCH   7  12
ENDBRANCH   3   6
ENDBRANCH   1   2
BRANCH   1  38
ATOM     38  C   UNL A   1      34.444  33.821  28.020  1.00  0.00     0.042 C 
BRANCH  38  39
ATOM     39  C   UNL A   1      34.915  34.241  29.407  1.00  0.00     0.118 C 
BRANCH  39  40
ATOM     40  N   UNL A   1      33.826  34.602  30.313  1.00  0.00    -0.352 N 
ATOM     41  C   UNL A   1      33.788  34.544  31.703  1.00  0.00     0.251 C 
ATOM     42  H   UNL A   1      33.007  34.934  29.880  1.00  0.00     0.163 HD
ATOM     43  O   UNL A   1      32.842  34.959  32.324  1.00  0.00    -0.269 OA
BRANCH  41  44
ATOM     44  C   UNL A   1      35.008  34.072  32.405  1.00  0.00     0.039 A 
ATOM     45  C   UNL A   1      36.148  34.874  32.318  1.00  0.00     0.014 A 
ATOM     46  C   UNL A   1      35.087  32.762  32.870  1.00  0.00     0.014 A 
ATOM     47  C   UNL A   1      37.398  34.275  32.427  1.00  0.00     0.010 A 
ATOM     48  C   UNL A   1      36.323  32.146  32.881  1.00  0.00     0.010 A 
ATOM     49  C   UNL A   1      37.469  32.888  32.574  1.00  0.00    -0.014 A 
BRANCH  49  50
ATOM     50  C   UNL A   1      38.668  32.132  32.229  1.00  0.00     0.031 A 
ATOM     51  C   UNL A   1      38.585  30.889  31.444  1.00  0.00     0.074 A 
ATOM     52  C   UNL A   1      39.878  32.577  32.632  1.00  0.00     0.049 A 
ATOM     53  N   UNL A   1      39.441  29.926  31.528  1.00  0.00    -0.248 NA
ATOM     54  C   UNL A   1      37.483  30.606  30.534  1.00  0.00     0.031 C 
ATOM     55  C   UNL A   1      41.191  32.112  32.196  1.00  0.00     0.029 A 
ATOM     56  N   UNL A   1      40.153  33.412  33.709  1.00  0.00    -0.354 N 
ATOM     57  C   UNL A   1      39.184  29.058  30.496  1.00  0.00     0.074 A 
ATOM     58  C   UNL A   1      37.901  29.471  29.969  1.00  0.00     0.031 C 
ATOM     59  C   UNL A   1      42.106  32.466  33.114  1.00  0.00     0.029 A 
ATOM     60  C   UNL A   1      41.394  33.042  34.243  1.00  0.00     0.049 A 
ATOM     61  H   UNL A   1      39.576  34.139  34.039  1.00  0.00     0.167 HD
ATOM     62  C   UNL A   1      40.148  28.184  30.091  1.00  0.00     0.031 A 
ATOM     63  C   UNL A   1      41.509  32.616  35.534  1.00  0.00     0.031 A 
ATOM     64  C   UNL A   1      41.350  28.264  30.919  1.00  0.00     0.049 A 
ATOM     65  C   UNL A   1      42.024  31.200  35.671  1.00  0.00     0.074 A 
ATOM     66  C   UNL A   1      42.585  28.865  30.734  1.00  0.00     0.029 A 
ATOM     67  N   UNL A   1      41.284  27.911  32.262  1.00  0.00    -0.354 N 
ATOM     68  N   UNL A   1      42.050  30.332  34.697  1.00  0.00    -0.248 NA
ATOM     69  C   UNL A   1      42.501  30.633  36.929  1.00  0.00     0.031 C 
ATOM     70  C   UNL A   1      43.250  28.906  31.985  1.00  0.00     0.029 A 
ATOM     71  C   UNL A   1      42.429  28.311  32.925  1.00  0.00     0.049 A 
ATOM     72  H   UNL A   1      40.528  27.442  32.682  1.00  0.00     0.167 HD
ATOM     73  C   UNL A   1      42.510  29.128  35.163  1.00  0.00     0.074 A 
ATOM     74  C   UNL A   1      42.798  29.373  36.563  1.00  0.00     0.031 C 
ATOM     75  C   UNL A   1      42.592  28.033  34.348  1.00  0.00     0.031 A 
BRANCH  62  76
ATOM     76  C   UNL A   1      40.110  27.487  28.751  1.00  0.00    -0.014 A 
ATOM     77  C   UNL A   1      39.530  26.208  28.646  1.00  0.00     0.009 A 
ATOM     78  C   UNL A   1      40.672  28.004  27.572  1.00  0.00     0.009 A 
ATOM     79  C   UNL A   1      39.615  25.447  27.473  1.00  0.00     0.001 A 
ATOM     80  C   UNL A   1      40.800  27.233  26.408  1.00  0.00     0.001 A 
ATOM     81  C   UNL A   1      40.283  25.946  26.364  1.00  0.00     0.000 A 
ENDBRANCH  62  76
BRANCH  63  82
ATOM     82  C   UNL A   1      40.534  33.245  36.467  1.00  0.00    -0.014 A 
ATOM     83  C   UNL A   1      39.316  32.580  36.711  1.00  0.00     0.009 A 
ATOM     84  C   UNL A   1      40.930  34.261  37.346  1.00  0.00     0.009 A 
ATOM     85  C   UNL A   1      38.571  32.850  37.863  1.00  0.00     0.001 A 
ATOM     86  C   UNL A   1      40.176  34.536  38.494  1.00  0.00     0.001 A 
ATOM     87  C   UNL A   1      39.018  33.808  38.768  1.00  0.00     0.000 A 
ENDBRANCH  63  82
BRANCH  75  88
ATOM     88  C   UNL A   1      42.888  26.606  34.758  1.00  0.00    -0.014 A 
ATOM     89  C   UNL A   1      41.995  25.758  35.426  1.00  0.00     0.009 A 
ATOM     90  C   UNL A   1      44.112  26.023  34.350  1.00  0.00     0.009 A 
ATOM     91  C   UNL A   1      42.321  24.421  35.701  1.00  0.00     0.001 A 
ATOM     92  C   UNL A   1      44.423  24.681  34.582  1.00  0.00     0.001 A 
ATOM     93  C   UNL A   1      43.527  23.880  35.269  1.00  0.00     0.000 A 
ENDBRANCH  75  88
ENDBRANCH  49  50
ENDBRANCH  41  44
ENDBRANCH  39  40
ENDBRANCH  38  39
ENDBRANCH   1  38
TORSDOF 13
ENDMDL
MODEL 3
REMARK VINA RESULT:     -13.3      4.869     10.008
REMARK SMILES Cc1ccc(NC(=O)c2cnn3c2NC2=C(C(=O)CCC2)[C@H]3c2ccc(C(=O)NCCCNC(=O)c3ccc(-c4c5nc(c(-c6ccccc6)c6ccc([nH]6)c(-c6ccccc6)c6nc(c(-c7ccccc7)c7ccc4[nH]7)C=C6)C=C5)cc3)cc2)cc1
REMARK SMILES IDX 30 1 29 2 27 3 28 4 26 6 23 7 24 8 85 9 25 10 84 11 22 12
REMARK SMILES IDX 9 13 10 14 13 15 11 16 12 17 14 18 15 19 16 21 21 22 17 23
REMARK SMILES IDX 20 24 18 25 19 26 7 27 6 28 8 30 5 31 1 32 2 33 3 34 87 35
REMARK SMILES IDX 4 36 86 37 31 38 32 39 33 40 34 41 35 43 36 44 37 45 83 46
REMARK SMILES IDX 38 47 82 48 39 49 40 50 41 51 76 52 42 53 81 54 75 55 77 56
REMARK SMILES IDX 43 57 80 58 74 59 73 60 44 62 66 63 51 64 65 65 52 66 55 67
REMARK SMILES IDX 64 68 78 69 53 70 54 71 63 73 79 74 56 75 45 76 46 77 50 78
REMARK SMILES IDX 47 79 49 80 48 81 67 82 68 83 72 84 69 85 71 86 70 87 57 88
REMARK SMILES IDX 58 89 62 90 59 91 61 92 60 93
REMARK H PARENT 29 5 14 20 6 29 33 42 77 61 55 72
REMARK Flexibility Score: inf
ROOT
ATOM      1  C   UNL A   1      34.855  31.217  28.164  1.00  0.00     0.118 C 
ENDROOT
BRANCH   1   2
ATOM      2  N   UNL A   1      33.584  31.652  27.597  1.00  0.00    -0.352 N 
ATOM      3  C   UNL A   1      32.606  30.979  26.895  1.00  0.00     0.251 C 
ATOM      4  O   UNL A   1      31.543  31.567  26.698  1.00  0.00    -0.269 OA
ATOM      5  H   UNL A   1      33.386  32.605  27.744  1.00  0.00     0.163 HD
BRANCH   3   6
ATOM      6  C   UNL A   1      32.749  29.574  26.407  1.00  0.00     0.039 A 
ATOM      7  C   UNL A   1      32.910  26.991  25.221  1.00  0.00    -0.019 A 
ATOM      8  C   UNL A   1      33.681  28.058  24.727  1.00  0.00     0.007 A 
ATOM      9  C   UNL A   1      32.253  27.198  26.445  1.00  0.00     0.007 A 
ATOM     10  C   UNL A   1      33.591  29.334  25.310  1.00  0.00     0.014 A 
ATOM     11  C   UNL A   1      32.148  28.474  27.010  1.00  0.00     0.014 A 
BRANCH   7  12
ATOM     12  C   UNL A   1      32.625  25.724  24.352  1.00  0.00     0.175 C 
ATOM     13  C   UNL A   1      35.675  23.922  24.868  1.00  0.00     0.102 A 
ATOM     14  C   UNL A   1      35.630  24.128  23.455  1.00  0.00     0.151 A 
ATOM     15  C   UNL A   1      34.400  24.249  25.271  1.00  0.00     0.142 A 
ATOM     16  N   UNL A   1      34.542  24.795  23.052  1.00  0.00    -0.178 NA
ATOM     17  N   UNL A   1      33.864  24.946  24.200  1.00  0.00    -0.237 N 
ATOM     18  N   UNL A   1      33.609  24.085  26.379  1.00  0.00    -0.343 N 
ATOM     19  C   UNL A   1      32.214  24.174  26.231  1.00  0.00     0.026 C 
ATOM     20  H   UNL A   1      34.011  23.910  27.261  1.00  0.00     0.168 HD
ATOM     21  C   UNL A   1      31.733  24.762  25.107  1.00  0.00     0.044 C 
ATOM     22  C   UNL A   1      31.302  23.346  27.090  1.00  0.00     0.055 C 
ATOM     23  C   UNL A   1      30.818  23.884  24.330  1.00  0.00     0.163 C 
ATOM     24  C   UNL A   1      30.458  22.364  26.269  1.00  0.00     0.014 C 
ATOM     25  O   UNL A   1      30.288  24.283  23.299  1.00  0.00    -0.294 OA
ATOM     26  C   UNL A   1      30.762  22.430  24.778  1.00  0.00     0.081 C 
BRANCH  13  27
ATOM     27  C   UNL A   1      36.759  23.413  25.678  1.00  0.00     0.261 C 
ATOM     28  N   UNL A   1      36.738  22.092  26.088  1.00  0.00    -0.322 N 
ATOM     29  H   UNL A   1      37.325  21.898  26.854  1.00  0.00     0.170 HD
ATOM     30  O   UNL A   1      37.688  24.138  26.039  1.00  0.00    -0.269 OA
BRANCH  28  31
ATOM     31  C   UNL A   1      36.026  20.970  25.606  1.00  0.00     0.041 A 
ATOM     32  C   UNL A   1      33.654  17.762  23.935  1.00  0.00     0.044 C 
ATOM     33  C   UNL A   1      34.470  18.848  24.570  1.00  0.00    -0.051 A 
ATOM     34  C   UNL A   1      35.857  18.850  24.420  1.00  0.00     0.005 A 
ATOM     35  C   UNL A   1      33.871  19.893  25.280  1.00  0.00     0.005 A 
ATOM     36  C   UNL A   1      36.623  19.882  24.970  1.00  0.00     0.026 A 
ATOM     37  C   UNL A   1      34.643  20.939  25.802  1.00  0.00     0.026 A 
ENDBRANCH  28  31
ENDBRANCH  13  27
ENDBRANCH   7  12
ENDBRANCH   3   6
ENDBRANCH   1   2
BRANCH   1  38
ATOM     38  C   UNL A   1      35.141  31.869  29.515  1.00  0.00     0.042 C 
BRANCH  38  39
ATOM     39  C   UNL A   1      35.004  33.386  29.540  1.00  0.00     0.118 C 
BRANCH  39  40
ATOM     40  N   UNL A   1      34.031  33.873  30.515  1.00  0.00    -0.352 N 
ATOM     41  C   UNL A   1      34.206  34.131  31.873  1.00  0.00     0.251 C 
ATOM     42  H   UNL A   1      33.127  34.043  30.164  1.00  0.00     0.163 HD
ATOM     43  O   UNL A   1      33.325  34.614  32.538  1.00  0.00    -0.269 OA
BRANCH  41  44
ATOM     44  C   UNL A   1      35.558  33.912  32.446  1.00  0.00     0.039 A 
ATOM     45  C   UNL A   1      36.599  34.700  31.951  1.00  0.00     0.014 A 
ATOM     46  C   UNL A   1      35.817  32.782  33.215  1.00  0.00     0.014 A 
ATOM     47  C   UNL A   1      37.895  34.198  31.990  1.00  0.00     0.010 A 
ATOM     48  C   UNL A   1      37.085  32.236  33.168  1.00  0.00     0.010 A 
ATOM     49  C   UNL A   1      38.102  32.907  32.480  1.00  0.00    -0.014 A 
BRANCH  49  50
ATOM     50  C   UNL A   1      39.288  32.129  32.138  1.00  0.00     0.031 A 
ATOM     51  C   UNL A   1      39.202  30.964  31.242  1.00  0.00     0.074 A 
ATOM     52  C   UNL A   1      40.488  32.481  32.648  1.00  0.00     0.049 A 
ATOM     53  N   UNL A   1      40.011  29.959  31.289  1.00  0.00    -0.248 NA
ATOM     54  C   UNL A   1      38.147  30.813  30.249  1.00  0.00     0.031 C 
ATOM     55  C   UNL A   1      41.805  31.995  32.248  1.00  0.00     0.029 A 
ATOM     56  N   UNL A   1      40.731  33.206  33.809  1.00  0.00    -0.354 N 
ATOM     57  C   UNL A   1      39.782  29.197  30.170  1.00  0.00     0.074 A 
ATOM     58  C   UNL A   1      38.552  29.712  29.609  1.00  0.00     0.031 C 
ATOM     59  C   UNL A   1      42.676  32.226  33.245  1.00  0.00     0.029 A 
ATOM     60  C   UNL A   1      41.920  32.734  34.377  1.00  0.00     0.049 A 
ATOM     61  H   UNL A   1      40.165  33.927  34.169  1.00  0.00     0.167 HD
ATOM     62  C   UNL A   1      40.732  28.317  29.744  1.00  0.00     0.031 A 
ATOM     63  C   UNL A   1      41.939  32.193  35.630  1.00  0.00     0.031 A 
ATOM     64  C   UNL A   1      41.884  28.270  30.644  1.00  0.00     0.049 A 
ATOM     65  C   UNL A   1      42.386  30.748  35.669  1.00  0.00     0.074 A 
ATOM     66  C   UNL A   1      43.151  28.827  30.584  1.00  0.00     0.029 A 
ATOM     67  N   UNL A   1      41.722  27.804  31.944  1.00  0.00    -0.354 N 
ATOM     68  N   UNL A   1      42.436  29.968  34.625  1.00  0.00    -0.248 NA
ATOM     69  C   UNL A   1      42.762  30.053  36.897  1.00  0.00     0.031 C 
ATOM     70  C   UNL A   1      43.740  28.728  31.870  1.00  0.00     0.029 A 
ATOM     71  C   UNL A   1      42.839  28.092  32.705  1.00  0.00     0.049 A 
ATOM     72  H   UNL A   1      40.922  27.337  32.276  1.00  0.00     0.167 HD
ATOM     73  C   UNL A   1      42.816  28.707  35.007  1.00  0.00     0.074 A 
ATOM     74  C   UNL A   1      43.028  28.817  36.438  1.00  0.00     0.031 C 
ATOM     75  C   UNL A   1      42.903  27.685  34.104  1.00  0.00     0.031 A 
BRANCH  62  76
ATOM     76  C   UNL A   1      40.747  27.742  28.347  1.00  0.00    -0.014 A 
ATOM     77  C   UNL A   1      40.508  26.368  28.156  1.00  0.00     0.009 A 
ATOM     78  C   UNL A   1      41.045  28.479  27.189  1.00  0.00     0.009 A 
ATOM     79  C   UNL A   1      40.674  25.749  26.910  1.00  0.00     0.001 A 
ATOM     80  C   UNL A   1      41.256  27.863  25.948  1.00  0.00     0.001 A 
ATOM     81  C   UNL A   1      41.083  26.492  25.812  1.00  0.00     0.000 A 
ENDBRANCH  62  76
BRANCH  63  82
ATOM     82  C   UNL A   1      40.935  32.783  36.558  1.00  0.00    -0.014 A 
ATOM     83  C   UNL A   1      41.203  34.048  37.119  1.00  0.00     0.009 A 
ATOM     84  C   UNL A   1      39.623  32.294  36.606  1.00  0.00     0.009 A 
ATOM     85  C   UNL A   1      40.167  34.846  37.614  1.00  0.00     0.001 A 
ATOM     86  C   UNL A   1      38.590  33.092  37.113  1.00  0.00     0.001 A 
ATOM     87  C   UNL A   1      38.857  34.377  37.585  1.00  0.00     0.000 A 
ENDBRANCH  63  82
BRANCH  75  88
ATOM     88  C   UNL A   1      43.114  26.216  34.401  1.00  0.00    -0.014 A 
ATOM     89  C   UNL A   1      42.300  25.437  35.233  1.00  0.00     0.009 A 
ATOM     90  C   UNL A   1      44.141  25.525  33.712  1.00  0.00     0.009 A 
ATOM     91  C   UNL A   1      42.522  24.060  35.395  1.00  0.00     0.001 A 
ATOM     92  C   UNL A   1      44.337  24.147  33.834  1.00  0.00     0.001 A 
ATOM     93  C   UNL A   1      43.530  23.414  34.687  1.00  0.00     0.000 A 
ENDBRANCH  75  88
ENDBRANCH  49  50
ENDBRANCH  41  44
ENDBRANCH  39  40
ENDBRANCH  38  39
ENDBRANCH   1  38
TORSDOF 13
ENDMDL
