MODEL 1
REMARK VINA RESULT:      -9.7      0.000      0.000
REMARK SMILES CC[N@@H+](C[C@@H](C)C(=O)NCCCNC(=O)c1ccc(-c2c3nc(c(-c4ccccc4)c4ccc([nH]4)c(-c4ccccc4)c4nc(c(-c5ccccc5)c5ccc2[nH]5)C=C4)C=C3)cc1)[C@@H]1CCC[C@H](S(C)(=O)=O)C1
REMARK SMILES IDX 10 1 9 2 7 3 8 4 5 6 6 7 4 8 3 9 2 11 1 12 64 13 65 14 73 15
REMARK SMILES IDX 66 16 68 17 67 18 69 19 70 20 71 21 72 22 11 23 12 24 13 25
REMARK SMILES IDX 14 26 15 28 16 29 17 30 63 31 18 32 62 33 19 34 20 35 21 36
REMARK SMILES IDX 56 37 22 38 61 39 55 40 57 41 23 42 60 43 54 44 53 45 24 47
REMARK SMILES IDX 46 48 31 49 45 50 32 51 35 52 44 53 58 54 33 55 34 56 43 58
REMARK SMILES IDX 59 59 36 60 25 61 26 62 30 63 27 64 29 65 28 66 47 67 48 68
REMARK SMILES IDX 52 69 49 70 51 71 50 72 37 73 38 74 42 75 39 76 41 77 40 78
REMARK H PARENT 9 5 3 10 13 27 57 46 35 57
REMARK Flexibility Score: inf
ROOT
ATOM      1  C   UNL A   1      34.077  35.599  28.027  1.00  0.00     0.117 C 
ENDROOT
BRANCH   1   2
ATOM      2  N   UNL A   1      35.389  35.075  28.377  1.00  0.00    -0.356 N 
ATOM      3  C   UNL A   1      35.754  33.831  28.806  1.00  0.00     0.228 C 
ATOM      4  O   UNL A   1      36.940  33.630  29.067  1.00  0.00    -0.275 OA
ATOM      5  H   UNL A   1      36.130  35.717  28.291  1.00  0.00     0.163 HD
BRANCH   3   6
ATOM      6  C   UNL A   1      34.714  32.725  28.919  1.00  0.00     0.130 C 
ATOM      7  C   UNL A   1      34.705  32.272  30.391  1.00  0.00     0.024 C 
BRANCH   6   8
ATOM      8  C   UNL A   1      34.945  31.712  27.759  1.00  0.00     0.275 C 
BRANCH   8   9
ATOM      9  N   UNL A   1      34.645  30.268  27.906  1.00  0.00    -0.332 N 
ATOM     10  H   UNL A   1      34.072  30.124  28.737  1.00  0.00     0.348 HD
BRANCH   9  11
ATOM     11  C   UNL A   1      35.856  29.493  28.213  1.00  0.00     0.259 C 
ATOM     12  C   UNL A   1      37.139  30.041  27.591  1.00  0.00     0.071 C 
ENDBRANCH   9  11
BRANCH   9  13
ATOM     13  C   UNL A   1      33.748  29.765  26.857  1.00  0.00     0.185 C 
ATOM     14  C   UNL A   1      32.444  30.572  26.732  1.00  0.00     0.065 C 
ATOM     15  C   UNL A   1      33.439  28.267  26.954  1.00  0.00     0.084 C 
ATOM     16  C   UNL A   1      31.618  30.073  25.537  1.00  0.00     0.007 C 
ATOM     17  C   UNL A   1      32.670  27.776  25.729  1.00  0.00     0.114 C 
ATOM     18  C   UNL A   1      31.366  28.561  25.582  1.00  0.00     0.020 C 
BRANCH  17  19
ATOM     19  S   UNL A   1      32.437  25.999  25.897  1.00  0.00     0.150 S 
ATOM     20  C   UNL A   1      31.850  25.457  24.315  1.00  0.00     0.158 C 
ATOM     21  O   UNL A   1      33.747  25.410  26.081  1.00  0.00    -0.229 OA
ATOM     22  O   UNL A   1      31.378  25.766  26.864  1.00  0.00    -0.229 OA
ENDBRANCH  17  19
ENDBRANCH   9  13
ENDBRANCH   8   9
ENDBRANCH   6   8
ENDBRANCH   3   6
ENDBRANCH   1   2
BRANCH   1  23
ATOM     23  C   UNL A   1      33.503  36.431  29.161  1.00  0.00     0.042 C 
BRANCH  23  24
ATOM     24  C   UNL A   1      32.874  35.569  30.242  1.00  0.00     0.118 C 
BRANCH  24  25
ATOM     25  N   UNL A   1      32.642  36.317  31.473  1.00  0.00    -0.352 N 
ATOM     26  C   UNL A   1      33.199  36.140  32.713  1.00  0.00     0.251 C 
ATOM     27  H   UNL A   1      31.993  37.054  31.403  1.00  0.00     0.163 HD
ATOM     28  O   UNL A   1      32.730  36.709  33.692  1.00  0.00    -0.269 OA
BRANCH  26  29
ATOM     29  C   UNL A   1      34.357  35.238  32.856  1.00  0.00     0.039 A 
ATOM     30  C   UNL A   1      35.582  35.607  32.298  1.00  0.00     0.014 A 
ATOM     31  C   UNL A   1      34.230  34.041  33.564  1.00  0.00     0.014 A 
ATOM     32  C   UNL A   1      36.699  34.801  32.510  1.00  0.00     0.010 A 
ATOM     33  C   UNL A   1      35.362  33.296  33.860  1.00  0.00     0.010 A 
ATOM     34  C   UNL A   1      36.606  33.660  33.325  1.00  0.00    -0.014 A 
BRANCH  34  35
ATOM     35  C   UNL A   1      37.784  32.807  33.608  1.00  0.00     0.031 A 
ATOM     36  C   UNL A   1      38.578  33.034  34.866  1.00  0.00     0.074 A 
ATOM     37  C   UNL A   1      38.174  31.880  32.712  1.00  0.00     0.049 A 
ATOM     38  N   UNL A   1      39.694  32.469  35.251  1.00  0.00    -0.248 NA
ATOM     39  C   UNL A   1      38.066  34.049  35.805  1.00  0.00     0.031 C 
ATOM     40  C   UNL A   1      37.506  31.587  31.441  1.00  0.00     0.029 A 
ATOM     41  N   UNL A   1      39.239  31.014  32.731  1.00  0.00    -0.354 N 
ATOM     42  C   UNL A   1      40.018  33.065  36.462  1.00  0.00     0.074 A 
ATOM     43  C   UNL A   1      39.022  34.080  36.719  1.00  0.00     0.031 C 
ATOM     44  C   UNL A   1      38.159  30.591  30.819  1.00  0.00     0.029 A 
ATOM     45  C   UNL A   1      39.318  30.211  31.619  1.00  0.00     0.049 A 
ATOM     46  H   UNL A   1      39.885  30.973  33.472  1.00  0.00     0.167 HD
ATOM     47  C   UNL A   1      41.037  32.773  37.304  1.00  0.00     0.031 A 
ATOM     48  C   UNL A   1      40.232  29.283  31.278  1.00  0.00     0.031 A 
ATOM     49  C   UNL A   1      42.020  31.756  37.055  1.00  0.00     0.049 A 
ATOM     50  C   UNL A   1      41.380  29.012  32.215  1.00  0.00     0.074 A 
ATOM     51  C   UNL A   1      43.077  31.366  37.857  1.00  0.00     0.029 A 
ATOM     52  N   UNL A   1      42.059  30.962  35.920  1.00  0.00    -0.354 N 
ATOM     53  N   UNL A   1      41.642  29.551  33.382  1.00  0.00    -0.248 NA
ATOM     54  C   UNL A   1      42.352  27.995  31.791  1.00  0.00     0.031 C 
ATOM     55  C   UNL A   1      43.785  30.364  37.186  1.00  0.00     0.029 A 
ATOM     56  C   UNL A   1      43.131  30.089  35.996  1.00  0.00     0.049 A 
ATOM     57  H   UNL A   1      41.421  31.010  35.172  1.00  0.00     0.167 HD
ATOM     58  C   UNL A   1      42.781  28.906  33.847  1.00  0.00     0.074 A 
ATOM     59  C   UNL A   1      43.149  27.928  32.846  1.00  0.00     0.031 C 
ATOM     60  C   UNL A   1      43.463  29.106  35.000  1.00  0.00     0.031 A 
BRANCH  47  61
ATOM     61  C   UNL A   1      41.129  33.556  38.584  1.00  0.00    -0.014 A 
ATOM     62  C   UNL A   1      41.848  34.761  38.642  1.00  0.00     0.009 A 
ATOM     63  C   UNL A   1      40.442  33.120  39.726  1.00  0.00     0.009 A 
ATOM     64  C   UNL A   1      41.899  35.499  39.825  1.00  0.00     0.001 A 
ATOM     65  C   UNL A   1      40.469  33.875  40.900  1.00  0.00     0.001 A 
ATOM     66  C   UNL A   1      41.202  35.060  40.950  1.00  0.00     0.000 A 
ENDBRANCH  47  61
BRANCH  48  67
ATOM     67  C   UNL A   1      40.117  28.535  29.997  1.00  0.00    -0.014 A 
ATOM     68  C   UNL A   1      39.489  27.280  29.957  1.00  0.00     0.009 A 
ATOM     69  C   UNL A   1      40.686  29.043  28.819  1.00  0.00     0.009 A 
ATOM     70  C   UNL A   1      39.480  26.528  28.780  1.00  0.00     0.001 A 
ATOM     71  C   UNL A   1      40.643  28.305  27.634  1.00  0.00     0.001 A 
ATOM     72  C   UNL A   1      40.056  27.041  27.619  1.00  0.00     0.000 A 
ENDBRANCH  48  67
BRANCH  60  73
ATOM     73  C   UNL A   1      44.635  28.205  35.275  1.00  0.00    -0.014 A 
ATOM     74  C   UNL A   1      44.477  26.975  35.931  1.00  0.00     0.009 A 
ATOM     75  C   UNL A   1      45.911  28.578  34.824  1.00  0.00     0.009 A 
ATOM     76  C   UNL A   1      45.582  26.152  36.160  1.00  0.00     0.001 A 
ATOM     77  C   UNL A   1      47.006  27.739  35.024  1.00  0.00     0.001 A 
ATOM     78  C   UNL A   1      46.843  26.532  35.701  1.00  0.00     0.000 A 
ENDBRANCH  60  73
ENDBRANCH  34  35
ENDBRANCH  26  29
ENDBRANCH  24  25
ENDBRANCH  23  24
ENDBRANCH   1  23
TORSDOF 15
ENDMDL
MODEL 2
REMARK VINA RESULT:      -9.6      2.371      4.220
REMARK SMILES CC[N@@H+](C[C@@H](C)C(=O)NCCCNC(=O)c1ccc(-c2c3nc(c(-c4ccccc4)c4ccc([nH]4)c(-c4ccccc4)c4nc(c(-c5ccccc5)c5ccc2[nH]5)C=C4)C=C3)cc1)[C@@H]1CCC[C@H](S(C)(=O)=O)C1
REMARK SMILES IDX 10 1 9 2 7 3 8 4 5 6 6 7 4 8 3 9 2 11 1 12 64 13 65 14 73 15
REMARK SMILES IDX 66 16 68 17 67 18 69 19 70 20 71 21 72 22 11 23 12 24 13 25
REMARK SMILES IDX 14 26 15 28 16 29 17 30 63 31 18 32 62 33 19 34 20 35 21 36
REMARK SMILES IDX 56 37 22 38 61 39 55 40 57 41 23 42 60 43 54 44 53 45 24 47
REMARK SMILES IDX 46 48 31 49 45 50 32 51 35 52 44 53 58 54 33 55 34 56 43 58
REMARK SMILES IDX 59 59 36 60 25 61 26 62 30 63 27 64 29 65 28 66 47 67 48 68
REMARK SMILES IDX 52 69 49 70 51 71 50 72 37 73 38 74 42 75 39 76 41 77 40 78
REMARK H PARENT 9 5 3 10 13 27 57 46 35 57
REMARK Flexibility Score: inf
ROOT
ATOM      1  C   UNL A   1      31.569  30.747  26.745  1.00  0.00     0.117 C 
ENDROOT
BRANCH   1   2
ATOM      2  N   UNL A   1      31.595  30.225  25.387  1.00  0.00    -0.356 N 
ATOM      3  C   UNL A   1      31.975  28.999  24.923  1.00  0.00     0.228 C 
ATOM      4  O   UNL A   1      31.932  28.796  23.709  1.00  0.00    -0.275 OA
ATOM      5  H   UNL A   1      31.289  30.853  24.694  1.00  0.00     0.163 HD
BRANCH   3   6
ATOM      6  C   UNL A   1      32.407  27.911  25.898  1.00  0.00     0.130 C 
ATOM      7  C   UNL A   1      33.945  27.953  25.958  1.00  0.00     0.024 C 
BRANCH   6   8
ATOM      8  C   UNL A   1      31.643  26.601  25.543  1.00  0.00     0.275 C 
BRANCH   8   9
ATOM      9  N   UNL A   1      32.093  25.701  24.455  1.00  0.00    -0.332 N 
ATOM     10  H   UNL A   1      32.843  26.151  23.931  1.00  0.00     0.348 HD
BRANCH   9  11
ATOM     11  C   UNL A   1      31.049  25.525  23.434  1.00  0.00     0.259 C 
ATOM     12  C   UNL A   1      30.660  24.073  23.161  1.00  0.00     0.071 C 
ENDBRANCH   9  11
BRANCH   9  13
ATOM     13  C   UNL A   1      32.781  24.504  24.956  1.00  0.00     0.185 C 
ATOM     14  C   UNL A   1      32.591  24.280  26.467  1.00  0.00     0.065 C 
ATOM     15  C   UNL A   1      34.267  24.428  24.589  1.00  0.00     0.084 C 
ATOM     16  C   UNL A   1      33.225  22.949  26.894  1.00  0.00     0.007 C 
ATOM     17  C   UNL A   1      34.866  23.075  24.967  1.00  0.00     0.114 C 
ATOM     18  C   UNL A   1      34.693  22.828  26.466  1.00  0.00     0.020 C 
BRANCH  17  19
ATOM     19  S   UNL A   1      36.579  23.054  24.417  1.00  0.00     0.150 S 
ATOM     20  C   UNL A   1      37.109  21.375  24.614  1.00  0.00     0.158 C 
ATOM     21  O   UNL A   1      36.576  23.327  22.994  1.00  0.00    -0.229 OA
ATOM     22  O   UNL A   1      37.361  23.874  25.326  1.00  0.00    -0.229 OA
ENDBRANCH  17  19
ENDBRANCH   9  13
ENDBRANCH   8   9
ENDBRANCH   6   8
ENDBRANCH   3   6
ENDBRANCH   1   2
BRANCH   1  23
ATOM     23  C   UNL A   1      31.402  32.257  26.744  1.00  0.00     0.042 C 
BRANCH  23  24
ATOM     24  C   UNL A   1      32.690  32.976  27.112  1.00  0.00     0.118 C 
BRANCH  24  25
ATOM     25  N   UNL A   1      32.441  34.318  27.627  1.00  0.00    -0.352 N 
ATOM     26  C   UNL A   1      33.009  34.953  28.701  1.00  0.00     0.251 C 
ATOM     27  H   UNL A   1      31.769  34.841  27.133  1.00  0.00     0.163 HD
ATOM     28  O   UNL A   1      32.527  35.994  29.133  1.00  0.00    -0.269 OA
BRANCH  26  29
ATOM     29  C   UNL A   1      34.195  34.355  29.342  1.00  0.00     0.039 A 
ATOM     30  C   UNL A   1      34.037  33.610  30.511  1.00  0.00     0.014 A 
ATOM     31  C   UNL A   1      35.458  34.515  28.766  1.00  0.00     0.014 A 
ATOM     32  C   UNL A   1      35.143  32.968  31.066  1.00  0.00     0.010 A 
ATOM     33  C   UNL A   1      36.533  33.794  29.261  1.00  0.00     0.010 A 
ATOM     34  C   UNL A   1      36.391  33.024  30.424  1.00  0.00    -0.014 A 
BRANCH  34  35
ATOM     35  C   UNL A   1      37.576  32.315  30.963  1.00  0.00     0.031 A 
ATOM     36  C   UNL A   1      38.273  32.859  32.181  1.00  0.00     0.074 A 
ATOM     37  C   UNL A   1      38.059  31.231  30.327  1.00  0.00     0.049 A 
ATOM     38  N   UNL A   1      39.379  32.451  32.750  1.00  0.00    -0.248 NA
ATOM     39  C   UNL A   1      37.663  34.033  32.831  1.00  0.00     0.031 C 
ATOM     40  C   UNL A   1      37.490  30.626  29.120  1.00  0.00     0.029 A 
ATOM     41  N   UNL A   1      39.149  30.445  30.606  1.00  0.00    -0.354 N 
ATOM     42  C   UNL A   1      39.598  33.321  33.810  1.00  0.00     0.074 A 
ATOM     43  C   UNL A   1      38.553  34.317  33.769  1.00  0.00     0.031 C 
ATOM     44  C   UNL A   1      38.218  29.549  28.781  1.00  0.00     0.029 A 
ATOM     45  C   UNL A   1      39.332  29.417  29.714  1.00  0.00     0.049 A 
ATOM     46  H   UNL A   1      39.744  30.604  31.374  1.00  0.00     0.167 HD
ATOM     47  C   UNL A   1      40.566  33.277  34.755  1.00  0.00     0.031 A 
ATOM     48  C   UNL A   1      40.299  28.482  29.649  1.00  0.00     0.031 A 
ATOM     49  C   UNL A   1      41.598  32.280  34.803  1.00  0.00     0.049 A 
ATOM     50  C   UNL A   1      41.388  28.487  30.689  1.00  0.00     0.074 A 
ATOM     51  C   UNL A   1      42.611  32.133  35.734  1.00  0.00     0.029 A 
ATOM     52  N   UNL A   1      41.743  31.253  33.884  1.00  0.00    -0.354 N 
ATOM     53  N   UNL A   1      41.551  29.287  31.715  1.00  0.00    -0.248 NA
ATOM     54  C   UNL A   1      42.422  27.449  30.566  1.00  0.00     0.031 C 
ATOM     55  C   UNL A   1      43.397  31.042  35.353  1.00  0.00     0.029 A 
ATOM     56  C   UNL A   1      42.837  30.474  34.221  1.00  0.00     0.049 A 
ATOM     57  H   UNL A   1      41.156  31.100  33.109  1.00  0.00     0.167 HD
ATOM     58  C   UNL A   1      42.677  28.821  32.381  1.00  0.00     0.074 A 
ATOM     59  C   UNL A   1      43.147  27.662  31.654  1.00  0.00     0.031 C 
ATOM     60  C   UNL A   1      43.271  29.309  33.497  1.00  0.00     0.031 A 
BRANCH  47  61
ATOM     61  C   UNL A   1      40.543  34.332  35.825  1.00  0.00    -0.014 A 
ATOM     62  C   UNL A   1      39.800  34.147  37.003  1.00  0.00     0.009 A 
ATOM     63  C   UNL A   1      41.315  35.494  35.685  1.00  0.00     0.009 A 
ATOM     64  C   UNL A   1      39.811  35.116  38.007  1.00  0.00     0.001 A 
ATOM     65  C   UNL A   1      41.350  36.448  36.704  1.00  0.00     0.001 A 
ATOM     66  C   UNL A   1      40.593  36.262  37.861  1.00  0.00     0.000 A 
ENDBRANCH  47  61
BRANCH  48  67
ATOM     67  C   UNL A   1      40.298  27.460  28.568  1.00  0.00    -0.014 A 
ATOM     68  C   UNL A   1      39.661  26.222  28.756  1.00  0.00     0.009 A 
ATOM     69  C   UNL A   1      40.984  27.690  27.365  1.00  0.00     0.009 A 
ATOM     70  C   UNL A   1      39.755  25.222  27.786  1.00  0.00     0.001 A 
ATOM     71  C   UNL A   1      41.047  26.700  26.382  1.00  0.00     0.001 A 
ATOM     72  C   UNL A   1      40.448  25.460  26.600  1.00  0.00     0.000 A 
ENDBRANCH  48  67
BRANCH  60  73
ATOM     73  C   UNL A   1      44.451  28.552  34.039  1.00  0.00    -0.014 A 
ATOM     74  C   UNL A   1      44.290  27.484  34.934  1.00  0.00     0.009 A 
ATOM     75  C   UNL A   1      45.743  28.889  33.605  1.00  0.00     0.009 A 
ATOM     76  C   UNL A   1      45.404  26.790  35.410  1.00  0.00     0.001 A 
ATOM     77  C   UNL A   1      46.851  28.173  34.056  1.00  0.00     0.001 A 
ATOM     78  C   UNL A   1      46.682  27.131  34.965  1.00  0.00     0.000 A 
ENDBRANCH  60  73
ENDBRANCH  34  35
ENDBRANCH  26  29
ENDBRANCH  24  25
ENDBRANCH  23  24
ENDBRANCH   1  23
TORSDOF 15
ENDMDL
MODEL 3
REMARK VINA RESULT:      -9.6      2.273      7.068
REMARK SMILES CC[N@@H+](C[C@@H](C)C(=O)NCCCNC(=O)c1ccc(-c2c3nc(c(-c4ccccc4)c4ccc([nH]4)c(-c4ccccc4)c4nc(c(-c5ccccc5)c5ccc2[nH]5)C=C4)C=C3)cc1)[C@@H]1CCC[C@H](S(C)(=O)=O)C1
REMARK SMILES IDX 10 1 9 2 7 3 8 4 5 6 6 7 4 8 3 9 2 11 1 12 64 13 65 14 73 15
REMARK SMILES IDX 66 16 68 17 67 18 69 19 70 20 71 21 72 22 11 23 12 24 13 25
REMARK SMILES IDX 14 26 15 28 16 29 17 30 63 31 18 32 62 33 19 34 20 35 21 36
REMARK SMILES IDX 56 37 22 38 61 39 55 40 57 41 23 42 60 43 54 44 53 45 24 47
REMARK SMILES IDX 46 48 31 49 45 50 32 51 35 52 44 53 58 54 33 55 34 56 43 58
REMARK SMILES IDX 59 59 36 60 25 61 26 62 30 63 27 64 29 65 28 66 47 67 48 68
REMARK SMILES IDX 52 69 49 70 51 71 50 72 37 73 38 74 42 75 39 76 41 77 40 78
REMARK H PARENT 9 5 3 10 13 27 57 46 35 57
REMARK Flexibility Score: inf
ROOT
ATOM      1  C   UNL A   1      31.781  30.776  26.059  1.00  0.00     0.117 C 
ENDROOT
BRANCH   1   2
ATOM      2  N   UNL A   1      33.055  30.269  26.546  1.00  0.00    -0.356 N 
ATOM      3  C   UNL A   1      33.502  28.985  26.669  1.00  0.00     0.228 C 
ATOM      4  O   UNL A   1      34.626  28.801  27.137  1.00  0.00    -0.275 OA
ATOM      5  H   UNL A   1      33.697  30.959  26.830  1.00  0.00     0.163 HD
BRANCH   3   6
ATOM      6  C   UNL A   1      32.633  27.824  26.204  1.00  0.00     0.130 C 
ATOM      7  C   UNL A   1      31.609  27.559  27.322  1.00  0.00     0.024 C 
BRANCH   6   8
ATOM      8  C   UNL A   1      33.566  26.695  25.671  1.00  0.00     0.275 C 
BRANCH   8   9
ATOM      9  N   UNL A   1      33.922  26.585  24.236  1.00  0.00    -0.332 N 
ATOM     10  H   UNL A   1      34.861  26.956  24.091  1.00  0.00     0.348 HD
BRANCH   9  11
ATOM     11  C   UNL A   1      33.094  27.470  23.405  1.00  0.00     0.259 C 
ATOM     12  C   UNL A   1      33.878  28.372  22.454  1.00  0.00     0.071 C 
ENDBRANCH   9  11
BRANCH   9  13
ATOM     13  C   UNL A   1      34.102  25.193  23.801  1.00  0.00     0.185 C 
ATOM     14  C   UNL A   1      32.776  24.478  23.486  1.00  0.00     0.065 C 
ATOM     15  C   UNL A   1      34.955  24.340  24.746  1.00  0.00     0.084 C 
ATOM     16  C   UNL A   1      33.045  23.078  22.917  1.00  0.00     0.007 C 
ATOM     17  C   UNL A   1      35.264  22.974  24.138  1.00  0.00     0.114 C 
ATOM     18  C   UNL A   1      33.962  22.239  23.817  1.00  0.00     0.020 C 
BRANCH  17  19
ATOM     19  S   UNL A   1      36.338  22.089  25.279  1.00  0.00     0.150 S 
ATOM     20  C   UNL A   1      37.441  23.317  25.924  1.00  0.00     0.158 C 
ATOM     21  O   UNL A   1      35.515  21.643  26.384  1.00  0.00    -0.229 OA
ATOM     22  O   UNL A   1      37.132  21.140  24.517  1.00  0.00    -0.229 OA
ENDBRANCH  17  19
ENDBRANCH   9  13
ENDBRANCH   8   9
ENDBRANCH   6   8
ENDBRANCH   3   6
ENDBRANCH   1   2
BRANCH   1  23
ATOM     23  C   UNL A   1      31.429  32.095  26.727  1.00  0.00     0.042 C 
BRANCH  23  24
ATOM     24  C   UNL A   1      32.643  32.761  27.352  1.00  0.00     0.118 C 
BRANCH  24  25
ATOM     25  N   UNL A   1      32.402  34.169  27.651  1.00  0.00    -0.352 N 
ATOM     26  C   UNL A   1      32.994  34.968  28.595  1.00  0.00     0.251 C 
ATOM     27  H   UNL A   1      31.717  34.607  27.096  1.00  0.00     0.163 HD
ATOM     28  O   UNL A   1      32.519  36.065  28.866  1.00  0.00    -0.269 OA
BRANCH  26  29
ATOM     29  C   UNL A   1      34.197  34.480  29.294  1.00  0.00     0.039 A 
ATOM     30  C   UNL A   1      34.059  33.844  30.529  1.00  0.00     0.014 A 
ATOM     31  C   UNL A   1      35.457  34.632  28.710  1.00  0.00     0.014 A 
ATOM     32  C   UNL A   1      35.185  33.301  31.147  1.00  0.00     0.010 A 
ATOM     33  C   UNL A   1      36.555  34.002  29.275  1.00  0.00     0.010 A 
ATOM     34  C   UNL A   1      36.434  33.342  30.506  1.00  0.00    -0.014 A 
BRANCH  34  35
ATOM     35  C   UNL A   1      37.641  32.735  31.114  1.00  0.00     0.031 A 
ATOM     36  C   UNL A   1      38.266  31.526  30.471  1.00  0.00     0.074 A 
ATOM     37  C   UNL A   1      38.132  33.225  32.269  1.00  0.00     0.049 A 
ATOM     38  N   UNL A   1      39.259  30.786  30.895  1.00  0.00    -0.248 NA
ATOM     39  C   UNL A   1      37.683  31.071  29.197  1.00  0.00     0.031 C 
ATOM     40  C   UNL A   1      37.596  34.373  33.005  1.00  0.00     0.029 A 
ATOM     41  N   UNL A   1      39.196  32.812  33.032  1.00  0.00    -0.354 N 
ATOM     42  C   UNL A   1      39.408  29.780  29.950  1.00  0.00     0.074 A 
ATOM     43  C   UNL A   1      38.367  29.961  28.965  1.00  0.00     0.031 C 
ATOM     44  C   UNL A   1      38.351  34.589  34.095  1.00  0.00     0.029 A 
ATOM     45  C   UNL A   1      39.390  33.566  34.163  1.00  0.00     0.049 A 
ATOM     46  H   UNL A   1      39.766  32.047  32.791  1.00  0.00     0.167 HD
ATOM     47  C   UNL A   1      40.349  28.809  29.888  1.00  0.00     0.031 A 
ATOM     48  C   UNL A   1      40.295  33.438  35.151  1.00  0.00     0.031 A 
ATOM     49  C   UNL A   1      41.392  28.637  30.860  1.00  0.00     0.049 A 
ATOM     50  C   UNL A   1      41.302  32.320  35.076  1.00  0.00     0.074 A 
ATOM     51  C   UNL A   1      42.409  27.699  30.873  1.00  0.00     0.029 A 
ATOM     52  N   UNL A   1      41.555  29.427  31.986  1.00  0.00    -0.354 N 
ATOM     53  N   UNL A   1      41.460  31.408  34.147  1.00  0.00    -0.248 NA
ATOM     54  C   UNL A   1      42.262  32.222  36.184  1.00  0.00     0.031 C 
ATOM     55  C   UNL A   1      43.163  27.893  32.034  1.00  0.00     0.029 A 
ATOM     56  C   UNL A   1      42.652  28.990  32.709  1.00  0.00     0.049 A 
ATOM     57  H   UNL A   1      40.979  30.185  32.235  1.00  0.00     0.167 HD
ATOM     58  C   UNL A   1      42.562  30.660  34.538  1.00  0.00     0.074 A 
ATOM     59  C   UNL A   1      43.042  31.232  35.777  1.00  0.00     0.031 C 
ATOM     60  C   UNL A   1      43.128  29.591  33.926  1.00  0.00     0.031 A 
BRANCH  47  61
ATOM     61  C   UNL A   1      40.301  27.867  28.717  1.00  0.00    -0.014 A 
ATOM     62  C   UNL A   1      40.962  28.175  27.517  1.00  0.00     0.009 A 
ATOM     63  C   UNL A   1      39.641  26.635  28.832  1.00  0.00     0.009 A 
ATOM     64  C   UNL A   1      40.941  27.280  26.447  1.00  0.00     0.001 A 
ATOM     65  C   UNL A   1      39.648  25.727  27.772  1.00  0.00     0.001 A 
ATOM     66  C   UNL A   1      40.292  26.052  26.579  1.00  0.00     0.000 A 
ENDBRANCH  47  61
BRANCH  48  67
ATOM     67  C   UNL A   1      40.306  34.382  36.302  1.00  0.00    -0.014 A 
ATOM     68  C   UNL A   1      39.515  34.136  37.435  1.00  0.00     0.009 A 
ATOM     69  C   UNL A   1      41.061  35.565  36.249  1.00  0.00     0.009 A 
ATOM     70  C   UNL A   1      39.439  35.075  38.465  1.00  0.00     0.001 A 
ATOM     71  C   UNL A   1      41.011  36.487  37.297  1.00  0.00     0.001 A 
ATOM     72  C   UNL A   1      40.187  36.250  38.396  1.00  0.00     0.000 A 
ENDBRANCH  48  67
BRANCH  60  73
ATOM     73  C   UNL A   1      44.370  29.016  34.548  1.00  0.00    -0.014 A 
ATOM     74  C   UNL A   1      45.645  29.502  34.227  1.00  0.00     0.009 A 
ATOM     75  C   UNL A   1      44.249  28.000  35.510  1.00  0.00     0.009 A 
ATOM     76  C   UNL A   1      46.780  28.957  34.832  1.00  0.00     0.001 A 
ATOM     77  C   UNL A   1      45.381  27.481  36.137  1.00  0.00     0.001 A 
ATOM     78  C   UNL A   1      46.646  27.953  35.790  1.00  0.00     0.000 A 
ENDBRANCH  60  73
ENDBRANCH  34  35
ENDBRANCH  26  29
ENDBRANCH  24  25
ENDBRANCH  23  24
ENDBRANCH   1  23
TORSDOF 15
ENDMDL
