MODEL 1
REMARK VINA RESULT:     -12.0      0.000      0.000
REMARK SMILES Cn1cc(S(=O)(=O)N2CCC(C(=O)NCCCNC(=O)c3ccc(-c4c5nc(c(-c6ccccc6)c6ccc([nH]6)c(-c6ccccc6)c6nc(c(-c7ccccc7)c7ccc4[nH]7)C=C6)C=C5)cc3)CC2)cc1C(=O)N1CCCCC1
REMARK SMILES IDX 15 1 14 2 12 3 13 4 11 6 8 7 9 8 70 9 10 10 69 11 5 12 6 13
REMARK SMILES IDX 7 14 4 15 1 16 2 17 3 18 72 19 71 20 73 21 74 22 75 23 76 24
REMARK SMILES IDX 80 25 77 26 79 27 78 28 16 29 17 30 18 31 19 32 20 34 21 35
REMARK SMILES IDX 22 36 68 37 23 38 67 39 24 40 25 41 26 42 61 43 27 44 66 45
REMARK SMILES IDX 60 46 62 47 28 48 65 49 59 50 58 51 29 53 51 54 36 55 50 56
REMARK SMILES IDX 37 57 40 58 49 59 63 60 38 61 39 62 48 64 64 65 41 66 30 67
REMARK SMILES IDX 31 68 35 69 32 70 34 71 33 72 52 73 53 74 57 75 54 76 56 77
REMARK SMILES IDX 55 78 42 79 43 80 47 81 44 82 46 83 45 84
REMARK H PARENT 14 5 18 33 62 52 40 63
REMARK Flexibility Score: inf
ROOT
ATOM      1  C   UNL A   1      39.433  22.472  26.326  1.00  0.00     0.117 C 
ENDROOT
BRANCH   1   2
ATOM      2  N   UNL A   1      39.041  21.196  25.751  1.00  0.00    -0.356 N 
ATOM      3  C   UNL A   1      37.889  20.782  25.165  1.00  0.00     0.223 C 
ATOM      4  O   UNL A   1      37.825  19.605  24.803  1.00  0.00    -0.275 OA
ATOM      5  H   UNL A   1      39.738  20.503  25.796  1.00  0.00     0.163 HD
BRANCH   3   6
ATOM      6  C   UNL A   1      36.715  21.716  24.931  1.00  0.00     0.081 C 
ATOM      7  N   UNL A   1      34.450  22.659  23.440  1.00  0.00    -0.198 NA
ATOM      8  C   UNL A   1      35.684  23.482  23.467  1.00  0.00     0.103 C 
ATOM      9  C   UNL A   1      34.202  21.883  24.678  1.00  0.00     0.103 C 
ATOM     10  C   UNL A   1      36.891  22.584  23.685  1.00  0.00     0.030 C 
ATOM     11  C   UNL A   1      35.380  20.970  24.977  1.00  0.00     0.030 C 
BRANCH   7  12
ATOM     12  S   UNL A   1      33.076  23.421  22.772  1.00  0.00     0.244 S 
ATOM     13  O   UNL A   1      32.027  22.437  22.616  1.00  0.00    -0.207 OA
ATOM     14  O   UNL A   1      33.509  24.253  21.670  1.00  0.00    -0.207 OA
BRANCH  12  15
ATOM     15  C   UNL A   1      32.410  24.557  23.899  1.00  0.00     0.101 A 
ATOM     16  C   UNL A   1      29.783  25.660  26.112  1.00  0.00     0.150 C 
ATOM     17  N   UNL A   1      30.997  25.507  25.341  1.00  0.00    -0.345 N 
ATOM     18  C   UNL A   1      31.340  24.319  24.737  1.00  0.00     0.107 A 
ATOM     19  C   UNL A   1      31.869  26.506  24.950  1.00  0.00     0.108 A 
ATOM     20  C   UNL A   1      32.777  25.907  24.085  1.00  0.00     0.055 A 
BRANCH  19  21
ATOM     21  C   UNL A   1      31.772  27.942  25.164  1.00  0.00     0.270 C 
ATOM     22  O   UNL A   1      31.106  28.631  24.390  1.00  0.00    -0.267 OA
ATOM     23  N   UNL A   1      32.398  28.515  26.262  1.00  0.00    -0.337 N 
ATOM     24  C   UNL A   1      31.860  29.767  26.786  1.00  0.00     0.120 C 
ATOM     25  C   UNL A   1      33.627  28.023  26.883  1.00  0.00     0.120 C 
ATOM     26  C   UNL A   1      32.909  30.869  26.810  1.00  0.00     0.022 C 
ATOM     27  C   UNL A   1      34.698  29.117  26.933  1.00  0.00     0.022 C 
ATOM     28  C   UNL A   1      34.156  30.404  27.553  1.00  0.00     0.004 C 
ENDBRANCH  19  21
ENDBRANCH  12  15
ENDBRANCH   7  12
ENDBRANCH   3   6
ENDBRANCH   1   2
BRANCH   1  29
ATOM     29  C   UNL A   1      40.411  22.303  27.481  1.00  0.00     0.042 C 
BRANCH  29  30
ATOM     30  C   UNL A   1      41.697  23.099  27.314  1.00  0.00     0.118 C 
BRANCH  30  31
ATOM     31  N   UNL A   1      41.658  23.988  26.161  1.00  0.00    -0.352 N 
ATOM     32  C   UNL A   1      41.354  25.325  26.085  1.00  0.00     0.251 C 
ATOM     33  H   UNL A   1      41.883  23.564  25.301  1.00  0.00     0.163 HD
ATOM     34  O   UNL A   1      41.181  25.854  24.991  1.00  0.00    -0.269 OA
BRANCH  32  35
ATOM     35  C   UNL A   1      41.216  26.126  27.319  1.00  0.00     0.039 A 
ATOM     36  C   UNL A   1      42.106  27.179  27.546  1.00  0.00     0.014 A 
ATOM     37  C   UNL A   1      40.222  25.832  28.254  1.00  0.00     0.014 A 
ATOM     38  C   UNL A   1      41.946  27.989  28.673  1.00  0.00     0.010 A 
ATOM     39  C   UNL A   1      40.017  26.684  29.334  1.00  0.00     0.010 A 
ATOM     40  C   UNL A   1      40.875  27.772  29.553  1.00  0.00    -0.014 A 
BRANCH  40  41
ATOM     41  C   UNL A   1      40.619  28.666  30.707  1.00  0.00     0.031 A 
ATOM     42  C   UNL A   1      39.542  29.711  30.625  1.00  0.00     0.074 A 
ATOM     43  C   UNL A   1      41.420  28.607  31.789  1.00  0.00     0.049 A 
ATOM     44  N   UNL A   1      39.266  30.680  31.460  1.00  0.00    -0.248 NA
ATOM     45  C   UNL A   1      38.681  29.679  29.431  1.00  0.00     0.031 C 
ATOM     46  C   UNL A   1      42.523  27.662  31.981  1.00  0.00     0.029 A 
ATOM     47  N   UNL A   1      41.437  29.374  32.926  1.00  0.00    -0.354 N 
ATOM     48  C   UNL A   1      38.226  31.391  30.878  1.00  0.00     0.074 A 
ATOM     49  C   UNL A   1      37.938  30.761  29.608  1.00  0.00     0.031 C 
ATOM     50  C   UNL A   1      43.099  27.896  33.171  1.00  0.00     0.029 A 
ATOM     51  C   UNL A   1      42.436  29.030  33.804  1.00  0.00     0.049 A 
ATOM     52  H   UNL A   1      40.796  30.101  33.096  1.00  0.00     0.167 HD
ATOM     53  C   UNL A   1      37.561  32.468  31.362  1.00  0.00     0.031 A 
ATOM     54  C   UNL A   1      42.792  29.580  34.980  1.00  0.00     0.031 A 
ATOM     55  C   UNL A   1      37.823  33.076  32.637  1.00  0.00     0.049 A 
ATOM     56  C   UNL A   1      42.038  30.771  35.497  1.00  0.00     0.074 A 
ATOM     57  C   UNL A   1      37.156  34.126  33.245  1.00  0.00     0.029 A 
ATOM     58  N   UNL A   1      38.831  32.685  33.503  1.00  0.00    -0.354 N 
ATOM     59  N   UNL A   1      41.029  31.407  34.953  1.00  0.00    -0.248 NA
ATOM     60  C   UNL A   1      42.475  31.320  36.789  1.00  0.00     0.031 C 
ATOM     61  C   UNL A   1      37.781  34.390  34.468  1.00  0.00     0.029 A 
ATOM     62  C   UNL A   1      38.816  33.484  34.634  1.00  0.00     0.049 A 
ATOM     63  H   UNL A   1      39.464  31.949  33.340  1.00  0.00     0.167 HD
ATOM     64  C   UNL A   1      40.698  32.419  35.843  1.00  0.00     0.074 A 
ATOM     65  C   UNL A   1      41.607  32.307  36.965  1.00  0.00     0.031 C 
ATOM     66  C   UNL A   1      39.729  33.359  35.738  1.00  0.00     0.031 A 
BRANCH  53  67
ATOM     67  C   UNL A   1      36.487  33.058  30.497  1.00  0.00    -0.014 A 
ATOM     68  C   UNL A   1      36.804  33.895  29.416  1.00  0.00     0.009 A 
ATOM     69  C   UNL A   1      35.141  32.754  30.752  1.00  0.00     0.009 A 
ATOM     70  C   UNL A   1      35.791  34.442  28.626  1.00  0.00     0.001 A 
ATOM     71  C   UNL A   1      34.132  33.284  29.946  1.00  0.00     0.001 A 
ATOM     72  C   UNL A   1      34.458  34.134  28.890  1.00  0.00     0.000 A 
ENDBRANCH  53  67
BRANCH  54  73
ATOM     73  C   UNL A   1      43.919  29.005  35.754  1.00  0.00    -0.014 A 
ATOM     74  C   UNL A   1      43.697  27.935  36.634  1.00  0.00     0.009 A 
ATOM     75  C   UNL A   1      45.218  29.516  35.613  1.00  0.00     0.009 A 
ATOM     76  C   UNL A   1      44.754  27.399  37.372  1.00  0.00     0.001 A 
ATOM     77  C   UNL A   1      46.276  28.964  36.338  1.00  0.00     0.001 A 
ATOM     78  C   UNL A   1      46.042  27.910  37.221  1.00  0.00     0.000 A 
ENDBRANCH  54  73
BRANCH  66  79
ATOM     79  C   UNL A   1      39.587  34.324  36.877  1.00  0.00    -0.014 A 
ATOM     80  C   UNL A   1      40.166  35.601  36.815  1.00  0.00     0.009 A 
ATOM     81  C   UNL A   1      38.832  33.966  38.004  1.00  0.00     0.009 A 
ATOM     82  C   UNL A   1      40.006  36.496  37.875  1.00  0.00     0.001 A 
ATOM     83  C   UNL A   1      38.659  34.870  39.053  1.00  0.00     0.001 A 
ATOM     84  C   UNL A   1      39.251  36.132  38.990  1.00  0.00     0.000 A 
ENDBRANCH  66  79
ENDBRANCH  40  41
ENDBRANCH  32  35
ENDBRANCH  30  31
ENDBRANCH  29  30
ENDBRANCH   1  29
TORSDOF 13
ENDMDL
MODEL 2
REMARK VINA RESULT:     -12.0      2.055      8.359
REMARK SMILES Cn1cc(S(=O)(=O)N2CCC(C(=O)NCCCNC(=O)c3ccc(-c4c5nc(c(-c6ccccc6)c6ccc([nH]6)c(-c6ccccc6)c6nc(c(-c7ccccc7)c7ccc4[nH]7)C=C6)C=C5)cc3)CC2)cc1C(=O)N1CCCCC1
REMARK SMILES IDX 15 1 14 2 12 3 13 4 11 6 8 7 9 8 70 9 10 10 69 11 5 12 6 13
REMARK SMILES IDX 7 14 4 15 1 16 2 17 3 18 72 19 71 20 73 21 74 22 75 23 76 24
REMARK SMILES IDX 80 25 77 26 79 27 78 28 16 29 17 30 18 31 19 32 20 34 21 35
REMARK SMILES IDX 22 36 68 37 23 38 67 39 24 40 25 41 26 42 61 43 27 44 66 45
REMARK SMILES IDX 60 46 62 47 28 48 65 49 59 50 58 51 29 53 51 54 36 55 50 56
REMARK SMILES IDX 37 57 40 58 49 59 63 60 38 61 39 62 48 64 64 65 41 66 30 67
REMARK SMILES IDX 31 68 35 69 32 70 34 71 33 72 52 73 53 74 57 75 54 76 56 77
REMARK SMILES IDX 55 78 42 79 43 80 47 81 44 82 46 83 45 84
REMARK H PARENT 14 5 18 33 62 52 40 63
REMARK Flexibility Score: inf
ROOT
ATOM      1  C   UNL A   1      31.633  30.763  26.327  1.00  0.00     0.117 C 
ENDROOT
BRANCH   1   2
ATOM      2  N   UNL A   1      31.369  30.401  24.944  1.00  0.00    -0.356 N 
ATOM      3  C   UNL A   1      31.078  29.212  24.358  1.00  0.00     0.223 C 
ATOM      4  O   UNL A   1      30.945  29.199  23.132  1.00  0.00    -0.275 OA
ATOM      5  H   UNL A   1      31.410  31.158  24.316  1.00  0.00     0.163 HD
BRANCH   3   6
ATOM      6  C   UNL A   1      30.898  27.935  25.158  1.00  0.00     0.081 C 
ATOM      7  N   UNL A   1      31.378  25.154  25.687  1.00  0.00    -0.198 NA
ATOM      8  C   UNL A   1      30.043  25.570  25.193  1.00  0.00     0.103 C 
ATOM      9  C   UNL A   1      32.058  26.158  26.538  1.00  0.00     0.103 C 
ATOM     10  C   UNL A   1      30.177  26.842  24.370  1.00  0.00     0.030 C 
ATOM     11  C   UNL A   1      32.213  27.472  25.790  1.00  0.00     0.030 C 
BRANCH   7  12
ATOM     12  S   UNL A   1      31.485  23.541  26.237  1.00  0.00     0.244 S 
ATOM     13  O   UNL A   1      30.452  22.759  25.591  1.00  0.00    -0.207 OA
ATOM     14  O   UNL A   1      31.635  23.561  27.676  1.00  0.00    -0.207 OA
BRANCH  12  15
ATOM     15  C   UNL A   1      32.958  22.814  25.686  1.00  0.00     0.101 A 
ATOM     16  C   UNL A   1      35.815  22.710  23.485  1.00  0.00     0.150 C 
ATOM     17  N   UNL A   1      34.821  22.469  24.509  1.00  0.00    -0.345 N 
ATOM     18  C   UNL A   1      33.892  23.417  24.871  1.00  0.00     0.107 A 
ATOM     19  C   UNL A   1      34.535  21.266  25.127  1.00  0.00     0.108 A 
ATOM     20  C   UNL A   1      33.399  21.489  25.895  1.00  0.00     0.055 A 
BRANCH  19  21
ATOM     21  C   UNL A   1      35.108  19.951  24.882  1.00  0.00     0.270 C 
ATOM     22  O   UNL A   1      36.330  19.803  24.913  1.00  0.00    -0.267 OA
ATOM     23  N   UNL A   1      34.269  18.868  24.659  1.00  0.00    -0.337 N 
ATOM     24  C   UNL A   1      34.766  17.534  24.978  1.00  0.00     0.120 C 
ATOM     25  C   UNL A   1      32.954  18.939  24.024  1.00  0.00     0.120 C 
ATOM     26  C   UNL A   1      34.718  16.607  23.772  1.00  0.00     0.022 C 
ATOM     27  C   UNL A   1      32.871  18.006  22.813  1.00  0.00     0.022 C 
ATOM     28  C   UNL A   1      33.318  16.588  23.167  1.00  0.00     0.004 C 
ENDBRANCH  19  21
ENDBRANCH  12  15
ENDBRANCH   7  12
ENDBRANCH   3   6
ENDBRANCH   1   2
BRANCH   1  29
ATOM     29  C   UNL A   1      31.474  32.258  26.567  1.00  0.00     0.042 C 
BRANCH  29  30
ATOM     30  C   UNL A   1      32.626  32.878  27.346  1.00  0.00     0.118 C 
BRANCH  30  31
ATOM     31  N   UNL A   1      32.391  34.278  27.670  1.00  0.00    -0.352 N 
ATOM     32  C   UNL A   1      32.982  35.077  28.618  1.00  0.00     0.251 C 
ATOM     33  H   UNL A   1      31.700  34.721  27.125  1.00  0.00     0.163 HD
ATOM     34  O   UNL A   1      32.507  36.180  28.873  1.00  0.00    -0.269 OA
BRANCH  32  35
ATOM     35  C   UNL A   1      34.177  34.605  29.346  1.00  0.00     0.039 A 
ATOM     36  C   UNL A   1      34.024  34.077  30.630  1.00  0.00     0.014 A 
ATOM     37  C   UNL A   1      35.447  34.697  28.771  1.00  0.00     0.014 A 
ATOM     38  C   UNL A   1      35.135  33.563  31.305  1.00  0.00     0.010 A 
ATOM     39  C   UNL A   1      36.537  34.118  29.410  1.00  0.00     0.010 A 
ATOM     40  C   UNL A   1      36.392  33.543  30.682  1.00  0.00    -0.014 A 
BRANCH  40  41
ATOM     41  C   UNL A   1      37.574  32.924  31.328  1.00  0.00     0.031 A 
ATOM     42  C   UNL A   1      38.250  31.746  30.686  1.00  0.00     0.074 A 
ATOM     43  C   UNL A   1      37.975  33.356  32.539  1.00  0.00     0.049 A 
ATOM     44  N   UNL A   1      39.195  30.976  31.163  1.00  0.00    -0.248 NA
ATOM     45  C   UNL A   1      37.783  31.367  29.343  1.00  0.00     0.031 C 
ATOM     46  C   UNL A   1      37.383  34.468  33.286  1.00  0.00     0.029 A 
ATOM     47  N   UNL A   1      38.970  32.894  33.363  1.00  0.00    -0.354 N 
ATOM     48  C   UNL A   1      39.410  30.003  30.196  1.00  0.00     0.074 A 
ATOM     49  C   UNL A   1      38.480  30.262  29.118  1.00  0.00     0.031 C 
ATOM     50  C   UNL A   1      38.036  34.611  34.451  1.00  0.00     0.029 A 
ATOM     51  C   UNL A   1      39.061  33.578  34.551  1.00  0.00     0.049 A 
ATOM     52  H   UNL A   1      39.562  32.143  33.126  1.00  0.00     0.167 HD
ATOM     53  C   UNL A   1      40.308  28.990  30.199  1.00  0.00     0.031 A 
ATOM     54  C   UNL A   1      39.866  33.382  35.611  1.00  0.00     0.031 A 
ATOM     55  C   UNL A   1      41.255  28.748  31.252  1.00  0.00     0.049 A 
ATOM     56  C   UNL A   1      40.856  32.254  35.589  1.00  0.00     0.074 A 
ATOM     57  C   UNL A   1      42.251  27.790  31.313  1.00  0.00     0.029 A 
ATOM     58  N   UNL A   1      41.325  29.476  32.429  1.00  0.00    -0.354 N 
ATOM     59  N   UNL A   1      41.075  31.368  34.649  1.00  0.00    -0.248 NA
ATOM     60  C   UNL A   1      41.708  32.099  36.777  1.00  0.00     0.031 C 
ATOM     61  C   UNL A   1      42.906  27.918  32.543  1.00  0.00     0.029 A 
ATOM     62  C   UNL A   1      42.337  28.978  33.231  1.00  0.00     0.049 A 
ATOM     63  H   UNL A   1      40.742  30.235  32.660  1.00  0.00     0.167 HD
ATOM     64  C   UNL A   1      42.100  30.561  35.122  1.00  0.00     0.074 A 
ATOM     65  C   UNL A   1      42.466  31.068  36.429  1.00  0.00     0.031 C 
ATOM     66  C   UNL A   1      42.684  29.494  34.528  1.00  0.00     0.031 A 
BRANCH  53  67
ATOM     67  C   UNL A   1      40.300  28.061  29.020  1.00  0.00    -0.014 A 
ATOM     68  C   UNL A   1      41.011  28.368  27.850  1.00  0.00     0.009 A 
ATOM     69  C   UNL A   1      39.591  26.852  29.090  1.00  0.00     0.009 A 
ATOM     70  C   UNL A   1      40.986  27.496  26.760  1.00  0.00     0.001 A 
ATOM     71  C   UNL A   1      39.587  25.972  28.007  1.00  0.00     0.001 A 
ATOM     72  C   UNL A   1      40.277  26.299  26.840  1.00  0.00     0.000 A 
ENDBRANCH  53  67
BRANCH  54  73
ATOM     73  C   UNL A   1      39.772  34.282  36.786  1.00  0.00    -0.014 A 
ATOM     74  C   UNL A   1      40.372  35.550  36.754  1.00  0.00     0.009 A 
ATOM     75  C   UNL A   1      39.079  33.883  37.940  1.00  0.00     0.009 A 
ATOM     76  C   UNL A   1      40.294  36.395  37.863  1.00  0.00     0.001 A 
ATOM     77  C   UNL A   1      38.986  34.740  39.038  1.00  0.00     0.001 A 
ATOM     78  C   UNL A   1      39.599  35.992  39.002  1.00  0.00     0.000 A 
ENDBRANCH  54  73
BRANCH  66  79
ATOM     79  C   UNL A   1      43.796  28.819  35.276  1.00  0.00    -0.014 A 
ATOM     80  C   UNL A   1      45.124  29.244  35.130  1.00  0.00     0.009 A 
ATOM     81  C   UNL A   1      43.502  27.777  36.168  1.00  0.00     0.009 A 
ATOM     82  C   UNL A   1      46.144  28.621  35.851  1.00  0.00     0.001 A 
ATOM     83  C   UNL A   1      44.522  27.168  36.901  1.00  0.00     0.001 A 
ATOM     84  C   UNL A   1      45.843  27.587  36.737  1.00  0.00     0.000 A 
ENDBRANCH  66  79
ENDBRANCH  40  41
ENDBRANCH  32  35
ENDBRANCH  30  31
ENDBRANCH  29  30
ENDBRANCH   1  29
TORSDOF 13
ENDMDL
MODEL 3
REMARK VINA RESULT:     -11.7      2.168      8.669
REMARK SMILES Cn1cc(S(=O)(=O)N2CCC(C(=O)NCCCNC(=O)c3ccc(-c4c5nc(c(-c6ccccc6)c6ccc([nH]6)c(-c6ccccc6)c6nc(c(-c7ccccc7)c7ccc4[nH]7)C=C6)C=C5)cc3)CC2)cc1C(=O)N1CCCCC1
REMARK SMILES IDX 15 1 14 2 12 3 13 4 11 6 8 7 9 8 70 9 10 10 69 11 5 12 6 13
REMARK SMILES IDX 7 14 4 15 1 16 2 17 3 18 72 19 71 20 73 21 74 22 75 23 76 24
REMARK SMILES IDX 80 25 77 26 79 27 78 28 16 29 17 30 18 31 19 32 20 34 21 35
REMARK SMILES IDX 22 36 68 37 23 38 67 39 24 40 25 41 26 42 61 43 27 44 66 45
REMARK SMILES IDX 60 46 62 47 28 48 65 49 59 50 58 51 29 53 51 54 36 55 50 56
REMARK SMILES IDX 37 57 40 58 49 59 63 60 38 61 39 62 48 64 64 65 41 66 30 67
REMARK SMILES IDX 31 68 35 69 32 70 34 71 33 72 52 73 53 74 57 75 54 76 56 77
REMARK SMILES IDX 55 78 42 79 43 80 47 81 44 82 46 83 45 84
REMARK H PARENT 14 5 18 33 62 52 40 63
REMARK Flexibility Score: inf
ROOT
ATOM      1  C   UNL A   1      31.492  30.879  26.254  1.00  0.00     0.117 C 
ENDROOT
BRANCH   1   2
ATOM      2  N   UNL A   1      31.256  30.516  24.866  1.00  0.00    -0.356 N 
ATOM      3  C   UNL A   1      30.982  29.325  24.275  1.00  0.00     0.223 C 
ATOM      4  O   UNL A   1      30.872  29.312  23.047  1.00  0.00    -0.275 OA
ATOM      5  H   UNL A   1      31.306  31.273  24.239  1.00  0.00     0.163 HD
BRANCH   3   6
ATOM      6  C   UNL A   1      30.791  28.048  25.072  1.00  0.00     0.081 C 
ATOM      7  N   UNL A   1      31.313  25.282  25.641  1.00  0.00    -0.198 NA
ATOM      8  C   UNL A   1      29.996  25.662  25.074  1.00  0.00     0.103 C 
ATOM      9  C   UNL A   1      31.921  26.307  26.521  1.00  0.00     0.103 C 
ATOM     10  C   UNL A   1      30.141  26.933  24.252  1.00  0.00     0.030 C 
ATOM     11  C   UNL A   1      32.082  27.622  25.775  1.00  0.00     0.030 C 
BRANCH   7  12
ATOM     12  S   UNL A   1      31.431  23.675  26.205  1.00  0.00     0.244 S 
ATOM     13  O   UNL A   1      30.392  22.885  25.581  1.00  0.00    -0.207 OA
ATOM     14  O   UNL A   1      31.601  23.709  27.642  1.00  0.00    -0.207 OA
BRANCH  12  15
ATOM     15  C   UNL A   1      32.898  22.946  25.640  1.00  0.00     0.101 A 
ATOM     16  C   UNL A   1      35.720  22.823  23.396  1.00  0.00     0.150 C 
ATOM     17  N   UNL A   1      34.744  22.592  24.439  1.00  0.00    -0.345 N 
ATOM     18  C   UNL A   1      33.817  23.542  24.803  1.00  0.00     0.107 A 
ATOM     19  C   UNL A   1      34.472  21.396  25.077  1.00  0.00     0.108 A 
ATOM     20  C   UNL A   1      33.347  21.626  25.860  1.00  0.00     0.055 A 
BRANCH  19  21
ATOM     21  C   UNL A   1      35.046  20.081  24.841  1.00  0.00     0.270 C 
ATOM     22  O   UNL A   1      36.268  19.932  24.876  1.00  0.00    -0.267 OA
ATOM     23  N   UNL A   1      34.208  18.996  24.620  1.00  0.00    -0.337 N 
ATOM     24  C   UNL A   1      34.704  17.663  24.947  1.00  0.00     0.120 C 
ATOM     25  C   UNL A   1      32.895  19.064  23.981  1.00  0.00     0.120 C 
ATOM     26  C   UNL A   1      34.660  16.730  23.746  1.00  0.00     0.022 C 
ATOM     27  C   UNL A   1      32.816  18.124  22.774  1.00  0.00     0.022 C 
ATOM     28  C   UNL A   1      33.262  16.708  23.137  1.00  0.00     0.004 C 
ENDBRANCH  19  21
ENDBRANCH  12  15
ENDBRANCH   7  12
ENDBRANCH   3   6
ENDBRANCH   1   2
BRANCH   1  29
ATOM     29  C   UNL A   1      31.471  32.387  26.462  1.00  0.00     0.042 C 
BRANCH  29  30
ATOM     30  C   UNL A   1      32.681  32.917  27.217  1.00  0.00     0.118 C 
BRANCH  30  31
ATOM     31  N   UNL A   1      32.493  34.284  27.683  1.00  0.00    -0.352 N 
ATOM     32  C   UNL A   1      33.105  34.960  28.710  1.00  0.00     0.251 C 
ATOM     33  H   UNL A   1      31.823  34.805  27.184  1.00  0.00     0.163 HD
ATOM     34  O   UNL A   1      32.668  36.047  29.075  1.00  0.00    -0.269 OA
BRANCH  32  35
ATOM     35  C   UNL A   1      34.278  34.373  29.390  1.00  0.00     0.039 A 
ATOM     36  C   UNL A   1      34.100  33.743  30.625  1.00  0.00     0.014 A 
ATOM     37  C   UNL A   1      35.550  34.456  28.821  1.00  0.00     0.014 A 
ATOM     38  C   UNL A   1      35.186  33.123  31.248  1.00  0.00     0.010 A 
ATOM     39  C   UNL A   1      36.613  33.775  29.404  1.00  0.00     0.010 A 
ATOM     40  C   UNL A   1      36.441  33.100  30.622  1.00  0.00    -0.014 A 
BRANCH  40  41
ATOM     41  C   UNL A   1      37.593  32.374  31.208  1.00  0.00     0.031 A 
ATOM     42  C   UNL A   1      38.253  32.892  32.453  1.00  0.00     0.074 A 
ATOM     43  C   UNL A   1      38.108  31.308  30.564  1.00  0.00     0.049 A 
ATOM     44  N   UNL A   1      39.357  32.491  33.031  1.00  0.00    -0.248 NA
ATOM     45  C   UNL A   1      37.602  34.030  33.122  1.00  0.00     0.031 C 
ATOM     46  C   UNL A   1      37.583  30.724  29.328  1.00  0.00     0.029 A 
ATOM     47  N   UNL A   1      39.205  30.538  30.856  1.00  0.00    -0.354 N 
ATOM     48  C   UNL A   1      39.550  33.347  34.107  1.00  0.00     0.074 A 
ATOM     49  C   UNL A   1      38.467  34.306  34.087  1.00  0.00     0.031 C 
ATOM     50  C   UNL A   1      38.348  29.678  28.976  1.00  0.00     0.029 A 
ATOM     51  C   UNL A   1      39.439  29.545  29.936  1.00  0.00     0.049 A 
ATOM     52  H   UNL A   1      39.770  30.682  31.649  1.00  0.00     0.167 HD
ATOM     53  C   UNL A   1      40.536  33.331  35.035  1.00  0.00     0.031 A 
ATOM     54  C   UNL A   1      40.433  28.641  29.861  1.00  0.00     0.031 A 
ATOM     55  C   UNL A   1      41.595  32.361  35.077  1.00  0.00     0.049 A 
ATOM     56  C   UNL A   1      41.513  28.642  30.904  1.00  0.00     0.074 A 
ATOM     57  C   UNL A   1      42.599  32.221  36.019  1.00  0.00     0.029 A 
ATOM     58  N   UNL A   1      41.784  31.362  34.136  1.00  0.00    -0.354 N 
ATOM     59  N   UNL A   1      41.658  29.432  31.939  1.00  0.00    -0.248 NA
ATOM     60  C   UNL A   1      42.566  27.625  30.766  1.00  0.00     0.031 C 
ATOM     61  C   UNL A   1      43.416  31.154  35.631  1.00  0.00     0.029 A 
ATOM     62  C   UNL A   1      42.900  30.611  34.465  1.00  0.00     0.049 A 
ATOM     63  H   UNL A   1      41.211  31.209  33.350  1.00  0.00     0.167 HD
ATOM     64  C   UNL A   1      42.807  29.000  32.585  1.00  0.00     0.074 A 
ATOM     65  C   UNL A   1      43.315  27.872  31.832  1.00  0.00     0.031 C 
ATOM     66  C   UNL A   1      43.390  29.495  33.703  1.00  0.00     0.031 A 
BRANCH  53  67
ATOM     67  C   UNL A   1      40.512  34.407  36.081  1.00  0.00    -0.014 A 
ATOM     68  C   UNL A   1      39.778  34.248  37.268  1.00  0.00     0.009 A 
ATOM     69  C   UNL A   1      41.250  35.584  35.888  1.00  0.00     0.009 A 
ATOM     70  C   UNL A   1      39.761  35.263  38.227  1.00  0.00     0.001 A 
ATOM     71  C   UNL A   1      41.249  36.586  36.859  1.00  0.00     0.001 A 
ATOM     72  C   UNL A   1      40.497  36.428  38.023  1.00  0.00     0.000 A 
ENDBRANCH  53  67
BRANCH  54  73
ATOM     73  C   UNL A   1      40.452  27.653  28.755  1.00  0.00    -0.014 A 
ATOM     74  C   UNL A   1      41.142  27.937  27.567  1.00  0.00     0.009 A 
ATOM     75  C   UNL A   1      39.788  26.423  28.882  1.00  0.00     0.009 A 
ATOM     76  C   UNL A   1      41.153  27.014  26.519  1.00  0.00     0.001 A 
ATOM     77  C   UNL A   1      39.819  25.494  27.840  1.00  0.00     0.001 A 
ATOM     78  C   UNL A   1      40.495  25.793  26.658  1.00  0.00     0.000 A 
ENDBRANCH  54  73
BRANCH  66  79
ATOM     79  C   UNL A   1      44.630  28.804  34.190  1.00  0.00    -0.014 A 
ATOM     80  C   UNL A   1      45.901  29.234  33.782  1.00  0.00     0.009 A 
ATOM     81  C   UNL A   1      44.522  27.739  35.097  1.00  0.00     0.009 A 
ATOM     82  C   UNL A   1      47.045  28.594  34.262  1.00  0.00     0.001 A 
ATOM     83  C   UNL A   1      45.669  27.114  35.589  1.00  0.00     0.001 A 
ATOM     84  C   UNL A   1      46.929  27.539  35.167  1.00  0.00     0.000 A 
ENDBRANCH  66  79
ENDBRANCH  40  41
ENDBRANCH  32  35
ENDBRANCH  30  31
ENDBRANCH  29  30
ENDBRANCH   1  29
TORSDOF 13
ENDMDL
