MODEL 1
REMARK VINA RESULT:     -12.5      0.000      0.000
REMARK SMILES NS(=O)(=O)c1ccc(-c2cc(Cl)cc3c2O[C@H](C(F)(F)F)C(C(=O)NCCCNC(=O)c2ccc(-c4c5nc(c(-c6ccccc6)c6ccc([nH]6)c(-c6ccccc6)c6nc(c(-c7ccccc7)c7ccc4[nH]7)C=C6)C=C5)cc2)=C3)cc1
REMARK SMILES IDX 26 1 25 2 23 3 24 4 22 6 9 7 10 8 15 9 11 10 14 11 16 12
REMARK SMILES IDX 12 13 13 14 80 15 17 16 8 17 5 18 6 19 82 20 7 21 81 22 2 23
REMARK SMILES IDX 3 24 4 25 1 26 18 29 19 30 20 31 21 32 27 33 28 34 29 35
REMARK SMILES IDX 30 36 31 38 32 39 33 40 79 41 34 42 78 43 35 44 36 45 37 46
REMARK SMILES IDX 72 47 38 48 77 49 71 50 73 51 39 52 76 53 70 54 69 55 40 57
REMARK SMILES IDX 62 58 47 59 61 60 48 61 51 62 60 63 74 64 49 65 50 66 59 68
REMARK SMILES IDX 75 69 52 70 41 71 42 72 46 73 43 74 45 75 44 76 63 77 64 78
REMARK SMILES IDX 68 79 65 80 67 81 66 82 53 83 54 84 58 85 55 86 57 87 56 88
REMARK H PARENT 25 5 1 27 1 28 29 37 73 56 51 67
REMARK Flexibility Score: inf
ROOT
ATOM      1  C   UNL A   1      35.843  21.205  25.361  1.00  0.00     0.118 C 
ENDROOT
BRANCH   1   2
ATOM      2  N   UNL A   1      35.791  22.650  25.455  1.00  0.00    -0.352 N 
ATOM      3  C   UNL A   1      35.020  23.471  24.699  1.00  0.00     0.251 C 
ATOM      4  O   UNL A   1      35.488  24.511  24.248  1.00  0.00    -0.270 OA
ATOM      5  H   UNL A   1      36.369  23.075  26.130  1.00  0.00     0.163 HD
BRANCH   3   6
ATOM      6  C   UNL A   1      33.575  23.117  24.585  1.00  0.00     0.067 C 
ATOM      7  C   UNL A   1      31.997  26.824  24.044  1.00  0.00     0.026 A 
ATOM      8  C   UNL A   1      32.617  27.691  24.980  1.00  0.00     0.033 A 
ATOM      9  C   UNL A   1      32.183  25.448  24.249  1.00  0.00     0.135 A 
ATOM     10  C   UNL A   1      33.233  27.222  26.139  1.00  0.00     0.042 A 
ATOM     11  C   UNL A   1      32.707  24.994  25.484  1.00  0.00     0.019 A 
ATOM     12  O   UNL A   1      31.919  24.495  23.275  1.00  0.00    -0.475 OA
ATOM     13  Cl  UNL A   1      33.977  28.331  27.220  1.00  0.00    -0.084 Cl
ATOM     14  C   UNL A   1      33.218  25.872  26.434  1.00  0.00     0.032 A 
ATOM     15  C   UNL A   1      32.878  23.534  25.661  1.00  0.00     0.025 C 
ATOM     16  C   UNL A   1      32.949  23.417  23.228  1.00  0.00     0.314 C 
BRANCH   7  17
ATOM     17  C   UNL A   1      31.038  27.481  23.119  1.00  0.00    -0.015 A 
ATOM     18  C   UNL A   1      29.226  29.496  22.341  1.00  0.00     0.082 A 
ATOM     19  C   UNL A   1      30.557  29.563  21.925  1.00  0.00     0.022 A 
ATOM     20  C   UNL A   1      28.758  28.367  23.013  1.00  0.00     0.022 A 
ATOM     21  C   UNL A   1      31.452  28.551  22.299  1.00  0.00     0.010 A 
ATOM     22  C   UNL A   1      29.660  27.359  23.385  1.00  0.00     0.010 A 
BRANCH  18  23
ATOM     23  S   UNL A   1      28.200  30.920  22.107  1.00  0.00     0.238 S 
ATOM     24  O   UNL A   1      27.297  31.031  23.232  1.00  0.00    -0.207 OA
ATOM     25  O   UNL A   1      27.742  30.928  20.740  1.00  0.00    -0.207 OA
BRANCH  23  26
ATOM     26  N   UNL A   1      29.236  32.235  22.246  1.00  0.00    -0.225 NA
ATOM     27  H   UNL A   1      29.861  32.094  23.040  1.00  0.00     0.137 HD
ATOM     28  H   UNL A   1      28.691  33.085  22.390  1.00  0.00     0.137 HD
ENDBRANCH  23  26
ENDBRANCH  18  23
ENDBRANCH   7  17
BRANCH  16  29
ATOM     29  C   UNL A   1      32.382  22.101  22.653  1.00  0.00     0.429 C 
ATOM     30  F   UNL A   1      32.886  21.003  23.257  1.00  0.00    -0.167 F 
ATOM     31  F   UNL A   1      31.033  22.056  22.781  1.00  0.00    -0.167 F 
ATOM     32  F   UNL A   1      32.636  21.960  21.325  1.00  0.00    -0.167 F 
ENDBRANCH  16  29
ENDBRANCH   3   6
ENDBRANCH   1   2
BRANCH   1  33
ATOM     33  C   UNL A   1      37.176  20.766  24.751  1.00  0.00     0.042 C 
BRANCH  33  34
ATOM     34  C   UNL A   1      38.392  20.994  25.648  1.00  0.00     0.118 C 
BRANCH  34  35
ATOM     35  N   UNL A   1      39.329  19.882  25.637  1.00  0.00    -0.352 N 
ATOM     36  C   UNL A   1      40.664  19.870  25.966  1.00  0.00     0.251 C 
ATOM     37  H   UNL A   1      38.956  19.016  25.355  1.00  0.00     0.163 HD
ATOM     38  O   UNL A   1      41.341  18.868  25.765  1.00  0.00    -0.269 OA
BRANCH  36  39
ATOM     39  C   UNL A   1      41.289  21.085  26.530  1.00  0.00     0.039 A 
ATOM     40  C   UNL A   1      41.911  21.988  25.666  1.00  0.00     0.014 A 
ATOM     41  C   UNL A   1      41.240  21.344  27.902  1.00  0.00     0.014 A 
ATOM     42  C   UNL A   1      42.419  23.187  26.168  1.00  0.00     0.010 A 
ATOM     43  C   UNL A   1      41.674  22.573  28.388  1.00  0.00     0.010 A 
ATOM     44  C   UNL A   1      42.267  23.509  27.527  1.00  0.00    -0.014 A 
BRANCH  44  45
ATOM     45  C   UNL A   1      42.713  24.820  28.064  1.00  0.00     0.031 A 
ATOM     46  C   UNL A   1      41.707  25.903  28.351  1.00  0.00     0.074 A 
ATOM     47  C   UNL A   1      44.028  25.065  28.226  1.00  0.00     0.049 A 
ATOM     48  N   UNL A   1      41.909  27.132  28.755  1.00  0.00    -0.248 NA
ATOM     49  C   UNL A   1      40.290  25.568  28.130  1.00  0.00     0.031 C 
ATOM     50  C   UNL A   1      45.110  24.118  27.944  1.00  0.00     0.029 A 
ATOM     51  N   UNL A   1      44.681  26.191  28.663  1.00  0.00    -0.354 N 
ATOM     52  C   UNL A   1      40.651  27.721  28.813  1.00  0.00     0.074 A 
ATOM     53  C   UNL A   1      39.699  26.732  28.356  1.00  0.00     0.031 C 
ATOM     54  C   UNL A   1      46.286  24.693  28.241  1.00  0.00     0.029 A 
ATOM     55  C   UNL A   1      46.048  26.059  28.693  1.00  0.00     0.049 A 
ATOM     56  H   UNL A   1      44.213  27.015  28.930  1.00  0.00     0.167 HD
ATOM     57  C   UNL A   1      40.315  28.965  29.229  1.00  0.00     0.031 A 
ATOM     58  C   UNL A   1      47.006  26.943  29.037  1.00  0.00     0.031 A 
ATOM     59  C   UNL A   1      41.259  29.943  29.698  1.00  0.00     0.049 A 
ATOM     60  C   UNL A   1      46.606  28.320  29.487  1.00  0.00     0.074 A 
ATOM     61  C   UNL A   1      41.010  31.209  30.197  1.00  0.00     0.029 A 
ATOM     62  N   UNL A   1      42.633  29.764  29.726  1.00  0.00    -0.354 N 
ATOM     63  N   UNL A   1      45.408  28.837  29.604  1.00  0.00    -0.248 NA
ATOM     64  C   UNL A   1      47.696  29.234  29.864  1.00  0.00     0.031 C 
ATOM     65  C   UNL A   1      42.238  31.818  30.476  1.00  0.00     0.029 A 
ATOM     66  C   UNL A   1      43.248  30.906  30.210  1.00  0.00     0.049 A 
ATOM     67  H   UNL A   1      43.103  28.947  29.441  1.00  0.00     0.167 HD
ATOM     68  C   UNL A   1      45.595  30.122  30.098  1.00  0.00     0.074 A 
ATOM     69  C   UNL A   1      47.022  30.301  30.272  1.00  0.00     0.031 C 
ATOM     70  C   UNL A   1      44.668  31.067  30.383  1.00  0.00     0.031 A 
BRANCH  57  71
ATOM     71  C   UNL A   1      38.859  29.339  29.189  1.00  0.00    -0.014 A 
ATOM     72  C   UNL A   1      38.288  29.923  28.045  1.00  0.00     0.009 A 
ATOM     73  C   UNL A   1      38.037  29.069  30.294  1.00  0.00     0.009 A 
ATOM     74  C   UNL A   1      36.934  30.263  28.027  1.00  0.00     0.001 A 
ATOM     75  C   UNL A   1      36.677  29.382  30.261  1.00  0.00     0.001 A 
ATOM     76  C   UNL A   1      36.129  29.988  29.131  1.00  0.00     0.000 A 
ENDBRANCH  57  71
BRANCH  58  77
ATOM     77  C   UNL A   1      48.439  26.549  28.985  1.00  0.00    -0.014 A 
ATOM     78  C   UNL A   1      49.052  25.942  30.092  1.00  0.00     0.009 A 
ATOM     79  C   UNL A   1      49.206  26.791  27.834  1.00  0.00     0.009 A 
ATOM     80  C   UNL A   1      50.409  25.613  30.059  1.00  0.00     0.001 A 
ATOM     81  C   UNL A   1      50.555  26.433  27.793  1.00  0.00     0.001 A 
ATOM     82  C   UNL A   1      51.159  25.854  28.908  1.00  0.00     0.000 A 
ENDBRANCH  58  77
BRANCH  70  83
ATOM     83  C   UNL A   1      45.160  32.366  30.958  1.00  0.00    -0.014 A 
ATOM     84  C   UNL A   1      45.471  33.459  30.134  1.00  0.00     0.009 A 
ATOM     85  C   UNL A   1      45.270  32.509  32.350  1.00  0.00     0.009 A 
ATOM     86  C   UNL A   1      45.914  34.660  30.694  1.00  0.00     0.001 A 
ATOM     87  C   UNL A   1      45.683  33.719  32.908  1.00  0.00     0.001 A 
ATOM     88  C   UNL A   1      46.013  34.791  32.080  1.00  0.00     0.000 A 
ENDBRANCH  70  83
ENDBRANCH  44  45
ENDBRANCH  36  39
ENDBRANCH  34  35
ENDBRANCH  33  34
ENDBRANCH   1  33
TORSDOF 14
ENDMDL
MODEL 2
REMARK VINA RESULT:     -11.8      0.951      5.806
REMARK SMILES NS(=O)(=O)c1ccc(-c2cc(Cl)cc3c2O[C@H](C(F)(F)F)C(C(=O)NCCCNC(=O)c2ccc(-c4c5nc(c(-c6ccccc6)c6ccc([nH]6)c(-c6ccccc6)c6nc(c(-c7ccccc7)c7ccc4[nH]7)C=C6)C=C5)cc2)=C3)cc1
REMARK SMILES IDX 26 1 25 2 23 3 24 4 22 6 9 7 10 8 15 9 11 10 14 11 16 12
REMARK SMILES IDX 12 13 13 14 80 15 17 16 8 17 5 18 6 19 82 20 7 21 81 22 2 23
REMARK SMILES IDX 3 24 4 25 1 26 18 29 19 30 20 31 21 32 27 33 28 34 29 35
REMARK SMILES IDX 30 36 31 38 32 39 33 40 79 41 34 42 78 43 35 44 36 45 37 46
REMARK SMILES IDX 72 47 38 48 77 49 71 50 73 51 39 52 76 53 70 54 69 55 40 57
REMARK SMILES IDX 62 58 47 59 61 60 48 61 51 62 60 63 74 64 49 65 50 66 59 68
REMARK SMILES IDX 75 69 52 70 41 71 42 72 46 73 43 74 45 75 44 76 63 77 64 78
REMARK SMILES IDX 68 79 65 80 67 81 66 82 53 83 54 84 58 85 55 86 57 87 56 88
REMARK H PARENT 25 5 1 27 1 28 29 37 73 56 51 67
REMARK Flexibility Score: inf
ROOT
ATOM      1  C   UNL A   1      36.879  20.867  25.222  1.00  0.00     0.118 C 
ENDROOT
BRANCH   1   2
ATOM      2  N   UNL A   1      36.730  22.306  25.133  1.00  0.00    -0.352 N 
ATOM      3  C   UNL A   1      35.708  22.966  24.534  1.00  0.00     0.251 C 
ATOM      4  O   UNL A   1      35.936  23.944  23.831  1.00  0.00    -0.270 OA
ATOM      5  H   UNL A   1      37.436  22.854  25.546  1.00  0.00     0.163 HD
BRANCH   3   6
ATOM      6  C   UNL A   1      34.326  22.535  24.897  1.00  0.00     0.067 C 
ATOM      7  C   UNL A   1      32.313  25.992  24.179  1.00  0.00     0.026 A 
ATOM      8  C   UNL A   1      33.075  27.051  24.734  1.00  0.00     0.033 A 
ATOM      9  C   UNL A   1      32.678  24.692  24.562  1.00  0.00     0.135 A 
ATOM     10  C   UNL A   1      34.022  26.845  25.736  1.00  0.00     0.042 A 
ATOM     11  C   UNL A   1      33.556  24.512  25.659  1.00  0.00     0.019 A 
ATOM     12  O   UNL A   1      32.254  23.556  23.886  1.00  0.00    -0.475 OA
ATOM     13  Cl  UNL A   1      34.919  28.176  26.349  1.00  0.00    -0.084 Cl
ATOM     14  C   UNL A   1      34.217  25.580  26.256  1.00  0.00     0.032 A 
ATOM     15  C   UNL A   1      33.907  23.124  26.034  1.00  0.00     0.025 C 
ATOM     16  C   UNL A   1      33.332  22.536  23.741  1.00  0.00     0.314 C 
BRANCH   7  17
ATOM     17  C   UNL A   1      31.082  26.413  23.462  1.00  0.00    -0.015 A 
ATOM     18  C   UNL A   1      28.980  28.186  22.837  1.00  0.00     0.082 A 
ATOM     19  C   UNL A   1      30.125  28.159  22.038  1.00  0.00     0.022 A 
ATOM     20  C   UNL A   1      28.810  27.242  23.849  1.00  0.00     0.022 A 
ATOM     21  C   UNL A   1      31.161  27.266  22.341  1.00  0.00     0.010 A 
ATOM     22  C   UNL A   1      29.852  26.351  24.148  1.00  0.00     0.010 A 
BRANCH  18  23
ATOM     23  S   UNL A   1      27.829  29.513  22.613  1.00  0.00     0.238 S 
ATOM     24  O   UNL A   1      27.797  29.867  21.211  1.00  0.00    -0.207 OA
ATOM     25  O   UNL A   1      28.051  30.484  23.655  1.00  0.00    -0.207 OA
BRANCH  23  26
ATOM     26  N   UNL A   1      26.322  28.842  22.930  1.00  0.00    -0.225 NA
ATOM     27  H   UNL A   1      26.287  28.524  23.898  1.00  0.00     0.137 HD
ATOM     28  H   UNL A   1      26.163  28.050  22.306  1.00  0.00     0.137 HD
ENDBRANCH  23  26
ENDBRANCH  18  23
ENDBRANCH   7  17
BRANCH  16  29
ATOM     29  C   UNL A   1      32.760  21.109  23.591  1.00  0.00     0.429 C 
ATOM     30  F   UNL A   1      32.308  20.851  22.345  1.00  0.00    -0.167 F 
ATOM     31  F   UNL A   1      33.698  20.176  23.888  1.00  0.00    -0.167 F 
ATOM     32  F   UNL A   1      31.719  20.873  24.434  1.00  0.00    -0.167 F 
ENDBRANCH  16  29
ENDBRANCH   3   6
ENDBRANCH   1   2
BRANCH   1  33
ATOM     33  C   UNL A   1      38.334  20.472  24.959  1.00  0.00     0.042 C 
BRANCH  33  34
ATOM     34  C   UNL A   1      39.154  20.188  26.216  1.00  0.00     0.118 C 
BRANCH  34  35
ATOM     35  N   UNL A   1      40.259  19.272  25.986  1.00  0.00    -0.352 N 
ATOM     36  C   UNL A   1      41.611  19.514  26.040  1.00  0.00     0.251 C 
ATOM     37  H   UNL A   1      40.004  18.349  25.758  1.00  0.00     0.163 HD
ATOM     38  O   UNL A   1      42.408  18.655  25.679  1.00  0.00    -0.269 OA
BRANCH  36  39
ATOM     39  C   UNL A   1      42.100  20.830  26.504  1.00  0.00     0.039 A 
ATOM     40  C   UNL A   1      42.466  21.786  25.555  1.00  0.00     0.014 A 
ATOM     41  C   UNL A   1      42.175  21.126  27.867  1.00  0.00     0.014 A 
ATOM     42  C   UNL A   1      42.837  23.066  25.971  1.00  0.00     0.010 A 
ATOM     43  C   UNL A   1      42.465  22.424  28.276  1.00  0.00     0.010 A 
ATOM     44  C   UNL A   1      42.798  23.409  27.333  1.00  0.00    -0.014 A 
BRANCH  44  45
ATOM     45  C   UNL A   1      43.093  24.791  27.790  1.00  0.00     0.031 A 
ATOM     46  C   UNL A   1      44.516  25.226  28.019  1.00  0.00     0.074 A 
ATOM     47  C   UNL A   1      42.080  25.635  28.066  1.00  0.00     0.049 A 
ATOM     48  N   UNL A   1      44.967  26.365  28.482  1.00  0.00    -0.248 NA
ATOM     49  C   UNL A   1      45.568  24.242  27.714  1.00  0.00     0.031 C 
ATOM     50  C   UNL A   1      40.655  25.326  27.928  1.00  0.00     0.029 A 
ATOM     51  N   UNL A   1      42.093  26.928  28.530  1.00  0.00    -0.354 N 
ATOM     52  C   UNL A   1      46.348  26.225  28.545  1.00  0.00     0.074 A 
ATOM     53  C   UNL A   1      46.657  24.877  28.122  1.00  0.00     0.031 C 
ATOM     54  C   UNL A   1      39.934  26.406  28.271  1.00  0.00     0.029 A 
ATOM     55  C   UNL A   1      40.840  27.468  28.693  1.00  0.00     0.049 A 
ATOM     56  H   UNL A   1      42.923  27.421  28.725  1.00  0.00     0.167 HD
ATOM     57  C   UNL A   1      47.279  27.142  28.903  1.00  0.00     0.031 A 
ATOM     58  C   UNL A   1      40.462  28.681  29.142  1.00  0.00     0.031 A 
ATOM     59  C   UNL A   1      46.973  28.487  29.310  1.00  0.00     0.049 A 
ATOM     60  C   UNL A   1      41.514  29.677  29.542  1.00  0.00     0.074 A 
ATOM     61  C   UNL A   1      47.849  29.508  29.633  1.00  0.00     0.029 A 
ATOM     62  N   UNL A   1      45.692  28.999  29.448  1.00  0.00    -0.354 N 
ATOM     63  N   UNL A   1      42.819  29.552  29.528  1.00  0.00    -0.248 NA
ATOM     64  C   UNL A   1      41.039  30.988  30.009  1.00  0.00     0.031 C 
ATOM     65  C   UNL A   1      47.097  30.622  30.020  1.00  0.00     0.029 A 
ATOM     66  C   UNL A   1      45.754  30.313  29.877  1.00  0.00     0.049 A 
ATOM     67  H   UNL A   1      44.862  28.500  29.271  1.00  0.00     0.167 HD
ATOM     68  C   UNL A   1      43.321  30.777  29.951  1.00  0.00     0.074 A 
ATOM     69  C   UNL A   1      42.181  31.634  30.201  1.00  0.00     0.031 C 
ATOM     70  C   UNL A   1      44.611  31.156  30.116  1.00  0.00     0.031 A 
BRANCH  57  71
ATOM     71  C   UNL A   1      48.720  26.714  28.875  1.00  0.00    -0.014 A 
ATOM     72  C   UNL A   1      49.338  26.162  30.010  1.00  0.00     0.009 A 
ATOM     73  C   UNL A   1      49.459  26.827  27.687  1.00  0.00     0.009 A 
ATOM     74  C   UNL A   1      50.678  25.770  29.964  1.00  0.00     0.001 A 
ATOM     75  C   UNL A   1      50.789  26.405  27.637  1.00  0.00     0.001 A 
ATOM     76  C   UNL A   1      51.400  25.887  28.778  1.00  0.00     0.000 A 
ENDBRANCH  57  71
BRANCH  58  77
ATOM     77  C   UNL A   1      39.018  29.029  29.226  1.00  0.00    -0.014 A 
ATOM     78  C   UNL A   1      38.368  29.637  28.141  1.00  0.00     0.009 A 
ATOM     79  C   UNL A   1      38.286  28.769  30.396  1.00  0.00     0.009 A 
ATOM     80  C   UNL A   1      37.024  30.005  28.236  1.00  0.00     0.001 A 
ATOM     81  C   UNL A   1      36.934  29.110  30.477  1.00  0.00     0.001 A 
ATOM     82  C   UNL A   1      36.307  29.737  29.401  1.00  0.00     0.000 A 
ENDBRANCH  58  77
BRANCH  70  83
ATOM     83  C   UNL A   1      44.864  32.574  30.545  1.00  0.00    -0.014 A 
ATOM     84  C   UNL A   1      44.986  32.918  31.900  1.00  0.00     0.009 A 
ATOM     85  C   UNL A   1      45.028  33.573  29.571  1.00  0.00     0.009 A 
ATOM     86  C   UNL A   1      45.236  34.242  32.271  1.00  0.00     0.001 A 
ATOM     87  C   UNL A   1      45.308  34.887  29.944  1.00  0.00     0.001 A 
ATOM     88  C   UNL A   1      45.402  35.223  31.293  1.00  0.00     0.000 A 
ENDBRANCH  70  83
ENDBRANCH  44  45
ENDBRANCH  36  39
ENDBRANCH  34  35
ENDBRANCH  33  34
ENDBRANCH   1  33
TORSDOF 14
ENDMDL
MODEL 3
REMARK VINA RESULT:     -11.7      5.744      8.047
REMARK SMILES NS(=O)(=O)c1ccc(-c2cc(Cl)cc3c2O[C@H](C(F)(F)F)C(C(=O)NCCCNC(=O)c2ccc(-c4c5nc(c(-c6ccccc6)c6ccc([nH]6)c(-c6ccccc6)c6nc(c(-c7ccccc7)c7ccc4[nH]7)C=C6)C=C5)cc2)=C3)cc1
REMARK SMILES IDX 26 1 25 2 23 3 24 4 22 6 9 7 10 8 15 9 11 10 14 11 16 12
REMARK SMILES IDX 12 13 13 14 80 15 17 16 8 17 5 18 6 19 82 20 7 21 81 22 2 23
REMARK SMILES IDX 3 24 4 25 1 26 18 29 19 30 20 31 21 32 27 33 28 34 29 35
REMARK SMILES IDX 30 36 31 38 32 39 33 40 79 41 34 42 78 43 35 44 36 45 37 46
REMARK SMILES IDX 72 47 38 48 77 49 71 50 73 51 39 52 76 53 70 54 69 55 40 57
REMARK SMILES IDX 62 58 47 59 61 60 48 61 51 62 60 63 74 64 49 65 50 66 59 68
REMARK SMILES IDX 75 69 52 70 41 71 42 72 46 73 43 74 45 75 44 76 63 77 64 78
REMARK SMILES IDX 68 79 65 80 67 81 66 82 53 83 54 84 58 85 55 86 57 87 56 88
REMARK H PARENT 25 5 1 27 1 28 29 37 73 56 51 67
REMARK Flexibility Score: inf
ROOT
ATOM      1  C   UNL A   1      40.112  26.743  28.344  1.00  0.00     0.118 C 
ENDROOT
BRANCH   1   2
ATOM      2  N   UNL A   1      38.872  27.195  28.941  1.00  0.00    -0.352 N 
ATOM      3  C   UNL A   1      38.713  28.301  29.710  1.00  0.00     0.251 C 
ATOM      4  O   UNL A   1      38.026  28.252  30.723  1.00  0.00    -0.270 OA
ATOM      5  H   UNL A   1      38.070  26.649  28.772  1.00  0.00     0.163 HD
BRANCH   3   6
ATOM      6  C   UNL A   1      39.282  29.574  29.179  1.00  0.00     0.067 C 
ATOM      7  C   UNL A   1      35.965  31.920  29.309  1.00  0.00     0.026 A 
ATOM      8  C   UNL A   1      34.885  31.159  28.792  1.00  0.00     0.033 A 
ATOM      9  C   UNL A   1      37.253  31.406  29.090  1.00  0.00     0.135 A 
ATOM     10  C   UNL A   1      35.078  30.054  27.964  1.00  0.00     0.042 A 
ATOM     11  C   UNL A   1      37.432  30.357  28.155  1.00  0.00     0.019 A 
ATOM     12  O   UNL A   1      38.372  31.847  29.782  1.00  0.00    -0.475 OA
ATOM     13  Cl  UNL A   1      33.722  29.171  27.389  1.00  0.00    -0.084 Cl
ATOM     14  C   UNL A   1      36.355  29.690  27.581  1.00  0.00     0.032 A 
ATOM     15  C   UNL A   1      38.808  29.852  27.948  1.00  0.00     0.025 C 
ATOM     16  C   UNL A   1      39.286  30.734  30.168  1.00  0.00     0.314 C 
BRANCH   7  17
ATOM     17  C   UNL A   1      35.601  33.275  29.797  1.00  0.00    -0.015 A 
ATOM     18  C   UNL A   1      33.961  35.150  31.118  1.00  0.00     0.082 A 
ATOM     19  C   UNL A   1      35.033  34.567  31.797  1.00  0.00     0.022 A 
ATOM     20  C   UNL A   1      33.787  34.920  29.753  1.00  0.00     0.022 A 
ATOM     21  C   UNL A   1      35.857  33.649  31.133  1.00  0.00     0.010 A 
ATOM     22  C   UNL A   1      34.615  33.998  29.096  1.00  0.00     0.010 A 
BRANCH  18  23
ATOM     23  S   UNL A   1      32.772  36.070  32.055  1.00  0.00     0.238 S 
ATOM     24  O   UNL A   1      31.705  35.178  32.453  1.00  0.00    -0.207 OA
ATOM     25  O   UNL A   1      32.530  37.318  31.375  1.00  0.00    -0.207 OA
BRANCH  23  26
ATOM     26  N   UNL A   1      33.560  36.476  33.482  1.00  0.00    -0.225 NA
ATOM     27  H   UNL A   1      33.731  35.632  34.029  1.00  0.00     0.137 HD
ATOM     28  H   UNL A   1      32.978  37.118  34.021  1.00  0.00     0.137 HD
ENDBRANCH  23  26
ENDBRANCH  18  23
ENDBRANCH   7  17
BRANCH  16  29
ATOM     29  C   UNL A   1      40.743  31.218  30.343  1.00  0.00     0.429 C 
ATOM     30  F   UNL A   1      40.877  32.553  30.184  1.00  0.00    -0.167 F 
ATOM     31  F   UNL A   1      41.215  30.903  31.575  1.00  0.00    -0.167 F 
ATOM     32  F   UNL A   1      41.595  30.637  29.456  1.00  0.00    -0.167 F 
ENDBRANCH  16  29
ENDBRANCH   3   6
ENDBRANCH   1   2
BRANCH   1  33
ATOM     33  C   UNL A   1      40.075  25.227  28.139  1.00  0.00     0.042 C 
BRANCH  33  34
ATOM     34  C   UNL A   1      39.898  24.786  26.687  1.00  0.00     0.118 C 
BRANCH  34  35
ATOM     35  N   UNL A   1      40.643  23.580  26.360  1.00  0.00    -0.352 N 
ATOM     36  C   UNL A   1      41.979  23.440  26.068  1.00  0.00     0.251 C 
ATOM     37  H   UNL A   1      40.118  22.749  26.344  1.00  0.00     0.163 HD
ATOM     38  O   UNL A   1      42.417  22.363  25.676  1.00  0.00    -0.269 OA
BRANCH  36  39
ATOM     39  C   UNL A   1      42.882  24.604  26.195  1.00  0.00     0.039 A 
ATOM     40  C   UNL A   1      43.575  24.791  27.392  1.00  0.00     0.014 A 
ATOM     41  C   UNL A   1      43.062  25.490  25.131  1.00  0.00     0.014 A 
ATOM     42  C   UNL A   1      44.506  25.827  27.497  1.00  0.00     0.010 A 
ATOM     43  C   UNL A   1      44.047  26.470  25.208  1.00  0.00     0.010 A 
ATOM     44  C   UNL A   1      44.781  26.649  26.391  1.00  0.00    -0.014 A 
BRANCH  44  45
ATOM     45  C   UNL A   1      45.836  27.692  26.448  1.00  0.00     0.031 A 
ATOM     46  C   UNL A   1      45.463  29.138  26.639  1.00  0.00     0.074 A 
ATOM     47  C   UNL A   1      47.126  27.351  26.258  1.00  0.00     0.049 A 
ATOM     48  N   UNL A   1      46.234  30.196  26.646  1.00  0.00    -0.248 NA
ATOM     49  C   UNL A   1      44.032  29.436  26.821  1.00  0.00     0.031 C 
ATOM     50  C   UNL A   1      47.619  25.993  26.019  1.00  0.00     0.029 A 
ATOM     51  N   UNL A   1      48.261  28.124  26.227  1.00  0.00    -0.354 N 
ATOM     52  C   UNL A   1      45.381  31.282  26.807  1.00  0.00     0.074 A 
ATOM     53  C   UNL A   1      44.033  30.760  26.844  1.00  0.00     0.031 C 
ATOM     54  C   UNL A   1      48.956  26.025  25.896  1.00  0.00     0.029 A 
ATOM     55  C   UNL A   1      49.411  27.407  26.003  1.00  0.00     0.049 A 
ATOM     56  H   UNL A   1      48.250  29.100  26.356  1.00  0.00     0.167 HD
ATOM     57  C   UNL A   1      45.692  32.594  26.934  1.00  0.00     0.031 A 
ATOM     58  C   UNL A   1      50.689  27.816  25.886  1.00  0.00     0.031 A 
ATOM     59  C   UNL A   1      47.034  33.112  26.912  1.00  0.00     0.049 A 
ATOM     60  C   UNL A   1      51.007  29.279  26.023  1.00  0.00     0.074 A 
ATOM     61  C   UNL A   1      47.455  34.418  27.093  1.00  0.00     0.029 A 
ATOM     62  N   UNL A   1      48.171  32.350  26.697  1.00  0.00    -0.354 N 
ATOM     63  N   UNL A   1      50.196  30.284  26.246  1.00  0.00    -0.248 NA
ATOM     64  C   UNL A   1      52.422  29.662  25.901  1.00  0.00     0.031 C 
ATOM     65  C   UNL A   1      48.844  34.454  26.933  1.00  0.00     0.029 A 
ATOM     66  C   UNL A   1      49.293  33.161  26.715  1.00  0.00     0.049 A 
ATOM     67  H   UNL A   1      48.180  31.377  26.550  1.00  0.00     0.167 HD
ATOM     68  C   UNL A   1      51.003  31.412  26.325  1.00  0.00     0.074 A 
ATOM     69  C   UNL A   1      52.368  30.965  26.140  1.00  0.00     0.031 C 
ATOM     70  C   UNL A   1      50.645  32.701  26.534  1.00  0.00     0.031 A 
BRANCH  57  71
ATOM     71  C   UNL A   1      44.555  33.563  27.102  1.00  0.00    -0.014 A 
ATOM     72  C   UNL A   1      44.018  33.844  28.370  1.00  0.00     0.009 A 
ATOM     73  C   UNL A   1      44.039  34.236  25.983  1.00  0.00     0.009 A 
ATOM     74  C   UNL A   1      42.962  34.748  28.506  1.00  0.00     0.001 A 
ATOM     75  C   UNL A   1      43.004  35.161  26.127  1.00  0.00     0.001 A 
ATOM     76  C   UNL A   1      42.459  35.408  27.386  1.00  0.00     0.000 A 
ENDBRANCH  57  71
BRANCH  58  77
ATOM     77  C   UNL A   1      51.771  26.826  25.641  1.00  0.00    -0.014 A 
ATOM     78  C   UNL A   1      52.407  26.184  26.716  1.00  0.00     0.009 A 
ATOM     79  C   UNL A   1      52.184  26.527  24.333  1.00  0.00     0.009 A 
ATOM     80  C   UNL A   1      53.454  25.288  26.486  1.00  0.00     0.001 A 
ATOM     81  C   UNL A   1      53.210  25.607  24.106  1.00  0.00     0.001 A 
ATOM     82  C   UNL A   1      53.851  24.996  25.182  1.00  0.00     0.000 A 
ENDBRANCH  58  77
BRANCH  70  83
ATOM     83  C   UNL A   1      51.748  33.719  26.621  1.00  0.00    -0.014 A 
ATOM     84  C   UNL A   1      52.219  34.387  25.479  1.00  0.00     0.009 A 
ATOM     85  C   UNL A   1      52.292  34.046  27.874  1.00  0.00     0.009 A 
ATOM     86  C   UNL A   1      53.236  35.339  25.589  1.00  0.00     0.001 A 
ATOM     87  C   UNL A   1      53.285  35.019  27.983  1.00  0.00     0.001 A 
ATOM     88  C   UNL A   1      53.763  35.658  26.841  1.00  0.00     0.000 A 
ENDBRANCH  70  83
ENDBRANCH  44  45
ENDBRANCH  36  39
ENDBRANCH  34  35
ENDBRANCH  33  34
ENDBRANCH   1  33
TORSDOF 14
ENDMDL
