MODEL 1
REMARK VINA RESULT:     -13.1      0.000      0.000
REMARK SMILES O=C(NCCCNC(=O)c1ccc([C@@H]2CC(O)=Nc3c2ncn3-c2cccc(Cl)c2)cc1)c1ccc(-c2c3nc(c(-c4ccccc4)c4ccc([nH]4)c(-c4ccccc4)c4nc(c(-c5ccccc5)c5ccc2[nH]5)C=C4)C=C3)cc1
REMARK SMILES IDX 5 1 4 2 3 3 1 4 2 5 33 7 34 8 80 9 35 10 79 11 36 12 37 13
REMARK SMILES IDX 38 14 73 15 39 16 78 17 72 18 74 19 40 20 77 21 71 22 70 23
REMARK SMILES IDX 41 25 63 26 48 27 62 28 49 29 52 30 61 31 75 32 50 33 51 34
REMARK SMILES IDX 60 36 76 37 53 38 42 39 43 40 47 41 44 42 46 43 45 44 64 45
REMARK SMILES IDX 65 46 69 47 66 48 68 49 67 50 54 51 55 52 59 53 56 54 58 55
REMARK SMILES IDX 57 56 6 57 7 58 8 59 9 61 10 62 11 63 32 64 12 65 31 66
REMARK SMILES IDX 13 67 14 68 15 69 20 70 16 71 19 72 21 73 18 74 23 75 22 76
REMARK SMILES IDX 17 77 24 79 25 80 30 81 26 82 28 83 27 84 29 85
REMARK H PARENT 3 6 74 24 52 35 7 60 17 78
REMARK Flexibility Score: inf
ROOT
ATOM      1  C   UNL A   1      31.915  29.413  25.843  1.00  0.00     0.042 C 
ENDROOT
BRANCH   1   2
ATOM      2  C   UNL A   1      33.343  29.752  26.257  1.00  0.00     0.118 C 
BRANCH   2   3
ATOM      3  N   UNL A   1      33.472  30.820  27.228  1.00  0.00    -0.352 N 
ATOM      4  O   UNL A   1      34.266  32.421  28.521  1.00  0.00    -0.269 OA
ATOM      5  C   UNL A   1      34.504  31.357  27.942  1.00  0.00     0.251 C 
ATOM      6  H   UNL A   1      32.613  31.262  27.417  1.00  0.00     0.163 HD
BRANCH   5   7
ATOM      7  C   UNL A   1      35.836  30.725  28.143  1.00  0.00     0.039 A 
ATOM      8  C   UNL A   1      36.169  29.395  27.887  1.00  0.00     0.014 A 
ATOM      9  C   UNL A   1      36.827  31.577  28.668  1.00  0.00     0.014 A 
ATOM     10  C   UNL A   1      37.434  28.908  28.231  1.00  0.00     0.010 A 
ATOM     11  C   UNL A   1      38.086  31.101  29.008  1.00  0.00     0.010 A 
ATOM     12  C   UNL A   1      38.379  29.755  28.819  1.00  0.00    -0.014 A 
BRANCH  12  13
ATOM     13  C   UNL A   1      39.739  29.265  29.041  1.00  0.00     0.031 A 
ATOM     14  C   UNL A   1      40.048  28.956  30.466  1.00  0.00     0.074 A 
ATOM     15  C   UNL A   1      40.595  28.927  28.053  1.00  0.00     0.049 A 
ATOM     16  N   UNL A   1      40.947  29.499  31.220  1.00  0.00    -0.248 NA
ATOM     17  C   UNL A   1      39.179  27.997  31.169  1.00  0.00     0.031 C 
ATOM     18  C   UNL A   1      40.328  28.883  26.613  1.00  0.00     0.029 A 
ATOM     19  N   UNL A   1      41.865  28.432  28.142  1.00  0.00    -0.354 N 
ATOM     20  C   UNL A   1      40.883  28.829  32.440  1.00  0.00     0.074 A 
ATOM     21  C   UNL A   1      39.687  28.027  32.402  1.00  0.00     0.031 C 
ATOM     22  C   UNL A   1      41.307  28.178  25.998  1.00  0.00     0.029 A 
ATOM     23  C   UNL A   1      42.330  27.836  26.973  1.00  0.00     0.049 A 
ATOM     24  H   UNL A   1      42.406  28.493  28.962  1.00  0.00     0.167 HD
ATOM     25  C   UNL A   1      41.944  28.794  33.293  1.00  0.00     0.031 A 
ATOM     26  C   UNL A   1      43.442  27.070  26.827  1.00  0.00     0.031 A 
ATOM     27  C   UNL A   1      42.914  29.810  32.981  1.00  0.00     0.049 A 
ATOM     28  C   UNL A   1      44.329  27.335  27.980  1.00  0.00     0.074 A 
ATOM     29  C   UNL A   1      42.907  31.188  32.911  1.00  0.00     0.029 A 
ATOM     30  N   UNL A   1      44.045  29.405  32.314  1.00  0.00    -0.354 N 
ATOM     31  N   UNL A   1      44.952  28.461  28.164  1.00  0.00    -0.248 NA
ATOM     32  C   UNL A   1      44.192  26.493  29.157  1.00  0.00     0.031 C 
ATOM     33  C   UNL A   1      43.750  31.503  31.806  1.00  0.00     0.029 A 
ATOM     34  C   UNL A   1      44.276  30.308  31.313  1.00  0.00     0.049 A 
ATOM     35  H   UNL A   1      44.590  28.612  32.520  1.00  0.00     0.167 HD
ATOM     36  C   UNL A   1      44.868  28.682  29.529  1.00  0.00     0.074 A 
ATOM     37  C   UNL A   1      44.489  27.391  30.100  1.00  0.00     0.031 C 
ATOM     38  C   UNL A   1      44.835  29.952  30.030  1.00  0.00     0.031 A 
BRANCH  25  39
ATOM     39  C   UNL A   1      42.317  27.574  34.105  1.00  0.00    -0.014 A 
ATOM     40  C   UNL A   1      43.405  26.789  33.677  1.00  0.00     0.009 A 
ATOM     41  C   UNL A   1      41.466  26.998  35.067  1.00  0.00     0.009 A 
ATOM     42  C   UNL A   1      43.566  25.467  34.108  1.00  0.00     0.001 A 
ATOM     43  C   UNL A   1      41.650  25.694  35.533  1.00  0.00     0.001 A 
ATOM     44  C   UNL A   1      42.680  24.916  35.026  1.00  0.00     0.000 A 
ENDBRANCH  25  39
BRANCH  26  45
ATOM     45  C   UNL A   1      43.702  25.935  25.911  1.00  0.00    -0.014 A 
ATOM     46  C   UNL A   1      45.004  25.651  25.461  1.00  0.00     0.009 A 
ATOM     47  C   UNL A   1      42.716  24.951  25.712  1.00  0.00     0.009 A 
ATOM     48  C   UNL A   1      45.315  24.415  24.876  1.00  0.00     0.001 A 
ATOM     49  C   UNL A   1      43.027  23.719  25.125  1.00  0.00     0.001 A 
ATOM     50  C   UNL A   1      44.329  23.443  24.722  1.00  0.00     0.000 A 
ENDBRANCH  26  45
BRANCH  38  51
ATOM     51  C   UNL A   1      45.161  31.091  29.098  1.00  0.00    -0.014 A 
ATOM     52  C   UNL A   1      44.215  31.696  28.251  1.00  0.00     0.009 A 
ATOM     53  C   UNL A   1      46.438  31.664  29.186  1.00  0.00     0.009 A 
ATOM     54  C   UNL A   1      44.552  32.820  27.490  1.00  0.00     0.001 A 
ATOM     55  C   UNL A   1      46.767  32.800  28.446  1.00  0.00     0.001 A 
ATOM     56  C   UNL A   1      45.827  33.374  27.593  1.00  0.00     0.000 A 
ENDBRANCH  38  51
ENDBRANCH  12  13
ENDBRANCH   5   7
ENDBRANCH   2   3
ENDBRANCH   1   2
BRANCH   1  57
ATOM     57  C   UNL A   1      31.788  28.586  24.566  1.00  0.00     0.118 C 
BRANCH  57  58
ATOM     58  N   UNL A   1      30.426  28.156  24.292  1.00  0.00    -0.352 N 
ATOM     59  C   UNL A   1      29.934  26.923  23.935  1.00  0.00     0.251 C 
ATOM     60  H   UNL A   1      29.747  28.863  24.377  1.00  0.00     0.163 HD
ATOM     61  O   UNL A   1      28.758  26.809  23.617  1.00  0.00    -0.269 OA
BRANCH  59  62
ATOM     62  C   UNL A   1      30.815  25.734  23.912  1.00  0.00     0.039 A 
ATOM     63  C   UNL A   1      31.100  25.096  25.120  1.00  0.00     0.014 A 
ATOM     64  C   UNL A   1      31.400  25.277  22.728  1.00  0.00     0.014 A 
ATOM     65  C   UNL A   1      31.906  23.956  25.132  1.00  0.00     0.005 A 
ATOM     66  C   UNL A   1      32.190  24.127  22.737  1.00  0.00     0.005 A 
ATOM     67  C   UNL A   1      32.446  23.444  23.938  1.00  0.00    -0.038 A 
BRANCH  67  68
ATOM     68  C   UNL A   1      33.317  22.201  23.992  1.00  0.00     0.081 C 
ATOM     69  C   UNL A   1      32.940  21.264  25.160  1.00  0.00     0.111 C 
ATOM     70  C   UNL A   1      34.724  22.668  24.101  1.00  0.00     0.093 A 
ATOM     71  C   UNL A   1      33.958  21.194  26.287  1.00  0.00     0.188 C 
ATOM     72  C   UNL A   1      35.518  22.317  25.169  1.00  0.00     0.164 A 
ATOM     73  N   UNL A   1      35.381  23.493  23.230  1.00  0.00    -0.238 NA
ATOM     74  N   UNL A   1      35.177  21.630  26.285  1.00  0.00    -0.198 NA
ATOM     75  N   UNL A   1      36.731  22.942  24.943  1.00  0.00    -0.283 N 
ATOM     76  C   UNL A   1      36.564  23.677  23.785  1.00  0.00     0.206 A 
BRANCH  71  77
ATOM     77  O   UNL A   1      33.514  20.557  27.388  1.00  0.00    -0.496 OA
ATOM     78  H   UNL A   1      33.242  19.661  27.333  1.00  0.00     0.294 HD
ENDBRANCH  71  77
BRANCH  75  79
ATOM     79  C   UNL A   1      37.908  22.850  25.721  1.00  0.00     0.050 A 
ATOM     80  C   UNL A   1      38.629  21.650  25.771  1.00  0.00     0.027 A 
ATOM     81  C   UNL A   1      38.343  23.966  26.450  1.00  0.00     0.047 A 
ATOM     82  C   UNL A   1      39.805  21.583  26.522  1.00  0.00     0.004 A 
ATOM     83  C   UNL A   1      39.488  23.868  27.235  1.00  0.00     0.043 A 
ATOM     84  C   UNL A   1      40.229  22.688  27.263  1.00  0.00     0.020 A 
ATOM     85  Cl  UNL A   1      39.980  25.207  28.199  1.00  0.00    -0.084 Cl
ENDBRANCH  75  79
ENDBRANCH  67  68
ENDBRANCH  59  62
ENDBRANCH  57  58
ENDBRANCH   1  57
TORSDOF 13
ENDMDL
MODEL 2
REMARK VINA RESULT:     -13.1      2.387      7.773
REMARK SMILES O=C(NCCCNC(=O)c1ccc([C@@H]2CC(O)=Nc3c2ncn3-c2cccc(Cl)c2)cc1)c1ccc(-c2c3nc(c(-c4ccccc4)c4ccc([nH]4)c(-c4ccccc4)c4nc(c(-c5ccccc5)c5ccc2[nH]5)C=C4)C=C3)cc1
REMARK SMILES IDX 5 1 4 2 3 3 1 4 2 5 33 7 34 8 80 9 35 10 79 11 36 12 37 13
REMARK SMILES IDX 38 14 73 15 39 16 78 17 72 18 74 19 40 20 77 21 71 22 70 23
REMARK SMILES IDX 41 25 63 26 48 27 62 28 49 29 52 30 61 31 75 32 50 33 51 34
REMARK SMILES IDX 60 36 76 37 53 38 42 39 43 40 47 41 44 42 46 43 45 44 64 45
REMARK SMILES IDX 65 46 69 47 66 48 68 49 67 50 54 51 55 52 59 53 56 54 58 55
REMARK SMILES IDX 57 56 6 57 7 58 8 59 9 61 10 62 11 63 32 64 12 65 31 66
REMARK SMILES IDX 13 67 14 68 15 69 20 70 16 71 19 72 21 73 18 74 23 75 22 76
REMARK SMILES IDX 17 77 24 79 25 80 30 81 26 82 28 83 27 84 29 85
REMARK H PARENT 3 6 74 24 52 35 7 60 17 78
REMARK Flexibility Score: inf
ROOT
ATOM      1  C   UNL A   1      36.713  21.162  25.027  1.00  0.00     0.042 C 
ENDROOT
BRANCH   1   2
ATOM      2  C   UNL A   1      37.601  22.238  25.644  1.00  0.00     0.118 C 
BRANCH   2   3
ATOM      3  N   UNL A   1      39.010  21.907  25.729  1.00  0.00    -0.352 N 
ATOM      4  O   UNL A   1      41.103  21.721  26.396  1.00  0.00    -0.269 OA
ATOM      5  C   UNL A   1      40.081  22.412  26.408  1.00  0.00     0.251 C 
ATOM      6  H   UNL A   1      39.250  21.139  25.163  1.00  0.00     0.163 HD
BRANCH   5   7
ATOM      7  C   UNL A   1      40.134  23.742  27.071  1.00  0.00     0.039 A 
ATOM      8  C   UNL A   1      39.151  24.732  27.024  1.00  0.00     0.014 A 
ATOM      9  C   UNL A   1      41.318  24.005  27.788  1.00  0.00     0.014 A 
ATOM     10  C   UNL A   1      39.386  25.983  27.602  1.00  0.00     0.010 A 
ATOM     11  C   UNL A   1      41.554  25.243  28.369  1.00  0.00     0.010 A 
ATOM     12  C   UNL A   1      40.599  26.246  28.247  1.00  0.00    -0.014 A 
BRANCH  12  13
ATOM     13  C   UNL A   1      40.768  27.508  28.966  1.00  0.00     0.031 A 
ATOM     14  C   UNL A   1      41.774  28.424  28.357  1.00  0.00     0.074 A 
ATOM     15  C   UNL A   1      39.969  27.921  29.973  1.00  0.00     0.049 A 
ATOM     16  N   UNL A   1      42.868  28.866  28.885  1.00  0.00    -0.248 NA
ATOM     17  C   UNL A   1      41.592  28.811  26.948  1.00  0.00     0.031 C 
ATOM     18  C   UNL A   1      38.754  27.275  30.476  1.00  0.00     0.029 A 
ATOM     19  N   UNL A   1      40.012  29.084  30.689  1.00  0.00    -0.354 N 
ATOM     20  C   UNL A   1      43.426  29.732  27.947  1.00  0.00     0.074 A 
ATOM     21  C   UNL A   1      42.685  29.542  26.726  1.00  0.00     0.031 C 
ATOM     22  C   UNL A   1      38.062  28.153  31.237  1.00  0.00     0.029 A 
ATOM     23  C   UNL A   1      38.840  29.372  31.383  1.00  0.00     0.049 A 
ATOM     24  H   UNL A   1      40.805  29.668  30.713  1.00  0.00     0.167 HD
ATOM     25  C   UNL A   1      44.296  30.715  28.310  1.00  0.00     0.031 A 
ATOM     26  C   UNL A   1      38.509  30.544  31.986  1.00  0.00     0.031 A 
ATOM     27  C   UNL A   1      44.839  30.490  29.623  1.00  0.00     0.049 A 
ATOM     28  C   UNL A   1      39.753  31.316  32.189  1.00  0.00     0.074 A 
ATOM     29  C   UNL A   1      45.583  29.494  30.221  1.00  0.00     0.029 A 
ATOM     30  N   UNL A   1      44.311  31.234  30.650  1.00  0.00    -0.354 N 
ATOM     31  N   UNL A   1      40.680  30.976  33.034  1.00  0.00    -0.248 NA
ATOM     32  C   UNL A   1      40.163  32.242  31.146  1.00  0.00     0.031 C 
ATOM     33  C   UNL A   1      45.069  29.400  31.547  1.00  0.00     0.029 A 
ATOM     34  C   UNL A   1      44.094  30.387  31.701  1.00  0.00     0.049 A 
ATOM     35  H   UNL A   1      44.124  32.201  30.633  1.00  0.00     0.167 HD
ATOM     36  C   UNL A   1      41.867  31.256  32.376  1.00  0.00     0.074 A 
ATOM     37  C   UNL A   1      41.489  32.132  31.268  1.00  0.00     0.031 C 
ATOM     38  C   UNL A   1      42.992  30.524  32.624  1.00  0.00     0.031 A 
BRANCH  25  39
ATOM     39  C   UNL A   1      44.303  32.091  27.681  1.00  0.00    -0.014 A 
ATOM     40  C   UNL A   1      43.775  33.168  28.418  1.00  0.00     0.009 A 
ATOM     41  C   UNL A   1      44.508  32.309  26.306  1.00  0.00     0.009 A 
ATOM     42  C   UNL A   1      43.376  34.355  27.792  1.00  0.00     0.001 A 
ATOM     43  C   UNL A   1      44.152  33.509  25.685  1.00  0.00     0.001 A 
ATOM     44  C   UNL A   1      43.554  34.520  26.422  1.00  0.00     0.000 A 
ENDBRANCH  25  39
BRANCH  26  45
ATOM     45  C   UNL A   1      37.181  31.174  32.174  1.00  0.00    -0.014 A 
ATOM     46  C   UNL A   1      36.849  31.812  33.382  1.00  0.00     0.009 A 
ATOM     47  C   UNL A   1      36.348  31.406  31.065  1.00  0.00     0.009 A 
ATOM     48  C   UNL A   1      35.751  32.683  33.464  1.00  0.00     0.001 A 
ATOM     49  C   UNL A   1      35.251  32.271  31.148  1.00  0.00     0.001 A 
ATOM     50  C   UNL A   1      34.962  32.923  32.342  1.00  0.00     0.000 A 
ENDBRANCH  26  45
BRANCH  38  51
ATOM     51  C   UNL A   1      42.987  29.594  33.810  1.00  0.00    -0.014 A 
ATOM     52  C   UNL A   1      43.534  29.929  35.061  1.00  0.00     0.009 A 
ATOM     53  C   UNL A   1      42.275  28.391  33.695  1.00  0.00     0.009 A 
ATOM     54  C   UNL A   1      43.401  29.065  36.153  1.00  0.00     0.001 A 
ATOM     55  C   UNL A   1      42.122  27.541  34.791  1.00  0.00     0.001 A 
ATOM     56  C   UNL A   1      42.690  27.875  36.018  1.00  0.00     0.000 A 
ENDBRANCH  38  51
ENDBRANCH  12  13
ENDBRANCH   5   7
ENDBRANCH   2   3
ENDBRANCH   1   2
BRANCH   1  57
ATOM     57  C   UNL A   1      35.385  20.928  25.743  1.00  0.00     0.118 C 
BRANCH  57  58
ATOM     58  N   UNL A   1      34.490  20.040  25.018  1.00  0.00    -0.352 N 
ATOM     59  C   UNL A   1      33.351  20.312  24.298  1.00  0.00     0.251 C 
ATOM     60  H   UNL A   1      34.741  19.089  25.049  1.00  0.00     0.163 HD
ATOM     61  O   UNL A   1      32.666  19.390  23.876  1.00  0.00    -0.269 OA
BRANCH  59  62
ATOM     62  C   UNL A   1      32.933  21.709  24.044  1.00  0.00     0.039 A 
ATOM     63  C   UNL A   1      31.777  22.180  24.670  1.00  0.00     0.014 A 
ATOM     64  C   UNL A   1      33.634  22.535  23.161  1.00  0.00     0.014 A 
ATOM     65  C   UNL A   1      31.368  23.500  24.473  1.00  0.00     0.005 A 
ATOM     66  C   UNL A   1      33.236  23.860  22.979  1.00  0.00     0.005 A 
ATOM     67  C   UNL A   1      32.103  24.364  23.640  1.00  0.00    -0.038 A 
BRANCH  67  68
ATOM     68  C   UNL A   1      31.627  25.795  23.452  1.00  0.00     0.081 C 
ATOM     69  C   UNL A   1      32.296  26.488  22.246  1.00  0.00     0.111 C 
ATOM     70  C   UNL A   1      31.917  26.512  24.722  1.00  0.00     0.093 A 
ATOM     71  C   UNL A   1      33.286  27.586  22.599  1.00  0.00     0.188 C 
ATOM     72  C   UNL A   1      32.736  27.617  24.753  1.00  0.00     0.164 A 
ATOM     73  N   UNL A   1      31.469  26.177  25.971  1.00  0.00    -0.238 NA
ATOM     74  N   UNL A   1      33.463  28.158  23.746  1.00  0.00    -0.198 NA
ATOM     75  N   UNL A   1      32.788  27.996  26.082  1.00  0.00    -0.283 N 
ATOM     76  C   UNL A   1      32.046  27.055  26.769  1.00  0.00     0.206 A 
BRANCH  71  77
ATOM     77  O   UNL A   1      34.021  28.019  21.555  1.00  0.00    -0.496 OA
ATOM     78  H   UNL A   1      33.613  28.164  20.723  1.00  0.00     0.294 HD
ENDBRANCH  71  77
BRANCH  75  79
ATOM     79  C   UNL A   1      33.451  29.115  26.636  1.00  0.00     0.050 A 
ATOM     80  C   UNL A   1      32.766  30.323  26.816  1.00  0.00     0.027 A 
ATOM     81  C   UNL A   1      34.802  29.010  26.994  1.00  0.00     0.047 A 
ATOM     82  C   UNL A   1      33.427  31.412  27.390  1.00  0.00     0.004 A 
ATOM     83  C   UNL A   1      35.462  30.118  27.516  1.00  0.00     0.043 A 
ATOM     84  C   UNL A   1      34.778  31.314  27.730  1.00  0.00     0.020 A 
ATOM     85  Cl  UNL A   1      37.142  30.020  27.879  1.00  0.00    -0.084 Cl
ENDBRANCH  75  79
ENDBRANCH  67  68
ENDBRANCH  59  62
ENDBRANCH  57  58
ENDBRANCH   1  57
TORSDOF 13
ENDMDL
MODEL 3
REMARK VINA RESULT:     -12.8      2.005      3.066
REMARK SMILES O=C(NCCCNC(=O)c1ccc([C@@H]2CC(O)=Nc3c2ncn3-c2cccc(Cl)c2)cc1)c1ccc(-c2c3nc(c(-c4ccccc4)c4ccc([nH]4)c(-c4ccccc4)c4nc(c(-c5ccccc5)c5ccc2[nH]5)C=C4)C=C3)cc1
REMARK SMILES IDX 5 1 4 2 3 3 1 4 2 5 33 7 34 8 80 9 35 10 79 11 36 12 37 13
REMARK SMILES IDX 38 14 73 15 39 16 78 17 72 18 74 19 40 20 77 21 71 22 70 23
REMARK SMILES IDX 41 25 63 26 48 27 62 28 49 29 52 30 61 31 75 32 50 33 51 34
REMARK SMILES IDX 60 36 76 37 53 38 42 39 43 40 47 41 44 42 46 43 45 44 64 45
REMARK SMILES IDX 65 46 69 47 66 48 68 49 67 50 54 51 55 52 59 53 56 54 58 55
REMARK SMILES IDX 57 56 6 57 7 58 8 59 9 61 10 62 11 63 32 64 12 65 31 66
REMARK SMILES IDX 13 67 14 68 15 69 20 70 16 71 19 72 21 73 18 74 23 75 22 76
REMARK SMILES IDX 17 77 24 79 25 80 30 81 26 82 28 83 27 84 29 85
REMARK H PARENT 3 6 74 24 52 35 7 60 17 78
REMARK Flexibility Score: inf
ROOT
ATOM      1  C   UNL A   1      32.897  30.054  25.781  1.00  0.00     0.042 C 
ENDROOT
BRANCH   1   2
ATOM      2  C   UNL A   1      33.347  30.046  27.238  1.00  0.00     0.118 C 
BRANCH   2   3
ATOM      3  N   UNL A   1      33.818  31.318  27.750  1.00  0.00    -0.352 N 
ATOM      4  O   UNL A   1      35.071  33.058  28.265  1.00  0.00    -0.269 OA
ATOM      5  C   UNL A   1      35.042  31.844  28.052  1.00  0.00     0.251 C 
ATOM      6  H   UNL A   1      33.084  31.950  27.919  1.00  0.00     0.163 HD
BRANCH   5   7
ATOM      7  C   UNL A   1      36.297  31.064  28.227  1.00  0.00     0.039 A 
ATOM      8  C   UNL A   1      36.480  29.712  27.937  1.00  0.00     0.014 A 
ATOM      9  C   UNL A   1      37.379  31.789  28.765  1.00  0.00     0.014 A 
ATOM     10  C   UNL A   1      37.685  29.081  28.261  1.00  0.00     0.010 A 
ATOM     11  C   UNL A   1      38.580  31.169  29.083  1.00  0.00     0.010 A 
ATOM     12  C   UNL A   1      38.721  29.804  28.861  1.00  0.00    -0.014 A 
BRANCH  12  13
ATOM     13  C   UNL A   1      40.020  29.162  29.061  1.00  0.00     0.031 A 
ATOM     14  C   UNL A   1      40.346  28.881  30.487  1.00  0.00     0.074 A 
ATOM     15  C   UNL A   1      40.789  28.678  28.062  1.00  0.00     0.049 A 
ATOM     16  N   UNL A   1      41.332  29.343  31.183  1.00  0.00    -0.248 NA
ATOM     17  C   UNL A   1      39.396  28.067  31.265  1.00  0.00     0.031 C 
ATOM     18  C   UNL A   1      40.463  28.603  26.636  1.00  0.00     0.029 A 
ATOM     19  N   UNL A   1      41.994  28.036  28.131  1.00  0.00    -0.354 N 
ATOM     20  C   UNL A   1      41.236  28.741  32.436  1.00  0.00     0.074 A 
ATOM     21  C   UNL A   1      39.951  28.090  32.477  1.00  0.00     0.031 C 
ATOM     22  C   UNL A   1      41.325  27.758  26.023  1.00  0.00     0.029 A 
ATOM     23  C   UNL A   1      42.337  27.337  26.978  1.00  0.00     0.049 A 
ATOM     24  H   UNL A   1      42.570  28.068  28.929  1.00  0.00     0.167 HD
ATOM     25  C   UNL A   1      42.318  28.615  33.253  1.00  0.00     0.031 A 
ATOM     26  C   UNL A   1      43.343  26.435  26.832  1.00  0.00     0.031 A 
ATOM     27  C   UNL A   1      43.390  29.490  32.860  1.00  0.00     0.049 A 
ATOM     28  C   UNL A   1      44.299  26.641  27.940  1.00  0.00     0.074 A 
ATOM     29  C   UNL A   1      43.546  30.854  32.723  1.00  0.00     0.029 A 
ATOM     30  N   UNL A   1      44.437  28.921  32.176  1.00  0.00    -0.354 N 
ATOM     31  N   UNL A   1      45.060  27.690  28.049  1.00  0.00    -0.248 NA
ATOM     32  C   UNL A   1      44.108  25.875  29.161  1.00  0.00     0.031 C 
ATOM     33  C   UNL A   1      44.377  31.014  31.576  1.00  0.00     0.029 A 
ATOM     34  C   UNL A   1      44.736  29.743  31.124  1.00  0.00     0.049 A 
ATOM     35  H   UNL A   1      44.890  28.076  32.402  1.00  0.00     0.167 HD
ATOM     36  C   UNL A   1      45.057  27.980  29.403  1.00  0.00     0.074 A 
ATOM     37  C   UNL A   1      44.548  26.771  30.049  1.00  0.00     0.031 C 
ATOM     38  C   UNL A   1      45.197  29.265  29.842  1.00  0.00     0.031 A 
BRANCH  25  39
ATOM     39  C   UNL A   1      42.573  27.395  34.111  1.00  0.00    -0.014 A 
ATOM     40  C   UNL A   1      43.552  26.474  33.694  1.00  0.00     0.009 A 
ATOM     41  C   UNL A   1      41.689  26.962  35.117  1.00  0.00     0.009 A 
ATOM     42  C   UNL A   1      43.575  25.161  34.180  1.00  0.00     0.001 A 
ATOM     43  C   UNL A   1      41.738  25.666  35.638  1.00  0.00     0.001 A 
ATOM     44  C   UNL A   1      42.658  24.755  35.143  1.00  0.00     0.000 A 
ENDBRANCH  25  39
BRANCH  26  45
ATOM     45  C   UNL A   1      43.427  25.237  25.965  1.00  0.00    -0.014 A 
ATOM     46  C   UNL A   1      44.569  24.991  25.181  1.00  0.00     0.009 A 
ATOM     47  C   UNL A   1      42.511  24.182  26.129  1.00  0.00     0.009 A 
ATOM     48  C   UNL A   1      44.805  23.727  24.622  1.00  0.00     0.001 A 
ATOM     49  C   UNL A   1      42.745  22.922  25.568  1.00  0.00     0.001 A 
ATOM     50  C   UNL A   1      43.900  22.688  24.828  1.00  0.00     0.000 A 
ENDBRANCH  26  45
BRANCH  38  51
ATOM     51  C   UNL A   1      45.620  30.313  28.846  1.00  0.00    -0.014 A 
ATOM     52  C   UNL A   1      46.961  30.675  28.622  1.00  0.00     0.009 A 
ATOM     53  C   UNL A   1      44.636  30.851  28.003  1.00  0.00     0.009 A 
ATOM     54  C   UNL A   1      47.298  31.576  27.606  1.00  0.00     0.001 A 
ATOM     55  C   UNL A   1      44.975  31.731  26.975  1.00  0.00     0.001 A 
ATOM     56  C   UNL A   1      46.305  32.098  26.781  1.00  0.00     0.000 A 
ENDBRANCH  38  51
ENDBRANCH  12  13
ENDBRANCH   5   7
ENDBRANCH   2   3
ENDBRANCH   1   2
BRANCH   1  57
ATOM     57  C   UNL A   1      31.388  30.147  25.568  1.00  0.00     0.118 C 
BRANCH  57  58
ATOM     58  N   UNL A   1      30.968  29.732  24.238  1.00  0.00    -0.352 N 
ATOM     59  C   UNL A   1      31.271  28.601  23.519  1.00  0.00     0.251 C 
ATOM     60  H   UNL A   1      30.370  30.365  23.780  1.00  0.00     0.163 HD
ATOM     61  O   UNL A   1      30.915  28.512  22.352  1.00  0.00    -0.269 OA
BRANCH  59  62
ATOM     62  C   UNL A   1      32.039  27.495  24.134  1.00  0.00     0.039 A 
ATOM     63  C   UNL A   1      31.509  26.869  25.264  1.00  0.00     0.014 A 
ATOM     64  C   UNL A   1      33.289  27.108  23.644  1.00  0.00     0.014 A 
ATOM     65  C   UNL A   1      32.194  25.805  25.855  1.00  0.00     0.005 A 
ATOM     66  C   UNL A   1      33.964  26.033  24.223  1.00  0.00     0.005 A 
ATOM     67  C   UNL A   1      33.421  25.359  25.330  1.00  0.00    -0.038 A 
BRANCH  67  68
ATOM     68  C   UNL A   1      34.135  24.198  26.000  1.00  0.00     0.081 C 
ATOM     69  C   UNL A   1      35.618  24.093  25.582  1.00  0.00     0.111 C 
ATOM     70  C   UNL A   1      33.380  22.968  25.642  1.00  0.00     0.093 A 
ATOM     71  C   UNL A   1      35.958  22.904  24.699  1.00  0.00     0.188 C 
ATOM     72  C   UNL A   1      33.979  21.927  24.969  1.00  0.00     0.164 A 
ATOM     73  N   UNL A   1      32.056  22.723  25.881  1.00  0.00    -0.238 NA
ATOM     74  N   UNL A   1      35.228  21.865  24.449  1.00  0.00    -0.198 NA
ATOM     75  N   UNL A   1      32.982  20.984  24.794  1.00  0.00    -0.283 N 
ATOM     76  C   UNL A   1      31.836  21.549  25.320  1.00  0.00     0.206 A 
BRANCH  71  77
ATOM     77  O   UNL A   1      37.194  22.954  24.163  1.00  0.00    -0.496 OA
ATOM     78  H   UNL A   1      37.789  22.241  24.290  1.00  0.00     0.294 HD
ENDBRANCH  71  77
BRANCH  75  79
ATOM     79  C   UNL A   1      33.098  19.702  24.209  1.00  0.00     0.050 A 
ATOM     80  C   UNL A   1      32.305  19.354  23.109  1.00  0.00     0.027 A 
ATOM     81  C   UNL A   1      34.006  18.779  24.746  1.00  0.00     0.047 A 
ATOM     82  C   UNL A   1      32.452  18.094  22.525  1.00  0.00     0.004 A 
ATOM     83  C   UNL A   1      34.104  17.508  24.186  1.00  0.00     0.043 A 
ATOM     84  C   UNL A   1      33.343  17.166  23.069  1.00  0.00     0.020 A 
ATOM     85  Cl  UNL A   1      35.154  16.342  24.892  1.00  0.00    -0.084 Cl
ENDBRANCH  75  79
ENDBRANCH  67  68
ENDBRANCH  59  62
ENDBRANCH  57  58
ENDBRANCH   1  57
TORSDOF 13
ENDMDL
