MODEL 1
REMARK VINA RESULT:     -11.7      0.000      0.000
REMARK SMILES O=C(NCCCNC(=O)[C@H]1CC[C@H]2CCCC[C@@H]2[N@H+]1[C@@H]1CCCSC1)c1ccc(-c2c3nc(c(-c4ccccc4)c4ccc([nH]4)c(-c4ccccc4)c4nc(c(-c5ccccc5)c5ccc2[nH]5)C=C4)C=C3)cc1
REMARK SMILES IDX 4 1 3 2 1 3 2 4 26 6 27 7 73 8 28 9 72 10 29 11 30 12 31 13
REMARK SMILES IDX 66 14 32 15 71 16 65 17 67 18 33 19 70 20 64 21 63 22 34 24
REMARK SMILES IDX 56 25 41 26 55 27 42 28 45 29 54 30 68 31 43 32 44 33 53 35
REMARK SMILES IDX 69 36 46 37 35 38 36 39 40 40 37 41 39 42 38 43 57 44 58 45
REMARK SMILES IDX 62 46 59 47 61 48 60 49 47 50 48 51 52 52 49 53 51 54 50 55
REMARK SMILES IDX 5 56 6 57 7 58 8 59 9 61 10 62 11 63 19 64 12 65 18 66 13 68
REMARK SMILES IDX 17 69 14 70 16 71 15 72 20 73 21 74 25 75 22 76 24 77 23 78
REMARK H PARENT 3 5 67 23 45 34 7 60 19 67
REMARK Flexibility Score: inf
ROOT
ATOM      1  C   UNL A   1      32.622  32.653  27.236  1.00  0.00     0.118 C 
ENDROOT
BRANCH   1   2
ATOM      2  N   UNL A   1      32.498  34.053  27.626  1.00  0.00    -0.352 N 
ATOM      3  O   UNL A   1      32.625  35.806  29.030  1.00  0.00    -0.269 OA
ATOM      4  C   UNL A   1      33.096  34.733  28.653  1.00  0.00     0.251 C 
ATOM      5  H   UNL A   1      31.893  34.591  27.065  1.00  0.00     0.163 HD
BRANCH   4   6
ATOM      6  C   UNL A   1      34.303  34.191  29.309  1.00  0.00     0.039 A 
ATOM      7  C   UNL A   1      34.192  33.377  30.440  1.00  0.00     0.014 A 
ATOM      8  C   UNL A   1      35.557  34.435  28.743  1.00  0.00     0.014 A 
ATOM      9  C   UNL A   1      35.337  32.911  31.077  1.00  0.00     0.010 A 
ATOM     10  C   UNL A   1      36.700  33.892  29.331  1.00  0.00     0.010 A 
ATOM     11  C   UNL A   1      36.599  33.141  30.513  1.00  0.00    -0.014 A 
BRANCH  11  12
ATOM     12  C   UNL A   1      37.802  32.531  31.127  1.00  0.00     0.031 A 
ATOM     13  C   UNL A   1      38.460  31.337  30.503  1.00  0.00     0.074 A 
ATOM     14  C   UNL A   1      38.285  33.056  32.269  1.00  0.00     0.049 A 
ATOM     15  N   UNL A   1      39.470  30.630  30.944  1.00  0.00    -0.248 NA
ATOM     16  C   UNL A   1      37.908  30.867  29.223  1.00  0.00     0.031 C 
ATOM     17  C   UNL A   1      37.729  34.221  32.964  1.00  0.00     0.029 A 
ATOM     18  N   UNL A   1      39.347  32.680  33.048  1.00  0.00    -0.354 N 
ATOM     19  C   UNL A   1      39.654  29.616  30.015  1.00  0.00     0.074 A 
ATOM     20  C   UNL A   1      38.643  29.788  28.994  1.00  0.00     0.031 C 
ATOM     21  C   UNL A   1      38.470  34.478  34.051  1.00  0.00     0.029 A 
ATOM     22  C   UNL A   1      39.505  33.459  34.168  1.00  0.00     0.049 A 
ATOM     23  H   UNL A   1      39.939  31.926  32.826  1.00  0.00     0.167 HD
ATOM     24  C   UNL A   1      40.582  28.629  30.017  1.00  0.00     0.031 A 
ATOM     25  C   UNL A   1      40.364  33.348  35.197  1.00  0.00     0.031 A 
ATOM     26  C   UNL A   1      41.582  28.464  31.039  1.00  0.00     0.049 A 
ATOM     27  C   UNL A   1      41.358  32.226  35.197  1.00  0.00     0.074 A 
ATOM     28  C   UNL A   1      42.586  27.515  31.119  1.00  0.00     0.029 A 
ATOM     29  N   UNL A   1      41.699  29.267  32.164  1.00  0.00    -0.354 N 
ATOM     30  N   UNL A   1      41.534  31.285  34.301  1.00  0.00    -0.248 NA
ATOM     31  C   UNL A   1      42.269  32.149  36.345  1.00  0.00     0.031 C 
ATOM     32  C   UNL A   1      43.279  27.713  32.317  1.00  0.00     0.029 A 
ATOM     33  C   UNL A   1      42.743  28.821  32.956  1.00  0.00     0.049 A 
ATOM     34  H   UNL A   1      41.125  30.041  32.369  1.00  0.00     0.167 HD
ATOM     35  C   UNL A   1      42.590  30.516  34.765  1.00  0.00     0.074 A 
ATOM     36  C   UNL A   1      43.019  31.104  36.019  1.00  0.00     0.031 C 
ATOM     37  C   UNL A   1      43.154  29.421  34.200  1.00  0.00     0.031 A 
BRANCH  24  38
ATOM     38  C   UNL A   1      40.522  27.623  28.900  1.00  0.00    -0.014 A 
ATOM     39  C   UNL A   1      41.253  27.799  27.714  1.00  0.00     0.009 A 
ATOM     40  C   UNL A   1      39.728  26.475  29.043  1.00  0.00     0.009 A 
ATOM     41  C   UNL A   1      41.154  26.865  26.678  1.00  0.00     0.001 A 
ATOM     42  C   UNL A   1      39.654  25.530  28.019  1.00  0.00     0.001 A 
ATOM     43  C   UNL A   1      40.357  25.732  26.833  1.00  0.00     0.000 A 
ENDBRANCH  24  38
BRANCH  25  44
ATOM     44  C   UNL A   1      40.289  34.325  36.313  1.00  0.00    -0.014 A 
ATOM     45  C   UNL A   1      41.035  35.511  36.276  1.00  0.00     0.009 A 
ATOM     46  C   UNL A   1      39.420  34.100  37.394  1.00  0.00     0.009 A 
ATOM     47  C   UNL A   1      40.914  36.452  37.302  1.00  0.00     0.001 A 
ATOM     48  C   UNL A   1      39.283  35.054  38.403  1.00  0.00     0.001 A 
ATOM     49  C   UNL A   1      40.033  36.226  38.358  1.00  0.00     0.000 A 
ENDBRANCH  25  44
BRANCH  37  50
ATOM     50  C   UNL A   1      44.328  28.812  34.912  1.00  0.00    -0.014 A 
ATOM     51  C   UNL A   1      44.159  27.768  35.834  1.00  0.00     0.009 A 
ATOM     52  C   UNL A   1      45.625  29.251  34.605  1.00  0.00     0.009 A 
ATOM     53  C   UNL A   1      45.269  27.191  36.453  1.00  0.00     0.001 A 
ATOM     54  C   UNL A   1      46.733  28.656  35.207  1.00  0.00     0.001 A 
ATOM     55  C   UNL A   1      46.555  27.630  36.134  1.00  0.00     0.000 A 
ENDBRANCH  37  50
ENDBRANCH  11  12
ENDBRANCH   4   6
ENDBRANCH   1   2
BRANCH   1  56
ATOM     56  C   UNL A   1      31.376  32.170  26.503  1.00  0.00     0.042 C 
BRANCH  56  57
ATOM     57  C   UNL A   1      31.427  30.674  26.223  1.00  0.00     0.118 C 
BRANCH  57  58
ATOM     58  N   UNL A   1      32.366  30.374  25.165  1.00  0.00    -0.351 N 
ATOM     59  C   UNL A   1      32.801  29.209  24.615  1.00  0.00     0.278 C 
ATOM     60  H   UNL A   1      32.773  31.175  24.761  1.00  0.00     0.163 HD
ATOM     61  O   UNL A   1      33.661  29.333  23.732  1.00  0.00    -0.268 OA
BRANCH  59  62
ATOM     62  C   UNL A   1      32.244  27.807  24.971  1.00  0.00     0.274 C 
ATOM     63  C   UNL A   1      31.996  27.475  26.456  1.00  0.00     0.076 C 
ATOM     64  N   UNL A   1      31.221  27.333  24.003  1.00  0.00    -0.319 N 
ATOM     65  C   UNL A   1      31.128  26.226  26.657  1.00  0.00     0.016 C 
ATOM     66  C   UNL A   1      30.848  25.919  24.173  1.00  0.00     0.188 C 
ATOM     67  H   UNL A   1      31.737  27.365  23.124  1.00  0.00     0.349 HD
ATOM     68  C   UNL A   1      31.343  25.274  25.489  1.00  0.00     0.048 C 
ATOM     69  C   UNL A   1      31.377  25.052  23.016  1.00  0.00     0.065 C 
ATOM     70  C   UNL A   1      30.644  23.923  25.661  1.00  0.00     0.010 C 
ATOM     71  C   UNL A   1      30.825  23.626  23.126  1.00  0.00     0.006 C 
ATOM     72  C   UNL A   1      31.028  22.993  24.507  1.00  0.00     0.001 C 
BRANCH  64  73
ATOM     73  C   UNL A   1      30.117  28.254  23.647  1.00  0.00     0.194 C 
ATOM     74  C   UNL A   1      28.740  27.574  23.501  1.00  0.00     0.067 C 
ATOM     75  C   UNL A   1      30.454  29.057  22.366  1.00  0.00     0.134 C 
ATOM     76  C   UNL A   1      27.608  28.589  23.350  1.00  0.00     0.017 C 
ATOM     77  S   UNL A   1      29.237  30.374  22.011  1.00  0.00    -0.156 SA
ATOM     78  C   UNL A   1      27.715  29.386  22.060  1.00  0.00     0.070 C 
ENDBRANCH  64  73
ENDBRANCH  59  62
ENDBRANCH  57  58
ENDBRANCH  56  57
ENDBRANCH   1  56
TORSDOF 11
ENDMDL
MODEL 2
REMARK VINA RESULT:     -11.5      0.954      6.049
REMARK SMILES O=C(NCCCNC(=O)[C@H]1CC[C@H]2CCCC[C@@H]2[N@H+]1[C@@H]1CCCSC1)c1ccc(-c2c3nc(c(-c4ccccc4)c4ccc([nH]4)c(-c4ccccc4)c4nc(c(-c5ccccc5)c5ccc2[nH]5)C=C4)C=C3)cc1
REMARK SMILES IDX 4 1 3 2 1 3 2 4 26 6 27 7 73 8 28 9 72 10 29 11 30 12 31 13
REMARK SMILES IDX 66 14 32 15 71 16 65 17 67 18 33 19 70 20 64 21 63 22 34 24
REMARK SMILES IDX 56 25 41 26 55 27 42 28 45 29 54 30 68 31 43 32 44 33 53 35
REMARK SMILES IDX 69 36 46 37 35 38 36 39 40 40 37 41 39 42 38 43 57 44 58 45
REMARK SMILES IDX 62 46 59 47 61 48 60 49 47 50 48 51 52 52 49 53 51 54 50 55
REMARK SMILES IDX 5 56 6 57 7 58 8 59 9 61 10 62 11 63 19 64 12 65 18 66 13 68
REMARK SMILES IDX 17 69 14 70 16 71 15 72 20 73 21 74 25 75 22 76 24 77 23 78
REMARK H PARENT 3 5 67 23 45 34 7 60 19 67
REMARK Flexibility Score: inf
ROOT
ATOM      1  C   UNL A   1      32.723  32.659  27.070  1.00  0.00     0.118 C 
ENDROOT
BRANCH   1   2
ATOM      2  N   UNL A   1      32.617  34.004  27.625  1.00  0.00    -0.352 N 
ATOM      3  O   UNL A   1      32.797  35.581  29.219  1.00  0.00    -0.269 OA
ATOM      4  C   UNL A   1      33.252  34.559  28.705  1.00  0.00     0.251 C 
ATOM      5  H   UNL A   1      31.996  34.604  27.152  1.00  0.00     0.163 HD
BRANCH   4   6
ATOM      6  C   UNL A   1      34.477  33.944  29.252  1.00  0.00     0.039 A 
ATOM      7  C   UNL A   1      34.404  33.040  30.316  1.00  0.00     0.014 A 
ATOM      8  C   UNL A   1      35.707  34.214  28.646  1.00  0.00     0.014 A 
ATOM      9  C   UNL A   1      35.568  32.503  30.853  1.00  0.00     0.010 A 
ATOM     10  C   UNL A   1      36.866  33.605  29.130  1.00  0.00     0.010 A 
ATOM     11  C   UNL A   1      36.806  32.759  30.248  1.00  0.00    -0.014 A 
BRANCH  11  12
ATOM     12  C   UNL A   1      38.024  32.079  30.748  1.00  0.00     0.031 A 
ATOM     13  C   UNL A   1      38.825  32.666  31.872  1.00  0.00     0.074 A 
ATOM     14  C   UNL A   1      38.414  30.930  30.162  1.00  0.00     0.049 A 
ATOM     15  N   UNL A   1      39.955  32.249  32.382  1.00  0.00    -0.248 NA
ATOM     16  C   UNL A   1      38.294  33.887  32.497  1.00  0.00     0.031 C 
ATOM     17  C   UNL A   1      37.710  30.263  29.063  1.00  0.00     0.029 A 
ATOM     18  N   UNL A   1      39.494  30.124  30.404  1.00  0.00    -0.354 N 
ATOM     19  C   UNL A   1      40.287  33.170  33.366  1.00  0.00     0.074 A 
ATOM     20  C   UNL A   1      39.248  34.177  33.371  1.00  0.00     0.031 C 
ATOM     21  C   UNL A   1      38.363  29.137  28.744  1.00  0.00     0.029 A 
ATOM     22  C   UNL A   1      39.565  29.040  29.564  1.00  0.00     0.049 A 
ATOM     23  H   UNL A   1      40.155  30.304  31.111  1.00  0.00     0.167 HD
ATOM     24  C   UNL A   1      41.364  33.175  34.188  1.00  0.00     0.031 A 
ATOM     25  C   UNL A   1      40.509  28.090  29.437  1.00  0.00     0.031 A 
ATOM     26  C   UNL A   1      42.394  32.170  34.173  1.00  0.00     0.049 A 
ATOM     27  C   UNL A   1      41.710  28.136  30.332  1.00  0.00     0.074 A 
ATOM     28  C   UNL A   1      43.512  32.067  34.984  1.00  0.00     0.029 A 
ATOM     29  N   UNL A   1      42.435  31.096  33.297  1.00  0.00    -0.354 N 
ATOM     30  N   UNL A   1      42.002  29.002  31.272  1.00  0.00    -0.248 NA
ATOM     31  C   UNL A   1      42.712  27.078  30.150  1.00  0.00     0.031 C 
ATOM     32  C   UNL A   1      44.254  30.958  34.565  1.00  0.00     0.029 A 
ATOM     33  C   UNL A   1      43.570  30.338  33.530  1.00  0.00     0.049 A 
ATOM     34  H   UNL A   1      41.757  30.900  32.610  1.00  0.00     0.167 HD
ATOM     35  C   UNL A   1      43.209  28.583  31.810  1.00  0.00     0.074 A 
ATOM     36  C   UNL A   1      43.592  27.381  31.096  1.00  0.00     0.031 C 
ATOM     37  C   UNL A   1      43.933  29.144  32.809  1.00  0.00     0.031 A 
BRANCH  24  38
ATOM     38  C   UNL A   1      41.502  34.333  35.138  1.00  0.00    -0.014 A 
ATOM     39  C   UNL A   1      42.203  35.496  34.781  1.00  0.00     0.009 A 
ATOM     40  C   UNL A   1      40.909  34.262  36.408  1.00  0.00     0.009 A 
ATOM     41  C   UNL A   1      42.343  36.545  35.694  1.00  0.00     0.001 A 
ATOM     42  C   UNL A   1      41.027  35.322  37.307  1.00  0.00     0.001 A 
ATOM     43  C   UNL A   1      41.754  36.458  36.954  1.00  0.00     0.000 A 
ENDBRANCH  24  38
BRANCH  25  44
ATOM     44  C   UNL A   1      40.345  27.038  28.403  1.00  0.00    -0.014 A 
ATOM     45  C   UNL A   1      40.928  27.182  27.137  1.00  0.00     0.009 A 
ATOM     46  C   UNL A   1      39.652  25.853  28.703  1.00  0.00     0.009 A 
ATOM     47  C   UNL A   1      40.819  26.161  26.190  1.00  0.00     0.001 A 
ATOM     48  C   UNL A   1      39.567  24.824  27.763  1.00  0.00     0.001 A 
ATOM     49  C   UNL A   1      40.147  24.981  26.506  1.00  0.00     0.000 A 
ENDBRANCH  25  44
BRANCH  37  50
ATOM     50  C   UNL A   1      45.193  28.440  33.220  1.00  0.00    -0.014 A 
ATOM     51  C   UNL A   1      46.434  28.779  32.659  1.00  0.00     0.009 A 
ATOM     52  C   UNL A   1      45.141  27.463  34.227  1.00  0.00     0.009 A 
ATOM     53  C   UNL A   1      47.597  28.137  33.086  1.00  0.00     0.001 A 
ATOM     54  C   UNL A   1      46.309  26.841  34.668  1.00  0.00     0.001 A 
ATOM     55  C   UNL A   1      47.535  27.174  34.095  1.00  0.00     0.000 A 
ENDBRANCH  37  50
ENDBRANCH  11  12
ENDBRANCH   4   6
ENDBRANCH   1   2
BRANCH   1  56
ATOM     56  C   UNL A   1      31.384  32.180  26.521  1.00  0.00     0.042 C 
BRANCH  56  57
ATOM     57  C   UNL A   1      31.401  30.690  26.206  1.00  0.00     0.118 C 
BRANCH  57  58
ATOM     58  N   UNL A   1      32.345  30.392  25.151  1.00  0.00    -0.351 N 
ATOM     59  C   UNL A   1      32.787  29.228  24.607  1.00  0.00     0.278 C 
ATOM     60  H   UNL A   1      32.749  31.194  24.747  1.00  0.00     0.163 HD
ATOM     61  O   UNL A   1      33.650  29.354  23.726  1.00  0.00    -0.268 OA
BRANCH  59  62
ATOM     62  C   UNL A   1      32.236  27.824  24.965  1.00  0.00     0.274 C 
ATOM     63  C   UNL A   1      31.992  27.492  26.450  1.00  0.00     0.076 C 
ATOM     64  N   UNL A   1      31.213  27.345  23.999  1.00  0.00    -0.319 N 
ATOM     65  C   UNL A   1      31.128  26.240  26.654  1.00  0.00     0.016 C 
ATOM     66  C   UNL A   1      30.846  25.930  24.171  1.00  0.00     0.188 C 
ATOM     67  H   UNL A   1      31.729  27.378  23.119  1.00  0.00     0.349 HD
ATOM     68  C   UNL A   1      31.345  25.288  25.487  1.00  0.00     0.048 C 
ATOM     69  C   UNL A   1      31.376  25.064  23.014  1.00  0.00     0.065 C 
ATOM     70  C   UNL A   1      30.652  23.934  25.661  1.00  0.00     0.010 C 
ATOM     71  C   UNL A   1      30.830  23.636  23.127  1.00  0.00     0.006 C 
ATOM     72  C   UNL A   1      31.037  23.005  24.507  1.00  0.00     0.001 C 
BRANCH  64  73
ATOM     73  C   UNL A   1      30.106  28.262  23.644  1.00  0.00     0.194 C 
ATOM     74  C   UNL A   1      28.731  27.576  23.501  1.00  0.00     0.067 C 
ATOM     75  C   UNL A   1      30.437  29.064  22.361  1.00  0.00     0.134 C 
ATOM     76  C   UNL A   1      27.595  28.587  23.351  1.00  0.00     0.017 C 
ATOM     77  S   UNL A   1      29.216  30.376  22.006  1.00  0.00    -0.156 SA
ATOM     78  C   UNL A   1      27.697  29.383  22.059  1.00  0.00     0.070 C 
ENDBRANCH  64  73
ENDBRANCH  59  62
ENDBRANCH  57  58
ENDBRANCH  56  57
ENDBRANCH   1  56
TORSDOF 11
ENDMDL
MODEL 3
REMARK VINA RESULT:     -11.5      5.788     10.483
REMARK SMILES O=C(NCCCNC(=O)[C@H]1CC[C@H]2CCCC[C@@H]2[N@H+]1[C@@H]1CCCSC1)c1ccc(-c2c3nc(c(-c4ccccc4)c4ccc([nH]4)c(-c4ccccc4)c4nc(c(-c5ccccc5)c5ccc2[nH]5)C=C4)C=C3)cc1
REMARK SMILES IDX 4 1 3 2 1 3 2 4 26 6 27 7 73 8 28 9 72 10 29 11 30 12 31 13
REMARK SMILES IDX 66 14 32 15 71 16 65 17 67 18 33 19 70 20 64 21 63 22 34 24
REMARK SMILES IDX 56 25 41 26 55 27 42 28 45 29 54 30 68 31 43 32 44 33 53 35
REMARK SMILES IDX 69 36 46 37 35 38 36 39 40 40 37 41 39 42 38 43 57 44 58 45
REMARK SMILES IDX 62 46 59 47 61 48 60 49 47 50 48 51 52 52 49 53 51 54 50 55
REMARK SMILES IDX 5 56 6 57 7 58 8 59 9 61 10 62 11 63 19 64 12 65 18 66 13 68
REMARK SMILES IDX 17 69 14 70 16 71 15 72 20 73 21 74 25 75 22 76 24 77 23 78
REMARK H PARENT 3 5 67 23 45 34 7 60 19 67
REMARK Flexibility Score: inf
ROOT
ATOM      1  C   UNL A   1      39.057  20.145  25.759  1.00  0.00     0.118 C 
ENDROOT
BRANCH   1   2
ATOM      2  N   UNL A   1      40.140  19.177  25.890  1.00  0.00    -0.352 N 
ATOM      3  O   UNL A   1      42.264  18.449  25.750  1.00  0.00    -0.269 OA
ATOM      4  C   UNL A   1      41.491  19.380  25.980  1.00  0.00     0.251 C 
ATOM      5  H   UNL A   1      39.856  18.234  25.917  1.00  0.00     0.163 HD
BRANCH   4   6
ATOM      6  C   UNL A   1      42.027  20.703  26.355  1.00  0.00     0.039 A 
ATOM      7  C   UNL A   1      42.278  21.671  25.378  1.00  0.00     0.014 A 
ATOM      8  C   UNL A   1      42.210  21.009  27.707  1.00  0.00     0.014 A 
ATOM      9  C   UNL A   1      42.826  22.897  25.738  1.00  0.00     0.010 A 
ATOM     10  C   UNL A   1      42.676  22.272  28.074  1.00  0.00     0.010 A 
ATOM     11  C   UNL A   1      43.005  23.218  27.091  1.00  0.00    -0.014 A 
BRANCH  11  12
ATOM     12  C   UNL A   1      43.467  24.574  27.470  1.00  0.00     0.031 A 
ATOM     13  C   UNL A   1      42.494  25.616  27.932  1.00  0.00     0.074 A 
ATOM     14  C   UNL A   1      44.780  24.862  27.375  1.00  0.00     0.049 A 
ATOM     15  N   UNL A   1      42.712  26.872  28.229  1.00  0.00    -0.248 NA
ATOM     16  C   UNL A   1      41.090  25.199  28.068  1.00  0.00     0.031 C 
ATOM     17  C   UNL A   1      45.821  23.924  26.944  1.00  0.00     0.029 A 
ATOM     18  N   UNL A   1      45.462  26.021  27.633  1.00  0.00    -0.354 N 
ATOM     19  C   UNL A   1      41.472  27.403  28.556  1.00  0.00     0.074 A 
ATOM     20  C   UNL A   1      40.503  26.338  28.406  1.00  0.00     0.031 C 
ATOM     21  C   UNL A   1      47.011  24.539  26.989  1.00  0.00     0.029 A 
ATOM     22  C   UNL A   1      46.809  25.928  27.384  1.00  0.00     0.049 A 
ATOM     23  H   UNL A   1      45.029  26.841  27.963  1.00  0.00     0.167 HD
ATOM     24  C   UNL A   1      41.171  28.666  28.943  1.00  0.00     0.031 A 
ATOM     25  C   UNL A   1      47.776  26.863  27.432  1.00  0.00     0.031 A 
ATOM     26  C   UNL A   1      42.142  29.719  29.085  1.00  0.00     0.049 A 
ATOM     27  C   UNL A   1      47.414  28.262  27.827  1.00  0.00     0.074 A 
ATOM     28  C   UNL A   1      41.944  31.025  29.500  1.00  0.00     0.029 A 
ATOM     29  N   UNL A   1      43.495  29.586  28.811  1.00  0.00    -0.354 N 
ATOM     30  N   UNL A   1      46.239  28.746  28.154  1.00  0.00    -0.248 NA
ATOM     31  C   UNL A   1      48.504  29.244  27.860  1.00  0.00     0.031 C 
ATOM     32  C   UNL A   1      43.170  31.695  29.428  1.00  0.00     0.029 A 
ATOM     33  C   UNL A   1      44.141  30.792  29.023  1.00  0.00     0.049 A 
ATOM     34  H   UNL A   1      43.932  28.756  28.510  1.00  0.00     0.167 HD
ATOM     35  C   UNL A   1      46.452  30.083  28.452  1.00  0.00     0.074 A 
ATOM     36  C   UNL A   1      47.869  30.332  28.275  1.00  0.00     0.031 C 
ATOM     37  C   UNL A   1      45.552  31.019  28.842  1.00  0.00     0.031 A 
BRANCH  24  38
ATOM     38  C   UNL A   1      39.722  28.984  29.191  1.00  0.00    -0.014 A 
ATOM     39  C   UNL A   1      39.142  28.824  30.459  1.00  0.00     0.009 A 
ATOM     40  C   UNL A   1      38.928  29.464  28.137  1.00  0.00     0.009 A 
ATOM     41  C   UNL A   1      37.785  29.097  30.655  1.00  0.00     0.001 A 
ATOM     42  C   UNL A   1      37.580  29.763  28.343  1.00  0.00     0.001 A 
ATOM     43  C   UNL A   1      37.007  29.568  29.598  1.00  0.00     0.000 A 
ENDBRANCH  24  38
BRANCH  25  44
ATOM     44  C   UNL A   1      49.166  26.488  27.073  1.00  0.00    -0.014 A 
ATOM     45  C   UNL A   1      50.053  26.009  28.047  1.00  0.00     0.009 A 
ATOM     46  C   UNL A   1      49.594  26.551  25.736  1.00  0.00     0.009 A 
ATOM     47  C   UNL A   1      51.341  25.603  27.690  1.00  0.00     0.001 A 
ATOM     48  C   UNL A   1      50.872  26.119  25.379  1.00  0.00     0.001 A 
ATOM     49  C   UNL A   1      51.746  25.650  26.357  1.00  0.00     0.000 A 
ENDBRANCH  25  44
BRANCH  37  50
ATOM     50  C   UNL A   1      46.080  32.391  29.145  1.00  0.00    -0.014 A 
ATOM     51  C   UNL A   1      46.566  32.721  30.419  1.00  0.00     0.009 A 
ATOM     52  C   UNL A   1      46.147  33.347  28.119  1.00  0.00     0.009 A 
ATOM     53  C   UNL A   1      47.089  33.991  30.666  1.00  0.00     0.001 A 
ATOM     54  C   UNL A   1      46.693  34.608  28.363  1.00  0.00     0.001 A 
ATOM     55  C   UNL A   1      47.158  34.931  29.636  1.00  0.00     0.000 A 
ENDBRANCH  37  50
ENDBRANCH  11  12
ENDBRANCH   4   6
ENDBRANCH   1   2
BRANCH   1  56
ATOM     56  C   UNL A   1      37.874  19.554  25.001  1.00  0.00     0.042 C 
BRANCH  56  57
ATOM     57  C   UNL A   1      36.813  20.604  24.699  1.00  0.00     0.118 C 
BRANCH  57  58
ATOM     58  N   UNL A   1      36.099  20.982  25.899  1.00  0.00    -0.351 N 
ATOM     59  C   UNL A   1      35.147  21.918  26.153  1.00  0.00     0.278 C 
ATOM     60  H   UNL A   1      36.354  20.456  26.691  1.00  0.00     0.163 HD
ATOM     61  O   UNL A   1      34.783  21.990  27.335  1.00  0.00    -0.268 OA
BRANCH  59  62
ATOM     62  C   UNL A   1      34.474  22.804  25.074  1.00  0.00     0.274 C 
ATOM     63  C   UNL A   1      35.373  23.488  24.026  1.00  0.00     0.076 C 
ATOM     64  N   UNL A   1      33.191  22.236  24.582  1.00  0.00    -0.319 N 
ATOM     65  C   UNL A   1      34.590  24.032  22.823  1.00  0.00     0.016 C 
ATOM     66  C   UNL A   1      32.413  23.159  23.740  1.00  0.00     0.188 C 
ATOM     67  H   UNL A   1      32.657  22.154  25.447  1.00  0.00     0.349 HD
ATOM     68  C   UNL A   1      33.187  24.414  23.271  1.00  0.00     0.048 C 
ATOM     69  C   UNL A   1      31.147  23.651  24.462  1.00  0.00     0.065 C 
ATOM     70  C   UNL A   1      32.365  25.115  22.186  1.00  0.00     0.010 C 
ATOM     71  C   UNL A   1      30.270  24.464  23.502  1.00  0.00     0.006 C 
ATOM     72  C   UNL A   1      31.028  25.577  22.771  1.00  0.00     0.001 C 
BRANCH  64  73
ATOM     73  C   UNL A   1      33.171  20.813  24.172  1.00  0.00     0.194 C 
ATOM     74  C   UNL A   1      32.340  20.527  22.904  1.00  0.00     0.067 C 
ATOM     75  C   UNL A   1      32.699  19.905  25.335  1.00  0.00     0.134 C 
ATOM     76  C   UNL A   1      32.527  19.096  22.401  1.00  0.00     0.017 C 
ATOM     77  S   UNL A   1      32.876  18.125  24.965  1.00  0.00    -0.156 SA
ATOM     78  C   UNL A   1      31.990  18.066  23.382  1.00  0.00     0.070 C 
ENDBRANCH  64  73
ENDBRANCH  59  62
ENDBRANCH  57  58
ENDBRANCH  56  57
ENDBRANCH   1  56
TORSDOF 11
ENDMDL
