MODEL 1
REMARK VINA RESULT:     -11.3      0.000      0.000
REMARK SMILES CN(C(=O)N1Cc2nc[nH]c2C[C@@H]1C(=O)NCCCNC(=O)c1ccc(-c2c3nc(c(-c4ccccc4)c4ccc([nH]4)c(-c4ccccc4)c4nc(c(-c5ccccc5)c5ccc2[nH]5)C=C4)C=C3)cc1)C1CC1
REMARK SMILES IDX 17 1 16 2 14 3 15 4 13 6 5 7 6 8 7 9 12 10 8 11 11 12 9 13
REMARK SMILES IDX 10 14 3 16 4 17 2 18 1 19 71 20 72 21 73 22 18 23 19 24
REMARK SMILES IDX 20 25 21 26 22 28 23 29 24 30 70 31 25 32 69 33 26 34 27 35
REMARK SMILES IDX 28 36 63 37 29 38 68 39 62 40 64 41 30 42 67 43 61 44 60 45
REMARK SMILES IDX 31 47 53 48 38 49 52 50 39 51 42 52 51 53 65 54 40 55 41 56
REMARK SMILES IDX 50 58 66 59 43 60 32 61 33 62 37 63 34 64 36 65 35 66 54 67
REMARK SMILES IDX 55 68 59 69 56 70 58 71 57 72 44 73 45 74 49 75 46 76 48 77
REMARK SMILES IDX 47 78
REMARK H PARENT 16 5 10 15 20 27 64 46 42 57
REMARK Flexibility Score: inf
ROOT
ATOM      1  C   UNL A   1      37.080  20.779  25.256  1.00  0.00     0.117 C 
ENDROOT
BRANCH   1   2
ATOM      2  N   UNL A   1      36.755  21.582  24.086  1.00  0.00    -0.354 N 
ATOM      3  C   UNL A   1      35.741  22.471  23.893  1.00  0.00     0.243 C 
ATOM      4  O   UNL A   1      35.621  22.963  22.767  1.00  0.00    -0.273 OA
ATOM      5  H   UNL A   1      37.360  21.466  23.318  1.00  0.00     0.163 HD
BRANCH   3   6
ATOM      6  C   UNL A   1      34.719  22.784  24.996  1.00  0.00     0.182 C 
ATOM      7  N   UNL A   1      33.567  21.838  25.234  1.00  0.00    -0.306 N 
ATOM      8  C   UNL A   1      32.604  22.224  26.294  1.00  0.00     0.180 C 
ATOM      9  C   UNL A   1      32.309  23.679  26.222  1.00  0.00     0.081 A 
ATOM     10  C   UNL A   1      34.298  24.280  24.778  1.00  0.00     0.091 C 
ATOM     11  N   UNL A   1      31.253  24.305  26.829  1.00  0.00    -0.240 NA
ATOM     12  C   UNL A   1      33.085  24.593  25.555  1.00  0.00     0.042 A 
ATOM     13  C   UNL A   1      31.367  25.574  26.496  1.00  0.00     0.197 A 
ATOM     14  N   UNL A   1      32.466  25.798  25.711  1.00  0.00    -0.348 N 
ATOM     15  H   UNL A   1      32.754  26.660  25.332  1.00  0.00     0.167 HD
BRANCH   7  16
ATOM     16  C   UNL A   1      33.228  20.710  24.511  1.00  0.00     0.321 C 
ATOM     17  O   UNL A   1      32.615  20.831  23.446  1.00  0.00    -0.248 OA
BRANCH  16  18
ATOM     18  N   UNL A   1      33.541  19.453  25.007  1.00  0.00    -0.325 N 
ATOM     19  C   UNL A   1      32.769  18.755  26.035  1.00  0.00     0.149 C 
BRANCH  18  20
ATOM     20  C   UNL A   1      34.390  18.565  24.221  1.00  0.00     0.086 C 
ATOM     21  C   UNL A   1      34.612  17.105  24.519  1.00  0.00     0.027 C 
ATOM     22  C   UNL A   1      33.769  17.502  23.346  1.00  0.00     0.027 C 
ENDBRANCH  18  20
ENDBRANCH  16  18
ENDBRANCH   7  16
ENDBRANCH   3   6
ENDBRANCH   1   2
BRANCH   1  23
ATOM     23  C   UNL A   1      38.279  19.867  25.008  1.00  0.00     0.042 C 
BRANCH  23  24
ATOM     24  C   UNL A   1      39.337  20.008  26.090  1.00  0.00     0.118 C 
BRANCH  24  25
ATOM     25  N   UNL A   1      40.542  19.227  25.810  1.00  0.00    -0.352 N 
ATOM     26  C   UNL A   1      41.841  19.679  25.735  1.00  0.00     0.251 C 
ATOM     27  H   UNL A   1      40.409  18.263  25.658  1.00  0.00     0.163 HD
ATOM     28  O   UNL A   1      42.706  19.035  25.140  1.00  0.00    -0.269 OA
BRANCH  26  29
ATOM     29  C   UNL A   1      42.186  20.948  26.392  1.00  0.00     0.039 A 
ATOM     30  C   UNL A   1      42.497  22.094  25.654  1.00  0.00     0.014 A 
ATOM     31  C   UNL A   1      42.164  20.977  27.784  1.00  0.00     0.014 A 
ATOM     32  C   UNL A   1      42.710  23.289  26.335  1.00  0.00     0.010 A 
ATOM     33  C   UNL A   1      42.210  22.178  28.439  1.00  0.00     0.010 A 
ATOM     34  C   UNL A   1      42.546  23.324  27.729  1.00  0.00    -0.014 A 
BRANCH  34  35
ATOM     35  C   UNL A   1      42.579  24.579  28.465  1.00  0.00     0.031 A 
ATOM     36  C   UNL A   1      41.454  25.495  28.146  1.00  0.00     0.074 A 
ATOM     37  C   UNL A   1      43.412  24.784  29.509  1.00  0.00     0.049 A 
ATOM     38  N   UNL A   1      41.531  26.635  27.547  1.00  0.00    -0.248 NA
ATOM     39  C   UNL A   1      40.073  25.035  28.374  1.00  0.00     0.031 C 
ATOM     40  C   UNL A   1      44.367  23.841  30.106  1.00  0.00     0.029 A 
ATOM     41  N   UNL A   1      43.490  25.849  30.352  1.00  0.00    -0.354 N 
ATOM     42  C   UNL A   1      40.238  27.143  27.518  1.00  0.00     0.074 A 
ATOM     43  C   UNL A   1      39.368  26.043  27.852  1.00  0.00     0.031 C 
ATOM     44  C   UNL A   1      44.721  24.273  31.337  1.00  0.00     0.029 A 
ATOM     45  C   UNL A   1      44.149  25.590  31.551  1.00  0.00     0.049 A 
ATOM     46  H   UNL A   1      43.110  26.731  30.132  1.00  0.00     0.167 HD
ATOM     47  C   UNL A   1      40.017  28.487  27.495  1.00  0.00     0.031 A 
ATOM     48  C   UNL A   1      44.187  26.385  32.651  1.00  0.00     0.031 A 
ATOM     49  C   UNL A   1      41.230  29.208  27.192  1.00  0.00     0.049 A 
ATOM     50  C   UNL A   1      43.827  27.754  32.213  1.00  0.00     0.074 A 
ATOM     51  C   UNL A   1      42.126  29.204  26.141  1.00  0.00     0.029 A 
ATOM     52  N   UNL A   1      41.892  29.779  28.255  1.00  0.00    -0.354 N 
ATOM     53  N   UNL A   1      44.592  28.475  31.445  1.00  0.00    -0.248 NA
ATOM     54  C   UNL A   1      42.421  28.129  32.225  1.00  0.00     0.031 C 
ATOM     55  C   UNL A   1      43.407  29.312  26.756  1.00  0.00     0.029 A 
ATOM     56  C   UNL A   1      43.222  29.478  28.129  1.00  0.00     0.049 A 
ATOM     57  H   UNL A   1      41.482  30.309  28.977  1.00  0.00     0.167 HD
ATOM     58  C   UNL A   1      43.718  29.046  30.531  1.00  0.00     0.074 A 
ATOM     59  C   UNL A   1      42.389  28.890  31.126  1.00  0.00     0.031 C 
ATOM     60  C   UNL A   1      44.117  29.307  29.250  1.00  0.00     0.031 A 
BRANCH  47  61
ATOM     61  C   UNL A   1      38.858  29.162  28.187  1.00  0.00    -0.014 A 
ATOM     62  C   UNL A   1      38.749  29.029  29.584  1.00  0.00     0.009 A 
ATOM     63  C   UNL A   1      37.726  29.653  27.510  1.00  0.00     0.009 A 
ATOM     64  C   UNL A   1      37.542  29.271  30.248  1.00  0.00     0.001 A 
ATOM     65  C   UNL A   1      36.531  29.936  28.176  1.00  0.00     0.001 A 
ATOM     66  C   UNL A   1      36.429  29.713  29.541  1.00  0.00     0.000 A 
ENDBRANCH  47  61
BRANCH  48  67
ATOM     67  C   UNL A   1      44.282  26.019  34.084  1.00  0.00    -0.014 A 
ATOM     68  C   UNL A   1      43.151  25.561  34.785  1.00  0.00     0.009 A 
ATOM     69  C   UNL A   1      45.536  25.851  34.697  1.00  0.00     0.009 A 
ATOM     70  C   UNL A   1      43.280  24.912  36.022  1.00  0.00     0.001 A 
ATOM     71  C   UNL A   1      45.664  25.208  35.935  1.00  0.00     0.001 A 
ATOM     72  C   UNL A   1      44.538  24.721  36.588  1.00  0.00     0.000 A 
ENDBRANCH  48  67
BRANCH  60  73
ATOM     73  C   UNL A   1      45.584  29.165  28.918  1.00  0.00    -0.014 A 
ATOM     74  C   UNL A   1      46.503  30.228  28.998  1.00  0.00     0.009 A 
ATOM     75  C   UNL A   1      46.082  27.878  28.676  1.00  0.00     0.009 A 
ATOM     76  C   UNL A   1      47.873  30.009  28.810  1.00  0.00     0.001 A 
ATOM     77  C   UNL A   1      47.449  27.655  28.511  1.00  0.00     0.001 A 
ATOM     78  C   UNL A   1      48.344  28.720  28.573  1.00  0.00     0.000 A 
ENDBRANCH  60  73
ENDBRANCH  34  35
ENDBRANCH  26  29
ENDBRANCH  24  25
ENDBRANCH  23  24
ENDBRANCH   1  23
TORSDOF 13
ENDMDL
MODEL 2
REMARK VINA RESULT:     -11.1      4.088      8.756
REMARK SMILES CN(C(=O)N1Cc2nc[nH]c2C[C@@H]1C(=O)NCCCNC(=O)c1ccc(-c2c3nc(c(-c4ccccc4)c4ccc([nH]4)c(-c4ccccc4)c4nc(c(-c5ccccc5)c5ccc2[nH]5)C=C4)C=C3)cc1)C1CC1
REMARK SMILES IDX 17 1 16 2 14 3 15 4 13 6 5 7 6 8 7 9 12 10 8 11 11 12 9 13
REMARK SMILES IDX 10 14 3 16 4 17 2 18 1 19 71 20 72 21 73 22 18 23 19 24
REMARK SMILES IDX 20 25 21 26 22 28 23 29 24 30 70 31 25 32 69 33 26 34 27 35
REMARK SMILES IDX 28 36 63 37 29 38 68 39 62 40 64 41 30 42 67 43 61 44 60 45
REMARK SMILES IDX 31 47 53 48 38 49 52 50 39 51 42 52 51 53 65 54 40 55 41 56
REMARK SMILES IDX 50 58 66 59 43 60 32 61 33 62 37 63 34 64 36 65 35 66 54 67
REMARK SMILES IDX 55 68 59 69 56 70 58 71 57 72 44 73 45 74 49 75 46 76 48 77
REMARK SMILES IDX 47 78
REMARK H PARENT 16 5 10 15 20 27 64 46 42 57
REMARK Flexibility Score: inf
ROOT
ATOM      1  C   UNL A   1      32.244  29.805  25.557  1.00  0.00     0.117 C 
ENDROOT
BRANCH   1   2
ATOM      2  N   UNL A   1      31.364  29.248  24.541  1.00  0.00    -0.354 N 
ATOM      3  C   UNL A   1      30.894  27.978  24.395  1.00  0.00     0.243 C 
ATOM      4  O   UNL A   1      30.228  27.729  23.385  1.00  0.00    -0.273 OA
ATOM      5  H   UNL A   1      31.061  29.886  23.854  1.00  0.00     0.163 HD
BRANCH   3   6
ATOM      6  C   UNL A   1      31.255  26.864  25.389  1.00  0.00     0.182 C 
ATOM      7  N   UNL A   1      32.459  25.993  25.127  1.00  0.00    -0.306 N 
ATOM      8  C   UNL A   1      32.724  24.919  26.114  1.00  0.00     0.180 C 
ATOM      9  C   UNL A   1      31.455  24.253  26.511  1.00  0.00     0.081 A 
ATOM     10  C   UNL A   1      29.924  26.073  25.647  1.00  0.00     0.091 C 
ATOM     11  N   UNL A   1      31.358  23.045  27.148  1.00  0.00    -0.240 NA
ATOM     12  C   UNL A   1      30.208  24.788  26.312  1.00  0.00     0.042 A 
ATOM     13  C   UNL A   1      30.067  22.834  27.293  1.00  0.00     0.197 A 
ATOM     14  N   UNL A   1      29.322  23.868  26.790  1.00  0.00    -0.348 N 
ATOM     15  H   UNL A   1      28.340  23.934  26.776  1.00  0.00     0.167 HD
BRANCH   7  16
ATOM     16  C   UNL A   1      33.286  25.994  24.020  1.00  0.00     0.321 C 
ATOM     17  O   UNL A   1      34.275  26.734  23.999  1.00  0.00    -0.248 OA
BRANCH  16  18
ATOM     18  N   UNL A   1      32.977  25.197  22.927  1.00  0.00    -0.325 N 
ATOM     19  C   UNL A   1      32.207  25.648  21.768  1.00  0.00     0.149 C 
BRANCH  18  20
ATOM     20  C   UNL A   1      33.777  24.006  22.661  1.00  0.00     0.086 C 
ATOM     21  C   UNL A   1      34.338  23.096  23.722  1.00  0.00     0.027 C 
ATOM     22  C   UNL A   1      33.188  22.633  22.881  1.00  0.00     0.027 C 
ENDBRANCH  18  20
ENDBRANCH  16  18
ENDBRANCH   7  16
ENDBRANCH   3   6
ENDBRANCH   1   2
BRANCH   1  23
ATOM     23  C   UNL A   1      31.624  31.018  26.248  1.00  0.00     0.042 C 
BRANCH  23  24
ATOM     24  C   UNL A   1      32.583  31.668  27.231  1.00  0.00     0.118 C 
BRANCH  24  25
ATOM     25  N   UNL A   1      32.340  33.101  27.399  1.00  0.00    -0.352 N 
ATOM     26  C   UNL A   1      32.989  33.973  28.246  1.00  0.00     0.251 C 
ATOM     27  H   UNL A   1      31.628  33.488  26.841  1.00  0.00     0.163 HD
ATOM     28  O   UNL A   1      32.473  35.041  28.577  1.00  0.00    -0.269 OA
BRANCH  26  29
ATOM     29  C   UNL A   1      34.323  33.611  28.744  1.00  0.00     0.039 A 
ATOM     30  C   UNL A   1      34.501  32.998  29.987  1.00  0.00     0.014 A 
ATOM     31  C   UNL A   1      35.411  33.877  27.915  1.00  0.00     0.014 A 
ATOM     32  C   UNL A   1      35.779  32.586  30.353  1.00  0.00     0.010 A 
ATOM     33  C   UNL A   1      36.632  33.328  28.201  1.00  0.00     0.010 A 
ATOM     34  C   UNL A   1      36.836  32.739  29.442  1.00  0.00    -0.014 A 
BRANCH  34  35
ATOM     35  C   UNL A   1      38.148  32.164  29.701  1.00  0.00     0.031 A 
ATOM     36  C   UNL A   1      38.242  30.714  29.395  1.00  0.00     0.074 A 
ATOM     37  C   UNL A   1      39.234  32.926  29.960  1.00  0.00     0.049 A 
ATOM     38  N   UNL A   1      38.411  29.755  30.241  1.00  0.00    -0.248 NA
ATOM     39  C   UNL A   1      37.964  30.255  28.023  1.00  0.00     0.031 C 
ATOM     40  C   UNL A   1      39.325  34.391  29.996  1.00  0.00     0.029 A 
ATOM     41  N   UNL A   1      40.531  32.550  30.118  1.00  0.00    -0.354 N 
ATOM     42  C   UNL A   1      38.485  28.588  29.490  1.00  0.00     0.074 A 
ATOM     43  C   UNL A   1      38.006  28.928  28.174  1.00  0.00     0.031 C 
ATOM     44  C   UNL A   1      40.620  34.767  29.905  1.00  0.00     0.029 A 
ATOM     45  C   UNL A   1      41.455  33.581  29.963  1.00  0.00     0.049 A 
ATOM     46  H   UNL A   1      40.796  31.624  30.324  1.00  0.00     0.167 HD
ATOM     47  C   UNL A   1      39.195  27.514  29.938  1.00  0.00     0.031 A 
ATOM     48  C   UNL A   1      42.803  33.461  29.853  1.00  0.00     0.031 A 
ATOM     49  C   UNL A   1      39.535  27.661  31.333  1.00  0.00     0.049 A 
ATOM     50  C   UNL A   1      43.169  32.131  30.393  1.00  0.00     0.074 A 
ATOM     51  C   UNL A   1      38.811  27.835  32.497  1.00  0.00     0.029 A 
ATOM     52  N   UNL A   1      40.817  28.070  31.617  1.00  0.00    -0.354 N 
ATOM     53  N   UNL A   1      43.065  31.827  31.654  1.00  0.00    -0.248 NA
ATOM     54  C   UNL A   1      43.183  31.000  29.477  1.00  0.00     0.031 C 
ATOM     55  C   UNL A   1      39.559  28.785  33.251  1.00  0.00     0.029 A 
ATOM     56  C   UNL A   1      40.740  29.060  32.560  1.00  0.00     0.049 A 
ATOM     57  H   UNL A   1      41.642  27.715  31.214  1.00  0.00     0.167 HD
ATOM     58  C   UNL A   1      42.518  30.552  31.656  1.00  0.00     0.074 A 
ATOM     59  C   UNL A   1      42.717  30.050  30.295  1.00  0.00     0.031 C 
ATOM     60  C   UNL A   1      41.685  30.149  32.662  1.00  0.00     0.031 A 
BRANCH  47  61
ATOM     61  C   UNL A   1      39.968  26.580  29.039  1.00  0.00    -0.014 A 
ATOM     62  C   UNL A   1      41.269  26.955  28.654  1.00  0.00     0.009 A 
ATOM     63  C   UNL A   1      39.376  25.524  28.321  1.00  0.00     0.009 A 
ATOM     64  C   UNL A   1      41.896  26.376  27.546  1.00  0.00     0.001 A 
ATOM     65  C   UNL A   1      40.018  24.915  27.240  1.00  0.00     0.001 A 
ATOM     66  C   UNL A   1      41.265  25.363  26.831  1.00  0.00     0.000 A 
ENDBRANCH  47  61
BRANCH  48  67
ATOM     67  C   UNL A   1      43.773  34.299  29.109  1.00  0.00    -0.014 A 
ATOM     68  C   UNL A   1      43.894  34.192  27.712  1.00  0.00     0.009 A 
ATOM     69  C   UNL A   1      44.384  35.404  29.729  1.00  0.00     0.009 A 
ATOM     70  C   UNL A   1      44.552  35.180  26.964  1.00  0.00     0.001 A 
ATOM     71  C   UNL A   1      45.045  36.387  28.983  1.00  0.00     0.001 A 
ATOM     72  C   UNL A   1      45.112  36.285  27.598  1.00  0.00     0.000 A 
ENDBRANCH  48  67
BRANCH  60  73
ATOM     73  C   UNL A   1      41.551  31.039  33.875  1.00  0.00    -0.014 A 
ATOM     74  C   UNL A   1      40.656  32.123  33.947  1.00  0.00     0.009 A 
ATOM     75  C   UNL A   1      42.235  30.668  35.041  1.00  0.00     0.009 A 
ATOM     76  C   UNL A   1      40.477  32.828  35.142  1.00  0.00     0.001 A 
ATOM     77  C   UNL A   1      42.040  31.356  36.239  1.00  0.00     0.001 A 
ATOM     78  C   UNL A   1      41.166  32.439  36.289  1.00  0.00     0.000 A 
ENDBRANCH  60  73
ENDBRANCH  34  35
ENDBRANCH  26  29
ENDBRANCH  24  25
ENDBRANCH  23  24
ENDBRANCH   1  23
TORSDOF 13
ENDMDL
MODEL 3
REMARK VINA RESULT:     -11.1      4.253      8.982
REMARK SMILES CN(C(=O)N1Cc2nc[nH]c2C[C@@H]1C(=O)NCCCNC(=O)c1ccc(-c2c3nc(c(-c4ccccc4)c4ccc([nH]4)c(-c4ccccc4)c4nc(c(-c5ccccc5)c5ccc2[nH]5)C=C4)C=C3)cc1)C1CC1
REMARK SMILES IDX 17 1 16 2 14 3 15 4 13 6 5 7 6 8 7 9 12 10 8 11 11 12 9 13
REMARK SMILES IDX 10 14 3 16 4 17 2 18 1 19 71 20 72 21 73 22 18 23 19 24
REMARK SMILES IDX 20 25 21 26 22 28 23 29 24 30 70 31 25 32 69 33 26 34 27 35
REMARK SMILES IDX 28 36 63 37 29 38 68 39 62 40 64 41 30 42 67 43 61 44 60 45
REMARK SMILES IDX 31 47 53 48 38 49 52 50 39 51 42 52 51 53 65 54 40 55 41 56
REMARK SMILES IDX 50 58 66 59 43 60 32 61 33 62 37 63 34 64 36 65 35 66 54 67
REMARK SMILES IDX 55 68 59 69 56 70 58 71 57 72 44 73 45 74 49 75 46 76 48 77
REMARK SMILES IDX 47 78
REMARK H PARENT 16 5 10 15 20 27 64 46 42 57
REMARK Flexibility Score: inf
ROOT
ATOM      1  C   UNL A   1      31.581  31.022  26.090  1.00  0.00     0.117 C 
ENDROOT
BRANCH   1   2
ATOM      2  N   UNL A   1      32.821  30.294  26.311  1.00  0.00    -0.354 N 
ATOM      3  C   UNL A   1      33.276  29.148  25.731  1.00  0.00     0.243 C 
ATOM      4  O   UNL A   1      34.331  28.671  26.160  1.00  0.00    -0.273 OA
ATOM      5  H   UNL A   1      33.424  30.689  26.983  1.00  0.00     0.163 HD
BRANCH   3   6
ATOM      6  C   UNL A   1      32.467  28.414  24.651  1.00  0.00     0.182 C 
ATOM      7  N   UNL A   1      31.647  27.204  25.028  1.00  0.00    -0.306 N 
ATOM      8  C   UNL A   1      30.920  26.529  23.926  1.00  0.00     0.180 C 
ATOM      9  C   UNL A   1      31.779  26.440  22.715  1.00  0.00     0.081 A 
ATOM     10  C   UNL A   1      33.458  28.181  23.457  1.00  0.00     0.091 C 
ATOM     11  N   UNL A   1      31.552  25.623  21.640  1.00  0.00    -0.240 NA
ATOM     12  C   UNL A   1      32.904  27.198  22.509  1.00  0.00     0.042 A 
ATOM     13  C   UNL A   1      32.551  25.854  20.815  1.00  0.00     0.197 A 
ATOM     14  N   UNL A   1      33.409  26.803  21.306  1.00  0.00    -0.348 N 
ATOM     15  H   UNL A   1      34.229  27.135  20.875  1.00  0.00     0.167 HD
BRANCH   7  16
ATOM     16  C   UNL A   1      31.577  26.572  26.255  1.00  0.00     0.321 C 
ATOM     17  O   UNL A   1      31.010  27.133  27.198  1.00  0.00    -0.248 OA
BRANCH  16  18
ATOM     18  N   UNL A   1      32.178  25.333  26.429  1.00  0.00    -0.325 N 
ATOM     19  C   UNL A   1      31.448  24.071  26.543  1.00  0.00     0.149 C 
BRANCH  18  20
ATOM     20  C   UNL A   1      33.578  25.159  26.059  1.00  0.00     0.086 C 
ATOM     21  C   UNL A   1      34.323  23.851  26.111  1.00  0.00     0.027 C 
ATOM     22  C   UNL A   1      33.941  24.434  24.785  1.00  0.00     0.027 C 
ENDBRANCH  18  20
ENDBRANCH  16  18
ENDBRANCH   7  16
ENDBRANCH   3   6
ENDBRANCH   1   2
BRANCH   1  23
ATOM     23  C   UNL A   1      31.409  32.173  27.079  1.00  0.00     0.042 C 
BRANCH  23  24
ATOM     24  C   UNL A   1      32.684  32.984  27.238  1.00  0.00     0.118 C 
BRANCH  24  25
ATOM     25  N   UNL A   1      32.463  34.260  27.921  1.00  0.00    -0.352 N 
ATOM     26  C   UNL A   1      33.099  34.733  29.048  1.00  0.00     0.251 C 
ATOM     27  H   UNL A   1      31.780  34.849  27.529  1.00  0.00     0.163 HD
ATOM     28  O   UNL A   1      32.593  35.617  29.740  1.00  0.00    -0.269 OA
BRANCH  26  29
ATOM     29  C   UNL A   1      34.407  34.170  29.410  1.00  0.00     0.039 A 
ATOM     30  C   UNL A   1      34.539  33.215  30.423  1.00  0.00     0.014 A 
ATOM     31  C   UNL A   1      35.515  34.601  28.684  1.00  0.00     0.014 A 
ATOM     32  C   UNL A   1      35.789  32.645  30.644  1.00  0.00     0.010 A 
ATOM     33  C   UNL A   1      36.701  33.926  28.789  1.00  0.00     0.010 A 
ATOM     34  C   UNL A   1      36.861  32.995  29.807  1.00  0.00    -0.014 A 
BRANCH  34  35
ATOM     35  C   UNL A   1      38.136  32.297  29.879  1.00  0.00     0.031 A 
ATOM     36  C   UNL A   1      38.090  30.902  29.372  1.00  0.00     0.074 A 
ATOM     37  C   UNL A   1      39.296  32.936  30.151  1.00  0.00     0.049 A 
ATOM     38  N   UNL A   1      38.240  29.823  30.063  1.00  0.00    -0.248 NA
ATOM     39  C   UNL A   1      37.680  30.663  27.977  1.00  0.00     0.031 C 
ATOM     40  C   UNL A   1      39.509  34.370  30.379  1.00  0.00     0.029 A 
ATOM     41  N   UNL A   1      40.567  32.450  30.151  1.00  0.00    -0.354 N 
ATOM     42  C   UNL A   1      38.165  28.772  29.157  1.00  0.00     0.074 A 
ATOM     43  C   UNL A   1      37.625  29.328  27.942  1.00  0.00     0.031 C 
ATOM     44  C   UNL A   1      40.821  34.663  30.235  1.00  0.00     0.029 A 
ATOM     45  C   UNL A   1      41.558  33.424  30.064  1.00  0.00     0.049 A 
ATOM     46  H   UNL A   1      40.769  31.487  30.207  1.00  0.00     0.167 HD
ATOM     47  C   UNL A   1      38.815  27.598  29.396  1.00  0.00     0.031 A 
ATOM     48  C   UNL A   1      42.881  33.226  29.830  1.00  0.00     0.031 A 
ATOM     49  C   UNL A   1      39.263  27.521  30.766  1.00  0.00     0.049 A 
ATOM     50  C   UNL A   1      43.174  31.810  30.153  1.00  0.00     0.074 A 
ATOM     51  C   UNL A   1      38.638  27.579  31.997  1.00  0.00     0.029 A 
ATOM     52  N   UNL A   1      40.591  27.794  30.999  1.00  0.00    -0.354 N 
ATOM     53  N   UNL A   1      43.135  31.338  31.366  1.00  0.00    -0.248 NA
ATOM     54  C   UNL A   1      43.032  30.822  29.093  1.00  0.00     0.031 C 
ATOM     55  C   UNL A   1      39.512  28.357  32.810  1.00  0.00     0.029 A 
ATOM     56  C   UNL A   1      40.661  28.643  32.071  1.00  0.00     0.049 A 
ATOM     57  H   UNL A   1      41.354  27.442  30.487  1.00  0.00     0.167 HD
ATOM     58  C   UNL A   1      42.487  30.118  31.238  1.00  0.00     0.074 A 
ATOM     59  C   UNL A   1      42.549  29.802  29.810  1.00  0.00     0.031 C 
ATOM     60  C   UNL A   1      41.696  29.637  32.243  1.00  0.00     0.031 A 
BRANCH  47  61
ATOM     61  C   UNL A   1      39.445  26.748  28.319  1.00  0.00    -0.014 A 
ATOM     62  C   UNL A   1      39.309  25.351  28.412  1.00  0.00     0.009 A 
ATOM     63  C   UNL A   1      40.402  27.231  27.407  1.00  0.00     0.009 A 
ATOM     64  C   UNL A   1      40.158  24.488  27.711  1.00  0.00     0.001 A 
ATOM     65  C   UNL A   1      41.224  26.371  26.674  1.00  0.00     0.001 A 
ATOM     66  C   UNL A   1      41.124  24.999  26.851  1.00  0.00     0.000 A 
ENDBRANCH  47  61
BRANCH  48  67
ATOM     67  C   UNL A   1      43.862  34.090  29.132  1.00  0.00    -0.014 A 
ATOM     68  C   UNL A   1      44.035  34.001  27.739  1.00  0.00     0.009 A 
ATOM     69  C   UNL A   1      44.429  35.198  29.785  1.00  0.00     0.009 A 
ATOM     70  C   UNL A   1      44.702  35.010  27.026  1.00  0.00     0.001 A 
ATOM     71  C   UNL A   1      45.099  36.202  29.075  1.00  0.00     0.001 A 
ATOM     72  C   UNL A   1      45.218  36.117  27.693  1.00  0.00     0.000 A 
ENDBRANCH  48  67
BRANCH  60  73
ATOM     73  C   UNL A   1      41.720  30.353  33.573  1.00  0.00    -0.014 A 
ATOM     74  C   UNL A   1      40.932  31.483  33.860  1.00  0.00     0.009 A 
ATOM     75  C   UNL A   1      42.441  29.766  34.622  1.00  0.00     0.009 A 
ATOM     76  C   UNL A   1      40.894  32.023  35.150  1.00  0.00     0.001 A 
ATOM     77  C   UNL A   1      42.386  30.291  35.914  1.00  0.00     0.001 A 
ATOM     78  C   UNL A   1      41.617  31.422  36.177  1.00  0.00     0.000 A 
ENDBRANCH  60  73
ENDBRANCH  34  35
ENDBRANCH  26  29
ENDBRANCH  24  25
ENDBRANCH  23  24
ENDBRANCH   1  23
TORSDOF 13
ENDMDL
