MODEL 1
REMARK VINA RESULT:     -12.1      0.000      0.000
REMARK SMILES Cc1nccn1CCC[NH+]1CCC2(CC1)[C@@H](C(=O)NCCCNC(=O)c1ccc(-c3c4nc(c(-c5ccccc5)c5ccc([nH]5)c(-c5ccccc5)c5nc(c(-c6ccccc6)c6ccc3[nH]6)C=C5)C=C4)cc1)CC(=O)N2C
REMARK SMILES IDX 20 1 19 2 17 3 18 4 16 6 10 7 11 8 15 9 12 11 14 12 13 13
REMARK SMILES IDX 77 14 74 15 75 16 78 17 76 18 9 19 8 20 7 21 6 22 1 23 2 24
REMARK SMILES IDX 3 25 4 26 5 27 21 28 22 29 23 30 24 31 25 33 26 34 27 35
REMARK SMILES IDX 73 36 28 37 72 38 29 39 30 40 31 41 66 42 32 43 71 44 65 45
REMARK SMILES IDX 67 46 33 47 70 48 64 49 63 50 34 52 56 53 41 54 55 55 42 56
REMARK SMILES IDX 45 57 54 58 68 59 43 60 44 61 53 63 69 64 46 65 35 66 36 67
REMARK SMILES IDX 40 68 37 69 39 70 38 71 57 72 58 73 62 74 59 75 61 76 60 77
REMARK SMILES IDX 47 78 48 79 52 80 49 81 51 82 50 83
REMARK H PARENT 19 5 10 10 23 32 67 51 45 62
REMARK Flexibility Score: inf
ROOT
ATOM      1  C   UNL A   1      31.673  27.917  26.527  1.00  0.00     0.117 C 
ENDROOT
BRANCH   1   2
ATOM      2  N   UNL A   1      31.524  26.637  27.199  1.00  0.00    -0.356 N 
ATOM      3  C   UNL A   1      31.851  25.398  26.763  1.00  0.00     0.226 C 
ATOM      4  O   UNL A   1      31.124  24.472  27.132  1.00  0.00    -0.275 OA
ATOM      5  H   UNL A   1      31.128  26.677  28.099  1.00  0.00     0.163 HD
BRANCH   3   6
ATOM      6  C   UNL A   1      32.995  25.113  25.801  1.00  0.00     0.114 C 
ATOM      7  N   UNL A   1      32.312  26.998  21.949  1.00  0.00    -0.335 N 
ATOM      8  C   UNL A   1      33.624  26.370  22.146  1.00  0.00     0.264 C 
ATOM      9  C   UNL A   1      31.251  26.115  22.381  1.00  0.00     0.264 C 
ATOM     10  H   UNL A   1      32.096  27.103  20.957  1.00  0.00     0.348 HD
ATOM     11  C   UNL A   1      33.886  25.954  23.598  1.00  0.00     0.091 C 
ATOM     12  C   UNL A   1      31.381  25.626  23.821  1.00  0.00     0.091 C 
ATOM     13  C   UNL A   1      32.767  25.091  24.249  1.00  0.00     0.065 C 
ATOM     14  N   UNL A   1      32.978  23.661  23.944  1.00  0.00    -0.339 N 
ATOM     15  C   UNL A   1      33.707  23.820  26.175  1.00  0.00     0.116 C 
ATOM     16  C   UNL A   1      33.501  22.929  24.996  1.00  0.00     0.223 C 
ATOM     17  C   UNL A   1      32.571  22.995  22.723  1.00  0.00     0.147 C 
ATOM     18  O   UNL A   1      33.739  21.724  24.995  1.00  0.00    -0.275 OA
BRANCH   7  19
ATOM     19  C   UNL A   1      32.299  28.412  22.332  1.00  0.00     0.264 C 
BRANCH  19  20
ATOM     20  C   UNL A   1      31.048  29.119  22.890  1.00  0.00     0.083 C 
BRANCH  20  21
ATOM     21  C   UNL A   1      29.942  29.658  21.969  1.00  0.00     0.129 C 
BRANCH  21  22
ATOM     22  N   UNL A   1      28.980  30.640  22.434  1.00  0.00    -0.335 N 
ATOM     23  C   UNL A   1      27.217  28.948  23.157  1.00  0.00     0.087 C 
ATOM     24  C   UNL A   1      27.751  30.323  22.995  1.00  0.00     0.105 A 
ATOM     25  N   UNL A   1      27.113  31.409  23.378  1.00  0.00    -0.242 NA
ATOM     26  C   UNL A   1      27.954  32.446  23.116  1.00  0.00     0.131 A 
ATOM     27  C   UNL A   1      29.110  31.994  22.529  1.00  0.00     0.107 A 
ENDBRANCH  21  22
ENDBRANCH  20  21
ENDBRANCH  19  20
ENDBRANCH   7  19
ENDBRANCH   3   6
ENDBRANCH   1   2
BRANCH   1  28
ATOM     28  C   UNL A   1      32.383  28.935  27.417  1.00  0.00     0.042 C 
BRANCH  28  29
ATOM     29  C   UNL A   1      33.688  29.388  26.798  1.00  0.00     0.118 C 
BRANCH  29  30
ATOM     30  N   UNL A   1      33.918  30.834  26.936  1.00  0.00    -0.352 N 
ATOM     31  C   UNL A   1      34.898  31.469  27.676  1.00  0.00     0.251 C 
ATOM     32  H   UNL A   1      33.300  31.420  26.442  1.00  0.00     0.163 HD
ATOM     33  O   UNL A   1      34.810  32.658  27.972  1.00  0.00    -0.269 OA
BRANCH  31  34
ATOM     34  C   UNL A   1      36.068  30.680  28.086  1.00  0.00     0.039 A 
ATOM     35  C   UNL A   1      36.255  29.343  27.728  1.00  0.00     0.014 A 
ATOM     36  C   UNL A   1      37.039  31.372  28.796  1.00  0.00     0.014 A 
ATOM     37  C   UNL A   1      37.465  28.738  28.062  1.00  0.00     0.010 A 
ATOM     38  C   UNL A   1      38.305  30.882  28.835  1.00  0.00     0.010 A 
ATOM     39  C   UNL A   1      38.484  29.529  28.613  1.00  0.00    -0.014 A 
BRANCH  39  40
ATOM     40  C   UNL A   1      39.787  29.011  28.977  1.00  0.00     0.031 A 
ATOM     41  C   UNL A   1      40.009  28.844  30.426  1.00  0.00     0.074 A 
ATOM     42  C   UNL A   1      40.638  28.513  28.055  1.00  0.00     0.049 A 
ATOM     43  N   UNL A   1      40.774  29.571  31.165  1.00  0.00    -0.248 NA
ATOM     44  C   UNL A   1      39.203  27.867  31.171  1.00  0.00     0.031 C 
ATOM     45  C   UNL A   1      40.440  28.332  26.607  1.00  0.00     0.029 A 
ATOM     46  N   UNL A   1      41.844  27.928  28.257  1.00  0.00    -0.354 N 
ATOM     47  C   UNL A   1      40.709  29.027  32.438  1.00  0.00     0.074 A 
ATOM     48  C   UNL A   1      39.601  28.103  32.425  1.00  0.00     0.031 C 
ATOM     49  C   UNL A   1      41.364  27.468  26.128  1.00  0.00     0.029 A 
ATOM     50  C   UNL A   1      42.316  27.185  27.184  1.00  0.00     0.049 A 
ATOM     51  H   UNL A   1      42.346  28.024  29.098  1.00  0.00     0.167 HD
ATOM     52  C   UNL A   1      41.722  29.211  33.328  1.00  0.00     0.031 A 
ATOM     53  C   UNL A   1      43.402  26.374  27.184  1.00  0.00     0.031 A 
ATOM     54  C   UNL A   1      42.682  30.173  32.844  1.00  0.00     0.049 A 
ATOM     55  C   UNL A   1      44.268  26.815  28.306  1.00  0.00     0.074 A 
ATOM     56  C   UNL A   1      42.622  31.508  32.493  1.00  0.00     0.029 A 
ATOM     57  N   UNL A   1      43.812  29.669  32.238  1.00  0.00    -0.354 N 
ATOM     58  N   UNL A   1      44.864  27.974  28.320  1.00  0.00    -0.248 NA
ATOM     59  C   UNL A   1      44.066  26.208  29.615  1.00  0.00     0.031 C 
ATOM     60  C   UNL A   1      43.422  31.608  31.315  1.00  0.00     0.029 A 
ATOM     61  C   UNL A   1      43.994  30.358  31.066  1.00  0.00     0.049 A 
ATOM     62  H   UNL A   1      44.383  28.945  32.582  1.00  0.00     0.167 HD
ATOM     63  C   UNL A   1      44.684  28.447  29.613  1.00  0.00     0.074 A 
ATOM     64  C   UNL A   1      44.288  27.273  30.393  1.00  0.00     0.031 C 
ATOM     65  C   UNL A   1      44.572  29.786  29.868  1.00  0.00     0.031 A 
BRANCH  52  66
ATOM     66  C   UNL A   1      42.069  28.253  34.428  1.00  0.00    -0.014 A 
ATOM     67  C   UNL A   1      42.672  27.030  34.084  1.00  0.00     0.009 A 
ATOM     68  C   UNL A   1      41.578  28.380  35.739  1.00  0.00     0.009 A 
ATOM     69  C   UNL A   1      42.712  25.963  34.987  1.00  0.00     0.001 A 
ATOM     70  C   UNL A   1      41.650  27.329  36.655  1.00  0.00     0.001 A 
ATOM     71  C   UNL A   1      42.192  26.111  36.269  1.00  0.00     0.000 A 
ENDBRANCH  52  66
BRANCH  53  72
ATOM     72  C   UNL A   1      43.599  25.107  26.450  1.00  0.00    -0.014 A 
ATOM     73  C   UNL A   1      42.629  24.093  26.473  1.00  0.00     0.009 A 
ATOM     74  C   UNL A   1      44.635  24.995  25.503  1.00  0.00     0.009 A 
ATOM     75  C   UNL A   1      42.671  23.033  25.555  1.00  0.00     0.001 A 
ATOM     76  C   UNL A   1      44.679  23.938  24.587  1.00  0.00     0.001 A 
ATOM     77  C   UNL A   1      43.686  22.965  24.603  1.00  0.00     0.000 A 
ENDBRANCH  53  72
BRANCH  65  78
ATOM     78  C   UNL A   1      44.826  30.745  28.725  1.00  0.00    -0.014 A 
ATOM     79  C   UNL A   1      43.898  30.968  27.691  1.00  0.00     0.009 A 
ATOM     80  C   UNL A   1      45.960  31.566  28.781  1.00  0.00     0.009 A 
ATOM     81  C   UNL A   1      44.114  31.958  26.727  1.00  0.00     0.001 A 
ATOM     82  C   UNL A   1      46.167  32.569  27.830  1.00  0.00     0.001 A 
ATOM     83  C   UNL A   1      45.249  32.761  26.800  1.00  0.00     0.000 A 
ENDBRANCH  65  78
ENDBRANCH  39  40
ENDBRANCH  31  34
ENDBRANCH  29  30
ENDBRANCH  28  29
ENDBRANCH   1  28
TORSDOF 14
ENDMDL
MODEL 2
REMARK VINA RESULT:     -12.0      2.370      5.948
REMARK SMILES Cc1nccn1CCC[NH+]1CCC2(CC1)[C@@H](C(=O)NCCCNC(=O)c1ccc(-c3c4nc(c(-c5ccccc5)c5ccc([nH]5)c(-c5ccccc5)c5nc(c(-c6ccccc6)c6ccc3[nH]6)C=C5)C=C4)cc1)CC(=O)N2C
REMARK SMILES IDX 20 1 19 2 17 3 18 4 16 6 10 7 11 8 15 9 12 11 14 12 13 13
REMARK SMILES IDX 77 14 74 15 75 16 78 17 76 18 9 19 8 20 7 21 6 22 1 23 2 24
REMARK SMILES IDX 3 25 4 26 5 27 21 28 22 29 23 30 24 31 25 33 26 34 27 35
REMARK SMILES IDX 73 36 28 37 72 38 29 39 30 40 31 41 66 42 32 43 71 44 65 45
REMARK SMILES IDX 67 46 33 47 70 48 64 49 63 50 34 52 56 53 41 54 55 55 42 56
REMARK SMILES IDX 45 57 54 58 68 59 43 60 44 61 53 63 69 64 46 65 35 66 36 67
REMARK SMILES IDX 40 68 37 69 39 70 38 71 57 72 58 73 62 74 59 75 61 76 60 77
REMARK SMILES IDX 47 78 48 79 52 80 49 81 51 82 50 83
REMARK H PARENT 19 5 10 10 23 32 67 51 45 62
REMARK Flexibility Score: inf
ROOT
ATOM      1  C   UNL A   1      31.042  27.112  26.466  1.00  0.00     0.117 C 
ENDROOT
BRANCH   1   2
ATOM      2  N   UNL A   1      31.314  25.766  26.940  1.00  0.00    -0.356 N 
ATOM      3  C   UNL A   1      32.008  24.771  26.341  1.00  0.00     0.226 C 
ATOM      4  O   UNL A   1      31.617  23.619  26.549  1.00  0.00    -0.275 OA
ATOM      5  H   UNL A   1      30.938  25.546  27.824  1.00  0.00     0.163 HD
BRANCH   3   6
ATOM      6  C   UNL A   1      33.170  25.004  25.386  1.00  0.00     0.114 C 
ATOM      7  N   UNL A   1      31.918  27.314  21.929  1.00  0.00    -0.335 N 
ATOM      8  C   UNL A   1      33.358  27.054  22.054  1.00  0.00     0.264 C 
ATOM      9  C   UNL A   1      31.157  26.104  22.150  1.00  0.00     0.264 C 
ATOM     10  H   UNL A   1      31.664  27.539  20.967  1.00  0.00     0.348 HD
ATOM     11  C   UNL A   1      33.750  26.462  23.413  1.00  0.00     0.091 C 
ATOM     12  C   UNL A   1      31.444  25.409  23.478  1.00  0.00     0.091 C 
ATOM     13  C   UNL A   1      32.932  25.212  23.850  1.00  0.00     0.065 C 
ATOM     14  N   UNL A   1      33.532  23.983  23.293  1.00  0.00    -0.339 N 
ATOM     15  C   UNL A   1      34.225  23.916  25.540  1.00  0.00     0.116 C 
ATOM     16  C   UNL A   1      34.258  23.242  24.210  1.00  0.00     0.223 C 
ATOM     17  C   UNL A   1      33.309  23.473  21.956  1.00  0.00     0.147 C 
ATOM     18  O   UNL A   1      34.827  22.175  23.994  1.00  0.00    -0.275 OA
BRANCH   7  19
ATOM     19  C   UNL A   1      31.513  28.569  22.568  1.00  0.00     0.264 C 
BRANCH  19  20
ATOM     20  C   UNL A   1      30.151  28.755  23.264  1.00  0.00     0.083 C 
BRANCH  20  21
ATOM     21  C   UNL A   1      29.006  29.544  22.610  1.00  0.00     0.129 C 
BRANCH  21  22
ATOM     22  N   UNL A   1      28.931  30.990  22.702  1.00  0.00    -0.335 N 
ATOM     23  C   UNL A   1      27.949  31.344  20.377  1.00  0.00     0.087 C 
ATOM     24  C   UNL A   1      28.431  31.811  21.702  1.00  0.00     0.105 A 
ATOM     25  N   UNL A   1      28.429  33.071  22.081  1.00  0.00    -0.242 NA
ATOM     26  C   UNL A   1      28.881  33.073  23.365  1.00  0.00     0.131 A 
ATOM     27  C   UNL A   1      29.201  31.800  23.766  1.00  0.00     0.107 A 
ENDBRANCH  21  22
ENDBRANCH  20  21
ENDBRANCH  19  20
ENDBRANCH   7  19
ENDBRANCH   3   6
ENDBRANCH   1   2
BRANCH   1  28
ATOM     28  C   UNL A   1      31.205  28.141  27.581  1.00  0.00     0.042 C 
BRANCH  28  29
ATOM     29  C   UNL A   1      32.264  29.165  27.232  1.00  0.00     0.118 C 
BRANCH  29  30
ATOM     30  N   UNL A   1      31.698  30.442  26.771  1.00  0.00    -0.352 N 
ATOM     31  C   UNL A   1      32.169  31.717  27.022  1.00  0.00     0.251 C 
ATOM     32  H   UNL A   1      30.888  30.381  26.214  1.00  0.00     0.163 HD
ATOM     33  O   UNL A   1      31.459  32.707  26.858  1.00  0.00    -0.269 OA
BRANCH  31  34
ATOM     34  C   UNL A   1      33.559  31.859  27.475  1.00  0.00     0.039 A 
ATOM     35  C   UNL A   1      34.041  32.995  28.129  1.00  0.00     0.014 A 
ATOM     36  C   UNL A   1      34.368  30.747  27.287  1.00  0.00     0.014 A 
ATOM     37  C   UNL A   1      35.340  32.962  28.631  1.00  0.00     0.010 A 
ATOM     38  C   UNL A   1      35.492  30.611  28.038  1.00  0.00     0.010 A 
ATOM     39  C   UNL A   1      36.051  31.754  28.580  1.00  0.00    -0.014 A 
BRANCH  39  40
ATOM     40  C   UNL A   1      37.397  31.599  29.090  1.00  0.00     0.031 A 
ATOM     41  C   UNL A   1      38.006  30.276  28.853  1.00  0.00     0.074 A 
ATOM     42  C   UNL A   1      38.113  32.651  29.543  1.00  0.00     0.049 A 
ATOM     43  N   UNL A   1      38.225  29.371  29.743  1.00  0.00    -0.248 NA
ATOM     44  C   UNL A   1      38.276  29.843  27.475  1.00  0.00     0.031 C 
ATOM     45  C   UNL A   1      37.756  34.079  29.564  1.00  0.00     0.029 A 
ATOM     46  N   UNL A   1      39.398  32.668  29.972  1.00  0.00    -0.354 N 
ATOM     47  C   UNL A   1      38.845  28.323  29.082  1.00  0.00     0.074 A 
ATOM     48  C   UNL A   1      38.690  28.588  27.672  1.00  0.00     0.031 C 
ATOM     49  C   UNL A   1      38.872  34.823  29.736  1.00  0.00     0.029 A 
ATOM     50  C   UNL A   1      39.978  33.928  30.019  1.00  0.00     0.049 A 
ATOM     51  H   UNL A   1      39.883  31.851  30.229  1.00  0.00     0.167 HD
ATOM     52  C   UNL A   1      39.639  27.446  29.755  1.00  0.00     0.031 A 
ATOM     53  C   UNL A   1      41.285  34.203  30.248  1.00  0.00     0.031 A 
ATOM     54  C   UNL A   1      39.548  27.639  31.182  1.00  0.00     0.049 A 
ATOM     55  C   UNL A   1      41.857  33.024  30.943  1.00  0.00     0.074 A 
ATOM     56  C   UNL A   1      38.524  27.565  32.105  1.00  0.00     0.029 A 
ATOM     57  N   UNL A   1      40.537  28.398  31.768  1.00  0.00    -0.354 N 
ATOM     58  N   UNL A   1      41.496  32.672  32.146  1.00  0.00    -0.248 NA
ATOM     59  C   UNL A   1      42.433  31.957  30.135  1.00  0.00     0.031 C 
ATOM     60  C   UNL A   1      38.739  28.676  32.974  1.00  0.00     0.029 A 
ATOM     61  C   UNL A   1      39.924  29.310  32.591  1.00  0.00     0.049 A 
ATOM     62  H   UNL A   1      41.506  28.306  31.622  1.00  0.00     0.167 HD
ATOM     63  C   UNL A   1      41.355  31.292  32.083  1.00  0.00     0.074 A 
ATOM     64  C   UNL A   1      42.053  30.897  30.858  1.00  0.00     0.031 C 
ATOM     65  C   UNL A   1      40.433  30.639  32.853  1.00  0.00     0.031 A 
BRANCH  52  66
ATOM     66  C   UNL A   1      40.787  26.700  29.144  1.00  0.00    -0.014 A 
ATOM     67  C   UNL A   1      42.011  27.372  28.981  1.00  0.00     0.009 A 
ATOM     68  C   UNL A   1      40.634  25.474  28.472  1.00  0.00     0.009 A 
ATOM     69  C   UNL A   1      43.002  26.876  28.129  1.00  0.00     0.001 A 
ATOM     70  C   UNL A   1      41.637  24.957  27.650  1.00  0.00     0.001 A 
ATOM     71  C   UNL A   1      42.810  25.673  27.456  1.00  0.00     0.000 A 
ENDBRANCH  52  66
BRANCH  53  72
ATOM     72  C   UNL A   1      42.105  35.294  29.681  1.00  0.00    -0.014 A 
ATOM     73  C   UNL A   1      43.237  35.779  30.355  1.00  0.00     0.009 A 
ATOM     74  C   UNL A   1      41.928  35.686  28.341  1.00  0.00     0.009 A 
ATOM     75  C   UNL A   1      44.175  36.589  29.698  1.00  0.00     0.001 A 
ATOM     76  C   UNL A   1      42.863  36.495  27.685  1.00  0.00     0.001 A 
ATOM     77  C   UNL A   1      43.997  36.932  28.360  1.00  0.00     0.000 A 
ENDBRANCH  53  72
BRANCH  65  78
ATOM     78  C   UNL A   1      39.695  31.442  33.902  1.00  0.00    -0.014 A 
ATOM     79  C   UNL A   1      38.544  32.199  33.620  1.00  0.00     0.009 A 
ATOM     80  C   UNL A   1      40.075  31.299  35.243  1.00  0.00     0.009 A 
ATOM     81  C   UNL A   1      37.816  32.819  34.642  1.00  0.00     0.001 A 
ATOM     82  C   UNL A   1      39.339  31.901  36.267  1.00  0.00     0.001 A 
ATOM     83  C   UNL A   1      38.214  32.665  35.966  1.00  0.00     0.000 A 
ENDBRANCH  65  78
ENDBRANCH  39  40
ENDBRANCH  31  34
ENDBRANCH  29  30
ENDBRANCH  28  29
ENDBRANCH   1  28
TORSDOF 14
ENDMDL
MODEL 3
REMARK VINA RESULT:     -11.8      2.886      7.322
REMARK SMILES Cc1nccn1CCC[NH+]1CCC2(CC1)[C@@H](C(=O)NCCCNC(=O)c1ccc(-c3c4nc(c(-c5ccccc5)c5ccc([nH]5)c(-c5ccccc5)c5nc(c(-c6ccccc6)c6ccc3[nH]6)C=C5)C=C4)cc1)CC(=O)N2C
REMARK SMILES IDX 20 1 19 2 17 3 18 4 16 6 10 7 11 8 15 9 12 11 14 12 13 13
REMARK SMILES IDX 77 14 74 15 75 16 78 17 76 18 9 19 8 20 7 21 6 22 1 23 2 24
REMARK SMILES IDX 3 25 4 26 5 27 21 28 22 29 23 30 24 31 25 33 26 34 27 35
REMARK SMILES IDX 73 36 28 37 72 38 29 39 30 40 31 41 66 42 32 43 71 44 65 45
REMARK SMILES IDX 67 46 33 47 70 48 64 49 63 50 34 52 56 53 41 54 55 55 42 56
REMARK SMILES IDX 45 57 54 58 68 59 43 60 44 61 53 63 69 64 46 65 35 66 36 67
REMARK SMILES IDX 40 68 37 69 39 70 38 71 57 72 58 73 62 74 59 75 61 76 60 77
REMARK SMILES IDX 47 78 48 79 52 80 49 81 51 82 50 83
REMARK H PARENT 19 5 10 10 23 32 67 51 45 62
REMARK Flexibility Score: inf
ROOT
ATOM      1  C   UNL A   1      31.794  30.199  25.623  1.00  0.00     0.117 C 
ENDROOT
BRANCH   1   2
ATOM      2  N   UNL A   1      31.913  29.013  26.452  1.00  0.00    -0.356 N 
ATOM      3  C   UNL A   1      31.353  27.792  26.285  1.00  0.00     0.226 C 
ATOM      4  O   UNL A   1      31.046  27.179  27.311  1.00  0.00    -0.275 OA
ATOM      5  H   UNL A   1      32.482  29.111  27.249  1.00  0.00     0.163 HD
BRANCH   3   6
ATOM      6  C   UNL A   1      31.021  27.190  24.927  1.00  0.00     0.114 C 
ATOM      7  N   UNL A   1      33.505  23.726  24.098  1.00  0.00    -0.335 N 
ATOM      8  C   UNL A   1      32.422  23.998  23.144  1.00  0.00     0.264 C 
ATOM      9  C   UNL A   1      34.241  24.935  24.396  1.00  0.00     0.264 C 
ATOM     10  H   UNL A   1      34.231  23.145  23.679  1.00  0.00     0.348 HD
ATOM     11  C   UNL A   1      31.440  25.070  23.630  1.00  0.00     0.091 C 
ATOM     12  C   UNL A   1      33.382  26.091  24.902  1.00  0.00     0.091 C 
ATOM     13  C   UNL A   1      32.095  26.400  24.102  1.00  0.00     0.065 C 
ATOM     14  N   UNL A   1      32.305  27.306  22.954  1.00  0.00    -0.339 N 
ATOM     15  C   UNL A   1      30.417  28.239  24.003  1.00  0.00     0.116 C 
ATOM     16  C   UNL A   1      31.386  28.338  22.873  1.00  0.00     0.223 C 
ATOM     17  C   UNL A   1      33.427  27.254  22.040  1.00  0.00     0.147 C 
ATOM     18  O   UNL A   1      31.367  29.229  22.027  1.00  0.00    -0.275 OA
BRANCH   7  19
ATOM     19  C   UNL A   1      33.093  22.826  25.178  1.00  0.00     0.264 C 
BRANCH  19  20
ATOM     20  C   UNL A   1      33.393  21.315  25.172  1.00  0.00     0.083 C 
BRANCH  20  21
ATOM     21  C   UNL A   1      32.463  20.305  24.480  1.00  0.00     0.129 C 
BRANCH  21  22
ATOM     22  N   UNL A   1      32.579  18.878  24.720  1.00  0.00    -0.335 N 
ATOM     23  C   UNL A   1      32.408  18.194  22.271  1.00  0.00     0.087 C 
ATOM     24  C   UNL A   1      32.578  17.917  23.720  1.00  0.00     0.105 A 
ATOM     25  N   UNL A   1      32.757  16.713  24.221  1.00  0.00    -0.242 NA
ATOM     26  C   UNL A   1      32.933  16.891  25.559  1.00  0.00     0.131 A 
ATOM     27  C   UNL A   1      32.823  18.219  25.889  1.00  0.00     0.107 A 
ENDBRANCH  21  22
ENDBRANCH  20  21
ENDBRANCH  19  20
ENDBRANCH   7  19
ENDBRANCH   3   6
ENDBRANCH   1   2
BRANCH   1  28
ATOM     28  C   UNL A   1      31.326  31.404  26.435  1.00  0.00     0.042 C 
BRANCH  28  29
ATOM     29  C   UNL A   1      32.486  32.076  27.138  1.00  0.00     0.118 C 
BRANCH  29  30
ATOM     30  N   UNL A   1      32.250  33.503  27.402  1.00  0.00    -0.352 N 
ATOM     31  C   UNL A   1      32.903  34.316  28.310  1.00  0.00     0.251 C 
ATOM     32  H   UNL A   1      31.543  33.932  26.867  1.00  0.00     0.163 HD
ATOM     33  O   UNL A   1      32.426  35.390  28.669  1.00  0.00    -0.269 OA
BRANCH  31  34
ATOM     34  C   UNL A   1      34.204  33.866  28.823  1.00  0.00     0.039 A 
ATOM     35  C   UNL A   1      34.379  33.320  30.096  1.00  0.00     0.014 A 
ATOM     36  C   UNL A   1      35.261  33.938  27.926  1.00  0.00     0.014 A 
ATOM     37  C   UNL A   1      35.632  32.805  30.423  1.00  0.00     0.010 A 
ATOM     38  C   UNL A   1      36.360  33.168  28.134  1.00  0.00     0.010 A 
ATOM     39  C   UNL A   1      36.613  32.734  29.422  1.00  0.00    -0.014 A 
BRANCH  39  40
ATOM     40  C   UNL A   1      37.940  32.199  29.643  1.00  0.00     0.031 A 
ATOM     41  C   UNL A   1      38.106  30.775  29.293  1.00  0.00     0.074 A 
ATOM     42  C   UNL A   1      38.991  32.997  29.932  1.00  0.00     0.049 A 
ATOM     43  N   UNL A   1      38.244  29.801  30.124  1.00  0.00    -0.248 NA
ATOM     44  C   UNL A   1      37.965  30.356  27.892  1.00  0.00     0.031 C 
ATOM     45  C   UNL A   1      39.048  34.466  30.018  1.00  0.00     0.029 A 
ATOM     46  N   UNL A   1      40.291  32.648  30.085  1.00  0.00    -0.354 N 
ATOM     47  C   UNL A   1      38.409  28.660  29.355  1.00  0.00     0.074 A 
ATOM     48  C   UNL A   1      38.052  29.028  28.006  1.00  0.00     0.031 C 
ATOM     49  C   UNL A   1      40.335  34.874  29.950  1.00  0.00     0.029 A 
ATOM     50  C   UNL A   1      41.189  33.703  30.003  1.00  0.00     0.049 A 
ATOM     51  H   UNL A   1      40.576  31.719  30.241  1.00  0.00     0.167 HD
ATOM     52  C   UNL A   1      39.053  27.570  29.853  1.00  0.00     0.031 A 
ATOM     53  C   UNL A   1      42.540  33.607  29.955  1.00  0.00     0.031 A 
ATOM     54  C   UNL A   1      39.307  27.707  31.267  1.00  0.00     0.049 A 
ATOM     55  C   UNL A   1      42.897  32.283  30.523  1.00  0.00     0.074 A 
ATOM     56  C   UNL A   1      38.508  27.863  32.383  1.00  0.00     0.029 A 
ATOM     57  N   UNL A   1      40.562  28.144  31.631  1.00  0.00    -0.354 N 
ATOM     58  N   UNL A   1      42.704  31.981  31.777  1.00  0.00    -0.248 NA
ATOM     59  C   UNL A   1      42.986  31.144  29.619  1.00  0.00     0.031 C 
ATOM     60  C   UNL A   1      39.189  28.830  33.182  1.00  0.00     0.029 A 
ATOM     61  C   UNL A   1      40.399  29.142  32.557  1.00  0.00     0.049 A 
ATOM     62  H   UNL A   1      41.419  27.803  31.287  1.00  0.00     0.167 HD
ATOM     63  C   UNL A   1      42.182  30.694  31.752  1.00  0.00     0.074 A 
ATOM     64  C   UNL A   1      42.485  30.189  30.411  1.00  0.00     0.031 C 
ATOM     65  C   UNL A   1      41.292  30.272  32.701  1.00  0.00     0.031 A 
BRANCH  52  66
ATOM     66  C   UNL A   1      39.807  26.576  29.022  1.00  0.00    -0.014 A 
ATOM     67  C   UNL A   1      41.202  26.718  28.911  1.00  0.00     0.009 A 
ATOM     68  C   UNL A   1      39.180  25.690  28.128  1.00  0.00     0.009 A 
ATOM     69  C   UNL A   1      41.919  26.061  27.906  1.00  0.00     0.001 A 
ATOM     70  C   UNL A   1      39.899  25.004  27.148  1.00  0.00     0.001 A 
ATOM     71  C   UNL A   1      41.265  25.212  27.019  1.00  0.00     0.000 A 
ENDBRANCH  52  66
BRANCH  53  72
ATOM     72  C   UNL A   1      43.495  34.466  29.223  1.00  0.00    -0.014 A 
ATOM     73  C   UNL A   1      43.665  34.346  27.835  1.00  0.00     0.009 A 
ATOM     74  C   UNL A   1      44.055  35.593  29.853  1.00  0.00     0.009 A 
ATOM     75  C   UNL A   1      44.332  35.340  27.103  1.00  0.00     0.001 A 
ATOM     76  C   UNL A   1      44.721  36.584  29.124  1.00  0.00     0.001 A 
ATOM     77  C   UNL A   1      44.845  36.465  27.745  1.00  0.00     0.000 A 
ENDBRANCH  53  72
BRANCH  65  78
ATOM     78  C   UNL A   1      41.027  31.189  33.875  1.00  0.00    -0.014 A 
ATOM     79  C   UNL A   1      40.171  32.302  33.801  1.00  0.00     0.009 A 
ATOM     80  C   UNL A   1      41.525  30.824  35.133  1.00  0.00     0.009 A 
ATOM     81  C   UNL A   1      39.850  33.045  34.943  1.00  0.00     0.001 A 
ATOM     82  C   UNL A   1      41.190  31.554  36.277  1.00  0.00     0.001 A 
ATOM     83  C   UNL A   1      40.358  32.667  36.182  1.00  0.00     0.000 A 
ENDBRANCH  65  78
ENDBRANCH  39  40
ENDBRANCH  31  34
ENDBRANCH  29  30
ENDBRANCH  28  29
ENDBRANCH   1  28
TORSDOF 14
ENDMDL
