MODEL 1
REMARK VINA RESULT:     -13.3      0.000      0.000
REMARK SMILES Cc1c(Cl)cccc1NC(=O)C[C@](C)(C(=O)NCCCNC(=O)c1ccc(-c2c3nc(c(-c4ccccc4)c4ccc([nH]4)c(-c4ccccc4)c4nc(c(-c5ccccc5)c5ccc2[nH]5)C=C4)C=C3)cc1)c1ccccc1
REMARK SMILES IDX 18 1 17 2 15 3 16 4 13 6 14 7 12 8 10 9 9 10 11 12 8 13 1 14
REMARK SMILES IDX 2 15 3 16 4 17 5 18 7 19 6 20 72 21 73 22 77 23 74 24 76 25
REMARK SMILES IDX 75 26 19 27 20 28 21 29 22 30 23 32 24 33 25 34 71 35 26 36
REMARK SMILES IDX 70 37 27 38 28 39 29 40 64 41 30 42 69 43 63 44 65 45 31 46
REMARK SMILES IDX 68 47 62 48 61 49 32 51 54 52 39 53 53 54 40 55 43 56 52 57
REMARK SMILES IDX 66 58 41 59 42 60 51 62 67 63 44 64 33 65 34 66 38 67 35 68
REMARK SMILES IDX 37 69 36 70 55 71 56 72 60 73 57 74 59 75 58 76 45 77 46 78
REMARK SMILES IDX 50 79 47 80 49 81 48 82
REMARK H PARENT 17 5 9 11 21 31 65 50 43 61
REMARK Flexibility Score: inf
ROOT
ATOM      1  C   UNL A   1      32.187  30.473  26.801  1.00  0.00     0.117 C 
ENDROOT
BRANCH   1   2
ATOM      2  N   UNL A   1      32.702  29.226  25.204  1.00  0.00    -0.355 N 
ATOM      3  C   UNL A   1      32.403  28.283  24.159  1.00  0.00     0.230 C 
ATOM      4  O   UNL A   1      33.441  28.065  23.506  1.00  0.00    -0.274 OA
ATOM      5  H   UNL A   1      33.674  29.351  25.124  1.00  0.00     0.163 HD
BRANCH   3   6
ATOM      6  C   UNL A   1      31.046  27.461  23.807  1.00  0.00     0.080 C 
ATOM      7  C   UNL A   1      31.305  26.766  22.416  1.00  0.00     0.027 C 
BRANCH   6   8
ATOM      8  C   UNL A   1      30.506  26.464  24.896  1.00  0.00     0.121 C 
BRANCH   8   9
ATOM      9  C   UNL A   1      31.155  26.427  26.266  1.00  0.00     0.225 C 
ATOM     10  N   UNL A   1      31.986  25.408  26.621  1.00  0.00    -0.326 N 
ATOM     11  H   UNL A   1      32.139  25.240  27.579  1.00  0.00     0.169 HD
ATOM     12  O   UNL A   1      30.913  27.295  27.109  1.00  0.00    -0.275 OA
BRANCH  10  13
ATOM     13  C   UNL A   1      32.631  24.592  25.699  1.00  0.00     0.045 A 
ATOM     14  C   UNL A   1      30.641  22.527  25.858  1.00  0.00     0.048 C 
ATOM     15  C   UNL A   1      32.100  22.860  25.701  1.00  0.00    -0.009 A 
ATOM     16  C   UNL A   1      33.199  21.583  25.042  1.00  0.00     0.046 A 
ATOM     17  Cl  UNL A   1      32.662  19.959  24.869  1.00  0.00    -0.084 Cl
ATOM     18  C   UNL A   1      34.836  22.016  24.443  1.00  0.00     0.021 A 
ATOM     19  C   UNL A   1      34.249  25.056  24.971  1.00  0.00     0.026 A 
ATOM     20  C   UNL A   1      35.376  23.745  24.412  1.00  0.00     0.004 A 
ENDBRANCH  10  13
ENDBRANCH   8   9
ENDBRANCH   6   8
BRANCH   6  21
ATOM     21  C   UNL A   1      29.767  28.335  23.467  1.00  0.00    -0.032 A 
ATOM     22  C   UNL A   1      29.932  29.748  23.361  1.00  0.00     0.005 A 
ATOM     23  C   UNL A   1      28.479  27.839  23.259  1.00  0.00     0.005 A 
ATOM     24  C   UNL A   1      28.860  30.620  23.196  1.00  0.00     0.000 A 
ATOM     25  C   UNL A   1      27.398  28.718  23.078  1.00  0.00     0.000 A 
ATOM     26  C   UNL A   1      27.584  30.101  23.073  1.00  0.00     0.000 A 
ENDBRANCH   6  21
ENDBRANCH   3   6
ENDBRANCH   1   2
BRANCH   1  27
ATOM     27  C   UNL A   1      31.379  31.969  26.900  1.00  0.00     0.042 C 
BRANCH  27  28
ATOM     28  C   UNL A   1      32.370  33.114  26.797  1.00  0.00     0.118 C 
BRANCH  28  29
ATOM     29  N   UNL A   1      32.145  34.209  27.732  1.00  0.00    -0.352 N 
ATOM     30  C   UNL A   1      33.064  34.673  28.644  1.00  0.00     0.251 C 
ATOM     31  H   UNL A   1      31.266  34.652  27.708  1.00  0.00     0.163 HD
ATOM     32  O   UNL A   1      32.865  35.651  29.347  1.00  0.00    -0.269 OA
BRANCH  30  33
ATOM     33  C   UNL A   1      34.251  33.825  28.805  1.00  0.00     0.039 A 
ATOM     34  C   UNL A   1      35.464  34.388  28.413  1.00  0.00     0.014 A 
ATOM     35  C   UNL A   1      34.186  32.719  29.657  1.00  0.00     0.014 A 
ATOM     36  C   UNL A   1      36.640  33.855  28.915  1.00  0.00     0.010 A 
ATOM     37  C   UNL A   1      35.356  32.276  30.252  1.00  0.00     0.010 A 
ATOM     38  C   UNL A   1      36.591  32.817  29.860  1.00  0.00    -0.014 A 
BRANCH  38  39
ATOM     39  C   UNL A   1      37.853  32.228  30.353  1.00  0.00     0.031 A 
ATOM     40  C   UNL A   1      38.444  32.772  31.622  1.00  0.00     0.074 A 
ATOM     41  C   UNL A   1      38.419  31.194  29.702  1.00  0.00     0.049 A 
ATOM     42  N   UNL A   1      39.477  32.344  32.297  1.00  0.00    -0.248 NA
ATOM     43  C   UNL A   1      37.803  33.965  32.204  1.00  0.00     0.031 C 
ATOM     44  C   UNL A   1      37.938  30.614  28.444  1.00  0.00     0.029 A 
ATOM     45  N   UNL A   1      39.504  30.424  30.027  1.00  0.00    -0.354 N 
ATOM     46  C   UNL A   1      39.607  33.219  33.366  1.00  0.00     0.074 A 
ATOM     47  C   UNL A   1      38.606  34.245  33.213  1.00  0.00     0.031 C 
ATOM     48  C   UNL A   1      38.692  29.546  28.136  1.00  0.00     0.029 A 
ATOM     49  C   UNL A   1      39.729  29.390  29.151  1.00  0.00     0.049 A 
ATOM     50  H   UNL A   1      40.070  30.596  30.814  1.00  0.00     0.167 HD
ATOM     51  C   UNL A   1      40.463  33.153  34.410  1.00  0.00     0.031 A 
ATOM     52  C   UNL A   1      40.665  28.421  29.175  1.00  0.00     0.031 A 
ATOM     53  C   UNL A   1      41.448  32.121  34.554  1.00  0.00     0.049 A 
ATOM     54  C   UNL A   1      41.628  28.388  30.332  1.00  0.00     0.074 A 
ATOM     55  C   UNL A   1      42.346  31.928  35.586  1.00  0.00     0.029 A 
ATOM     56  N   UNL A   1      41.667  31.112  33.629  1.00  0.00    -0.354 N 
ATOM     57  N   UNL A   1      41.689  29.177  31.380  1.00  0.00    -0.248 NA
ATOM     58  C   UNL A   1      42.639  27.324  30.321  1.00  0.00     0.031 C 
ATOM     59  C   UNL A   1      43.161  30.845  35.247  1.00  0.00     0.029 A 
ATOM     60  C   UNL A   1      42.714  30.312  34.047  1.00  0.00     0.049 A 
ATOM     61  H   UNL A   1      41.154  30.984  32.798  1.00  0.00     0.167 HD
ATOM     62  C   UNL A   1      42.727  28.688  32.164  1.00  0.00     0.074 A 
ATOM     63  C   UNL A   1      43.246  27.520  31.482  1.00  0.00     0.031 C 
ATOM     64  C   UNL A   1      43.210  29.159  33.340  1.00  0.00     0.031 A 
BRANCH  51  65
ATOM     65  C   UNL A   1      40.377  34.239  35.444  1.00  0.00    -0.014 A 
ATOM     66  C   UNL A   1      41.091  35.441  35.311  1.00  0.00     0.009 A 
ATOM     67  C   UNL A   1      39.561  34.056  36.570  1.00  0.00     0.009 A 
ATOM     68  C   UNL A   1      41.021  36.421  36.305  1.00  0.00     0.001 A 
ATOM     69  C   UNL A   1      39.462  35.053  37.543  1.00  0.00     0.001 A 
ATOM     70  C   UNL A   1      40.200  36.228  37.415  1.00  0.00     0.000 A 
ENDBRANCH  51  65
BRANCH  52  71
ATOM     71  C   UNL A   1      40.740  27.414  28.082  1.00  0.00    -0.014 A 
ATOM     72  C   UNL A   1      41.512  27.643  26.933  1.00  0.00     0.009 A 
ATOM     73  C   UNL A   1      40.014  26.215  28.174  1.00  0.00     0.009 A 
ATOM     74  C   UNL A   1      41.527  26.714  25.887  1.00  0.00     0.001 A 
ATOM     75  C   UNL A   1      40.059  25.272  27.146  1.00  0.00     0.001 A 
ATOM     76  C   UNL A   1      40.804  25.528  25.997  1.00  0.00     0.000 A 
ENDBRANCH  52  71
BRANCH  64  77
ATOM     77  C   UNL A   1      44.331  28.388  33.979  1.00  0.00    -0.014 A 
ATOM     78  C   UNL A   1      45.674  28.713  33.739  1.00  0.00     0.009 A 
ATOM     79  C   UNL A   1      44.030  27.349  34.873  1.00  0.00     0.009 A 
ATOM     80  C   UNL A   1      46.695  27.982  34.349  1.00  0.00     0.001 A 
ATOM     81  C   UNL A   1      45.051  26.648  35.514  1.00  0.00     0.001 A 
ATOM     82  C   UNL A   1      46.382  26.956  35.241  1.00  0.00     0.000 A 
ENDBRANCH  64  77
ENDBRANCH  38  39
ENDBRANCH  30  33
ENDBRANCH  28  29
ENDBRANCH  27  28
ENDBRANCH   1  27
TORSDOF 14
ENDMDL
MODEL 2
REMARK VINA RESULT:     -13.1      4.297      9.610
REMARK SMILES Cc1c(Cl)cccc1NC(=O)C[C@](C)(C(=O)NCCCNC(=O)c1ccc(-c2c3nc(c(-c4ccccc4)c4ccc([nH]4)c(-c4ccccc4)c4nc(c(-c5ccccc5)c5ccc2[nH]5)C=C4)C=C3)cc1)c1ccccc1
REMARK SMILES IDX 18 1 17 2 15 3 16 4 13 6 14 7 12 8 10 9 9 10 11 12 8 13 1 14
REMARK SMILES IDX 2 15 3 16 4 17 5 18 7 19 6 20 72 21 73 22 77 23 74 24 76 25
REMARK SMILES IDX 75 26 19 27 20 28 21 29 22 30 23 32 24 33 25 34 71 35 26 36
REMARK SMILES IDX 70 37 27 38 28 39 29 40 64 41 30 42 69 43 63 44 65 45 31 46
REMARK SMILES IDX 68 47 62 48 61 49 32 51 54 52 39 53 53 54 40 55 43 56 52 57
REMARK SMILES IDX 66 58 41 59 42 60 51 62 67 63 44 64 33 65 34 66 38 67 35 68
REMARK SMILES IDX 37 69 36 70 55 71 56 72 60 73 57 74 59 75 58 76 45 77 46 78
REMARK SMILES IDX 50 79 47 80 49 81 48 82
REMARK H PARENT 17 5 9 11 21 31 65 50 43 61
REMARK Flexibility Score: inf
ROOT
ATOM      1  C   UNL A   1      37.839  21.152  25.082  1.00  0.00     0.117 C 
ENDROOT
BRANCH   1   2
ATOM      2  N   UNL A   1      36.041  21.782  25.945  1.00  0.00    -0.355 N 
ATOM      3  C   UNL A   1      34.609  21.910  25.987  1.00  0.00     0.230 C 
ATOM      4  O   UNL A   1      34.285  22.446  27.063  1.00  0.00    -0.274 OA
ATOM      5  H   UNL A   1      36.333  22.238  26.767  1.00  0.00     0.163 HD
BRANCH   3   6
ATOM      6  C   UNL A   1      33.466  21.575  24.881  1.00  0.00     0.080 C 
ATOM      7  C   UNL A   1      32.093  21.583  25.657  1.00  0.00     0.027 C 
BRANCH   6   8
ATOM      8  C   UNL A   1      33.439  22.461  23.584  1.00  0.00     0.121 C 
BRANCH   8   9
ATOM      9  C   UNL A   1      34.585  23.414  23.301  1.00  0.00     0.225 C 
ATOM     10  N   UNL A   1      34.399  24.763  23.337  1.00  0.00    -0.326 N 
ATOM     11  H   UNL A   1      35.043  25.337  22.862  1.00  0.00     0.169 HD
ATOM     12  O   UNL A   1      35.702  22.992  22.992  1.00  0.00    -0.275 OA
BRANCH  10  13
ATOM     13  C   UNL A   1      33.348  25.372  24.010  1.00  0.00     0.045 A 
ATOM     14  C   UNL A   1      31.821  25.800  21.615  1.00  0.00     0.048 C 
ATOM     15  C   UNL A   1      32.218  26.330  22.966  1.00  0.00    -0.009 A 
ATOM     16  C   UNL A   1      31.203  27.634  23.702  1.00  0.00     0.046 A 
ATOM     17  Cl  UNL A   1      29.999  28.443  22.779  1.00  0.00    -0.084 Cl
ATOM     18  C   UNL A   1      31.354  28.024  25.449  1.00  0.00     0.021 A 
ATOM     19  C   UNL A   1      33.412  25.680  25.816  1.00  0.00     0.026 A 
ATOM     20  C   UNL A   1      32.461  27.063  26.513  1.00  0.00     0.004 A 
ENDBRANCH  10  13
ENDBRANCH   8   9
ENDBRANCH   6   8
BRANCH   6  21
ATOM     21  C   UNL A   1      33.468  20.100  24.299  1.00  0.00    -0.032 A 
ATOM     22  C   UNL A   1      32.458  19.753  23.353  1.00  0.00     0.005 A 
ATOM     23  C   UNL A   1      34.382  19.099  24.631  1.00  0.00     0.005 A 
ATOM     24  C   UNL A   1      32.286  18.457  22.878  1.00  0.00     0.000 A 
ATOM     25  C   UNL A   1      34.218  17.793  24.141  1.00  0.00     0.000 A 
ATOM     26  C   UNL A   1      33.162  17.468  23.289  1.00  0.00     0.000 A 
ENDBRANCH   6  21
ENDBRANCH   3   6
ENDBRANCH   1   2
BRANCH   1  27
ATOM     27  C   UNL A   1      38.624  19.644  24.990  1.00  0.00     0.042 C 
BRANCH  27  28
ATOM     28  C   UNL A   1      39.610  19.489  26.133  1.00  0.00     0.118 C 
BRANCH  28  29
ATOM     29  N   UNL A   1      40.947  19.062  25.740  1.00  0.00    -0.352 N 
ATOM     30  C   UNL A   1      42.110  19.739  26.023  1.00  0.00     0.251 C 
ATOM     31  H   UNL A   1      41.023  18.222  25.232  1.00  0.00     0.163 HD
ATOM     32  O   UNL A   1      43.216  19.299  25.752  1.00  0.00    -0.269 OA
BRANCH  30  33
ATOM     33  C   UNL A   1      41.918  21.092  26.558  1.00  0.00     0.039 A 
ATOM     34  C   UNL A   1      41.944  21.213  27.946  1.00  0.00     0.014 A 
ATOM     35  C   UNL A   1      42.107  22.190  25.714  1.00  0.00     0.014 A 
ATOM     36  C   UNL A   1      42.202  22.454  28.503  1.00  0.00     0.010 A 
ATOM     37  C   UNL A   1      42.490  23.397  26.277  1.00  0.00     0.010 A 
ATOM     38  C   UNL A   1      42.507  23.545  27.673  1.00  0.00    -0.014 A 
BRANCH  38  39
ATOM     39  C   UNL A   1      42.736  24.873  28.279  1.00  0.00     0.031 A 
ATOM     40  C   UNL A   1      44.143  25.264  28.625  1.00  0.00     0.074 A 
ATOM     41  C   UNL A   1      41.707  25.723  28.458  1.00  0.00     0.049 A 
ATOM     42  N   UNL A   1      44.594  26.409  29.062  1.00  0.00    -0.248 NA
ATOM     43  C   UNL A   1      45.182  24.228  28.480  1.00  0.00     0.031 C 
ATOM     44  C   UNL A   1      40.297  25.425  28.182  1.00  0.00     0.029 A 
ATOM     45  N   UNL A   1      41.691  27.024  28.885  1.00  0.00    -0.354 N 
ATOM     46  C   UNL A   1      45.957  26.221  29.249  1.00  0.00     0.074 A 
ATOM     47  C   UNL A   1      46.250  24.840  28.958  1.00  0.00     0.031 C 
ATOM     48  C   UNL A   1      39.565  26.531  28.393  1.00  0.00     0.029 A 
ATOM     49  C   UNL A   1      40.444  27.600  28.855  1.00  0.00     0.049 A 
ATOM     50  H   UNL A   1      42.498  27.501  29.187  1.00  0.00     0.167 HD
ATOM     51  C   UNL A   1      46.893  27.131  29.595  1.00  0.00     0.031 A 
ATOM     52  C   UNL A   1      40.062  28.856  29.159  1.00  0.00     0.031 A 
ATOM     53  C   UNL A   1      46.589  28.505  29.872  1.00  0.00     0.049 A 
ATOM     54  C   UNL A   1      41.120  29.843  29.574  1.00  0.00     0.074 A 
ATOM     55  C   UNL A   1      47.457  29.529  30.197  1.00  0.00     0.029 A 
ATOM     56  N   UNL A   1      45.310  29.041  29.864  1.00  0.00    -0.354 N 
ATOM     57  N   UNL A   1      42.418  29.673  29.670  1.00  0.00    -0.248 NA
ATOM     58  C   UNL A   1      40.665  31.199  29.906  1.00  0.00     0.031 C 
ATOM     59  C   UNL A   1      46.695  30.670  30.461  1.00  0.00     0.029 A 
ATOM     60  C   UNL A   1      45.360  30.377  30.217  1.00  0.00     0.049 A 
ATOM     61  H   UNL A   1      44.489  28.546  29.642  1.00  0.00     0.167 HD
ATOM     62  C   UNL A   1      42.937  30.905  30.047  1.00  0.00     0.074 A 
ATOM     63  C   UNL A   1      41.815  31.818  30.135  1.00  0.00     0.031 C 
ATOM     64  C   UNL A   1      44.222  31.256  30.300  1.00  0.00     0.031 A 
BRANCH  51  65
ATOM     65  C   UNL A   1      48.312  26.653  29.715  1.00  0.00    -0.014 A 
ATOM     66  C   UNL A   1      48.821  26.152  30.925  1.00  0.00     0.009 A 
ATOM     67  C   UNL A   1      49.153  26.700  28.593  1.00  0.00     0.009 A 
ATOM     68  C   UNL A   1      50.154  25.746  31.018  1.00  0.00     0.001 A 
ATOM     69  C   UNL A   1      50.474  26.257  28.679  1.00  0.00     0.001 A 
ATOM     70  C   UNL A   1      50.977  25.791  29.893  1.00  0.00     0.000 A 
ENDBRANCH  51  65
BRANCH  52  71
ATOM     71  C   UNL A   1      38.628  29.249  29.086  1.00  0.00    -0.014 A 
ATOM     72  C   UNL A   1      38.070  29.749  27.899  1.00  0.00     0.009 A 
ATOM     73  C   UNL A   1      37.808  29.147  30.222  1.00  0.00     0.009 A 
ATOM     74  C   UNL A   1      36.737  30.170  27.862  1.00  0.00     0.001 A 
ATOM     75  C   UNL A   1      36.468  29.534  30.173  1.00  0.00     0.001 A 
ATOM     76  C   UNL A   1      35.936  30.059  28.997  1.00  0.00     0.000 A 
ENDBRANCH  52  71
BRANCH  64  77
ATOM     77  C   UNL A   1      44.484  32.692  30.658  1.00  0.00    -0.014 A 
ATOM     78  C   UNL A   1      44.507  33.122  31.993  1.00  0.00     0.009 A 
ATOM     79  C   UNL A   1      44.760  33.616  29.638  1.00  0.00     0.009 A 
ATOM     80  C   UNL A   1      44.757  34.462  32.296  1.00  0.00     0.001 A 
ATOM     81  C   UNL A   1      45.051  34.944  29.946  1.00  0.00     0.001 A 
ATOM     82  C   UNL A   1      45.035  35.370  31.273  1.00  0.00     0.000 A 
ENDBRANCH  64  77
ENDBRANCH  38  39
ENDBRANCH  30  33
ENDBRANCH  28  29
ENDBRANCH  27  28
ENDBRANCH   1  27
TORSDOF 14
ENDMDL
MODEL 3
REMARK VINA RESULT:     -13.1      4.441      9.277
REMARK SMILES Cc1c(Cl)cccc1NC(=O)C[C@](C)(C(=O)NCCCNC(=O)c1ccc(-c2c3nc(c(-c4ccccc4)c4ccc([nH]4)c(-c4ccccc4)c4nc(c(-c5ccccc5)c5ccc2[nH]5)C=C4)C=C3)cc1)c1ccccc1
REMARK SMILES IDX 18 1 17 2 15 3 16 4 13 6 14 7 12 8 10 9 9 10 11 12 8 13 1 14
REMARK SMILES IDX 2 15 3 16 4 17 5 18 7 19 6 20 72 21 73 22 77 23 74 24 76 25
REMARK SMILES IDX 75 26 19 27 20 28 21 29 22 30 23 32 24 33 25 34 71 35 26 36
REMARK SMILES IDX 70 37 27 38 28 39 29 40 64 41 30 42 69 43 63 44 65 45 31 46
REMARK SMILES IDX 68 47 62 48 61 49 32 51 54 52 39 53 53 54 40 55 43 56 52 57
REMARK SMILES IDX 66 58 41 59 42 60 51 62 67 63 44 64 33 65 34 66 38 67 35 68
REMARK SMILES IDX 37 69 36 70 55 71 56 72 60 73 57 74 59 75 58 76 45 77 46 78
REMARK SMILES IDX 50 79 47 80 49 81 48 82
REMARK H PARENT 17 5 9 11 21 31 65 50 43 61
REMARK Flexibility Score: inf
ROOT
ATOM      1  C   UNL A   1      36.578  21.126  25.197  1.00  0.00     0.117 C 
ENDROOT
BRANCH   1   2
ATOM      2  N   UNL A   1      35.073  21.489  26.603  1.00  0.00    -0.355 N 
ATOM      3  C   UNL A   1      33.783  21.977  27.010  1.00  0.00     0.230 C 
ATOM      4  O   UNL A   1      33.602  21.685  28.207  1.00  0.00    -0.274 OA
ATOM      5  H   UNL A   1      35.454  21.134  27.438  1.00  0.00     0.163 HD
BRANCH   3   6
ATOM      6  C   UNL A   1      32.671  22.864  26.223  1.00  0.00     0.080 C 
ATOM      7  C   UNL A   1      31.724  21.833  25.497  1.00  0.00     0.027 C 
BRANCH   6   8
ATOM      8  C   UNL A   1      31.880  23.933  27.061  1.00  0.00     0.121 C 
BRANCH   8   9
ATOM      9  C   UNL A   1      30.373  24.035  26.917  1.00  0.00     0.225 C 
ATOM     10  N   UNL A   1      29.801  25.089  26.272  1.00  0.00    -0.326 N 
ATOM     11  H   UNL A   1      28.856  25.293  26.457  1.00  0.00     0.169 HD
ATOM     12  O   UNL A   1      29.627  23.189  27.417  1.00  0.00    -0.275 OA
BRANCH  10  13
ATOM     13  C   UNL A   1      30.483  25.892  25.367  1.00  0.00     0.045 A 
ATOM     14  C   UNL A   1      31.642  27.537  27.416  1.00  0.00     0.048 C 
ATOM     15  C   UNL A   1      31.065  27.475  26.028  1.00  0.00    -0.009 A 
ATOM     16  C   UNL A   1      31.407  28.848  24.901  1.00  0.00     0.046 A 
ATOM     17  Cl  UNL A   1      32.123  30.303  25.472  1.00  0.00    -0.084 Cl
ATOM     18  C   UNL A   1      31.116  28.668  23.137  1.00  0.00     0.021 A 
ATOM     19  C   UNL A   1      30.306  25.662  23.556  1.00  0.00     0.026 A 
ATOM     20  C   UNL A   1      30.556  27.087  22.455  1.00  0.00     0.004 A 
ENDBRANCH  10  13
ENDBRANCH   8   9
ENDBRANCH   6   8
BRANCH   6  21
ATOM     21  C   UNL A   1      33.195  23.705  24.986  1.00  0.00    -0.032 A 
ATOM     22  C   UNL A   1      33.750  24.995  25.242  1.00  0.00     0.005 A 
ATOM     23  C   UNL A   1      33.163  23.292  23.654  1.00  0.00     0.005 A 
ATOM     24  C   UNL A   1      34.119  25.869  24.224  1.00  0.00     0.000 A 
ATOM     25  C   UNL A   1      33.550  24.169  22.626  1.00  0.00     0.000 A 
ATOM     26  C   UNL A   1      34.001  25.459  22.908  1.00  0.00     0.000 A 
ENDBRANCH   6  21
ENDBRANCH   3   6
ENDBRANCH   1   2
BRANCH   1  27
ATOM     27  C   UNL A   1      38.180  21.679  25.034  1.00  0.00     0.042 C 
BRANCH  27  28
ATOM     28  C   UNL A   1      39.057  21.091  26.123  1.00  0.00     0.118 C 
BRANCH  28  29
ATOM     29  N   UNL A   1      39.823  19.915  25.730  1.00  0.00    -0.352 N 
ATOM     30  C   UNL A   1      41.145  19.691  26.036  1.00  0.00     0.251 C 
ATOM     31  H   UNL A   1      39.357  19.226  25.203  1.00  0.00     0.163 HD
ATOM     32  O   UNL A   1      41.723  18.650  25.763  1.00  0.00    -0.269 OA
BRANCH  30  33
ATOM     33  C   UNL A   1      41.849  20.849  26.600  1.00  0.00     0.039 A 
ATOM     34  C   UNL A   1      42.135  21.884  25.712  1.00  0.00     0.014 A 
ATOM     35  C   UNL A   1      41.849  21.037  27.985  1.00  0.00     0.014 A 
ATOM     36  C   UNL A   1      42.391  23.147  26.220  1.00  0.00     0.010 A 
ATOM     37  C   UNL A   1      41.978  22.327  28.475  1.00  0.00     0.010 A 
ATOM     38  C   UNL A   1      42.283  23.382  27.600  1.00  0.00    -0.014 A 
BRANCH  38  39
ATOM     39  C   UNL A   1      42.602  24.722  28.133  1.00  0.00     0.031 A 
ATOM     40  C   UNL A   1      44.047  25.101  28.288  1.00  0.00     0.074 A 
ATOM     41  C   UNL A   1      41.614  25.593  28.415  1.00  0.00     0.049 A 
ATOM     42  N   UNL A   1      44.563  26.251  28.630  1.00  0.00    -0.248 NA
ATOM     43  C   UNL A   1      45.047  24.046  28.044  1.00  0.00     0.031 C 
ATOM     44  C   UNL A   1      40.178  25.309  28.327  1.00  0.00     0.029 A 
ATOM     45  N   UNL A   1      41.668  26.906  28.802  1.00  0.00    -0.354 N 
ATOM     46  C   UNL A   1      45.936  26.048  28.650  1.00  0.00     0.074 A 
ATOM     47  C   UNL A   1      46.174  24.655  28.366  1.00  0.00     0.031 C 
ATOM     48  C   UNL A   1      39.492  26.432  28.596  1.00  0.00     0.029 A 
ATOM     49  C   UNL A   1      40.434  27.500  28.912  1.00  0.00     0.049 A 
ATOM     50  H   UNL A   1      42.512  27.379  28.986  1.00  0.00     0.167 HD
ATOM     51  C   UNL A   1      46.919  26.953  28.848  1.00  0.00     0.031 A 
ATOM     52  C   UNL A   1      40.108  28.769  29.224  1.00  0.00     0.031 A 
ATOM     53  C   UNL A   1      46.668  28.338  29.121  1.00  0.00     0.049 A 
ATOM     54  C   UNL A   1      41.222  29.751  29.473  1.00  0.00     0.074 A 
ATOM     55  C   UNL A   1      47.583  29.358  29.303  1.00  0.00     0.029 A 
ATOM     56  N   UNL A   1      45.405  28.894  29.258  1.00  0.00    -0.354 N 
ATOM     57  N   UNL A   1      42.519  29.564  29.410  1.00  0.00    -0.248 NA
ATOM     58  C   UNL A   1      40.827  31.123  29.819  1.00  0.00     0.031 C 
ATOM     59  C   UNL A   1      46.873  30.517  29.628  1.00  0.00     0.029 A 
ATOM     60  C   UNL A   1      45.515  30.238  29.562  1.00  0.00     0.049 A 
ATOM     61  H   UNL A   1      44.557  28.405  29.155  1.00  0.00     0.167 HD
ATOM     62  C   UNL A   1      43.095  30.798  29.683  1.00  0.00     0.074 A 
ATOM     63  C   UNL A   1      42.004  31.730  29.883  1.00  0.00     0.031 C 
ATOM     64  C   UNL A   1      44.407  31.136  29.761  1.00  0.00     0.031 A 
BRANCH  51  65
ATOM     65  C   UNL A   1      48.336  26.457  28.803  1.00  0.00    -0.014 A 
ATOM     66  C   UNL A   1      48.996  26.006  29.958  1.00  0.00     0.009 A 
ATOM     67  C   UNL A   1      49.021  26.434  27.579  1.00  0.00     0.009 A 
ATOM     68  C   UNL A   1      50.326  25.582  29.895  1.00  0.00     0.001 A 
ATOM     69  C   UNL A   1      50.336  25.973  27.511  1.00  0.00     0.001 A 
ATOM     70  C   UNL A   1      50.991  25.558  28.670  1.00  0.00     0.000 A 
ENDBRANCH  51  65
BRANCH  52  71
ATOM     71  C   UNL A   1      38.681  29.182  29.320  1.00  0.00    -0.014 A 
ATOM     72  C   UNL A   1      37.992  29.685  28.206  1.00  0.00     0.009 A 
ATOM     73  C   UNL A   1      38.001  29.096  30.546  1.00  0.00     0.009 A 
ATOM     74  C   UNL A   1      36.670  30.125  28.325  1.00  0.00     0.001 A 
ATOM     75  C   UNL A   1      36.670  29.501  30.655  1.00  0.00     0.001 A 
ATOM     76  C   UNL A   1      36.009  30.029  29.548  1.00  0.00     0.000 A 
ENDBRANCH  52  71
BRANCH  64  77
ATOM     77  C   UNL A   1      44.728  32.577  30.041  1.00  0.00    -0.014 A 
ATOM     78  C   UNL A   1      44.844  33.518  29.007  1.00  0.00     0.009 A 
ATOM     79  C   UNL A   1      44.868  33.005  31.371  1.00  0.00     0.009 A 
ATOM     80  C   UNL A   1      45.139  34.851  29.298  1.00  0.00     0.001 A 
ATOM     81  C   UNL A   1      45.120  34.345  31.661  1.00  0.00     0.001 A 
ATOM     82  C   UNL A   1      45.270  35.264  30.624  1.00  0.00     0.000 A 
ENDBRANCH  64  77
ENDBRANCH  38  39
ENDBRANCH  30  33
ENDBRANCH  28  29
ENDBRANCH  27  28
ENDBRANCH   1  27
TORSDOF 14
ENDMDL
