MODEL 1
REMARK VINA RESULT:      -9.7      0.000      0.000
REMARK SMILES O=C(CC[N@@H+]1CCC[C@@]2(CCC(=O)N(CCc3ccccc3)C2)C1)NCCCNC(=O)c1ccc(-c2c3nc(c(-c4ccccc4)c4ccc([nH]4)c(-c4ccccc4)c4nc(c(-c5ccccc5)c5ccc2[nH]5)C=C4)C=C3)cc1
REMARK SMILES IDX 1 1 2 2 25 3 3 5 4 6 5 7 6 8 24 9 7 11 9 12 8 13 10 14 23 15
REMARK SMILES IDX 11 16 14 17 12 18 13 19 15 20 16 21 17 22 18 23 22 24 19 25
REMARK SMILES IDX 21 26 20 27 26 28 27 29 28 30 29 31 30 32 31 34 32 35 33 36
REMARK SMILES IDX 79 37 34 38 78 39 35 40 36 41 37 42 72 43 38 44 77 45 71 46
REMARK SMILES IDX 73 47 39 48 76 49 70 50 69 51 40 53 62 54 47 55 61 56 48 57
REMARK SMILES IDX 51 58 60 59 74 60 49 61 50 62 59 64 75 65 52 66 41 67 42 68
REMARK SMILES IDX 46 69 43 70 45 71 44 72 63 73 64 74 68 75 65 76 67 77 66 78
REMARK SMILES IDX 53 79 54 80 58 81 55 82 57 83 56 84
REMARK H PARENT 25 4 5 10 29 33 73 52 51 63
REMARK Flexibility Score: inf
ROOT
ATOM      1  O   UNL A   1      32.519  36.890  31.327  1.00  0.00    -0.275 OA
ATOM      2  C   UNL A   1      33.391  36.044  31.508  1.00  0.00     0.225 C 
ATOM      3  N   UNL A   1      33.987  35.350  30.482  1.00  0.00    -0.356 N 
ATOM      4  H   UNL A   1      34.749  34.760  30.687  1.00  0.00     0.163 HD
ENDROOT
BRANCH   2   5
ATOM      5  C   UNL A   1      33.949  35.776  32.892  1.00  0.00     0.161 C 
BRANCH   5   6
ATOM      6  C   UNL A   1      34.538  34.380  33.113  1.00  0.00     0.272 C 
BRANCH   6   7
ATOM      7  N   UNL A   1      35.940  34.310  33.600  1.00  0.00    -0.334 N 
ATOM      8  C   UNL A   1      36.836  34.648  32.469  1.00  0.00     0.262 C 
ATOM      9  C   UNL A   1      36.280  32.980  34.146  1.00  0.00     0.271 C 
ATOM     10  H   UNL A   1      36.054  34.973  34.367  1.00  0.00     0.348 HD
ATOM     11  C   UNL A   1      38.317  34.578  32.836  1.00  0.00     0.062 C 
ATOM     12  C   UNL A   1      37.744  32.909  34.652  1.00  0.00     0.038 C 
ATOM     13  C   UNL A   1      38.658  33.226  33.451  1.00  0.00     0.020 C 
ATOM     14  C   UNL A   1      37.985  33.867  35.831  1.00  0.00     0.024 C 
ATOM     15  C   UNL A   1      38.002  31.499  35.217  1.00  0.00     0.132 C 
ATOM     16  C   UNL A   1      39.398  33.748  36.374  1.00  0.00     0.101 C 
ATOM     17  N   UNL A   1      39.346  31.342  35.770  1.00  0.00    -0.342 N 
ATOM     18  C   UNL A   1      39.875  32.328  36.603  1.00  0.00     0.222 C 
ATOM     19  O   UNL A   1      40.766  32.095  37.420  1.00  0.00    -0.275 OA
BRANCH  17  20
ATOM     20  C   UNL A   1      40.010  30.034  35.821  1.00  0.00     0.124 C 
BRANCH  20  21
ATOM     21  C   UNL A   1      40.650  29.452  34.549  1.00  0.00     0.057 C 
BRANCH  21  22
ATOM     22  C   UNL A   1      41.870  28.573  34.705  1.00  0.00    -0.046 A 
ATOM     23  C   UNL A   1      42.884  28.983  35.587  1.00  0.00     0.004 A 
ATOM     24  C   UNL A   1      42.010  27.346  34.045  1.00  0.00     0.004 A 
ATOM     25  C   UNL A   1      43.968  28.151  35.868  1.00  0.00     0.000 A 
ATOM     26  C   UNL A   1      43.100  26.517  34.322  1.00  0.00     0.000 A 
ATOM     27  C   UNL A   1      44.068  26.911  35.246  1.00  0.00     0.000 A 
ENDBRANCH  21  22
ENDBRANCH  20  21
ENDBRANCH  17  20
ENDBRANCH   6   7
ENDBRANCH   5   6
ENDBRANCH   2   5
BRANCH   3  28
ATOM     28  C   UNL A   1      33.533  35.456  29.113  1.00  0.00     0.117 C 
BRANCH  28  29
ATOM     29  C   UNL A   1      34.498  34.874  28.076  1.00  0.00     0.042 C 
BRANCH  29  30
ATOM     30  C   UNL A   1      35.064  33.485  28.379  1.00  0.00     0.118 C 
BRANCH  30  31
ATOM     31  N   UNL A   1      34.195  32.395  27.963  1.00  0.00    -0.352 N 
ATOM     32  C   UNL A   1      34.408  31.045  27.851  1.00  0.00     0.251 C 
ATOM     33  H   UNL A   1      33.286  32.679  27.715  1.00  0.00     0.163 HD
ATOM     34  O   UNL A   1      33.503  30.358  27.376  1.00  0.00    -0.269 OA
BRANCH  32  35
ATOM     35  C   UNL A   1      35.673  30.391  28.264  1.00  0.00     0.039 A 
ATOM     36  C   UNL A   1      36.685  30.283  27.300  1.00  0.00     0.014 A 
ATOM     37  C   UNL A   1      35.875  29.836  29.531  1.00  0.00     0.014 A 
ATOM     38  C   UNL A   1      37.912  29.701  27.624  1.00  0.00     0.010 A 
ATOM     39  C   UNL A   1      37.119  29.292  29.871  1.00  0.00     0.010 A 
ATOM     40  C   UNL A   1      38.154  29.245  28.928  1.00  0.00    -0.014 A 
BRANCH  40  41
ATOM     41  C   UNL A   1      39.528  28.848  29.329  1.00  0.00     0.031 A 
ATOM     42  C   UNL A   1      40.397  29.735  30.170  1.00  0.00     0.074 A 
ATOM     43  C   UNL A   1      40.000  27.669  28.879  1.00  0.00     0.049 A 
ATOM     44  N   UNL A   1      41.591  29.490  30.653  1.00  0.00    -0.248 NA
ATOM     45  C   UNL A   1      39.876  31.069  30.496  1.00  0.00     0.031 C 
ATOM     46  C   UNL A   1      39.271  26.750  28.001  1.00  0.00     0.029 A 
ATOM     47  N   UNL A   1      41.199  27.040  29.098  1.00  0.00    -0.354 N 
ATOM     48  C   UNL A   1      41.963  30.635  31.344  1.00  0.00     0.074 A 
ATOM     49  C   UNL A   1      40.887  31.592  31.178  1.00  0.00     0.031 C 
ATOM     50  C   UNL A   1      40.024  25.662  27.781  1.00  0.00     0.029 A 
ATOM     51  C   UNL A   1      41.292  25.815  28.484  1.00  0.00     0.049 A 
ATOM     52  H   UNL A   1      41.922  27.428  29.643  1.00  0.00     0.167 HD
ATOM     53  C   UNL A   1      43.091  30.861  32.061  1.00  0.00     0.031 A 
ATOM     54  C   UNL A   1      42.283  24.905  28.494  1.00  0.00     0.031 A 
ATOM     55  C   UNL A   1      44.166  29.911  32.209  1.00  0.00     0.049 A 
ATOM     56  C   UNL A   1      43.513  25.173  29.311  1.00  0.00     0.074 A 
ATOM     57  C   UNL A   1      45.324  30.025  32.962  1.00  0.00     0.029 A 
ATOM     58  N   UNL A   1      44.222  28.674  31.584  1.00  0.00    -0.354 N 
ATOM     59  N   UNL A   1      43.808  26.222  30.039  1.00  0.00    -0.248 NA
ATOM     60  C   UNL A   1      44.532  24.116  29.330  1.00  0.00     0.031 C 
ATOM     61  C   UNL A   1      46.101  28.879  32.752  1.00  0.00     0.029 A 
ATOM     62  C   UNL A   1      45.402  28.026  31.915  1.00  0.00     0.049 A 
ATOM     63  H   UNL A   1      43.524  28.309  30.993  1.00  0.00     0.167 HD
ATOM     64  C   UNL A   1      45.035  25.942  30.624  1.00  0.00     0.074 A 
ATOM     65  C   UNL A   1      45.416  24.616  30.182  1.00  0.00     0.031 C 
ATOM     66  C   UNL A   1      45.778  26.713  31.455  1.00  0.00     0.031 A 
BRANCH  53  67
ATOM     67  C   UNL A   1      43.226  32.196  32.743  1.00  0.00    -0.014 A 
ATOM     68  C   UNL A   1      43.926  33.253  32.138  1.00  0.00     0.009 A 
ATOM     69  C   UNL A   1      42.603  32.420  33.981  1.00  0.00     0.009 A 
ATOM     70  C   UNL A   1      44.028  34.493  32.773  1.00  0.00     0.001 A 
ATOM     71  C   UNL A   1      42.683  33.669  34.601  1.00  0.00     0.001 A 
ATOM     72  C   UNL A   1      43.402  34.701  34.001  1.00  0.00     0.000 A 
ENDBRANCH  53  67
BRANCH  54  73
ATOM     73  C   UNL A   1      42.126  23.633  27.745  1.00  0.00    -0.014 A 
ATOM     74  C   UNL A   1      41.494  22.531  28.340  1.00  0.00     0.009 A 
ATOM     75  C   UNL A   1      42.591  23.521  26.425  1.00  0.00     0.009 A 
ATOM     76  C   UNL A   1      41.354  21.332  27.638  1.00  0.00     0.001 A 
ATOM     77  C   UNL A   1      42.424  22.329  25.716  1.00  0.00     0.001 A 
ATOM     78  C   UNL A   1      41.815  21.234  26.326  1.00  0.00     0.000 A 
ENDBRANCH  54  73
BRANCH  66  79
ATOM     79  C   UNL A   1      47.066  26.120  31.953  1.00  0.00    -0.014 A 
ATOM     80  C   UNL A   1      48.260  26.249  31.226  1.00  0.00     0.009 A 
ATOM     81  C   UNL A   1      47.082  25.414  33.166  1.00  0.00     0.009 A 
ATOM     82  C   UNL A   1      49.432  25.638  31.678  1.00  0.00     0.001 A 
ATOM     83  C   UNL A   1      48.262  24.830  33.630  1.00  0.00     0.001 A 
ATOM     84  C   UNL A   1      49.432  24.931  32.879  1.00  0.00     0.000 A 
ENDBRANCH  66  79
ENDBRANCH  40  41
ENDBRANCH  32  35
ENDBRANCH  30  31
ENDBRANCH  29  30
ENDBRANCH  28  29
ENDBRANCH   3  28
TORSDOF 15
ENDMDL
MODEL 2
REMARK VINA RESULT:      -9.4      3.708     10.315
REMARK SMILES O=C(CC[N@@H+]1CCC[C@@]2(CCC(=O)N(CCc3ccccc3)C2)C1)NCCCNC(=O)c1ccc(-c2c3nc(c(-c4ccccc4)c4ccc([nH]4)c(-c4ccccc4)c4nc(c(-c5ccccc5)c5ccc2[nH]5)C=C4)C=C3)cc1
REMARK SMILES IDX 1 1 2 2 25 3 3 5 4 6 5 7 6 8 24 9 7 11 9 12 8 13 10 14 23 15
REMARK SMILES IDX 11 16 14 17 12 18 13 19 15 20 16 21 17 22 18 23 22 24 19 25
REMARK SMILES IDX 21 26 20 27 26 28 27 29 28 30 29 31 30 32 31 34 32 35 33 36
REMARK SMILES IDX 79 37 34 38 78 39 35 40 36 41 37 42 72 43 38 44 77 45 71 46
REMARK SMILES IDX 73 47 39 48 76 49 70 50 69 51 40 53 62 54 47 55 61 56 48 57
REMARK SMILES IDX 51 58 60 59 74 60 49 61 50 62 59 64 75 65 52 66 41 67 42 68
REMARK SMILES IDX 46 69 43 70 45 71 44 72 63 73 64 74 68 75 65 76 67 77 66 78
REMARK SMILES IDX 53 79 54 80 58 81 55 82 57 83 56 84
REMARK H PARENT 25 4 5 10 29 33 73 52 51 63
REMARK Flexibility Score: inf
ROOT
ATOM      1  O   UNL A   1      36.384  31.971  28.020  1.00  0.00    -0.275 OA
ATOM      2  C   UNL A   1      35.206  31.626  28.058  1.00  0.00     0.225 C 
ATOM      3  N   UNL A   1      34.190  32.468  28.443  1.00  0.00    -0.356 N 
ATOM      4  H   UNL A   1      33.259  32.161  28.354  1.00  0.00     0.163 HD
ENDROOT
BRANCH   2   5
ATOM      5  C   UNL A   1      34.774  30.254  27.577  1.00  0.00     0.161 C 
BRANCH   5   6
ATOM      6  C   UNL A   1      33.283  30.096  27.269  1.00  0.00     0.272 C 
BRANCH   6   7
ATOM      7  N   UNL A   1      32.925  29.482  25.964  1.00  0.00    -0.334 N 
ATOM      8  C   UNL A   1      31.486  29.736  25.716  1.00  0.00     0.262 C 
ATOM      9  C   UNL A   1      33.205  28.032  25.929  1.00  0.00     0.271 C 
ATOM     10  H   UNL A   1      33.501  29.903  25.235  1.00  0.00     0.348 HD
ATOM     11  C   UNL A   1      30.984  29.121  24.411  1.00  0.00     0.062 C 
ATOM     12  C   UNL A   1      32.829  27.393  24.568  1.00  0.00     0.038 C 
ATOM     13  C   UNL A   1      31.322  27.636  24.349  1.00  0.00     0.020 C 
ATOM     14  C   UNL A   1      33.679  27.962  23.419  1.00  0.00     0.024 C 
ATOM     15  C   UNL A   1      33.169  25.891  24.617  1.00  0.00     0.132 C 
ATOM     16  C   UNL A   1      33.362  27.288  22.095  1.00  0.00     0.101 C 
ATOM     17  N   UNL A   1      32.899  25.202  23.356  1.00  0.00    -0.342 N 
ATOM     18  C   UNL A   1      33.302  25.775  22.150  1.00  0.00     0.222 C 
ATOM     19  O   UNL A   1      33.500  25.108  21.135  1.00  0.00    -0.275 OA
BRANCH  17  20
ATOM     20  C   UNL A   1      32.587  23.768  23.314  1.00  0.00     0.124 C 
BRANCH  20  21
ATOM     21  C   UNL A   1      33.048  22.853  24.461  1.00  0.00     0.057 C 
BRANCH  21  22
ATOM     22  C   UNL A   1      34.440  22.267  24.390  1.00  0.00    -0.046 A 
ATOM     23  C   UNL A   1      35.448  23.012  23.753  1.00  0.00     0.004 A 
ATOM     24  C   UNL A   1      34.777  21.040  24.972  1.00  0.00     0.004 A 
ATOM     25  C   UNL A   1      36.775  22.581  23.772  1.00  0.00     0.000 A 
ATOM     26  C   UNL A   1      36.106  20.606  24.984  1.00  0.00     0.000 A 
ATOM     27  C   UNL A   1      37.105  21.385  24.401  1.00  0.00     0.000 A 
ENDBRANCH  21  22
ENDBRANCH  20  21
ENDBRANCH  17  20
ENDBRANCH   6   7
ENDBRANCH   5   6
ENDBRANCH   2   5
BRANCH   3  28
ATOM     28  C   UNL A   1      34.442  33.789  28.975  1.00  0.00     0.117 C 
BRANCH  28  29
ATOM     29  C   UNL A   1      33.342  34.813  28.683  1.00  0.00     0.042 C 
BRANCH  29  30
ATOM     30  C   UNL A   1      33.355  36.085  29.534  1.00  0.00     0.118 C 
BRANCH  30  31
ATOM     31  N   UNL A   1      32.430  36.047  30.656  1.00  0.00    -0.352 N 
ATOM     32  C   UNL A   1      32.547  35.538  31.923  1.00  0.00     0.251 C 
ATOM     33  H   UNL A   1      31.558  36.465  30.471  1.00  0.00     0.163 HD
ATOM     34  O   UNL A   1      31.551  35.565  32.648  1.00  0.00    -0.269 OA
BRANCH  32  35
ATOM     35  C   UNL A   1      33.806  34.952  32.445  1.00  0.00     0.039 A 
ATOM     36  C   UNL A   1      33.727  33.686  33.040  1.00  0.00     0.014 A 
ATOM     37  C   UNL A   1      35.033  35.619  32.420  1.00  0.00     0.014 A 
ATOM     38  C   UNL A   1      34.876  33.061  33.531  1.00  0.00     0.010 A 
ATOM     39  C   UNL A   1      36.193  34.978  32.871  1.00  0.00     0.010 A 
ATOM     40  C   UNL A   1      36.125  33.684  33.405  1.00  0.00    -0.014 A 
BRANCH  40  41
ATOM     41  C   UNL A   1      37.364  32.924  33.708  1.00  0.00     0.031 A 
ATOM     42  C   UNL A   1      37.933  31.918  32.753  1.00  0.00     0.074 A 
ATOM     43  C   UNL A   1      37.956  33.134  34.901  1.00  0.00     0.049 A 
ATOM     44  N   UNL A   1      39.044  31.229  32.856  1.00  0.00    -0.248 NA
ATOM     45  C   UNL A   1      37.153  31.629  31.542  1.00  0.00     0.031 C 
ATOM     46  C   UNL A   1      37.460  34.041  35.939  1.00  0.00     0.029 A 
ATOM     47  N   UNL A   1      39.101  32.604  35.441  1.00  0.00    -0.354 N 
ATOM     48  C   UNL A   1      39.101  30.429  31.722  1.00  0.00     0.074 A 
ATOM     49  C   UNL A   1      37.889  30.685  30.969  1.00  0.00     0.031 C 
ATOM     50  C   UNL A   1      38.311  34.029  36.976  1.00  0.00     0.029 A 
ATOM     51  C   UNL A   1      39.398  33.101  36.686  1.00  0.00     0.049 A 
ATOM     52  H   UNL A   1      39.656  31.934  34.979  1.00  0.00     0.167 HD
ATOM     53  C   UNL A   1      40.080  29.573  31.339  1.00  0.00     0.031 A 
ATOM     54  C   UNL A   1      40.437  32.851  37.502  1.00  0.00     0.031 A 
ATOM     55  C   UNL A   1      41.276  29.310  32.102  1.00  0.00     0.049 A 
ATOM     56  C   UNL A   1      41.515  31.913  37.046  1.00  0.00     0.074 A 
ATOM     57  C   UNL A   1      42.352  28.503  31.770  1.00  0.00     0.029 A 
ATOM     58  N   UNL A   1      41.550  29.842  33.353  1.00  0.00    -0.354 N 
ATOM     59  N   UNL A   1      41.603  31.237  35.926  1.00  0.00    -0.248 NA
ATOM     60  C   UNL A   1      42.652  31.726  37.956  1.00  0.00     0.031 C 
ATOM     61  C   UNL A   1      43.252  28.507  32.843  1.00  0.00     0.029 A 
ATOM     62  C   UNL A   1      42.765  29.362  33.817  1.00  0.00     0.049 A 
ATOM     63  H   UNL A   1      40.967  30.468  33.839  1.00  0.00     0.167 HD
ATOM     64  C   UNL A   1      42.815  30.566  35.983  1.00  0.00     0.074 A 
ATOM     65  C   UNL A   1      43.437  30.934  37.240  1.00  0.00     0.031 C 
ATOM     66  C   UNL A   1      43.366  29.722  35.076  1.00  0.00     0.031 A 
BRANCH  53  67
ATOM     67  C   UNL A   1      39.898  28.849  30.033  1.00  0.00    -0.014 A 
ATOM     68  C   UNL A   1      40.282  29.437  28.817  1.00  0.00     0.009 A 
ATOM     69  C   UNL A   1      39.385  27.542  30.018  1.00  0.00     0.009 A 
ATOM     70  C   UNL A   1      40.126  28.746  27.613  1.00  0.00     0.001 A 
ATOM     71  C   UNL A   1      39.255  26.843  28.816  1.00  0.00     0.001 A 
ATOM     72  C   UNL A   1      39.617  27.448  27.614  1.00  0.00     0.000 A 
ENDBRANCH  53  67
BRANCH  54  73
ATOM     73  C   UNL A   1      40.530  33.541  38.813  1.00  0.00    -0.014 A 
ATOM     74  C   UNL A   1      39.941  32.978  39.956  1.00  0.00     0.009 A 
ATOM     75  C   UNL A   1      41.221  34.757  38.932  1.00  0.00     0.009 A 
ATOM     76  C   UNL A   1      40.020  33.633  41.187  1.00  0.00     0.001 A 
ATOM     77  C   UNL A   1      41.322  35.394  40.171  1.00  0.00     0.001 A 
ATOM     78  C   UNL A   1      40.715  34.837  41.294  1.00  0.00     0.000 A 
ENDBRANCH  54  73
BRANCH  66  79
ATOM     79  C   UNL A   1      44.721  29.165  35.411  1.00  0.00    -0.014 A 
ATOM     80  C   UNL A   1      44.862  27.971  36.136  1.00  0.00     0.009 A 
ATOM     81  C   UNL A   1      45.875  29.850  35.000  1.00  0.00     0.009 A 
ATOM     82  C   UNL A   1      46.130  27.502  36.487  1.00  0.00     0.001 A 
ATOM     83  C   UNL A   1      47.142  29.364  35.326  1.00  0.00     0.001 A 
ATOM     84  C   UNL A   1      47.267  28.198  36.082  1.00  0.00     0.000 A 
ENDBRANCH  66  79
ENDBRANCH  40  41
ENDBRANCH  32  35
ENDBRANCH  30  31
ENDBRANCH  29  30
ENDBRANCH  28  29
ENDBRANCH   3  28
TORSDOF 15
ENDMDL
MODEL 3
REMARK VINA RESULT:      -9.0      4.461     11.895
REMARK SMILES O=C(CC[N@@H+]1CCC[C@@]2(CCC(=O)N(CCc3ccccc3)C2)C1)NCCCNC(=O)c1ccc(-c2c3nc(c(-c4ccccc4)c4ccc([nH]4)c(-c4ccccc4)c4nc(c(-c5ccccc5)c5ccc2[nH]5)C=C4)C=C3)cc1
REMARK SMILES IDX 1 1 2 2 25 3 3 5 4 6 5 7 6 8 24 9 7 11 9 12 8 13 10 14 23 15
REMARK SMILES IDX 11 16 14 17 12 18 13 19 15 20 16 21 17 22 18 23 22 24 19 25
REMARK SMILES IDX 21 26 20 27 26 28 27 29 28 30 29 31 30 32 31 34 32 35 33 36
REMARK SMILES IDX 79 37 34 38 78 39 35 40 36 41 37 42 72 43 38 44 77 45 71 46
REMARK SMILES IDX 73 47 39 48 76 49 70 50 69 51 40 53 62 54 47 55 61 56 48 57
REMARK SMILES IDX 51 58 60 59 74 60 49 61 50 62 59 64 75 65 52 66 41 67 42 68
REMARK SMILES IDX 46 69 43 70 45 71 44 72 63 73 64 74 68 75 65 76 67 77 66 78
REMARK SMILES IDX 53 79 54 80 58 81 55 82 57 83 56 84
REMARK H PARENT 25 4 5 10 29 33 73 52 51 63
REMARK Flexibility Score: inf
ROOT
ATOM      1  O   UNL A   1      37.575  20.496  25.110  1.00  0.00    -0.275 OA
ATOM      2  C   UNL A   1      37.677  21.717  25.022  1.00  0.00     0.225 C 
ATOM      3  N   UNL A   1      38.685  22.431  25.626  1.00  0.00    -0.356 N 
ATOM      4  H   UNL A   1      38.768  23.393  25.432  1.00  0.00     0.163 HD
ENDROOT
BRANCH   2   5
ATOM      5  C   UNL A   1      36.738  22.522  24.144  1.00  0.00     0.161 C 
BRANCH   5   6
ATOM      6  C   UNL A   1      35.254  22.160  24.251  1.00  0.00     0.272 C 
BRANCH   6   7
ATOM      7  N   UNL A   1      34.337  23.217  24.748  1.00  0.00    -0.334 N 
ATOM      8  C   UNL A   1      32.984  22.624  24.884  1.00  0.00     0.262 C 
ATOM      9  C   UNL A   1      34.295  24.393  23.856  1.00  0.00     0.271 C 
ATOM     10  H   UNL A   1      34.680  23.552  25.649  1.00  0.00     0.348 HD
ATOM     11  C   UNL A   1      31.935  23.627  25.360  1.00  0.00     0.062 C 
ATOM     12  C   UNL A   1      33.336  25.493  24.377  1.00  0.00     0.038 C 
ATOM     13  C   UNL A   1      31.930  24.866  24.473  1.00  0.00     0.020 C 
ATOM     14  C   UNL A   1      33.806  26.067  25.724  1.00  0.00     0.024 C 
ATOM     15  C   UNL A   1      33.370  26.682  23.396  1.00  0.00     0.132 C 
ATOM     16  C   UNL A   1      32.907  27.194  26.202  1.00  0.00     0.101 C 
ATOM     17  N   UNL A   1      32.533  27.801  23.826  1.00  0.00    -0.342 N 
ATOM     18  C   UNL A   1      32.576  28.234  25.151  1.00  0.00     0.222 C 
ATOM     19  O   UNL A   1      32.259  29.376  25.484  1.00  0.00    -0.275 OA
BRANCH  17  20
ATOM     20  C   UNL A   1      31.954  28.743  22.861  1.00  0.00     0.124 C 
BRANCH  20  21
ATOM     21  C   UNL A   1      30.491  28.579  22.417  1.00  0.00     0.057 C 
BRANCH  21  22
ATOM     22  C   UNL A   1      29.577  29.779  22.517  1.00  0.00    -0.046 A 
ATOM     23  C   UNL A   1      29.555  30.507  23.719  1.00  0.00     0.004 A 
ATOM     24  C   UNL A   1      28.790  30.224  21.448  1.00  0.00     0.004 A 
ATOM     25  C   UNL A   1      28.832  31.696  23.823  1.00  0.00     0.000 A 
ATOM     26  C   UNL A   1      28.060  31.411  21.556  1.00  0.00     0.000 A 
ATOM     27  C   UNL A   1      28.096  32.154  22.735  1.00  0.00     0.000 A 
ENDBRANCH  21  22
ENDBRANCH  20  21
ENDBRANCH  17  20
ENDBRANCH   6   7
ENDBRANCH   5   6
ENDBRANCH   2   5
BRANCH   3  28
ATOM     28  C   UNL A   1      39.628  21.817  26.534  1.00  0.00     0.117 C 
BRANCH  28  29
ATOM     29  C   UNL A   1      40.787  21.086  25.850  1.00  0.00     0.042 C 
BRANCH  29  30
ATOM     30  C   UNL A   1      42.195  21.450  26.328  1.00  0.00     0.118 C 
BRANCH  30  31
ATOM     31  N   UNL A   1      42.928  22.297  25.400  1.00  0.00    -0.352 N 
ATOM     32  C   UNL A   1      43.265  23.624  25.443  1.00  0.00     0.251 C 
ATOM     33  H   UNL A   1      43.239  21.830  24.591  1.00  0.00     0.163 HD
ATOM     34  O   UNL A   1      43.820  24.109  24.455  1.00  0.00    -0.269 OA
BRANCH  32  35
ATOM     35  C   UNL A   1      42.981  24.492  26.612  1.00  0.00     0.039 A 
ATOM     36  C   UNL A   1      43.294  25.853  26.493  1.00  0.00     0.014 A 
ATOM     37  C   UNL A   1      42.479  24.011  27.824  1.00  0.00     0.014 A 
ATOM     38  C   UNL A   1      43.031  26.734  27.544  1.00  0.00     0.010 A 
ATOM     39  C   UNL A   1      42.174  24.898  28.862  1.00  0.00     0.010 A 
ATOM     40  C   UNL A   1      42.423  26.269  28.719  1.00  0.00    -0.014 A 
BRANCH  40  41
ATOM     41  C   UNL A   1      41.931  27.239  29.731  1.00  0.00     0.031 A 
ATOM     42  C   UNL A   1      40.669  28.023  29.532  1.00  0.00     0.074 A 
ATOM     43  C   UNL A   1      42.680  27.431  30.835  1.00  0.00     0.049 A 
ATOM     44  N   UNL A   1      40.083  28.854  30.359  1.00  0.00    -0.248 NA
ATOM     45  C   UNL A   1      39.986  27.876  28.239  1.00  0.00     0.031 C 
ATOM     46  C   UNL A   1      43.960  26.774  31.110  1.00  0.00     0.029 A 
ATOM     47  N   UNL A   1      42.474  28.231  31.931  1.00  0.00    -0.354 N 
ATOM     48  C   UNL A   1      38.961  29.326  29.692  1.00  0.00     0.074 A 
ATOM     49  C   UNL A   1      38.974  28.724  28.374  1.00  0.00     0.031 C 
ATOM     50  C   UNL A   1      44.410  27.171  32.310  1.00  0.00     0.029 A 
ATOM     51  C   UNL A   1      43.463  28.124  32.877  1.00  0.00     0.049 A 
ATOM     52  H   UNL A   1      41.693  28.822  32.029  1.00  0.00     0.167 HD
ATOM     53  C   UNL A   1      38.002  30.172  30.143  1.00  0.00     0.031 A 
ATOM     54  C   UNL A   1      43.591  28.715  34.079  1.00  0.00     0.031 A 
ATOM     55  C   UNL A   1      38.003  30.782  31.450  1.00  0.00     0.049 A 
ATOM     56  C   UNL A   1      42.507  29.633  34.561  1.00  0.00     0.074 A 
ATOM     57  C   UNL A   1      37.048  31.608  32.020  1.00  0.00     0.029 A 
ATOM     58  N   UNL A   1      39.015  30.641  32.389  1.00  0.00    -0.354 N 
ATOM     59  N   UNL A   1      41.401  29.994  33.956  1.00  0.00    -0.248 NA
ATOM     60  C   UNL A   1      42.675  30.201  35.904  1.00  0.00     0.031 C 
ATOM     61  C   UNL A   1      37.505  32.005  33.282  1.00  0.00     0.029 A 
ATOM     62  C   UNL A   1      38.718  31.381  33.523  1.00  0.00     0.049 A 
ATOM     63  H   UNL A   1      39.824  30.094  32.268  1.00  0.00     0.167 HD
ATOM     64  C   UNL A   1      40.729  30.810  34.854  1.00  0.00     0.074 A 
ATOM     65  C   UNL A   1      41.542  30.872  36.052  1.00  0.00     0.031 C 
ATOM     66  C   UNL A   1      39.543  31.449  34.702  1.00  0.00     0.031 A 
BRANCH  53  67
ATOM     67  C   UNL A   1      36.866  30.496  29.211  1.00  0.00    -0.014 A 
ATOM     68  C   UNL A   1      36.738  31.771  28.636  1.00  0.00     0.009 A 
ATOM     69  C   UNL A   1      35.940  29.501  28.859  1.00  0.00     0.009 A 
ATOM     70  C   UNL A   1      35.690  32.053  27.758  1.00  0.00     0.001 A 
ATOM     71  C   UNL A   1      34.908  29.778  27.958  1.00  0.00     0.001 A 
ATOM     72  C   UNL A   1      34.778  31.055  27.416  1.00  0.00     0.000 A 
ENDBRANCH  53  67
BRANCH  54  73
ATOM     73  C   UNL A   1      44.771  28.414  34.929  1.00  0.00    -0.014 A 
ATOM     74  C   UNL A   1      45.925  29.208  34.849  1.00  0.00     0.009 A 
ATOM     75  C   UNL A   1      44.742  27.343  35.835  1.00  0.00     0.009 A 
ATOM     76  C   UNL A   1      47.038  28.918  35.641  1.00  0.00     0.001 A 
ATOM     77  C   UNL A   1      45.847  27.074  36.646  1.00  0.00     0.001 A 
ATOM     78  C   UNL A   1      46.996  27.855  36.543  1.00  0.00     0.000 A 
ENDBRANCH  54  73
BRANCH  66  79
ATOM     79  C   UNL A   1      39.052  32.248  35.876  1.00  0.00    -0.014 A 
ATOM     80  C   UNL A   1      38.230  31.674  36.859  1.00  0.00     0.009 A 
ATOM     81  C   UNL A   1      39.412  33.599  35.997  1.00  0.00     0.009 A 
ATOM     82  C   UNL A   1      37.737  32.450  37.910  1.00  0.00     0.001 A 
ATOM     83  C   UNL A   1      38.943  34.365  37.065  1.00  0.00     0.001 A 
ATOM     84  C   UNL A   1      38.094  33.793  38.012  1.00  0.00     0.000 A 
ENDBRANCH  66  79
ENDBRANCH  40  41
ENDBRANCH  32  35
ENDBRANCH  30  31
ENDBRANCH  29  30
ENDBRANCH  28  29
ENDBRANCH   3  28
TORSDOF 15
ENDMDL
