MODEL 1
REMARK VINA RESULT:      -9.2      0.000      0.000
REMARK SMILES CC[N@@H+](C/C(Cl)=C/Cl)C[C@@H](C)C(=O)NCCCNC(=O)c1ccc(-c2c3nc(c(-c4ccccc4)c4ccc([nH]4)c(-c4ccccc4)c4nc(c(-c5ccccc5)c5ccc2[nH]5)C=C4)C=C3)cc1
REMARK SMILES IDX 15 1 14 2 12 3 13 4 10 6 11 7 9 8 3 9 2 11 1 12 4 13 5 14
REMARK SMILES IDX 6 15 7 16 8 17 16 18 17 19 18 20 19 21 20 23 21 24 22 25
REMARK SMILES IDX 68 26 23 27 67 28 24 29 25 30 26 31 61 32 27 33 66 34 60 35
REMARK SMILES IDX 62 36 28 37 65 38 59 39 58 40 29 42 51 43 36 44 50 45 37 46
REMARK SMILES IDX 40 47 49 48 63 49 38 50 39 51 48 53 64 54 41 55 30 56 31 57
REMARK SMILES IDX 35 58 32 59 34 60 33 61 52 62 53 63 57 64 54 65 56 66 55 67
REMARK SMILES IDX 42 68 43 69 47 70 44 71 46 72 45 73
REMARK H PARENT 14 5 3 10 18 22 62 41 40 52
REMARK Flexibility Score: inf
ROOT
ATOM      1  C   UNL A   1      37.399  21.224  24.623  1.00  0.00     0.117 C 
ENDROOT
BRANCH   1   2
ATOM      2  N   UNL A   1      36.644  21.763  25.737  1.00  0.00    -0.356 N 
ATOM      3  C   UNL A   1      35.552  22.570  25.767  1.00  0.00     0.228 C 
ATOM      4  O   UNL A   1      35.159  22.942  26.876  1.00  0.00    -0.275 OA
ATOM      5  H   UNL A   1      36.982  21.501  26.624  1.00  0.00     0.163 HD
BRANCH   3   6
ATOM      6  C   UNL A   1      34.828  23.005  24.497  1.00  0.00     0.130 C 
ATOM      7  C   UNL A   1      34.668  24.523  24.457  1.00  0.00     0.024 C 
BRANCH   6   8
ATOM      8  C   UNL A   1      33.574  22.133  24.275  1.00  0.00     0.275 C 
BRANCH   8   9
ATOM      9  N   UNL A   1      32.796  21.630  25.410  1.00  0.00    -0.330 N 
ATOM     10  H   UNL A   1      33.363  22.036  26.155  1.00  0.00     0.348 HD
BRANCH   9  11
ATOM     11  C   UNL A   1      31.524  22.263  25.730  1.00  0.00     0.259 C 
ATOM     12  C   UNL A   1      31.620  23.309  26.837  1.00  0.00     0.071 C 
ENDBRANCH   9  11
BRANCH   9  13
ATOM     13  C   UNL A   1      32.880  20.190  25.672  1.00  0.00     0.312 C 
BRANCH  13  14
ATOM     14  C   UNL A   1      33.192  19.258  24.527  1.00  0.00     0.083 C 
ATOM     15  Cl  UNL A   1      34.813  18.628  24.526  1.00  0.00    -0.082 Cl
ATOM     16  C   UNL A   1      32.297  18.889  23.603  1.00  0.00     0.102 C 
ATOM     17  Cl  UNL A   1      32.593  17.855  22.268  1.00  0.00    -0.091 Cl
ENDBRANCH  13  14
ENDBRANCH   9  13
ENDBRANCH   8   9
ENDBRANCH   6   8
ENDBRANCH   3   6
ENDBRANCH   1   2
BRANCH   1  18
ATOM     18  C   UNL A   1      38.185  19.984  25.021  1.00  0.00     0.042 C 
BRANCH  18  19
ATOM     19  C   UNL A   1      39.242  20.258  26.078  1.00  0.00     0.118 C 
BRANCH  19  20
ATOM     20  N   UNL A   1      40.351  19.314  26.012  1.00  0.00    -0.352 N 
ATOM     21  C   UNL A   1      41.703  19.547  26.127  1.00  0.00     0.251 C 
ATOM     22  H   UNL A   1      40.098  18.375  25.865  1.00  0.00     0.163 HD
ATOM     23  O   UNL A   1      42.511  18.675  25.855  1.00  0.00    -0.269 OA
BRANCH  21  24
ATOM     24  C   UNL A   1      42.162  20.882  26.564  1.00  0.00     0.039 A 
ATOM     25  C   UNL A   1      42.523  21.828  25.603  1.00  0.00     0.014 A 
ATOM     26  C   UNL A   1      42.201  21.199  27.923  1.00  0.00     0.014 A 
ATOM     27  C   UNL A   1      42.846  23.126  26.005  1.00  0.00     0.010 A 
ATOM     28  C   UNL A   1      42.436  22.509  28.313  1.00  0.00     0.010 A 
ATOM     29  C   UNL A   1      42.761  23.485  27.359  1.00  0.00    -0.014 A 
BRANCH  29  30
ATOM     30  C   UNL A   1      43.017  24.869  27.824  1.00  0.00     0.031 A 
ATOM     31  C   UNL A   1      44.411  25.272  28.218  1.00  0.00     0.074 A 
ATOM     32  C   UNL A   1      41.988  25.721  28.000  1.00  0.00     0.049 A 
ATOM     33  N   UNL A   1      44.821  26.364  28.809  1.00  0.00    -0.248 NA
ATOM     34  C   UNL A   1      45.480  24.296  27.944  1.00  0.00     0.031 C 
ATOM     35  C   UNL A   1      40.585  25.438  27.689  1.00  0.00     0.029 A 
ATOM     36  N   UNL A   1      41.965  26.995  28.507  1.00  0.00    -0.354 N 
ATOM     37  C   UNL A   1      46.183  26.190  29.011  1.00  0.00     0.074 A 
ATOM     38  C   UNL A   1      46.524  24.875  28.518  1.00  0.00     0.031 C 
ATOM     39  C   UNL A   1      39.842  26.513  27.996  1.00  0.00     0.029 A 
ATOM     40  C   UNL A   1      40.705  27.541  28.568  1.00  0.00     0.049 A 
ATOM     41  H   UNL A   1      42.775  27.474  28.799  1.00  0.00     0.167 HD
ATOM     42  C   UNL A   1      47.075  27.056  29.546  1.00  0.00     0.031 A 
ATOM     43  C   UNL A   1      40.291  28.728  29.048  1.00  0.00     0.031 A 
ATOM     44  C   UNL A   1      46.739  28.375  30.008  1.00  0.00     0.049 A 
ATOM     45  C   UNL A   1      41.302  29.676  29.631  1.00  0.00     0.074 A 
ATOM     46  C   UNL A   1      47.580  29.353  30.509  1.00  0.00     0.029 A 
ATOM     47  N   UNL A   1      45.457  28.903  30.015  1.00  0.00    -0.354 N 
ATOM     48  N   UNL A   1      42.596  29.519  29.771  1.00  0.00    -0.248 NA
ATOM     49  C   UNL A   1      40.796  30.969  30.113  1.00  0.00     0.031 C 
ATOM     50  C   UNL A   1      46.800  30.461  30.854  1.00  0.00     0.029 A 
ATOM     51  C   UNL A   1      45.482  30.189  30.524  1.00  0.00     0.049 A 
ATOM     52  H   UNL A   1      44.651  28.432  29.704  1.00  0.00     0.167 HD
ATOM     53  C   UNL A   1      43.063  30.702  30.326  1.00  0.00     0.074 A 
ATOM     54  C   UNL A   1      41.915  31.570  30.493  1.00  0.00     0.031 C 
ATOM     55  C   UNL A   1      44.331  31.041  30.666  1.00  0.00     0.031 A 
BRANCH  42  56
ATOM     56  C   UNL A   1      48.500  26.596  29.663  1.00  0.00    -0.014 A 
ATOM     57  C   UNL A   1      49.436  26.860  28.650  1.00  0.00     0.009 A 
ATOM     58  C   UNL A   1      48.920  25.908  30.813  1.00  0.00     0.009 A 
ATOM     59  C   UNL A   1      50.752  26.410  28.769  1.00  0.00     0.001 A 
ATOM     60  C   UNL A   1      50.243  25.486  30.942  1.00  0.00     0.001 A 
ATOM     61  C   UNL A   1      51.156  25.728  29.915  1.00  0.00     0.000 A 
ENDBRANCH  42  56
BRANCH  43  62
ATOM     62  C   UNL A   1      38.854  29.097  28.984  1.00  0.00    -0.014 A 
ATOM     63  C   UNL A   1      38.315  29.642  27.808  1.00  0.00     0.009 A 
ATOM     64  C   UNL A   1      38.013  28.906  30.090  1.00  0.00     0.009 A 
ATOM     65  C   UNL A   1      36.969  30.011  27.751  1.00  0.00     0.001 A 
ATOM     66  C   UNL A   1      36.661  29.251  30.021  1.00  0.00     0.001 A 
ATOM     67  C   UNL A   1      36.143  29.811  28.855  1.00  0.00     0.000 A 
ENDBRANCH  43  62
BRANCH  55  68
ATOM     68  C   UNL A   1      44.555  32.425  31.198  1.00  0.00    -0.014 A 
ATOM     69  C   UNL A   1      44.533  32.689  32.575  1.00  0.00     0.009 A 
ATOM     70  C   UNL A   1      44.861  33.466  30.306  1.00  0.00     0.009 A 
ATOM     71  C   UNL A   1      44.792  33.977  33.048  1.00  0.00     0.001 A 
ATOM     72  C   UNL A   1      45.143  34.746  30.784  1.00  0.00     0.001 A 
ATOM     73  C   UNL A   1      45.102  35.002  32.153  1.00  0.00     0.000 A 
ENDBRANCH  55  68
ENDBRANCH  29  30
ENDBRANCH  21  24
ENDBRANCH  19  20
ENDBRANCH  18  19
ENDBRANCH   1  18
TORSDOF 15
ENDMDL
MODEL 2
REMARK VINA RESULT:      -9.2      1.454      6.511
REMARK SMILES CC[N@@H+](C/C(Cl)=C/Cl)C[C@@H](C)C(=O)NCCCNC(=O)c1ccc(-c2c3nc(c(-c4ccccc4)c4ccc([nH]4)c(-c4ccccc4)c4nc(c(-c5ccccc5)c5ccc2[nH]5)C=C4)C=C3)cc1
REMARK SMILES IDX 15 1 14 2 12 3 13 4 10 6 11 7 9 8 3 9 2 11 1 12 4 13 5 14
REMARK SMILES IDX 6 15 7 16 8 17 16 18 17 19 18 20 19 21 20 23 21 24 22 25
REMARK SMILES IDX 68 26 23 27 67 28 24 29 25 30 26 31 61 32 27 33 66 34 60 35
REMARK SMILES IDX 62 36 28 37 65 38 59 39 58 40 29 42 51 43 36 44 50 45 37 46
REMARK SMILES IDX 40 47 49 48 63 49 38 50 39 51 48 53 64 54 41 55 30 56 31 57
REMARK SMILES IDX 35 58 32 59 34 60 33 61 52 62 53 63 57 64 54 65 56 66 55 67
REMARK SMILES IDX 42 68 43 69 47 70 44 71 46 72 45 73
REMARK H PARENT 14 5 3 10 18 22 62 41 40 52
REMARK Flexibility Score: inf
ROOT
ATOM      1  C   UNL A   1      36.244  21.615  25.105  1.00  0.00     0.117 C 
ENDROOT
BRANCH   1   2
ATOM      2  N   UNL A   1      35.561  21.418  26.369  1.00  0.00    -0.356 N 
ATOM      3  C   UNL A   1      34.327  21.801  26.786  1.00  0.00     0.228 C 
ATOM      4  O   UNL A   1      34.031  21.562  27.959  1.00  0.00    -0.275 OA
ATOM      5  H   UNL A   1      36.083  20.922  27.041  1.00  0.00     0.163 HD
BRANCH   3   6
ATOM      6  C   UNL A   1      33.335  22.495  25.858  1.00  0.00     0.130 C 
ATOM      7  C   UNL A   1      32.758  23.745  26.518  1.00  0.00     0.024 C 
BRANCH   6   8
ATOM      8  C   UNL A   1      32.353  21.464  25.263  1.00  0.00     0.275 C 
BRANCH   8   9
ATOM      9  N   UNL A   1      32.583  20.881  23.939  1.00  0.00    -0.330 N 
ATOM     10  H   UNL A   1      33.582  21.074  23.876  1.00  0.00     0.348 HD
BRANCH   9  11
ATOM     11  C   UNL A   1      32.628  19.432  23.803  1.00  0.00     0.259 C 
ATOM     12  C   UNL A   1      33.787  18.781  24.553  1.00  0.00     0.071 C 
ENDBRANCH   9  11
BRANCH   9  13
ATOM     13  C   UNL A   1      32.028  21.616  22.797  1.00  0.00     0.312 C 
BRANCH  13  14
ATOM     14  C   UNL A   1      32.149  23.120  22.770  1.00  0.00     0.083 C 
ATOM     15  Cl  UNL A   1      30.724  23.971  23.290  1.00  0.00    -0.082 Cl
ATOM     16  C   UNL A   1      33.267  23.770  22.428  1.00  0.00     0.102 C 
ATOM     17  Cl  UNL A   1      33.462  25.472  22.355  1.00  0.00    -0.091 Cl
ENDBRANCH  13  14
ENDBRANCH   9  13
ENDBRANCH   8   9
ENDBRANCH   6   8
ENDBRANCH   3   6
ENDBRANCH   1   2
BRANCH   1  18
ATOM     18  C   UNL A   1      37.358  20.600  24.900  1.00  0.00     0.042 C 
BRANCH  18  19
ATOM     19  C   UNL A   1      38.635  20.952  25.646  1.00  0.00     0.118 C 
BRANCH  19  20
ATOM     20  N   UNL A   1      39.583  19.846  25.677  1.00  0.00    -0.352 N 
ATOM     21  C   UNL A   1      40.922  19.854  25.999  1.00  0.00     0.251 C 
ATOM     22  H   UNL A   1      39.215  18.967  25.433  1.00  0.00     0.163 HD
ATOM     23  O   UNL A   1      41.618  18.875  25.788  1.00  0.00    -0.269 OA
BRANCH  21  24
ATOM     24  C   UNL A   1      41.508  21.077  26.584  1.00  0.00     0.039 A 
ATOM     25  C   UNL A   1      42.022  22.061  25.738  1.00  0.00     0.014 A 
ATOM     26  C   UNL A   1      41.514  21.256  27.969  1.00  0.00     0.014 A 
ATOM     27  C   UNL A   1      42.470  23.267  26.280  1.00  0.00     0.010 A 
ATOM     28  C   UNL A   1      41.877  22.486  28.498  1.00  0.00     0.010 A 
ATOM     29  C   UNL A   1      42.359  23.503  27.659  1.00  0.00    -0.014 A 
BRANCH  29  30
ATOM     30  C   UNL A   1      42.748  24.797  28.270  1.00  0.00     0.031 A 
ATOM     31  C   UNL A   1      41.702  25.852  28.498  1.00  0.00     0.074 A 
ATOM     32  C   UNL A   1      44.046  25.063  28.512  1.00  0.00     0.049 A 
ATOM     33  N   UNL A   1      41.851  27.101  28.854  1.00  0.00    -0.248 NA
ATOM     34  C   UNL A   1      40.304  25.457  28.255  1.00  0.00     0.031 C 
ATOM     35  C   UNL A   1      45.160  24.137  28.300  1.00  0.00     0.029 A 
ATOM     36  N   UNL A   1      44.650  26.208  28.970  1.00  0.00    -0.354 N 
ATOM     37  C   UNL A   1      40.575  27.648  28.840  1.00  0.00     0.074 A 
ATOM     38  C   UNL A   1      39.670  26.610  28.402  1.00  0.00     0.031 C 
ATOM     39  C   UNL A   1      46.308  24.743  28.643  1.00  0.00     0.029 A 
ATOM     40  C   UNL A   1      46.018  26.113  29.053  1.00  0.00     0.049 A 
ATOM     41  H   UNL A   1      44.149  27.019  29.216  1.00  0.00     0.167 HD
ATOM     42  C   UNL A   1      40.189  28.901  29.176  1.00  0.00     0.031 A 
ATOM     43  C   UNL A   1      46.936  27.033  29.403  1.00  0.00     0.031 A 
ATOM     44  C   UNL A   1      41.087  29.923  29.640  1.00  0.00     0.049 A 
ATOM     45  C   UNL A   1      46.482  28.415  29.780  1.00  0.00     0.074 A 
ATOM     46  C   UNL A   1      40.788  31.205  30.066  1.00  0.00     0.029 A 
ATOM     47  N   UNL A   1      42.461  29.773  29.747  1.00  0.00    -0.354 N 
ATOM     48  N   UNL A   1      45.266  28.905  29.809  1.00  0.00    -0.248 NA
ATOM     49  C   UNL A   1      47.526  29.369  30.181  1.00  0.00     0.031 C 
ATOM     50  C   UNL A   1      41.987  31.844  30.396  1.00  0.00     0.029 A 
ATOM     51  C   UNL A   1      43.025  30.943  30.220  1.00  0.00     0.049 A 
ATOM     52  H   UNL A   1      42.959  28.955  29.520  1.00  0.00     0.167 HD
ATOM     53  C   UNL A   1      45.395  30.211  30.262  1.00  0.00     0.074 A 
ATOM     54  C   UNL A   1      46.806  30.436  30.499  1.00  0.00     0.031 C 
ATOM     55  C   UNL A   1      44.430  31.141  30.465  1.00  0.00     0.031 A 
BRANCH  42  56
ATOM     56  C   UNL A   1      38.729  29.232  29.048  1.00  0.00    -0.014 A 
ATOM     57  C   UNL A   1      37.866  29.156  30.153  1.00  0.00     0.009 A 
ATOM     58  C   UNL A   1      38.213  29.647  27.810  1.00  0.00     0.009 A 
ATOM     59  C   UNL A   1      36.509  29.452  30.012  1.00  0.00     0.001 A 
ATOM     60  C   UNL A   1      36.863  29.971  27.679  1.00  0.00     0.001 A 
ATOM     61  C   UNL A   1      36.009  29.862  28.777  1.00  0.00     0.000 A 
ENDBRANCH  42  56
BRANCH  43  62
ATOM     62  C   UNL A   1      48.377  26.673  29.430  1.00  0.00    -0.014 A 
ATOM     63  C   UNL A   1      49.187  26.915  28.310  1.00  0.00     0.009 A 
ATOM     64  C   UNL A   1      48.951  26.092  30.570  1.00  0.00     0.009 A 
ATOM     65  C   UNL A   1      50.537  26.558  28.323  1.00  0.00     0.001 A 
ATOM     66  C   UNL A   1      50.308  25.760  30.590  1.00  0.00     0.001 A 
ATOM     67  C   UNL A   1      51.097  25.985  29.463  1.00  0.00     0.000 A 
ENDBRANCH  43  62
BRANCH  55  68
ATOM     68  C   UNL A   1      44.856  32.467  31.021  1.00  0.00    -0.014 A 
ATOM     69  C   UNL A   1      45.179  33.541  30.180  1.00  0.00     0.009 A 
ATOM     70  C   UNL A   1      44.869  32.659  32.413  1.00  0.00     0.009 A 
ATOM     71  C   UNL A   1      45.528  34.779  30.723  1.00  0.00     0.001 A 
ATOM     72  C   UNL A   1      45.193  33.904  32.951  1.00  0.00     0.001 A 
ATOM     73  C   UNL A   1      45.528  34.961  32.106  1.00  0.00     0.000 A 
ENDBRANCH  55  68
ENDBRANCH  29  30
ENDBRANCH  21  24
ENDBRANCH  19  20
ENDBRANCH  18  19
ENDBRANCH   1  18
TORSDOF 15
ENDMDL
MODEL 3
REMARK VINA RESULT:      -9.2      0.719      6.243
REMARK SMILES CC[N@@H+](C/C(Cl)=C/Cl)C[C@@H](C)C(=O)NCCCNC(=O)c1ccc(-c2c3nc(c(-c4ccccc4)c4ccc([nH]4)c(-c4ccccc4)c4nc(c(-c5ccccc5)c5ccc2[nH]5)C=C4)C=C3)cc1
REMARK SMILES IDX 15 1 14 2 12 3 13 4 10 6 11 7 9 8 3 9 2 11 1 12 4 13 5 14
REMARK SMILES IDX 6 15 7 16 8 17 16 18 17 19 18 20 19 21 20 23 21 24 22 25
REMARK SMILES IDX 68 26 23 27 67 28 24 29 25 30 26 31 61 32 27 33 66 34 60 35
REMARK SMILES IDX 62 36 28 37 65 38 59 39 58 40 29 42 51 43 36 44 50 45 37 46
REMARK SMILES IDX 40 47 49 48 63 49 38 50 39 51 48 53 64 54 41 55 30 56 31 57
REMARK SMILES IDX 35 58 32 59 34 60 33 61 52 62 53 63 57 64 54 65 56 66 55 67
REMARK SMILES IDX 42 68 43 69 47 70 44 71 46 72 45 73
REMARK H PARENT 14 5 3 10 18 22 62 41 40 52
REMARK Flexibility Score: inf
ROOT
ATOM      1  C   UNL A   1      36.250  20.516  24.794  1.00  0.00     0.117 C 
ENDROOT
BRANCH   1   2
ATOM      2  N   UNL A   1      35.568  21.052  25.956  1.00  0.00    -0.356 N 
ATOM      3  C   UNL A   1      34.887  22.214  26.134  1.00  0.00     0.228 C 
ATOM      4  O   UNL A   1      34.470  22.451  27.270  1.00  0.00    -0.275 OA
ATOM      5  H   UNL A   1      35.607  20.476  26.753  1.00  0.00     0.163 HD
BRANCH   3   6
ATOM      6  C   UNL A   1      34.637  23.193  24.991  1.00  0.00     0.130 C 
ATOM      7  C   UNL A   1      35.144  24.587  25.351  1.00  0.00     0.024 C 
BRANCH   6   8
ATOM      8  C   UNL A   1      33.189  23.052  24.479  1.00  0.00     0.275 C 
BRANCH   8   9
ATOM      9  N   UNL A   1      32.363  21.903  24.859  1.00  0.00    -0.330 N 
ATOM     10  H   UNL A   1      33.025  21.464  25.500  1.00  0.00     0.348 HD
BRANCH   9  11
ATOM     11  C   UNL A   1      31.258  22.103  25.786  1.00  0.00     0.259 C 
ATOM     12  C   UNL A   1      31.171  23.522  26.340  1.00  0.00     0.071 C 
ENDBRANCH   9  11
BRANCH   9  13
ATOM     13  C   UNL A   1      32.161  20.875  23.832  1.00  0.00     0.312 C 
BRANCH  13  14
ATOM     14  C   UNL A   1      32.596  19.460  24.123  1.00  0.00     0.083 C 
ATOM     15  Cl  UNL A   1      32.829  19.105  25.810  1.00  0.00    -0.082 Cl
ATOM     16  C   UNL A   1      32.747  18.520  23.182  1.00  0.00     0.102 C 
ATOM     17  Cl  UNL A   1      33.260  16.905  23.444  1.00  0.00    -0.091 Cl
ENDBRANCH  13  14
ENDBRANCH   9  13
ENDBRANCH   8   9
ENDBRANCH   6   8
ENDBRANCH   3   6
ENDBRANCH   1   2
BRANCH   1  18
ATOM     18  C   UNL A   1      37.658  21.074  24.657  1.00  0.00     0.042 C 
BRANCH  18  19
ATOM     19  C   UNL A   1      38.490  20.918  25.920  1.00  0.00     0.118 C 
BRANCH  19  20
ATOM     20  N   UNL A   1      39.479  19.853  25.805  1.00  0.00    -0.352 N 
ATOM     21  C   UNL A   1      40.841  19.903  26.000  1.00  0.00     0.251 C 
ATOM     22  H   UNL A   1      39.122  18.972  25.554  1.00  0.00     0.163 HD
ATOM     23  O   UNL A   1      41.550  18.966  25.675  1.00  0.00    -0.269 OA
BRANCH  21  24
ATOM     24  C   UNL A   1      41.434  21.122  26.588  1.00  0.00     0.039 A 
ATOM     25  C   UNL A   1      41.930  22.116  25.744  1.00  0.00     0.014 A 
ATOM     26  C   UNL A   1      41.463  21.286  27.974  1.00  0.00     0.014 A 
ATOM     27  C   UNL A   1      42.384  23.318  26.291  1.00  0.00     0.010 A 
ATOM     28  C   UNL A   1      41.832  22.512  28.510  1.00  0.00     0.010 A 
ATOM     29  C   UNL A   1      42.297  23.539  27.674  1.00  0.00    -0.014 A 
BRANCH  29  30
ATOM     30  C   UNL A   1      42.692  24.827  28.292  1.00  0.00     0.031 A 
ATOM     31  C   UNL A   1      41.654  25.891  28.515  1.00  0.00     0.074 A 
ATOM     32  C   UNL A   1      43.991  25.080  28.545  1.00  0.00     0.049 A 
ATOM     33  N   UNL A   1      41.812  27.138  28.875  1.00  0.00    -0.248 NA
ATOM     34  C   UNL A   1      40.255  25.510  28.258  1.00  0.00     0.031 C 
ATOM     35  C   UNL A   1      45.098  24.144  28.340  1.00  0.00     0.029 A 
ATOM     36  N   UNL A   1      44.601  26.218  29.012  1.00  0.00    -0.354 N 
ATOM     37  C   UNL A   1      40.542  27.697  28.852  1.00  0.00     0.074 A 
ATOM     38  C   UNL A   1      39.630  26.668  28.403  1.00  0.00     0.031 C 
ATOM     39  C   UNL A   1      46.248  24.739  28.695  1.00  0.00     0.029 A 
ATOM     40  C   UNL A   1      45.967  26.110  29.106  1.00  0.00     0.049 A 
ATOM     41  H   UNL A   1      44.106  27.033  29.256  1.00  0.00     0.167 HD
ATOM     42  C   UNL A   1      40.164  28.953  29.189  1.00  0.00     0.031 A 
ATOM     43  C   UNL A   1      46.891  27.020  29.467  1.00  0.00     0.031 A 
ATOM     44  C   UNL A   1      41.068  29.964  29.664  1.00  0.00     0.049 A 
ATOM     45  C   UNL A   1      46.447  28.406  29.844  1.00  0.00     0.074 A 
ATOM     46  C   UNL A   1      40.777  31.248  30.090  1.00  0.00     0.029 A 
ATOM     47  N   UNL A   1      42.439  29.801  29.781  1.00  0.00    -0.354 N 
ATOM     48  N   UNL A   1      45.235  28.907  29.864  1.00  0.00    -0.248 NA
ATOM     49  C   UNL A   1      47.497  29.349  30.256  1.00  0.00     0.031 C 
ATOM     50  C   UNL A   1      41.980  31.875  30.432  1.00  0.00     0.029 A 
ATOM     51  C   UNL A   1      43.011  30.965  30.263  1.00  0.00     0.049 A 
ATOM     52  H   UNL A   1      42.932  28.979  29.556  1.00  0.00     0.167 HD
ATOM     53  C   UNL A   1      45.373  30.211  30.322  1.00  0.00     0.074 A 
ATOM     54  C   UNL A   1      46.784  30.422  30.572  1.00  0.00     0.031 C 
ATOM     55  C   UNL A   1      44.415  31.148  30.520  1.00  0.00     0.031 A 
BRANCH  42  56
ATOM     56  C   UNL A   1      38.709  29.298  29.050  1.00  0.00    -0.014 A 
ATOM     57  C   UNL A   1      38.185  29.765  27.834  1.00  0.00     0.009 A 
ATOM     58  C   UNL A   1      37.844  29.132  30.143  1.00  0.00     0.009 A 
ATOM     59  C   UNL A   1      36.833  30.096  27.728  1.00  0.00     0.001 A 
ATOM     60  C   UNL A   1      36.488  29.435  30.025  1.00  0.00     0.001 A 
ATOM     61  C   UNL A   1      35.985  29.928  28.821  1.00  0.00     0.000 A 
ENDBRANCH  42  56
BRANCH  43  62
ATOM     62  C   UNL A   1      48.329  26.647  29.505  1.00  0.00    -0.014 A 
ATOM     63  C   UNL A   1      48.877  26.060  30.655  1.00  0.00     0.009 A 
ATOM     64  C   UNL A   1      49.159  26.873  28.397  1.00  0.00     0.009 A 
ATOM     65  C   UNL A   1      50.233  25.728  30.704  1.00  0.00     0.001 A 
ATOM     66  C   UNL A   1      50.509  26.516  28.438  1.00  0.00     0.001 A 
ATOM     67  C   UNL A   1      51.046  25.952  29.595  1.00  0.00     0.000 A 
ENDBRANCH  43  62
BRANCH  55  68
ATOM     68  C   UNL A   1      44.849  32.469  31.083  1.00  0.00    -0.014 A 
ATOM     69  C   UNL A   1      44.931  32.679  32.468  1.00  0.00     0.009 A 
ATOM     70  C   UNL A   1      45.246  33.495  30.210  1.00  0.00     0.009 A 
ATOM     71  C   UNL A   1      45.384  33.902  32.967  1.00  0.00     0.001 A 
ATOM     72  C   UNL A   1      45.721  34.706  30.713  1.00  0.00     0.001 A 
ATOM     73  C   UNL A   1      45.783  34.911  32.090  1.00  0.00     0.000 A 
ENDBRANCH  55  68
ENDBRANCH  29  30
ENDBRANCH  21  24
ENDBRANCH  19  20
ENDBRANCH  18  19
ENDBRANCH   1  18
TORSDOF 15
ENDMDL
