MODEL 1
REMARK VINA RESULT:     -12.6      0.000      0.000
REMARK SMILES Cc1ccnc(C(=O)c2[nH]c3ccc(OC(F)(F)F)cc3c2CC(=O)NCCCNC(=O)c2ccc(-c3c4nc(c(-c5ccccc5)c5ccc([nH]5)c(-c5ccccc5)c5nc(c(-c6ccccc6)c6ccc3[nH]6)C=C5)C=C4)cc2)c1
REMARK SMILES IDX 27 1 26 2 24 3 25 4 23 6 22 7 9 8 10 9 11 10 21 12 12 13
REMARK SMILES IDX 20 14 13 15 14 16 7 17 8 18 6 19 1 20 2 21 3 22 81 23 4 24
REMARK SMILES IDX 5 25 15 26 16 27 17 28 18 29 19 30 28 31 29 32 30 33 31 34
REMARK SMILES IDX 32 36 33 37 34 38 80 39 35 40 79 41 36 42 37 43 38 44 73 45
REMARK SMILES IDX 39 46 78 47 72 48 74 49 40 50 77 51 71 52 70 53 41 55 63 56
REMARK SMILES IDX 48 57 62 58 49 59 52 60 61 61 75 62 50 63 51 64 60 66 76 67
REMARK SMILES IDX 53 68 42 69 43 70 47 71 44 72 46 73 45 74 64 75 65 76 69 77
REMARK SMILES IDX 66 78 68 79 67 80 54 81 55 82 59 83 56 84 58 85 57 86
REMARK H PARENT 26 5 10 11 30 35 74 54 52 65
REMARK Flexibility Score: inf
ROOT
ATOM      1  C   UNL A   1      32.133  26.979  26.180  1.00  0.00     0.117 C 
ENDROOT
BRANCH   1   2
ATOM      2  N   UNL A   1      31.455  25.812  26.713  1.00  0.00    -0.356 N 
ATOM      3  C   UNL A   1      31.779  24.491  26.604  1.00  0.00     0.224 C 
ATOM      4  O   UNL A   1      31.105  23.668  27.227  1.00  0.00    -0.275 OA
ATOM      5  H   UNL A   1      30.639  26.002  27.231  1.00  0.00     0.163 HD
BRANCH   3   6
ATOM      6  C   UNL A   1      32.988  24.052  25.799  1.00  0.00     0.138 C 
BRANCH   6   7
ATOM      7  C   UNL A   1      32.661  23.410  24.481  1.00  0.00    -0.002 A 
ATOM      8  C   UNL A   1      32.429  24.037  23.262  1.00  0.00     0.093 A 
ATOM      9  N   UNL A   1      32.214  23.057  22.323  1.00  0.00    -0.352 N 
ATOM     10  C   UNL A   1      32.236  21.814  22.905  1.00  0.00     0.046 A 
ATOM     11  H   UNL A   1      32.066  23.222  21.363  1.00  0.00     0.167 HD
ATOM     12  C   UNL A   1      32.508  21.999  24.257  1.00  0.00     0.008 A 
ATOM     13  C   UNL A   1      32.053  20.553  22.333  1.00  0.00     0.030 A 
ATOM     14  C   UNL A   1      32.599  20.856  25.077  1.00  0.00     0.057 A 
ATOM     15  C   UNL A   1      32.154  19.434  23.172  1.00  0.00     0.049 A 
ATOM     16  C   UNL A   1      32.429  19.575  24.531  1.00  0.00     0.130 A 
BRANCH   8  17
ATOM     17  C   UNL A   1      32.468  25.444  22.905  1.00  0.00     0.227 C 
ATOM     18  O   UNL A   1      33.491  25.940  22.439  1.00  0.00    -0.285 OA
BRANCH  17  19
ATOM     19  C   UNL A   1      31.187  26.240  23.012  1.00  0.00     0.113 A 
ATOM     20  C   UNL A   1      29.758  29.678  22.272  1.00  0.00     0.044 C 
ATOM     21  C   UNL A   1      29.905  28.263  22.744  1.00  0.00    -0.047 A 
ATOM     22  C   UNL A   1      28.841  27.618  23.376  1.00  0.00     0.023 A 
ATOM     23  C   UNL A   1      31.093  27.551  22.543  1.00  0.00     0.036 A 
ATOM     24  C   UNL A   1      29.013  26.311  23.799  1.00  0.00     0.112 A 
ATOM     25  N   UNL A   1      30.160  25.618  23.647  1.00  0.00    -0.253 NA
ENDBRANCH  17  19
ENDBRANCH   8  17
BRANCH  16  26
ATOM     26  O   UNL A   1      32.559  18.561  25.439  1.00  0.00    -0.406 OA
BRANCH  26  27
ATOM     27  C   UNL A   1      33.298  17.416  25.052  1.00  0.00     0.573 C 
ATOM     28  F   UNL A   1      32.644  16.715  24.100  1.00  0.00    -0.132 F 
ATOM     29  F   UNL A   1      34.525  17.755  24.600  1.00  0.00    -0.132 F 
ATOM     30  F   UNL A   1      33.454  16.617  26.129  1.00  0.00    -0.132 F 
ENDBRANCH  26  27
ENDBRANCH  16  26
ENDBRANCH   6   7
ENDBRANCH   3   6
ENDBRANCH   1   2
BRANCH   1  31
ATOM     31  C   UNL A   1      32.204  28.146  27.161  1.00  0.00     0.042 C 
BRANCH  31  32
ATOM     32  C   UNL A   1      33.607  28.694  27.413  1.00  0.00     0.118 C 
BRANCH  32  33
ATOM     33  N   UNL A   1      33.599  30.103  27.773  1.00  0.00    -0.352 N 
ATOM     34  C   UNL A   1      34.569  30.870  28.368  1.00  0.00     0.251 C 
ATOM     35  H   UNL A   1      32.766  30.581  27.556  1.00  0.00     0.163 HD
ATOM     36  O   UNL A   1      34.295  32.009  28.738  1.00  0.00    -0.269 OA
BRANCH  34  37
ATOM     37  C   UNL A   1      35.939  30.349  28.584  1.00  0.00     0.039 A 
ATOM     38  C   UNL A   1      36.249  29.796  29.833  1.00  0.00     0.014 A 
ATOM     39  C   UNL A   1      36.935  30.471  27.612  1.00  0.00     0.014 A 
ATOM     40  C   UNL A   1      37.538  29.322  30.090  1.00  0.00     0.010 A 
ATOM     41  C   UNL A   1      38.217  29.973  27.858  1.00  0.00     0.010 A 
ATOM     42  C   UNL A   1      38.527  29.394  29.098  1.00  0.00    -0.014 A 
BRANCH  42  43
ATOM     43  C   UNL A   1      39.894  28.881  29.348  1.00  0.00     0.031 A 
ATOM     44  C   UNL A   1      40.907  29.734  30.052  1.00  0.00     0.074 A 
ATOM     45  C   UNL A   1      40.241  27.654  28.916  1.00  0.00     0.049 A 
ATOM     46  N   UNL A   1      42.186  29.515  30.232  1.00  0.00    -0.248 NA
ATOM     47  C   UNL A   1      40.424  31.002  30.619  1.00  0.00     0.031 C 
ATOM     48  C   UNL A   1      39.357  26.714  28.224  1.00  0.00     0.029 A 
ATOM     49  N   UNL A   1      41.441  26.993  28.995  1.00  0.00    -0.354 N 
ATOM     50  C   UNL A   1      42.669  30.633  30.896  1.00  0.00     0.074 A 
ATOM     51  C   UNL A   1      41.543  31.519  31.110  1.00  0.00     0.031 C 
ATOM     52  C   UNL A   1      40.043  25.591  27.952  1.00  0.00     0.029 A 
ATOM     53  C   UNL A   1      41.416  25.744  28.427  1.00  0.00     0.049 A 
ATOM     54  H   UNL A   1      42.242  27.377  29.419  1.00  0.00     0.167 HD
ATOM     55  C   UNL A   1      43.937  30.906  31.284  1.00  0.00     0.031 A 
ATOM     56  C   UNL A   1      42.393  24.831  28.290  1.00  0.00     0.031 A 
ATOM     57  C   UNL A   1      45.059  30.027  31.107  1.00  0.00     0.049 A 
ATOM     58  C   UNL A   1      43.779  25.134  28.776  1.00  0.00     0.074 A 
ATOM     59  C   UNL A   1      46.387  30.239  31.443  1.00  0.00     0.029 A 
ATOM     60  N   UNL A   1      44.981  28.755  30.565  1.00  0.00    -0.354 N 
ATOM     61  N   UNL A   1      44.233  26.225  29.338  1.00  0.00    -0.248 NA
ATOM     62  C   UNL A   1      44.787  24.079  28.594  1.00  0.00     0.031 C 
ATOM     63  C   UNL A   1      47.111  29.086  31.110  1.00  0.00     0.029 A 
ATOM     64  C   UNL A   1      46.232  28.162  30.570  1.00  0.00     0.049 A 
ATOM     65  H   UNL A   1      44.157  28.335  30.226  1.00  0.00     0.167 HD
ATOM     66  C   UNL A   1      45.583  25.999  29.562  1.00  0.00     0.074 A 
ATOM     67  C   UNL A   1      45.873  24.659  29.091  1.00  0.00     0.031 C 
ATOM     68  C   UNL A   1      46.503  26.833  30.100  1.00  0.00     0.031 A 
BRANCH  55  69
ATOM     69  C   UNL A   1      44.174  32.237  31.925  1.00  0.00    -0.014 A 
ATOM     70  C   UNL A   1      44.477  33.362  31.145  1.00  0.00     0.009 A 
ATOM     71  C   UNL A   1      44.079  32.369  33.319  1.00  0.00     0.009 A 
ATOM     72  C   UNL A   1      44.697  34.598  31.756  1.00  0.00     0.001 A 
ATOM     73  C   UNL A   1      44.297  33.607  33.923  1.00  0.00     0.001 A 
ATOM     74  C   UNL A   1      44.609  34.719  33.143  1.00  0.00     0.000 A 
ENDBRANCH  55  69
BRANCH  56  75
ATOM     75  C   UNL A   1      42.098  23.537  27.636  1.00  0.00    -0.014 A 
ATOM     76  C   UNL A   1      42.378  23.353  26.275  1.00  0.00     0.009 A 
ATOM     77  C   UNL A   1      41.536  22.484  28.372  1.00  0.00     0.009 A 
ATOM     78  C   UNL A   1      42.092  22.135  25.657  1.00  0.00     0.001 A 
ATOM     79  C   UNL A   1      41.254  21.266  27.751  1.00  0.00     0.001 A 
ATOM     80  C   UNL A   1      41.530  21.094  26.396  1.00  0.00     0.000 A 
ENDBRANCH  56  75
BRANCH  68  81
ATOM     81  C   UNL A   1      47.906  26.319  30.194  1.00  0.00    -0.014 A 
ATOM     82  C   UNL A   1      48.366  25.740  31.386  1.00  0.00     0.009 A 
ATOM     83  C   UNL A   1      48.764  26.398  29.090  1.00  0.00     0.009 A 
ATOM     84  C   UNL A   1      49.673  25.260  31.474  1.00  0.00     0.001 A 
ATOM     85  C   UNL A   1      50.072  25.916  29.182  1.00  0.00     0.001 A 
ATOM     86  C   UNL A   1      50.525  25.349  30.374  1.00  0.00     0.000 A 
ENDBRANCH  68  81
ENDBRANCH  42  43
ENDBRANCH  34  37
ENDBRANCH  32  33
ENDBRANCH  31  32
ENDBRANCH   1  31
TORSDOF 15
ENDMDL
MODEL 2
REMARK VINA RESULT:     -12.4      3.819      8.392
REMARK SMILES Cc1ccnc(C(=O)c2[nH]c3ccc(OC(F)(F)F)cc3c2CC(=O)NCCCNC(=O)c2ccc(-c3c4nc(c(-c5ccccc5)c5ccc([nH]5)c(-c5ccccc5)c5nc(c(-c6ccccc6)c6ccc3[nH]6)C=C5)C=C4)cc2)c1
REMARK SMILES IDX 27 1 26 2 24 3 25 4 23 6 22 7 9 8 10 9 11 10 21 12 12 13
REMARK SMILES IDX 20 14 13 15 14 16 7 17 8 18 6 19 1 20 2 21 3 22 81 23 4 24
REMARK SMILES IDX 5 25 15 26 16 27 17 28 18 29 19 30 28 31 29 32 30 33 31 34
REMARK SMILES IDX 32 36 33 37 34 38 80 39 35 40 79 41 36 42 37 43 38 44 73 45
REMARK SMILES IDX 39 46 78 47 72 48 74 49 40 50 77 51 71 52 70 53 41 55 63 56
REMARK SMILES IDX 48 57 62 58 49 59 52 60 61 61 75 62 50 63 51 64 60 66 76 67
REMARK SMILES IDX 53 68 42 69 43 70 47 71 44 72 46 73 45 74 64 75 65 76 69 77
REMARK SMILES IDX 66 78 68 79 67 80 54 81 55 82 59 83 56 84 58 85 57 86
REMARK H PARENT 26 5 10 11 30 35 74 54 52 65
REMARK Flexibility Score: inf
ROOT
ATOM      1  C   UNL A   1      34.643  24.734  25.088  1.00  0.00     0.117 C 
ENDROOT
BRANCH   1   2
ATOM      2  N   UNL A   1      34.321  25.393  23.836  1.00  0.00    -0.356 N 
ATOM      3  C   UNL A   1      33.441  26.406  23.587  1.00  0.00     0.224 C 
ATOM      4  O   UNL A   1      33.400  26.881  22.450  1.00  0.00    -0.275 OA
ATOM      5  H   UNL A   1      34.811  25.061  23.050  1.00  0.00     0.163 HD
BRANCH   3   6
ATOM      6  C   UNL A   1      32.588  26.985  24.700  1.00  0.00     0.138 C 
BRANCH   6   7
ATOM      7  C   UNL A   1      31.125  26.659  24.601  1.00  0.00    -0.002 A 
ATOM      8  C   UNL A   1      30.473  25.518  25.055  1.00  0.00     0.093 A 
ATOM      9  N   UNL A   1      29.133  25.671  24.792  1.00  0.00    -0.352 N 
ATOM     10  C   UNL A   1      28.900  26.846  24.123  1.00  0.00     0.046 A 
ATOM     11  H   UNL A   1      28.435  25.026  25.049  1.00  0.00     0.167 HD
ATOM     12  C   UNL A   1      30.127  27.487  23.982  1.00  0.00     0.008 A 
ATOM     13  C   UNL A   1      27.702  27.388  23.653  1.00  0.00     0.030 A 
ATOM     14  C   UNL A   1      30.151  28.739  23.333  1.00  0.00     0.057 A 
ATOM     15  C   UNL A   1      27.755  28.636  23.017  1.00  0.00     0.049 A 
ATOM     16  C   UNL A   1      28.962  29.314  22.858  1.00  0.00     0.130 A 
BRANCH   8  17
ATOM     17  C   UNL A   1      30.987  24.361  25.767  1.00  0.00     0.227 C 
ATOM     18  O   UNL A   1      30.947  24.317  26.994  1.00  0.00    -0.285 OA
BRANCH  17  19
ATOM     19  C   UNL A   1      31.459  23.178  24.953  1.00  0.00     0.113 A 
ATOM     20  C   UNL A   1      32.808  19.652  25.348  1.00  0.00     0.044 C 
ATOM     21  C   UNL A   1      32.356  20.951  24.752  1.00  0.00    -0.047 A 
ATOM     22  C   UNL A   1      32.407  21.145  23.370  1.00  0.00     0.023 A 
ATOM     23  C   UNL A   1      31.854  21.981  25.554  1.00  0.00     0.036 A 
ATOM     24  C   UNL A   1      31.983  22.358  22.855  1.00  0.00     0.112 A 
ATOM     25  N   UNL A   1      31.528  23.378  23.612  1.00  0.00    -0.253 NA
ENDBRANCH  17  19
ENDBRANCH   8  17
BRANCH  16  26
ATOM     26  O   UNL A   1      29.133  30.534  22.266  1.00  0.00    -0.406 OA
BRANCH  26  27
ATOM     27  C   UNL A   1      28.682  31.680  22.967  1.00  0.00     0.573 C 
ATOM     28  F   UNL A   1      27.333  31.703  23.042  1.00  0.00    -0.132 F 
ATOM     29  F   UNL A   1      29.205  31.730  24.211  1.00  0.00    -0.132 F 
ATOM     30  F   UNL A   1      29.084  32.782  22.298  1.00  0.00    -0.132 F 
ENDBRANCH  26  27
ENDBRANCH  16  26
ENDBRANCH   6   7
ENDBRANCH   3   6
ENDBRANCH   1   2
BRANCH   1  31
ATOM     31  C   UNL A   1      35.772  23.714  24.969  1.00  0.00     0.042 C 
BRANCH  31  32
ATOM     32  C   UNL A   1      36.417  23.307  26.292  1.00  0.00     0.118 C 
BRANCH  32  33
ATOM     33  N   UNL A   1      37.605  22.489  26.106  1.00  0.00    -0.352 N 
ATOM     34  C   UNL A   1      38.931  22.808  26.249  1.00  0.00     0.251 C 
ATOM     35  H   UNL A   1      37.429  21.559  25.834  1.00  0.00     0.163 HD
ATOM     36  O   UNL A   1      39.788  22.010  25.878  1.00  0.00    -0.269 OA
BRANCH  34  37
ATOM     37  C   UNL A   1      39.353  24.103  26.831  1.00  0.00     0.039 A 
ATOM     38  C   UNL A   1      38.973  24.397  28.146  1.00  0.00     0.014 A 
ATOM     39  C   UNL A   1      40.042  25.059  26.078  1.00  0.00     0.014 A 
ATOM     40  C   UNL A   1      39.323  25.620  28.722  1.00  0.00     0.010 A 
ATOM     41  C   UNL A   1      40.416  26.272  26.661  1.00  0.00     0.010 A 
ATOM     42  C   UNL A   1      40.060  26.561  27.988  1.00  0.00    -0.014 A 
BRANCH  42  43
ATOM     43  C   UNL A   1      40.454  27.856  28.589  1.00  0.00     0.031 A 
ATOM     44  C   UNL A   1      41.857  28.070  29.077  1.00  0.00     0.074 A 
ATOM     45  C   UNL A   1      39.544  28.837  28.729  1.00  0.00     0.049 A 
ATOM     46  N   UNL A   1      42.347  29.077  29.757  1.00  0.00    -0.248 NA
ATOM     47  C   UNL A   1      42.832  27.014  28.768  1.00  0.00     0.031 C 
ATOM     48  C   UNL A   1      38.147  28.770  28.294  1.00  0.00     0.029 A 
ATOM     49  N   UNL A   1      39.663  30.087  29.284  1.00  0.00    -0.354 N 
ATOM     50  C   UNL A   1      43.676  28.757  29.993  1.00  0.00     0.074 A 
ATOM     51  C   UNL A   1      43.923  27.476  29.364  1.00  0.00     0.031 C 
ATOM     52  C   UNL A   1      37.542  29.933  28.590  1.00  0.00     0.029 A 
ATOM     53  C   UNL A   1      38.500  30.813  29.254  1.00  0.00     0.049 A 
ATOM     54  H   UNL A   1      40.504  30.428  29.666  1.00  0.00     0.167 HD
ATOM     55  C   UNL A   1      44.607  29.460  30.681  1.00  0.00     0.031 A 
ATOM     56  C   UNL A   1      38.230  32.044  29.723  1.00  0.00     0.031 A 
ATOM     57  C   UNL A   1      44.387  30.744  31.286  1.00  0.00     0.049 A 
ATOM     58  C   UNL A   1      39.293  32.826  30.435  1.00  0.00     0.074 A 
ATOM     59  C   UNL A   1      45.268  31.512  32.031  1.00  0.00     0.029 A 
ATOM     60  N   UNL A   1      43.208  31.462  31.195  1.00  0.00    -0.354 N 
ATOM     61  N   UNL A   1      40.524  32.479  30.711  1.00  0.00    -0.248 NA
ATOM     62  C   UNL A   1      38.918  34.166  30.911  1.00  0.00     0.031 C 
ATOM     63  C   UNL A   1      44.619  32.703  32.383  1.00  0.00     0.029 A 
ATOM     64  C   UNL A   1      43.338  32.671  31.856  1.00  0.00     0.049 A 
ATOM     65  H   UNL A   1      42.395  31.157  30.730  1.00  0.00     0.167 HD
ATOM     66  C   UNL A   1      41.069  33.548  31.408  1.00  0.00     0.074 A 
ATOM     67  C   UNL A   1      40.040  34.564  31.499  1.00  0.00     0.031 C 
ATOM     68  C   UNL A   1      42.309  33.670  31.936  1.00  0.00     0.031 A 
BRANCH  55  69
ATOM     69  C   UNL A   1      45.953  28.826  30.833  1.00  0.00    -0.014 A 
ATOM     70  C   UNL A   1      46.990  29.127  29.939  1.00  0.00     0.009 A 
ATOM     71  C   UNL A   1      46.190  27.930  31.888  1.00  0.00     0.009 A 
ATOM     72  C   UNL A   1      48.242  28.527  30.091  1.00  0.00     0.001 A 
ATOM     73  C   UNL A   1      47.443  27.336  32.037  1.00  0.00     0.001 A 
ATOM     74  C   UNL A   1      48.467  27.632  31.137  1.00  0.00     0.000 A 
ENDBRANCH  55  69
BRANCH  56  75
ATOM     75  C   UNL A   1      36.874  32.611  29.552  1.00  0.00    -0.014 A 
ATOM     76  C   UNL A   1      36.543  33.308  28.382  1.00  0.00     0.009 A 
ATOM     77  C   UNL A   1      35.910  32.455  30.558  1.00  0.00     0.009 A 
ATOM     78  C   UNL A   1      35.266  33.849  28.225  1.00  0.00     0.001 A 
ATOM     79  C   UNL A   1      34.633  32.995  30.396  1.00  0.00     0.001 A 
ATOM     80  C   UNL A   1      34.314  33.693  29.232  1.00  0.00     0.000 A 
ENDBRANCH  56  75
BRANCH  68  81
ATOM     81  C   UNL A   1      42.610  34.942  32.666  1.00  0.00    -0.014 A 
ATOM     82  C   UNL A   1      43.327  35.966  32.030  1.00  0.00     0.009 A 
ATOM     83  C   UNL A   1      42.164  35.126  33.981  1.00  0.00     0.009 A 
ATOM     84  C   UNL A   1      43.606  37.153  32.708  1.00  0.00     0.001 A 
ATOM     85  C   UNL A   1      42.446  36.315  34.656  1.00  0.00     0.001 A 
ATOM     86  C   UNL A   1      43.168  37.326  34.021  1.00  0.00     0.000 A 
ENDBRANCH  68  81
ENDBRANCH  42  43
ENDBRANCH  34  37
ENDBRANCH  32  33
ENDBRANCH  31  32
ENDBRANCH   1  31
TORSDOF 15
ENDMDL
MODEL 3
REMARK VINA RESULT:     -12.4      4.056      7.496
REMARK SMILES Cc1ccnc(C(=O)c2[nH]c3ccc(OC(F)(F)F)cc3c2CC(=O)NCCCNC(=O)c2ccc(-c3c4nc(c(-c5ccccc5)c5ccc([nH]5)c(-c5ccccc5)c5nc(c(-c6ccccc6)c6ccc3[nH]6)C=C5)C=C4)cc2)c1
REMARK SMILES IDX 27 1 26 2 24 3 25 4 23 6 22 7 9 8 10 9 11 10 21 12 12 13
REMARK SMILES IDX 20 14 13 15 14 16 7 17 8 18 6 19 1 20 2 21 3 22 81 23 4 24
REMARK SMILES IDX 5 25 15 26 16 27 17 28 18 29 19 30 28 31 29 32 30 33 31 34
REMARK SMILES IDX 32 36 33 37 34 38 80 39 35 40 79 41 36 42 37 43 38 44 73 45
REMARK SMILES IDX 39 46 78 47 72 48 74 49 40 50 77 51 71 52 70 53 41 55 63 56
REMARK SMILES IDX 48 57 62 58 49 59 52 60 61 61 75 62 50 63 51 64 60 66 76 67
REMARK SMILES IDX 53 68 42 69 43 70 47 71 44 72 46 73 45 74 64 75 65 76 69 77
REMARK SMILES IDX 66 78 68 79 67 80 54 81 55 82 59 83 56 84 58 85 57 86
REMARK H PARENT 26 5 10 11 30 35 74 54 52 65
REMARK Flexibility Score: inf
ROOT
ATOM      1  C   UNL A   1      34.625  24.532  25.033  1.00  0.00     0.117 C 
ENDROOT
BRANCH   1   2
ATOM      2  N   UNL A   1      34.336  25.253  23.808  1.00  0.00    -0.356 N 
ATOM      3  C   UNL A   1      33.493  26.306  23.594  1.00  0.00     0.224 C 
ATOM      4  O   UNL A   1      33.479  26.829  22.478  1.00  0.00    -0.275 OA
ATOM      5  H   UNL A   1      34.821  24.937  23.011  1.00  0.00     0.163 HD
BRANCH   3   6
ATOM      6  C   UNL A   1      32.653  26.868  24.725  1.00  0.00     0.138 C 
BRANCH   6   7
ATOM      7  C   UNL A   1      31.184  26.567  24.622  1.00  0.00    -0.002 A 
ATOM      8  C   UNL A   1      30.512  25.437  25.073  1.00  0.00     0.093 A 
ATOM      9  N   UNL A   1      29.176  25.612  24.806  1.00  0.00    -0.352 N 
ATOM     10  C   UNL A   1      28.964  26.791  24.137  1.00  0.00     0.046 A 
ATOM     11  H   UNL A   1      28.466  24.979  25.061  1.00  0.00     0.167 HD
ATOM     12  C   UNL A   1      30.202  27.412  24.000  1.00  0.00     0.008 A 
ATOM     13  C   UNL A   1      27.777  27.354  23.664  1.00  0.00     0.030 A 
ATOM     14  C   UNL A   1      30.249  28.663  23.352  1.00  0.00     0.057 A 
ATOM     15  C   UNL A   1      27.852  28.601  23.029  1.00  0.00     0.049 A 
ATOM     16  C   UNL A   1      29.071  29.259  22.874  1.00  0.00     0.130 A 
BRANCH   8  17
ATOM     17  C   UNL A   1      31.004  24.271  25.786  1.00  0.00     0.227 C 
ATOM     18  O   UNL A   1      30.955  24.225  27.013  1.00  0.00    -0.285 OA
BRANCH  17  19
ATOM     19  C   UNL A   1      31.465  23.083  24.973  1.00  0.00     0.113 A 
ATOM     20  C   UNL A   1      32.768  19.540  25.369  1.00  0.00     0.044 C 
ATOM     21  C   UNL A   1      32.335  20.845  24.772  1.00  0.00    -0.047 A 
ATOM     22  C   UNL A   1      32.395  21.040  23.392  1.00  0.00     0.023 A 
ATOM     23  C   UNL A   1      31.842  21.881  25.574  1.00  0.00     0.036 A 
ATOM     24  C   UNL A   1      31.988  22.259  22.875  1.00  0.00     0.112 A 
ATOM     25  N   UNL A   1      31.542  23.283  23.632  1.00  0.00    -0.253 NA
ENDBRANCH  17  19
ENDBRANCH   8  17
BRANCH  16  26
ATOM     26  O   UNL A   1      29.265  30.476  22.283  1.00  0.00    -0.406 OA
BRANCH  26  27
ATOM     27  C   UNL A   1      28.784  31.624  22.959  1.00  0.00     0.573 C 
ATOM     28  F   UNL A   1      29.237  32.756  22.377  1.00  0.00    -0.132 F 
ATOM     29  F   UNL A   1      27.434  31.643  22.992  1.00  0.00    -0.132 F 
ATOM     30  F   UNL A   1      29.234  31.597  24.232  1.00  0.00    -0.132 F 
ENDBRANCH  26  27
ENDBRANCH  16  26
ENDBRANCH   6   7
ENDBRANCH   3   6
ENDBRANCH   1   2
BRANCH   1  31
ATOM     31  C   UNL A   1      35.267  23.167  24.802  1.00  0.00     0.042 C 
BRANCH  31  32
ATOM     32  C   UNL A   1      35.687  22.428  26.071  1.00  0.00     0.118 C 
BRANCH  32  33
ATOM     33  N   UNL A   1      36.585  21.317  25.798  1.00  0.00    -0.352 N 
ATOM     34  C   UNL A   1      37.956  21.274  25.762  1.00  0.00     0.251 C 
ATOM     35  H   UNL A   1      36.138  20.460  25.610  1.00  0.00     0.163 HD
ATOM     36  O   UNL A   1      38.517  20.265  25.344  1.00  0.00    -0.269 OA
BRANCH  34  37
ATOM     37  C   UNL A   1      38.774  22.427  26.204  1.00  0.00     0.039 A 
ATOM     38  C   UNL A   1      38.384  23.711  25.806  1.00  0.00     0.014 A 
ATOM     39  C   UNL A   1      39.957  22.255  26.930  1.00  0.00     0.014 A 
ATOM     40  C   UNL A   1      39.145  24.823  26.174  1.00  0.00     0.010 A 
ATOM     41  C   UNL A   1      40.705  23.369  27.322  1.00  0.00     0.010 A 
ATOM     42  C   UNL A   1      40.303  24.660  26.947  1.00  0.00    -0.014 A 
BRANCH  42  43
ATOM     43  C   UNL A   1      41.113  25.830  27.361  1.00  0.00     0.031 A 
ATOM     44  C   UNL A   1      40.567  26.820  28.347  1.00  0.00     0.074 A 
ATOM     45  C   UNL A   1      42.333  26.025  26.828  1.00  0.00     0.049 A 
ATOM     46  N   UNL A   1      41.065  27.973  28.718  1.00  0.00    -0.248 NA
ATOM     47  C   UNL A   1      39.292  26.473  28.993  1.00  0.00     0.031 C 
ATOM     48  C   UNL A   1      42.992  25.142  25.864  1.00  0.00     0.029 A 
ATOM     49  N   UNL A   1      43.235  27.042  27.023  1.00  0.00    -0.354 N 
ATOM     50  C   UNL A   1      40.147  28.509  29.609  1.00  0.00     0.074 A 
ATOM     51  C   UNL A   1      39.073  27.546  29.743  1.00  0.00     0.031 C 
ATOM     52  C   UNL A   1      44.198  25.650  25.560  1.00  0.00     0.029 A 
ATOM     53  C   UNL A   1      44.384  26.903  26.289  1.00  0.00     0.049 A 
ATOM     54  H   UNL A   1      43.071  27.797  27.633  1.00  0.00     0.167 HD
ATOM     55  C   UNL A   1      40.186  29.700  30.251  1.00  0.00     0.031 A 
ATOM     56  C   UNL A   1      45.462  27.702  26.199  1.00  0.00     0.031 A 
ATOM     57  C   UNL A   1      41.255  30.654  30.152  1.00  0.00     0.049 A 
ATOM     58  C   UNL A   1      45.506  28.992  26.961  1.00  0.00     0.074 A 
ATOM     59  C   UNL A   1      41.360  31.902  30.745  1.00  0.00     0.029 A 
ATOM     60  N   UNL A   1      42.419  30.454  29.431  1.00  0.00    -0.354 N 
ATOM     61  N   UNL A   1      44.598  29.516  27.745  1.00  0.00    -0.248 NA
ATOM     62  C   UNL A   1      46.723  29.805  26.814  1.00  0.00     0.031 C 
ATOM     63  C   UNL A   1      42.597  32.453  30.387  1.00  0.00     0.029 A 
ATOM     64  C   UNL A   1      43.257  31.547  29.574  1.00  0.00     0.049 A 
ATOM     65  H   UNL A   1      42.622  29.653  28.895  1.00  0.00     0.167 HD
ATOM     66  C   UNL A   1      45.122  30.728  28.170  1.00  0.00     0.074 A 
ATOM     67  C   UNL A   1      46.436  30.855  27.572  1.00  0.00     0.031 C 
ATOM     68  C   UNL A   1      44.558  31.657  28.976  1.00  0.00     0.031 A 
BRANCH  55  69
ATOM     69  C   UNL A   1      39.006  30.044  31.106  1.00  0.00    -0.014 A 
ATOM     70  C   UNL A   1      38.983  29.700  32.464  1.00  0.00     0.009 A 
ATOM     71  C   UNL A   1      37.915  30.729  30.549  1.00  0.00     0.009 A 
ATOM     72  C   UNL A   1      37.876  30.026  33.251  1.00  0.00     0.001 A 
ATOM     73  C   UNL A   1      36.813  31.054  31.339  1.00  0.00     0.001 A 
ATOM     74  C   UNL A   1      36.792  30.700  32.687  1.00  0.00     0.000 A 
ENDBRANCH  55  69
BRANCH  56  75
ATOM     75  C   UNL A   1      46.591  27.312  25.327  1.00  0.00    -0.014 A 
ATOM     76  C   UNL A   1      46.735  27.889  24.057  1.00  0.00     0.009 A 
ATOM     77  C   UNL A   1      47.527  26.363  25.762  1.00  0.00     0.009 A 
ATOM     78  C   UNL A   1      47.796  27.514  23.232  1.00  0.00     0.001 A 
ATOM     79  C   UNL A   1      48.589  25.993  24.934  1.00  0.00     0.001 A 
ATOM     80  C   UNL A   1      48.720  26.567  23.671  1.00  0.00     0.000 A 
ENDBRANCH  56  75
BRANCH  68  81
ATOM     81  C   UNL A   1      45.359  32.894  29.244  1.00  0.00    -0.014 A 
ATOM     82  C   UNL A   1      46.168  32.975  30.386  1.00  0.00     0.009 A 
ATOM     83  C   UNL A   1      45.320  33.971  28.349  1.00  0.00     0.009 A 
ATOM     84  C   UNL A   1      46.917  34.126  30.636  1.00  0.00     0.001 A 
ATOM     85  C   UNL A   1      46.070  35.120  28.602  1.00  0.00     0.001 A 
ATOM     86  C   UNL A   1      46.866  35.198  29.746  1.00  0.00     0.000 A 
ENDBRANCH  68  81
ENDBRANCH  42  43
ENDBRANCH  34  37
ENDBRANCH  32  33
ENDBRANCH  31  32
ENDBRANCH   1  31
TORSDOF 15
ENDMDL
