MODEL 1
REMARK VINA RESULT:     -12.1      0.000      0.000
REMARK SMILES C[C@@]1(CN2C(=O)c3ccc(C(=O)NCCCNC(=O)c4ccc(-c5c6nc(c(-c7ccccc7)c7ccc([nH]7)c(-c7ccccc7)c7nc(c(-c8ccccc8)c8ccc5[nH]8)C=C7)C=C6)cc4)cc3C2=O)CCCO1
REMARK SMILES IDX 15 1 14 2 13 3 11 4 12 5 10 7 4 8 5 9 70 10 6 11 7 12 69 13
REMARK SMILES IDX 71 14 8 15 68 16 9 17 3 18 2 19 1 20 72 21 75 22 73 23 74 24
REMARK SMILES IDX 16 25 17 26 18 27 19 29 20 30 21 31 67 32 22 33 66 34 23 35
REMARK SMILES IDX 24 36 25 37 60 38 26 39 65 40 59 41 61 42 27 43 64 44 58 45
REMARK SMILES IDX 57 46 28 48 50 49 35 50 49 51 36 52 39 53 48 54 62 55 37 56
REMARK SMILES IDX 38 57 47 59 63 60 40 61 29 62 30 63 34 64 31 65 33 66 32 67
REMARK SMILES IDX 51 68 52 69 56 70 53 71 55 72 54 73 41 74 42 75 46 76 43 77
REMARK SMILES IDX 45 78 44 79
REMARK H PARENT 13 6 17 28 61 47 39 58
REMARK Flexibility Score: inf
ROOT
ATOM      1  C   UNL A   1      37.102  19.430  24.944  1.00  0.00     0.042 C 
ENDROOT
BRANCH   1   2
ATOM      2  C   UNL A   1      35.844  20.299  24.976  1.00  0.00     0.118 C 
BRANCH   2   3
ATOM      3  N   UNL A   1      34.662  19.503  25.255  1.00  0.00    -0.352 N 
ATOM      4  C   UNL A   1      33.322  19.745  25.108  1.00  0.00     0.251 C 
ATOM      5  O   UNL A   1      32.551  18.823  25.375  1.00  0.00    -0.269 OA
ATOM      6  H   UNL A   1      34.865  18.612  25.622  1.00  0.00     0.163 HD
BRANCH   4   7
ATOM      7  C   UNL A   1      32.753  21.039  24.632  1.00  0.00     0.040 A 
ATOM      8  N   UNL A   1      30.975  25.270  25.063  1.00  0.00    -0.271 N 
ATOM      9  C   UNL A   1      31.262  24.876  23.790  1.00  0.00     0.261 C 
ATOM     10  C   UNL A   1      31.335  24.318  25.984  1.00  0.00     0.261 C 
ATOM     11  O   UNL A   1      31.175  25.494  22.745  1.00  0.00    -0.269 OA
ATOM     12  C   UNL A   1      31.765  23.514  23.881  1.00  0.00     0.053 A 
ATOM     13  C   UNL A   1      31.826  23.170  25.216  1.00  0.00     0.054 A 
ATOM     14  O   UNL A   1      31.333  24.372  27.196  1.00  0.00    -0.269 OA
ATOM     15  C   UNL A   1      32.181  22.664  22.881  1.00  0.00     0.015 A 
ATOM     16  C   UNL A   1      32.316  21.942  25.624  1.00  0.00     0.028 A 
ATOM     17  C   UNL A   1      32.698  21.427  23.272  1.00  0.00     0.015 A 
BRANCH   8  18
ATOM     18  C   UNL A   1      30.430  26.575  25.396  1.00  0.00     0.164 C 
BRANCH  18  19
ATOM     19  C   UNL A   1      31.501  27.617  25.826  1.00  0.00     0.084 C 
ATOM     20  C   UNL A   1      31.531  27.869  27.333  1.00  0.00     0.044 C 
ATOM     21  C   UNL A   1      31.296  28.935  25.070  1.00  0.00     0.039 C 
ATOM     22  O   UNL A   1      32.805  27.139  25.428  1.00  0.00    -0.373 OA
ATOM     23  C   UNL A   1      32.107  28.732  23.814  1.00  0.00     0.031 C 
ATOM     24  C   UNL A   1      33.276  27.915  24.318  1.00  0.00     0.161 C 
ENDBRANCH  18  19
ENDBRANCH   8  18
ENDBRANCH   4   7
ENDBRANCH   2   3
ENDBRANCH   1   2
BRANCH   1  25
ATOM     25  C   UNL A   1      38.363  20.179  25.365  1.00  0.00     0.118 C 
BRANCH  25  26
ATOM     26  N   UNL A   1      39.462  19.267  25.653  1.00  0.00    -0.352 N 
ATOM     27  C   UNL A   1      40.746  19.527  26.058  1.00  0.00     0.251 C 
ATOM     28  H   UNL A   1      39.248  18.312  25.538  1.00  0.00     0.163 HD
ATOM     29  O   UNL A   1      41.592  18.640  25.995  1.00  0.00    -0.269 OA
BRANCH  27  30
ATOM     30  C   UNL A   1      41.119  20.864  26.566  1.00  0.00     0.039 A 
ATOM     31  C   UNL A   1      41.096  21.092  27.945  1.00  0.00     0.014 A 
ATOM     32  C   UNL A   1      41.442  21.902  25.690  1.00  0.00     0.014 A 
ATOM     33  C   UNL A   1      41.453  22.346  28.446  1.00  0.00     0.010 A 
ATOM     34  C   UNL A   1      41.873  23.126  26.192  1.00  0.00     0.010 A 
ATOM     35  C   UNL A   1      41.876  23.361  27.574  1.00  0.00    -0.014 A 
BRANCH  35  36
ATOM     36  C   UNL A   1      42.337  24.673  28.088  1.00  0.00     0.031 A 
ATOM     37  C   UNL A   1      41.356  25.787  28.321  1.00  0.00     0.074 A 
ATOM     38  C   UNL A   1      43.653  24.884  28.276  1.00  0.00     0.049 A 
ATOM     39  N   UNL A   1      41.576  27.015  28.719  1.00  0.00    -0.248 NA
ATOM     40  C   UNL A   1      39.941  25.489  28.047  1.00  0.00     0.031 C 
ATOM     41  C   UNL A   1      44.709  23.893  28.056  1.00  0.00     0.029 A 
ATOM     42  N   UNL A   1      44.328  26.002  28.694  1.00  0.00    -0.354 N 
ATOM     43  C   UNL A   1      40.335  27.638  28.722  1.00  0.00     0.074 A 
ATOM     44  C   UNL A   1      39.376  26.672  28.235  1.00  0.00     0.031 C 
ATOM     45  C   UNL A   1      45.893  24.433  28.383  1.00  0.00     0.029 A 
ATOM     46  C   UNL A   1      45.686  25.821  28.784  1.00  0.00     0.049 A 
ATOM     47  H   UNL A   1      43.883  26.854  28.907  1.00  0.00     0.167 HD
ATOM     48  C   UNL A   1      40.019  28.897  29.110  1.00  0.00     0.031 A 
ATOM     49  C   UNL A   1      46.658  26.677  29.149  1.00  0.00     0.031 A 
ATOM     50  C   UNL A   1      40.979  29.859  29.586  1.00  0.00     0.049 A 
ATOM     51  C   UNL A   1      46.291  28.082  29.532  1.00  0.00     0.074 A 
ATOM     52  C   UNL A   1      40.757  31.141  30.059  1.00  0.00     0.029 A 
ATOM     53  N   UNL A   1      42.348  29.645  29.637  1.00  0.00    -0.354 N 
ATOM     54  N   UNL A   1      45.106  28.636  29.601  1.00  0.00    -0.248 NA
ATOM     55  C   UNL A   1      47.399  28.976  29.894  1.00  0.00     0.031 C 
ATOM     56  C   UNL A   1      41.999  31.726  30.331  1.00  0.00     0.029 A 
ATOM     57  C   UNL A   1      42.989  30.785  30.094  1.00  0.00     0.049 A 
ATOM     58  H   UNL A   1      42.800  28.808  29.384  1.00  0.00     0.167 HD
ATOM     59  C   UNL A   1      45.320  29.936  30.041  1.00  0.00     0.074 A 
ATOM     60  C   UNL A   1      46.749  30.081  30.234  1.00  0.00     0.031 C 
ATOM     61  C   UNL A   1      44.414  30.919  30.270  1.00  0.00     0.031 A 
BRANCH  48  62
ATOM     62  C   UNL A   1      38.573  29.307  29.000  1.00  0.00    -0.014 A 
ATOM     63  C   UNL A   1      37.682  29.151  30.076  1.00  0.00     0.009 A 
ATOM     64  C   UNL A   1      38.093  29.849  27.798  1.00  0.00     0.009 A 
ATOM     65  C   UNL A   1      36.331  29.472  29.929  1.00  0.00     0.001 A 
ATOM     66  C   UNL A   1      36.747  30.204  27.666  1.00  0.00     0.001 A 
ATOM     67  C   UNL A   1      35.865  30.000  28.726  1.00  0.00     0.000 A 
ENDBRANCH  48  62
BRANCH  49  68
ATOM     68  C   UNL A   1      48.069  26.212  29.204  1.00  0.00    -0.014 A 
ATOM     69  C   UNL A   1      48.893  26.330  28.074  1.00  0.00     0.009 A 
ATOM     70  C   UNL A   1      48.607  25.676  30.383  1.00  0.00     0.009 A 
ATOM     71  C   UNL A   1      50.224  25.908  28.121  1.00  0.00     0.001 A 
ATOM     72  C   UNL A   1      49.946  25.280  30.436  1.00  0.00     0.001 A 
ATOM     73  C   UNL A   1      50.750  25.390  29.303  1.00  0.00     0.000 A 
ENDBRANCH  49  68
BRANCH  61  74
ATOM     74  C   UNL A   1      44.940  32.232  30.782  1.00  0.00    -0.014 A 
ATOM     75  C   UNL A   1      45.104  32.468  32.156  1.00  0.00     0.009 A 
ATOM     76  C   UNL A   1      45.313  33.232  29.871  1.00  0.00     0.009 A 
ATOM     77  C   UNL A   1      45.599  33.694  32.606  1.00  0.00     0.001 A 
ATOM     78  C   UNL A   1      45.840  34.443  30.323  1.00  0.00     0.001 A 
ATOM     79  C   UNL A   1      45.973  34.677  31.690  1.00  0.00     0.000 A 
ENDBRANCH  61  74
ENDBRANCH  35  36
ENDBRANCH  27  30
ENDBRANCH  25  26
ENDBRANCH   1  25
TORSDOF 12
ENDMDL
MODEL 2
REMARK VINA RESULT:     -12.0      0.468      5.968
REMARK SMILES C[C@@]1(CN2C(=O)c3ccc(C(=O)NCCCNC(=O)c4ccc(-c5c6nc(c(-c7ccccc7)c7ccc([nH]7)c(-c7ccccc7)c7nc(c(-c8ccccc8)c8ccc5[nH]8)C=C7)C=C6)cc4)cc3C2=O)CCCO1
REMARK SMILES IDX 15 1 14 2 13 3 11 4 12 5 10 7 4 8 5 9 70 10 6 11 7 12 69 13
REMARK SMILES IDX 71 14 8 15 68 16 9 17 3 18 2 19 1 20 72 21 75 22 73 23 74 24
REMARK SMILES IDX 16 25 17 26 18 27 19 29 20 30 21 31 67 32 22 33 66 34 23 35
REMARK SMILES IDX 24 36 25 37 60 38 26 39 65 40 59 41 61 42 27 43 64 44 58 45
REMARK SMILES IDX 57 46 28 48 50 49 35 50 49 51 36 52 39 53 48 54 62 55 37 56
REMARK SMILES IDX 38 57 47 59 63 60 40 61 29 62 30 63 34 64 31 65 33 66 32 67
REMARK SMILES IDX 51 68 52 69 56 70 53 71 55 72 54 73 41 74 42 75 46 76 43 77
REMARK SMILES IDX 45 78 44 79
REMARK H PARENT 13 6 17 28 61 47 39 58
REMARK Flexibility Score: inf
ROOT
ATOM      1  C   UNL A   1      37.279  19.567  24.984  1.00  0.00     0.042 C 
ENDROOT
BRANCH   1   2
ATOM      2  C   UNL A   1      36.040  20.462  25.004  1.00  0.00     0.118 C 
BRANCH   2   3
ATOM      3  N   UNL A   1      34.838  19.690  25.261  1.00  0.00    -0.352 N 
ATOM      4  C   UNL A   1      33.505  19.965  25.106  1.00  0.00     0.251 C 
ATOM      5  O   UNL A   1      32.710  19.058  25.352  1.00  0.00    -0.269 OA
ATOM      6  H   UNL A   1      35.017  18.789  25.616  1.00  0.00     0.163 HD
BRANCH   4   7
ATOM      7  C   UNL A   1      32.970  21.279  24.645  1.00  0.00     0.040 A 
ATOM      8  N   UNL A   1      31.185  25.502  25.124  1.00  0.00    -0.271 N 
ATOM      9  C   UNL A   1      31.547  25.153  23.857  1.00  0.00     0.261 C 
ATOM     10  C   UNL A   1      31.486  24.515  26.029  1.00  0.00     0.261 C 
ATOM     11  O   UNL A   1      31.525  25.809  22.832  1.00  0.00    -0.269 OA
ATOM     12  C   UNL A   1      32.039  23.786  23.928  1.00  0.00     0.053 A 
ATOM     13  C   UNL A   1      32.018  23.393  25.251  1.00  0.00     0.054 A 
ATOM     14  O   UNL A   1      31.412  24.525  27.240  1.00  0.00    -0.269 OA
ATOM     15  C   UNL A   1      32.510  22.971  22.923  1.00  0.00     0.015 A 
ATOM     16  C   UNL A   1      32.478  22.148  25.641  1.00  0.00     0.028 A 
ATOM     17  C   UNL A   1      32.999  21.717  23.299  1.00  0.00     0.015 A 
BRANCH   8  18
ATOM     18  C   UNL A   1      30.626  26.798  25.472  1.00  0.00     0.164 C 
BRANCH  18  19
ATOM     19  C   UNL A   1      31.674  27.817  26.002  1.00  0.00     0.084 C 
ATOM     20  C   UNL A   1      31.589  28.044  27.511  1.00  0.00     0.044 C 
ATOM     21  C   UNL A   1      31.547  29.150  25.255  1.00  0.00     0.039 C 
ATOM     22  O   UNL A   1      32.999  27.327  25.700  1.00  0.00    -0.373 OA
ATOM     23  C   UNL A   1      32.451  28.955  24.064  1.00  0.00     0.031 C 
ATOM     24  C   UNL A   1      33.566  28.114  24.644  1.00  0.00     0.161 C 
ENDBRANCH  18  19
ENDBRANCH   8  18
ENDBRANCH   4   7
ENDBRANCH   2   3
ENDBRANCH   1   2
BRANCH   1  25
ATOM     25  C   UNL A   1      38.544  20.276  25.459  1.00  0.00     0.118 C 
BRANCH  25  26
ATOM     26  N   UNL A   1      39.638  19.340  25.679  1.00  0.00    -0.352 N 
ATOM     27  C   UNL A   1      40.941  19.570  26.042  1.00  0.00     0.251 C 
ATOM     28  H   UNL A   1      39.406  18.393  25.545  1.00  0.00     0.163 HD
ATOM     29  O   UNL A   1      41.770  18.673  25.922  1.00  0.00    -0.269 OA
BRANCH  27  30
ATOM     30  C   UNL A   1      41.353  20.886  26.574  1.00  0.00     0.039 A 
ATOM     31  C   UNL A   1      41.931  21.814  25.704  1.00  0.00     0.014 A 
ATOM     32  C   UNL A   1      41.216  21.188  27.930  1.00  0.00     0.014 A 
ATOM     33  C   UNL A   1      42.319  23.066  26.184  1.00  0.00     0.010 A 
ATOM     34  C   UNL A   1      41.529  22.463  28.392  1.00  0.00     0.010 A 
ATOM     35  C   UNL A   1      42.089  23.411  27.525  1.00  0.00    -0.014 A 
BRANCH  35  36
ATOM     36  C   UNL A   1      42.418  24.763  28.040  1.00  0.00     0.031 A 
ATOM     37  C   UNL A   1      43.825  25.102  28.443  1.00  0.00     0.074 A 
ATOM     38  C   UNL A   1      41.432  25.662  28.211  1.00  0.00     0.049 A 
ATOM     39  N   UNL A   1      44.294  26.211  28.958  1.00  0.00    -0.248 NA
ATOM     40  C   UNL A   1      44.836  24.047  28.268  1.00  0.00     0.031 C 
ATOM     41  C   UNL A   1      40.021  25.443  27.886  1.00  0.00     0.029 A 
ATOM     42  N   UNL A   1      41.465  26.942  28.702  1.00  0.00    -0.354 N 
ATOM     43  C   UNL A   1      45.644  25.979  29.187  1.00  0.00     0.074 A 
ATOM     44  C   UNL A   1      45.907  24.609  28.806  1.00  0.00     0.031 C 
ATOM     45  C   UNL A   1      39.331  26.565  28.146  1.00  0.00     0.029 A 
ATOM     46  C   UNL A   1      40.240  27.562  28.702  1.00  0.00     0.049 A 
ATOM     47  H   UNL A   1      42.288  27.375  29.025  1.00  0.00     0.167 HD
ATOM     48  C   UNL A   1      46.584  26.834  29.656  1.00  0.00     0.031 A 
ATOM     49  C   UNL A   1      39.886  28.795  29.107  1.00  0.00     0.031 A 
ATOM     50  C   UNL A   1      46.315  28.195  30.041  1.00  0.00     0.049 A 
ATOM     51  C   UNL A   1      40.936  29.712  29.666  1.00  0.00     0.074 A 
ATOM     52  C   UNL A   1      47.206  29.162  30.474  1.00  0.00     0.029 A 
ATOM     53  N   UNL A   1      45.056  28.776  30.052  1.00  0.00    -0.354 N 
ATOM     54  N   UNL A   1      42.222  29.505  29.808  1.00  0.00    -0.248 NA
ATOM     55  C   UNL A   1      40.483  31.035  30.115  1.00  0.00     0.031 C 
ATOM     56  C   UNL A   1      46.475  30.308  30.811  1.00  0.00     0.029 A 
ATOM     57  C   UNL A   1      45.138  30.076  30.523  1.00  0.00     0.049 A 
ATOM     58  H   UNL A   1      44.225  28.331  29.769  1.00  0.00     0.167 HD
ATOM     59  C   UNL A   1      42.739  30.681  30.336  1.00  0.00     0.074 A 
ATOM     60  C   UNL A   1      41.627  31.600  30.477  1.00  0.00     0.031 C 
ATOM     61  C   UNL A   1      44.020  30.975  30.669  1.00  0.00     0.031 A 
BRANCH  48  62
ATOM     62  C   UNL A   1      47.985  26.300  29.804  1.00  0.00    -0.014 A 
ATOM     63  C   UNL A   1      48.882  26.281  28.724  1.00  0.00     0.009 A 
ATOM     64  C   UNL A   1      48.411  25.799  31.045  1.00  0.00     0.009 A 
ATOM     65  C   UNL A   1      50.152  25.716  28.866  1.00  0.00     0.001 A 
ATOM     66  C   UNL A   1      49.695  25.268  31.194  1.00  0.00     0.001 A 
ATOM     67  C   UNL A   1      50.558  25.213  30.101  1.00  0.00     0.000 A 
ENDBRANCH  48  62
BRANCH  49  68
ATOM     68  C   UNL A   1      38.477  29.244  28.958  1.00  0.00    -0.014 A 
ATOM     69  C   UNL A   1      37.611  29.219  30.062  1.00  0.00     0.009 A 
ATOM     70  C   UNL A   1      37.998  29.724  27.730  1.00  0.00     0.009 A 
ATOM     71  C   UNL A   1      36.289  29.652  29.936  1.00  0.00     0.001 A 
ATOM     72  C   UNL A   1      36.683  30.183  27.613  1.00  0.00     0.001 A 
ATOM     73  C   UNL A   1      35.829  30.140  28.714  1.00  0.00     0.000 A 
ENDBRANCH  49  68
BRANCH  61  74
ATOM     74  C   UNL A   1      44.293  32.358  31.193  1.00  0.00    -0.014 A 
ATOM     75  C   UNL A   1      44.277  32.636  32.569  1.00  0.00     0.009 A 
ATOM     76  C   UNL A   1      44.609  33.390  30.295  1.00  0.00     0.009 A 
ATOM     77  C   UNL A   1      44.539  33.928  33.031  1.00  0.00     0.001 A 
ATOM     78  C   UNL A   1      44.904  34.672  30.761  1.00  0.00     0.001 A 
ATOM     79  C   UNL A   1      44.859  34.942  32.128  1.00  0.00     0.000 A 
ENDBRANCH  61  74
ENDBRANCH  35  36
ENDBRANCH  27  30
ENDBRANCH  25  26
ENDBRANCH   1  25
TORSDOF 12
ENDMDL
MODEL 3
REMARK VINA RESULT:     -11.9      3.572      8.987
REMARK SMILES C[C@@]1(CN2C(=O)c3ccc(C(=O)NCCCNC(=O)c4ccc(-c5c6nc(c(-c7ccccc7)c7ccc([nH]7)c(-c7ccccc7)c7nc(c(-c8ccccc8)c8ccc5[nH]8)C=C7)C=C6)cc4)cc3C2=O)CCCO1
REMARK SMILES IDX 15 1 14 2 13 3 11 4 12 5 10 7 4 8 5 9 70 10 6 11 7 12 69 13
REMARK SMILES IDX 71 14 8 15 68 16 9 17 3 18 2 19 1 20 72 21 75 22 73 23 74 24
REMARK SMILES IDX 16 25 17 26 18 27 19 29 20 30 21 31 67 32 22 33 66 34 23 35
REMARK SMILES IDX 24 36 25 37 60 38 26 39 65 40 59 41 61 42 27 43 64 44 58 45
REMARK SMILES IDX 57 46 28 48 50 49 35 50 49 51 36 52 39 53 48 54 62 55 37 56
REMARK SMILES IDX 38 57 47 59 63 60 40 61 29 62 30 63 34 64 31 65 33 66 32 67
REMARK SMILES IDX 51 68 52 69 56 70 53 71 55 72 54 73 41 74 42 75 46 76 43 77
REMARK SMILES IDX 45 78 44 79
REMARK H PARENT 13 6 17 28 61 47 39 58
REMARK Flexibility Score: inf
ROOT
ATOM      1  C   UNL A   1      31.029  31.566  25.820  1.00  0.00     0.042 C 
ENDROOT
BRANCH   1   2
ATOM      2  C   UNL A   1      31.267  30.220  25.137  1.00  0.00     0.118 C 
BRANCH   2   3
ATOM      3  N   UNL A   1      30.616  30.165  23.840  1.00  0.00    -0.352 N 
ATOM      4  C   UNL A   1      30.229  29.125  23.038  1.00  0.00     0.251 C 
ATOM      5  O   UNL A   1      29.623  29.407  22.003  1.00  0.00    -0.269 OA
ATOM      6  H   UNL A   1      30.412  31.051  23.465  1.00  0.00     0.163 HD
BRANCH   4   7
ATOM      7  C   UNL A   1      30.480  27.688  23.350  1.00  0.00     0.040 A 
ATOM      8  N   UNL A   1      32.819  23.716  23.308  1.00  0.00    -0.271 N 
ATOM      9  C   UNL A   1      31.709  23.741  24.100  1.00  0.00     0.261 C 
ATOM     10  C   UNL A   1      33.046  24.931  22.713  1.00  0.00     0.261 C 
ATOM     11  O   UNL A   1      31.267  22.889  24.849  1.00  0.00    -0.269 OA
ATOM     12  C   UNL A   1      31.109  25.056  23.932  1.00  0.00     0.053 A 
ATOM     13  C   UNL A   1      31.925  25.793  23.098  1.00  0.00     0.054 A 
ATOM     14  O   UNL A   1      33.989  25.303  22.045  1.00  0.00    -0.269 OA
ATOM     15  C   UNL A   1      29.970  25.578  24.501  1.00  0.00     0.015 A 
ATOM     16  C   UNL A   1      31.639  27.111  22.790  1.00  0.00     0.028 A 
ATOM     17  C   UNL A   1      29.674  26.914  24.218  1.00  0.00     0.015 A 
BRANCH   8  18
ATOM     18  C   UNL A   1      33.692  22.561  23.185  1.00  0.00     0.164 C 
BRANCH  18  19
ATOM     19  C   UNL A   1      34.946  22.615  24.102  1.00  0.00     0.084 C 
ATOM     20  C   UNL A   1      36.227  22.990  23.356  1.00  0.00     0.044 C 
ATOM     21  C   UNL A   1      35.129  21.281  24.835  1.00  0.00     0.039 C 
ATOM     22  O   UNL A   1      34.729  23.600  25.136  1.00  0.00    -0.373 OA
ATOM     23  C   UNL A   1      34.303  21.467  26.083  1.00  0.00     0.031 C 
ATOM     24  C   UNL A   1      34.510  22.934  26.387  1.00  0.00     0.161 C 
ENDBRANCH  18  19
ENDBRANCH   8  18
ENDBRANCH   4   7
ENDBRANCH   2   3
ENDBRANCH   1   2
BRANCH   1  25
ATOM     25  C   UNL A   1      32.085  31.907  26.866  1.00  0.00     0.118 C 
BRANCH  25  26
ATOM     26  N   UNL A   1      32.085  33.327  27.193  1.00  0.00    -0.352 N 
ATOM     27  C   UNL A   1      32.889  34.041  28.044  1.00  0.00     0.251 C 
ATOM     28  H   UNL A   1      31.398  33.858  26.728  1.00  0.00     0.163 HD
ATOM     29  O   UNL A   1      32.562  35.176  28.376  1.00  0.00    -0.269 OA
BRANCH  27  30
ATOM     30  C   UNL A   1      34.142  33.455  28.564  1.00  0.00     0.039 A 
ATOM     31  C   UNL A   1      35.329  33.661  27.855  1.00  0.00     0.014 A 
ATOM     32  C   UNL A   1      34.143  32.666  29.717  1.00  0.00     0.014 A 
ATOM     33  C   UNL A   1      36.525  33.122  28.334  1.00  0.00     0.010 A 
ATOM     34  C   UNL A   1      35.345  32.197  30.236  1.00  0.00     0.010 A 
ATOM     35  C   UNL A   1      36.546  32.415  29.547  1.00  0.00    -0.014 A 
BRANCH  35  36
ATOM     36  C   UNL A   1      37.816  31.904  30.117  1.00  0.00     0.031 A 
ATOM     37  C   UNL A   1      38.437  30.643  29.585  1.00  0.00     0.074 A 
ATOM     38  C   UNL A   1      38.372  32.539  31.166  1.00  0.00     0.049 A 
ATOM     39  N   UNL A   1      39.514  30.017  29.987  1.00  0.00    -0.248 NA
ATOM     40  C   UNL A   1      37.740  29.985  28.468  1.00  0.00     0.031 C 
ATOM     41  C   UNL A   1      37.849  33.755  31.793  1.00  0.00     0.029 A 
ATOM     42  N   UNL A   1      39.499  32.249  31.890  1.00  0.00    -0.354 N 
ATOM     43  C   UNL A   1      39.611  28.885  29.190  1.00  0.00     0.074 A 
ATOM     44  C   UNL A   1      38.457  28.881  28.319  1.00  0.00     0.031 C 
ATOM     45  C   UNL A   1      38.678  34.130  32.780  1.00  0.00     0.029 A 
ATOM     46  C   UNL A   1      39.759  33.157  32.887  1.00  0.00     0.049 A 
ATOM     47  H   UNL A   1      40.068  31.465  31.714  1.00  0.00     0.167 HD
ATOM     48  C   UNL A   1      40.583  27.941  29.171  1.00  0.00     0.031 A 
ATOM     49  C   UNL A   1      40.756  33.199  33.790  1.00  0.00     0.031 A 
ATOM     50  C   UNL A   1      41.727  27.945  30.047  1.00  0.00     0.049 A 
ATOM     51  C   UNL A   1      41.798  32.118  33.782  1.00  0.00     0.074 A 
ATOM     52  C   UNL A   1      42.798  27.068  30.072  1.00  0.00     0.029 A 
ATOM     53  N   UNL A   1      41.939  28.866  31.061  1.00  0.00    -0.354 N 
ATOM     54  N   UNL A   1      41.919  31.093  32.975  1.00  0.00    -0.248 NA
ATOM     55  C   UNL A   1      42.845  32.206  34.809  1.00  0.00     0.031 C 
ATOM     56  C   UNL A   1      43.623  27.421  31.146  1.00  0.00     0.029 A 
ATOM     57  C   UNL A   1      43.102  28.557  31.746  1.00  0.00     0.049 A 
ATOM     58  H   UNL A   1      41.349  29.627  31.266  1.00  0.00     0.167 HD
ATOM     59  C   UNL A   1      43.070  30.428  33.376  1.00  0.00     0.074 A 
ATOM     60  C   UNL A   1      43.616  31.175  34.491  1.00  0.00     0.031 C 
ATOM     61  C   UNL A   1      43.627  29.303  32.863  1.00  0.00     0.031 A 
BRANCH  48  62
ATOM     62  C   UNL A   1      40.423  26.810  28.189  1.00  0.00    -0.014 A 
ATOM     63  C   UNL A   1      40.999  26.862  26.909  1.00  0.00     0.009 A 
ATOM     64  C   UNL A   1      39.676  25.677  28.548  1.00  0.00     0.009 A 
ATOM     65  C   UNL A   1      40.780  25.834  25.989  1.00  0.00     0.001 A 
ATOM     66  C   UNL A   1      39.489  24.632  27.639  1.00  0.00     0.001 A 
ATOM     67  C   UNL A   1      40.026  24.719  26.356  1.00  0.00     0.000 A 
ENDBRANCH  48  62
BRANCH  49  68
ATOM     68  C   UNL A   1      40.833  34.331  34.751  1.00  0.00    -0.014 A 
ATOM     69  C   UNL A   1      41.566  35.482  34.425  1.00  0.00     0.009 A 
ATOM     70  C   UNL A   1      40.156  34.281  35.979  1.00  0.00     0.009 A 
ATOM     71  C   UNL A   1      41.632  36.555  35.316  1.00  0.00     0.001 A 
ATOM     72  C   UNL A   1      40.201  35.368  36.857  1.00  0.00     0.001 A 
ATOM     73  C   UNL A   1      40.944  36.500  36.527  1.00  0.00     0.000 A 
ENDBRANCH  49  68
BRANCH  61  74
ATOM     74  C   UNL A   1      44.910  28.827  33.487  1.00  0.00    -0.014 A 
ATOM     75  C   UNL A   1      46.157  29.295  33.045  1.00  0.00     0.009 A 
ATOM     76  C   UNL A   1      44.865  27.923  34.561  1.00  0.00     0.009 A 
ATOM     77  C   UNL A   1      47.334  28.841  33.644  1.00  0.00     0.001 A 
ATOM     78  C   UNL A   1      46.041  27.497  35.179  1.00  0.00     0.001 A 
ATOM     79  C   UNL A   1      47.275  27.949  34.714  1.00  0.00     0.000 A 
ENDBRANCH  61  74
ENDBRANCH  35  36
ENDBRANCH  27  30
ENDBRANCH  25  26
ENDBRANCH   1  25
TORSDOF 12
ENDMDL
