MODEL 1
REMARK VINA RESULT:     -11.8      0.000      0.000
REMARK SMILES C[C@H]1CCCC[C@H]1[N@H+]1[C@@H](C(=O)NCCCNC(=O)c2ccc(-c3c4nc(c(-c5ccccc5)c5ccc([nH]5)c(-c5ccccc5)c5nc(c(-c6ccccc6)c6ccc3[nH]6)C=C5)C=C4)cc2)CC[C@@H]2CCCC[C@@H]21
REMARK SMILES IDX 14 1 13 2 12 3 10 4 11 5 9 7 8 8 74 9 67 11 69 12 73 13
REMARK SMILES IDX 68 14 70 15 72 16 71 17 7 18 1 19 2 20 3 21 4 22 6 23 5 24
REMARK SMILES IDX 15 25 16 26 17 27 18 29 19 30 20 31 66 32 21 33 65 34 22 35
REMARK SMILES IDX 23 36 24 37 59 38 25 39 64 40 58 41 60 42 26 43 63 44 57 45
REMARK SMILES IDX 56 46 27 48 49 49 34 50 48 51 35 52 38 53 47 54 61 55 36 56
REMARK SMILES IDX 37 57 46 59 62 60 39 61 28 62 29 63 33 64 30 65 32 66 31 67
REMARK SMILES IDX 50 68 51 69 55 70 52 71 54 72 53 73 40 74 41 75 45 76 42 77
REMARK SMILES IDX 44 78 43 79
REMARK H PARENT 12 6 8 10 16 28 60 47 38 58
REMARK Flexibility Score: inf
ROOT
ATOM      1  C   UNL A   1      34.028  28.127  26.125  1.00  0.00     0.042 C 
ENDROOT
BRANCH   1   2
ATOM      2  C   UNL A   1      33.799  29.060  24.941  1.00  0.00     0.118 C 
BRANCH   2   3
ATOM      3  N   UNL A   1      34.201  28.497  23.657  1.00  0.00    -0.351 N 
ATOM      4  C   UNL A   1      33.556  27.605  22.832  1.00  0.00     0.278 C 
ATOM      5  O   UNL A   1      33.948  27.529  21.665  1.00  0.00    -0.268 OA
ATOM      6  H   UNL A   1      35.076  28.804  23.327  1.00  0.00     0.163 HD
BRANCH   4   7
ATOM      7  C   UNL A   1      32.339  26.839  23.329  1.00  0.00     0.274 C 
ATOM      8  N   UNL A   1      32.424  25.399  23.708  1.00  0.00    -0.319 N 
ATOM      9  C   UNL A   1      31.051  24.827  23.907  1.00  0.00     0.188 C 
ATOM     10  H   UNL A   1      32.949  25.492  24.579  1.00  0.00     0.349 HD
ATOM     11  C   UNL A   1      31.099  27.173  22.492  1.00  0.00     0.076 C 
ATOM     12  C   UNL A   1      30.006  25.877  24.388  1.00  0.00     0.048 C 
ATOM     13  C   UNL A   1      30.935  23.600  24.850  1.00  0.00     0.065 C 
ATOM     14  C   UNL A   1      29.852  27.020  23.367  1.00  0.00     0.016 C 
ATOM     15  C   UNL A   1      30.292  26.377  25.827  1.00  0.00     0.010 C 
ATOM     16  C   UNL A   1      30.616  23.933  26.309  1.00  0.00     0.006 C 
ATOM     17  C   UNL A   1      31.033  25.344  26.681  1.00  0.00     0.001 C 
BRANCH   8  18
ATOM     18  C   UNL A   1      33.446  24.453  23.179  1.00  0.00     0.187 C 
ATOM     19  C   UNL A   1      35.328  24.505  25.038  1.00  0.00     0.014 C 
ATOM     20  C   UNL A   1      34.463  23.692  24.081  1.00  0.00     0.044 C 
ATOM     21  C   UNL A   1      33.792  22.525  24.786  1.00  0.00     0.009 C 
ATOM     22  C   UNL A   1      33.366  21.471  23.772  1.00  0.00     0.001 C 
ATOM     23  C   UNL A   1      32.974  23.451  22.089  1.00  0.00     0.065 C 
ATOM     24  C   UNL A   1      32.719  21.992  22.487  1.00  0.00     0.006 C 
ENDBRANCH   8  18
ENDBRANCH   4   7
ENDBRANCH   2   3
ENDBRANCH   1   2
BRANCH   1  25
ATOM     25  C   UNL A   1      33.376  28.598  27.421  1.00  0.00     0.118 C 
BRANCH  25  26
ATOM     26  N   UNL A   1      33.488  30.039  27.611  1.00  0.00    -0.352 N 
ATOM     27  C   UNL A   1      34.503  30.805  28.122  1.00  0.00     0.251 C 
ATOM     28  H   UNL A   1      32.698  30.550  27.321  1.00  0.00     0.163 HD
ATOM     29  O   UNL A   1      34.289  31.992  28.374  1.00  0.00    -0.269 OA
BRANCH  27  30
ATOM     30  C   UNL A   1      35.844  30.240  28.393  1.00  0.00     0.039 A 
ATOM     31  C   UNL A   1      36.793  30.242  27.365  1.00  0.00     0.014 A 
ATOM     32  C   UNL A   1      36.162  29.655  29.622  1.00  0.00     0.014 A 
ATOM     33  C   UNL A   1      38.072  29.724  27.589  1.00  0.00     0.010 A 
ATOM     34  C   UNL A   1      37.458  29.206  29.868  1.00  0.00     0.010 A 
ATOM     35  C   UNL A   1      38.429  29.235  28.855  1.00  0.00    -0.014 A 
BRANCH  35  36
ATOM     36  C   UNL A   1      39.811  28.768  29.141  1.00  0.00     0.031 A 
ATOM     37  C   UNL A   1      40.811  29.684  29.796  1.00  0.00     0.074 A 
ATOM     38  C   UNL A   1      40.191  27.535  28.752  1.00  0.00     0.049 A 
ATOM     39  N   UNL A   1      42.077  29.473  30.056  1.00  0.00    -0.248 NA
ATOM     40  C   UNL A   1      40.330  31.018  30.188  1.00  0.00     0.031 C 
ATOM     41  C   UNL A   1      39.333  26.556  28.081  1.00  0.00     0.029 A 
ATOM     42  N   UNL A   1      41.403  26.898  28.857  1.00  0.00    -0.354 N 
ATOM     43  C   UNL A   1      42.548  30.649  30.625  1.00  0.00     0.074 A 
ATOM     44  C   UNL A   1      41.443  31.584  30.633  1.00  0.00     0.031 C 
ATOM     45  C   UNL A   1      40.038  25.436  27.856  1.00  0.00     0.029 A 
ATOM     46  C   UNL A   1      41.406  25.632  28.325  1.00  0.00     0.049 A 
ATOM     47  H   UNL A   1      42.193  27.310  29.274  1.00  0.00     0.167 HD
ATOM     48  C   UNL A   1      43.783  30.923  31.112  1.00  0.00     0.031 A 
ATOM     49  C   UNL A   1      42.400  24.730  28.216  1.00  0.00     0.031 A 
ATOM     50  C   UNL A   1      44.882  29.995  31.114  1.00  0.00     0.049 A 
ATOM     51  C   UNL A   1      43.767  25.067  28.740  1.00  0.00     0.074 A 
ATOM     52  C   UNL A   1      46.153  30.165  31.634  1.00  0.00     0.029 A 
ATOM     53  N   UNL A   1      44.842  28.723  30.565  1.00  0.00    -0.354 N 
ATOM     54  N   UNL A   1      44.178  26.163  29.331  1.00  0.00    -0.248 NA
ATOM     55  C   UNL A   1      44.804  24.037  28.591  1.00  0.00     0.031 C 
ATOM     56  C   UNL A   1      46.899  29.016  31.355  1.00  0.00     0.029 A 
ATOM     57  C   UNL A   1      46.075  28.107  30.711  1.00  0.00     0.049 A 
ATOM     58  H   UNL A   1      44.055  28.317  30.135  1.00  0.00     0.167 HD
ATOM     59  C   UNL A   1      45.512  25.944  29.647  1.00  0.00     0.074 A 
ATOM     60  C   UNL A   1      45.837  24.606  29.198  1.00  0.00     0.031 C 
ATOM     61  C   UNL A   1      46.389  26.777  30.258  1.00  0.00     0.031 A 
BRANCH  48  62
ATOM     62  C   UNL A   1      44.013  32.297  31.678  1.00  0.00    -0.014 A 
ATOM     63  C   UNL A   1      43.800  32.570  33.040  1.00  0.00     0.009 A 
ATOM     64  C   UNL A   1      44.488  33.324  30.847  1.00  0.00     0.009 A 
ATOM     65  C   UNL A   1      44.021  33.852  33.548  1.00  0.00     0.001 A 
ATOM     66  C   UNL A   1      44.736  34.597  31.364  1.00  0.00     0.001 A 
ATOM     67  C   UNL A   1      44.493  34.862  32.711  1.00  0.00     0.000 A 
ENDBRANCH  48  62
BRANCH  49  68
ATOM     68  C   UNL A   1      42.138  23.408  27.589  1.00  0.00    -0.014 A 
ATOM     69  C   UNL A   1      41.545  22.375  28.330  1.00  0.00     0.009 A 
ATOM     70  C   UNL A   1      42.482  23.172  26.249  1.00  0.00     0.009 A 
ATOM     71  C   UNL A   1      41.328  21.122  27.751  1.00  0.00     0.001 A 
ATOM     72  C   UNL A   1      42.237  21.928  25.664  1.00  0.00     0.001 A 
ATOM     73  C   UNL A   1      41.670  20.901  26.418  1.00  0.00     0.000 A 
ENDBRANCH  49  68
BRANCH  61  74
ATOM     74  C   UNL A   1      47.775  26.254  30.508  1.00  0.00    -0.014 A 
ATOM     75  C   UNL A   1      48.762  26.294  29.510  1.00  0.00     0.009 A 
ATOM     76  C   UNL A   1      48.107  25.744  31.773  1.00  0.00     0.009 A 
ATOM     77  C   UNL A   1      50.044  25.805  29.767  1.00  0.00     0.001 A 
ATOM     78  C   UNL A   1      49.398  25.281  32.034  1.00  0.00     0.001 A 
ATOM     79  C   UNL A   1      50.362  25.303  31.028  1.00  0.00     0.000 A 
ENDBRANCH  61  74
ENDBRANCH  35  36
ENDBRANCH  27  30
ENDBRANCH  25  26
ENDBRANCH   1  25
TORSDOF 11
ENDMDL
MODEL 2
REMARK VINA RESULT:     -11.5      0.546      5.949
REMARK SMILES C[C@H]1CCCC[C@H]1[N@H+]1[C@@H](C(=O)NCCCNC(=O)c2ccc(-c3c4nc(c(-c5ccccc5)c5ccc([nH]5)c(-c5ccccc5)c5nc(c(-c6ccccc6)c6ccc3[nH]6)C=C5)C=C4)cc2)CC[C@@H]2CCCC[C@@H]21
REMARK SMILES IDX 14 1 13 2 12 3 10 4 11 5 9 7 8 8 74 9 67 11 69 12 73 13
REMARK SMILES IDX 68 14 70 15 72 16 71 17 7 18 1 19 2 20 3 21 4 22 6 23 5 24
REMARK SMILES IDX 15 25 16 26 17 27 18 29 19 30 20 31 66 32 21 33 65 34 22 35
REMARK SMILES IDX 23 36 24 37 59 38 25 39 64 40 58 41 60 42 26 43 63 44 57 45
REMARK SMILES IDX 56 46 27 48 49 49 34 50 48 51 35 52 38 53 47 54 61 55 36 56
REMARK SMILES IDX 37 57 46 59 62 60 39 61 28 62 29 63 33 64 30 65 32 66 31 67
REMARK SMILES IDX 50 68 51 69 55 70 52 71 54 72 53 73 40 74 41 75 45 76 42 77
REMARK SMILES IDX 44 78 43 79
REMARK H PARENT 12 6 8 10 16 28 60 47 38 58
REMARK Flexibility Score: inf
ROOT
ATOM      1  C   UNL A   1      33.990  28.054  26.071  1.00  0.00     0.042 C 
ENDROOT
BRANCH   1   2
ATOM      2  C   UNL A   1      33.801  28.998  24.890  1.00  0.00     0.118 C 
BRANCH   2   3
ATOM      3  N   UNL A   1      34.183  28.423  23.605  1.00  0.00    -0.351 N 
ATOM      4  C   UNL A   1      33.522  27.532  22.793  1.00  0.00     0.278 C 
ATOM      5  O   UNL A   1      33.901  27.445  21.623  1.00  0.00    -0.268 OA
ATOM      6  H   UNL A   1      35.058  28.721  23.264  1.00  0.00     0.163 HD
BRANCH   4   7
ATOM      7  C   UNL A   1      32.304  26.779  23.309  1.00  0.00     0.274 C 
ATOM      8  N   UNL A   1      32.379  25.337  23.685  1.00  0.00    -0.319 N 
ATOM      9  C   UNL A   1      31.002  24.782  23.904  1.00  0.00     0.188 C 
ATOM     10  H   UNL A   1      32.918  25.424  24.547  1.00  0.00     0.349 HD
ATOM     11  C   UNL A   1      31.055  27.129  22.492  1.00  0.00     0.076 C 
ATOM     12  C   UNL A   1      29.977  25.843  24.403  1.00  0.00     0.048 C 
ATOM     13  C   UNL A   1      30.886  23.555  24.847  1.00  0.00     0.065 C 
ATOM     14  C   UNL A   1      29.821  26.989  23.386  1.00  0.00     0.016 C 
ATOM     15  C   UNL A   1      30.292  26.338  25.838  1.00  0.00     0.010 C 
ATOM     16  C   UNL A   1      30.595  23.890  26.312  1.00  0.00     0.006 C 
ATOM     17  C   UNL A   1      31.033  25.295  26.679  1.00  0.00     0.001 C 
BRANCH   8  18
ATOM     18  C   UNL A   1      33.380  24.380  23.139  1.00  0.00     0.187 C 
ATOM     19  C   UNL A   1      35.300  24.421  24.959  1.00  0.00     0.014 C 
ATOM     20  C   UNL A   1      34.409  23.613  24.022  1.00  0.00     0.044 C 
ATOM     21  C   UNL A   1      33.741  22.454  24.745  1.00  0.00     0.009 C 
ATOM     22  C   UNL A   1      33.284  21.401  23.742  1.00  0.00     0.001 C 
ATOM     23  C   UNL A   1      32.878  23.380  22.062  1.00  0.00     0.065 C 
ATOM     24  C   UNL A   1      32.618  21.924  22.469  1.00  0.00     0.006 C 
ENDBRANCH   8  18
ENDBRANCH   4   7
ENDBRANCH   2   3
ENDBRANCH   1   2
BRANCH   1  25
ATOM     25  C   UNL A   1      33.331  28.533  27.361  1.00  0.00     0.118 C 
BRANCH  25  26
ATOM     26  N   UNL A   1      33.405  29.980  27.521  1.00  0.00    -0.352 N 
ATOM     27  C   UNL A   1      34.386  30.782  28.043  1.00  0.00     0.251 C 
ATOM     28  H   UNL A   1      32.612  30.466  27.196  1.00  0.00     0.163 HD
ATOM     29  O   UNL A   1      34.138  31.969  28.261  1.00  0.00    -0.269 OA
BRANCH  27  30
ATOM     30  C   UNL A   1      35.732  30.254  28.366  1.00  0.00     0.039 A 
ATOM     31  C   UNL A   1      36.713  30.264  27.368  1.00  0.00     0.014 A 
ATOM     32  C   UNL A   1      36.024  29.697  29.613  1.00  0.00     0.014 A 
ATOM     33  C   UNL A   1      37.996  29.782  27.642  1.00  0.00     0.010 A 
ATOM     34  C   UNL A   1      37.322  29.284  29.908  1.00  0.00     0.010 A 
ATOM     35  C   UNL A   1      38.323  29.322  28.926  1.00  0.00    -0.014 A 
BRANCH  35  36
ATOM     36  C   UNL A   1      39.707  28.894  29.264  1.00  0.00     0.031 A 
ATOM     37  C   UNL A   1      40.220  27.547  28.831  1.00  0.00     0.074 A 
ATOM     38  C   UNL A   1      40.486  29.693  30.019  1.00  0.00     0.049 A 
ATOM     39  N   UNL A   1      41.370  26.978  29.094  1.00  0.00    -0.248 NA
ATOM     40  C   UNL A   1      39.316  26.723  28.014  1.00  0.00     0.031 C 
ATOM     41  C   UNL A   1      40.103  31.010  30.532  1.00  0.00     0.029 A 
ATOM     42  N   UNL A   1      41.760  29.509  30.496  1.00  0.00    -0.354 N 
ATOM     43  C   UNL A   1      41.321  25.727  28.492  1.00  0.00     0.074 A 
ATOM     44  C   UNL A   1      40.012  25.603  27.887  1.00  0.00     0.031 C 
ATOM     45  C   UNL A   1      41.128  31.524  31.231  1.00  0.00     0.029 A 
ATOM     46  C   UNL A   1      42.221  30.558  31.254  1.00  0.00     0.049 A 
ATOM     47  H   UNL A   1      42.292  28.701  30.312  1.00  0.00     0.167 HD
ATOM     48  C   UNL A   1      42.282  24.773  28.435  1.00  0.00     0.031 A 
ATOM     49  C   UNL A   1      43.389  30.722  31.904  1.00  0.00     0.031 A 
ATOM     50  C   UNL A   1      43.588  24.894  29.027  1.00  0.00     0.049 A 
ATOM     51  C   UNL A   1      44.427  29.639  31.846  1.00  0.00     0.074 A 
ATOM     52  C   UNL A   1      44.644  24.002  28.975  1.00  0.00     0.029 A 
ATOM     53  N   UNL A   1      44.013  25.973  29.786  1.00  0.00    -0.354 N 
ATOM     54  N   UNL A   1      44.386  28.487  31.220  1.00  0.00    -0.248 NA
ATOM     55  C   UNL A   1      45.679  29.884  32.575  1.00  0.00     0.031 C 
ATOM     56  C   UNL A   1      45.693  24.518  29.743  1.00  0.00     0.029 A 
ATOM     57  C   UNL A   1      45.308  25.757  30.229  1.00  0.00     0.049 A 
ATOM     58  H   UNL A   1      43.475  26.774  29.981  1.00  0.00     0.167 HD
ATOM     59  C   UNL A   1      45.614  27.884  31.459  1.00  0.00     0.074 A 
ATOM     60  C   UNL A   1      46.384  28.802  32.273  1.00  0.00     0.031 C 
ATOM     61  C   UNL A   1      46.063  26.676  31.040  1.00  0.00     0.031 A 
BRANCH  48  62
ATOM     62  C   UNL A   1      41.948  23.500  27.707  1.00  0.00    -0.014 A 
ATOM     63  C   UNL A   1      41.222  22.472  28.332  1.00  0.00     0.009 A 
ATOM     64  C   UNL A   1      42.330  23.341  26.366  1.00  0.00     0.009 A 
ATOM     65  C   UNL A   1      40.919  21.297  27.640  1.00  0.00     0.001 A 
ATOM     66  C   UNL A   1      42.001  22.178  25.667  1.00  0.00     0.001 A 
ATOM     67  C   UNL A   1      41.305  21.153  26.308  1.00  0.00     0.000 A 
ENDBRANCH  48  62
BRANCH  49  68
ATOM     68  C   UNL A   1      43.645  31.973  32.664  1.00  0.00    -0.014 A 
ATOM     69  C   UNL A   1      43.277  32.070  34.015  1.00  0.00     0.009 A 
ATOM     70  C   UNL A   1      44.251  33.076  32.044  1.00  0.00     0.009 A 
ATOM     71  C   UNL A   1      43.487  33.257  34.722  1.00  0.00     0.001 A 
ATOM     72  C   UNL A   1      44.486  34.251  32.761  1.00  0.00     0.001 A 
ATOM     73  C   UNL A   1      44.096  34.343  34.097  1.00  0.00     0.000 A 
ENDBRANCH  49  68
BRANCH  61  74
ATOM     74  C   UNL A   1      47.465  26.293  31.423  1.00  0.00    -0.014 A 
ATOM     75  C   UNL A   1      47.743  25.675  32.653  1.00  0.00     0.009 A 
ATOM     76  C   UNL A   1      48.518  26.523  30.524  1.00  0.00     0.009 A 
ATOM     77  C   UNL A   1      49.053  25.325  32.986  1.00  0.00     0.001 A 
ATOM     78  C   UNL A   1      49.823  26.146  30.848  1.00  0.00     0.001 A 
ATOM     79  C   UNL A   1      50.090  25.556  32.083  1.00  0.00     0.000 A 
ENDBRANCH  61  74
ENDBRANCH  35  36
ENDBRANCH  27  30
ENDBRANCH  25  26
ENDBRANCH   1  25
TORSDOF 11
ENDMDL
MODEL 3
REMARK VINA RESULT:     -11.3      2.560      7.474
REMARK SMILES C[C@H]1CCCC[C@H]1[N@H+]1[C@@H](C(=O)NCCCNC(=O)c2ccc(-c3c4nc(c(-c5ccccc5)c5ccc([nH]5)c(-c5ccccc5)c5nc(c(-c6ccccc6)c6ccc3[nH]6)C=C5)C=C4)cc2)CC[C@@H]2CCCC[C@@H]21
REMARK SMILES IDX 14 1 13 2 12 3 10 4 11 5 9 7 8 8 74 9 67 11 69 12 73 13
REMARK SMILES IDX 68 14 70 15 72 16 71 17 7 18 1 19 2 20 3 21 4 22 6 23 5 24
REMARK SMILES IDX 15 25 16 26 17 27 18 29 19 30 20 31 66 32 21 33 65 34 22 35
REMARK SMILES IDX 23 36 24 37 59 38 25 39 64 40 58 41 60 42 26 43 63 44 57 45
REMARK SMILES IDX 56 46 27 48 49 49 34 50 48 51 35 52 38 53 47 54 61 55 36 56
REMARK SMILES IDX 37 57 46 59 62 60 39 61 28 62 29 63 33 64 30 65 32 66 31 67
REMARK SMILES IDX 50 68 51 69 55 70 52 71 54 72 53 73 40 74 41 75 45 76 42 77
REMARK SMILES IDX 44 78 43 79
REMARK H PARENT 12 6 8 10 16 28 60 47 38 58
REMARK Flexibility Score: inf
ROOT
ATOM      1  C   UNL A   1      35.876  24.060  25.969  1.00  0.00     0.042 C 
ENDROOT
BRANCH   1   2
ATOM      2  C   UNL A   1      35.355  22.820  26.685  1.00  0.00     0.118 C 
BRANCH   2   3
ATOM      3  N   UNL A   1      34.120  23.041  27.429  1.00  0.00    -0.351 N 
ATOM      4  C   UNL A   1      32.812  23.053  27.005  1.00  0.00     0.278 C 
ATOM      5  O   UNL A   1      31.937  22.946  27.867  1.00  0.00    -0.268 OA
ATOM      6  H   UNL A   1      34.243  23.210  28.391  1.00  0.00     0.163 HD
BRANCH   4   7
ATOM      7  C   UNL A   1      32.486  23.083  25.518  1.00  0.00     0.274 C 
ATOM      8  N   UNL A   1      31.991  24.323  24.853  1.00  0.00    -0.319 N 
ATOM      9  C   UNL A   1      31.502  24.014  23.468  1.00  0.00     0.188 C 
ATOM     10  H   UNL A   1      32.855  24.866  24.861  1.00  0.00     0.349 HD
ATOM     11  C   UNL A   1      31.723  21.822  25.097  1.00  0.00     0.076 C 
ATOM     12  C   UNL A   1      32.232  22.807  22.808  1.00  0.00     0.048 C 
ATOM     13  C   UNL A   1      31.526  25.179  22.443  1.00  0.00     0.065 C 
ATOM     14  C   UNL A   1      32.035  21.519  23.630  1.00  0.00     0.016 C 
ATOM     15  C   UNL A   1      33.719  23.114  22.498  1.00  0.00     0.010 C 
ATOM     16  C   UNL A   1      32.793  25.264  21.589  1.00  0.00     0.006 C 
ATOM     17  C   UNL A   1      33.984  24.603  22.259  1.00  0.00     0.001 C 
BRANCH   8  18
ATOM     18  C   UNL A   1      31.277  25.424  25.558  1.00  0.00     0.187 C 
ATOM     19  C   UNL A   1      33.245  27.017  26.325  1.00  0.00     0.014 C 
ATOM     20  C   UNL A   1      31.855  26.861  25.717  1.00  0.00     0.044 C 
ATOM     21  C   UNL A   1      31.719  27.644  24.421  1.00  0.00     0.009 C 
ATOM     22  C   UNL A   1      30.249  27.890  24.106  1.00  0.00     0.001 C 
ATOM     23  C   UNL A   1      29.761  25.580  25.258  1.00  0.00     0.065 C 
ATOM     24  C   UNL A   1      29.304  26.708  24.324  1.00  0.00     0.006 C 
ENDBRANCH   8  18
ENDBRANCH   4   7
ENDBRANCH   2   3
ENDBRANCH   1   2
BRANCH   1  25
ATOM     25  C   UNL A   1      36.953  23.770  24.927  1.00  0.00     0.118 C 
BRANCH  25  26
ATOM     26  N   UNL A   1      37.869  22.718  25.351  1.00  0.00    -0.352 N 
ATOM     27  C   UNL A   1      39.046  22.775  26.052  1.00  0.00     0.251 C 
ATOM     28  H   UNL A   1      37.595  21.810  25.088  1.00  0.00     0.163 HD
ATOM     29  O   UNL A   1      39.754  21.769  26.115  1.00  0.00    -0.269 OA
BRANCH  27  30
ATOM     30  C   UNL A   1      39.493  24.017  26.721  1.00  0.00     0.039 A 
ATOM     31  C   UNL A   1      40.280  24.922  25.999  1.00  0.00     0.014 A 
ATOM     32  C   UNL A   1      39.202  24.276  28.063  1.00  0.00     0.014 A 
ATOM     33  C   UNL A   1      40.712  26.109  26.598  1.00  0.00     0.010 A 
ATOM     34  C   UNL A   1      39.571  25.492  28.637  1.00  0.00     0.010 A 
ATOM     35  C   UNL A   1      40.329  26.423  27.911  1.00  0.00    -0.014 A 
BRANCH  35  36
ATOM     36  C   UNL A   1      40.699  27.722  28.534  1.00  0.00     0.031 A 
ATOM     37  C   UNL A   1      42.084  27.945  29.079  1.00  0.00     0.074 A 
ATOM     38  C   UNL A   1      39.766  28.684  28.669  1.00  0.00     0.049 A 
ATOM     39  N   UNL A   1      42.563  28.983  29.717  1.00  0.00    -0.248 NA
ATOM     40  C   UNL A   1      43.051  26.849  28.904  1.00  0.00     0.031 C 
ATOM     41  C   UNL A   1      38.378  28.589  28.212  1.00  0.00     0.029 A 
ATOM     42  N   UNL A   1      39.843  29.931  29.238  1.00  0.00    -0.354 N 
ATOM     43  C   UNL A   1      43.876  28.662  30.034  1.00  0.00     0.074 A 
ATOM     44  C   UNL A   1      44.106  27.315  29.556  1.00  0.00     0.031 C 
ATOM     45  C   UNL A   1      37.742  29.737  28.498  1.00  0.00     0.029 A 
ATOM     46  C   UNL A   1      38.661  30.629  29.197  1.00  0.00     0.049 A 
ATOM     47  H   UNL A   1      40.668  30.290  29.639  1.00  0.00     0.167 HD
ATOM     48  C   UNL A   1      44.812  29.422  30.653  1.00  0.00     0.031 A 
ATOM     49  C   UNL A   1      38.346  31.849  29.674  1.00  0.00     0.031 A 
ATOM     50  C   UNL A   1      44.592  30.764  31.122  1.00  0.00     0.049 A 
ATOM     51  C   UNL A   1      39.395  32.661  30.379  1.00  0.00     0.074 A 
ATOM     52  C   UNL A   1      45.495  31.630  31.713  1.00  0.00     0.029 A 
ATOM     53  N   UNL A   1      43.380  31.433  31.060  1.00  0.00    -0.354 N 
ATOM     54  N   UNL A   1      40.650  32.364  30.616  1.00  0.00    -0.248 NA
ATOM     55  C   UNL A   1      38.984  33.982  30.874  1.00  0.00     0.031 C 
ATOM     56  C   UNL A   1      44.819  32.805  32.054  1.00  0.00     0.029 A 
ATOM     57  C   UNL A   1      43.506  32.692  31.625  1.00  0.00     0.049 A 
ATOM     58  H   UNL A   1      42.552  31.068  30.672  1.00  0.00     0.167 HD
ATOM     59  C   UNL A   1      41.184  33.471  31.262  1.00  0.00     0.074 A 
ATOM     60  C   UNL A   1      40.123  34.451  31.366  1.00  0.00     0.031 C 
ATOM     61  C   UNL A   1      42.443  33.658  31.726  1.00  0.00     0.031 A 
BRANCH  48  62
ATOM     62  C   UNL A   1      46.169  28.809  30.867  1.00  0.00    -0.014 A 
ATOM     63  C   UNL A   1      47.189  28.943  29.910  1.00  0.00     0.009 A 
ATOM     64  C   UNL A   1      46.444  28.121  32.059  1.00  0.00     0.009 A 
ATOM     65  C   UNL A   1      48.443  28.369  30.128  1.00  0.00     0.001 A 
ATOM     66  C   UNL A   1      47.708  27.573  32.287  1.00  0.00     0.001 A 
ATOM     67  C   UNL A   1      48.703  27.688  31.317  1.00  0.00     0.000 A 
ENDBRANCH  48  62
BRANCH  49  68
ATOM     68  C   UNL A   1      36.971  32.383  29.494  1.00  0.00    -0.014 A 
ATOM     69  C   UNL A   1      35.985  32.147  30.464  1.00  0.00     0.009 A 
ATOM     70  C   UNL A   1      36.637  33.127  28.352  1.00  0.00     0.009 A 
ATOM     71  C   UNL A   1      34.683  32.621  30.280  1.00  0.00     0.001 A 
ATOM     72  C   UNL A   1      35.343  33.625  28.185  1.00  0.00     0.001 A 
ATOM     73  C   UNL A   1      34.365  33.363  29.144  1.00  0.00     0.000 A 
ENDBRANCH  49  68
BRANCH  61  74
ATOM     74  C   UNL A   1      42.753  34.986  32.356  1.00  0.00    -0.014 A 
ATOM     75  C   UNL A   1      43.408  36.000  31.639  1.00  0.00     0.009 A 
ATOM     76  C   UNL A   1      42.352  35.238  33.677  1.00  0.00     0.009 A 
ATOM     77  C   UNL A   1      43.683  37.228  32.245  1.00  0.00     0.001 A 
ATOM     78  C   UNL A   1      42.603  36.477  34.271  1.00  0.00     0.001 A 
ATOM     79  C   UNL A   1      43.277  37.467  33.557  1.00  0.00     0.000 A 
ENDBRANCH  61  74
ENDBRANCH  35  36
ENDBRANCH  27  30
ENDBRANCH  25  26
ENDBRANCH   1  25
TORSDOF 11
ENDMDL
