MODEL 1
REMARK VINA RESULT:     -10.9      0.000      0.000
REMARK SMILES C[C@H](Nc1ccc2c(c1)OCCO2)[C@H](C)C(=O)NCCCNC(=O)c1ccc(-c2c3nc(c(-c4ccccc4)c4ccc([nH]4)c(-c4ccccc4)c4nc(c(-c5ccccc5)c5ccc2[nH]5)C=C4)C=C3)cc1
REMARK SMILES IDX 19 1 18 2 16 3 17 4 14 6 15 7 2 8 1 9 3 10 4 12 5 13 9 14
REMARK SMILES IDX 6 15 8 16 7 17 10 18 13 19 11 20 12 21 20 22 21 23 22 24
REMARK SMILES IDX 23 25 24 27 25 28 26 29 72 30 27 31 71 32 28 33 29 34 30 35
REMARK SMILES IDX 65 36 31 37 70 38 64 39 66 40 32 41 69 42 63 43 62 44 33 46
REMARK SMILES IDX 55 47 40 48 54 49 41 50 44 51 53 52 67 53 42 54 43 55 52 57
REMARK SMILES IDX 68 58 45 59 34 60 35 61 39 62 36 63 38 64 37 65 56 66 57 67
REMARK SMILES IDX 61 68 58 69 60 70 59 71 46 72 47 73 51 74 48 75 50 76 49 77
REMARK H PARENT 18 5 3 11 22 26 66 45 44 56
REMARK Flexibility Score: inf
ROOT
ATOM      1  C   UNL A   1      36.830  20.912  24.675  1.00  0.00     0.117 C 
ENDROOT
BRANCH   1   2
ATOM      2  N   UNL A   1      35.873  21.015  25.759  1.00  0.00    -0.356 N 
ATOM      3  C   UNL A   1      34.517  20.939  25.778  1.00  0.00     0.224 C 
ATOM      4  O   UNL A   1      33.968  21.172  26.860  1.00  0.00    -0.275 OA
ATOM      5  H   UNL A   1      36.280  21.167  26.643  1.00  0.00     0.163 HD
BRANCH   3   6
ATOM      6  C   UNL A   1      33.687  20.644  24.535  1.00  0.00     0.097 C 
ATOM      7  C   UNL A   1      32.655  19.562  24.873  1.00  0.00     0.020 C 
BRANCH   6   8
ATOM      8  C   UNL A   1      33.065  21.872  23.830  1.00  0.00     0.088 C 
ATOM      9  C   UNL A   1      32.234  21.465  22.612  1.00  0.00     0.031 C 
BRANCH   8  10
ATOM     10  N   UNL A   1      34.045  22.937  23.553  1.00  0.00    -0.382 N 
ATOM     11  H   UNL A   1      34.862  22.690  23.062  1.00  0.00     0.160 HD
BRANCH  10  12
ATOM     12  C   UNL A   1      33.900  24.264  23.934  1.00  0.00     0.038 A 
ATOM     13  C   UNL A   1      34.106  24.630  25.273  1.00  0.00     0.030 A 
ATOM     14  C   UNL A   1      33.584  25.270  23.021  1.00  0.00     0.076 A 
ATOM     15  C   UNL A   1      33.998  25.963  25.686  1.00  0.00     0.052 A 
ATOM     16  C   UNL A   1      33.506  26.602  23.419  1.00  0.00     0.163 A 
ATOM     17  C   UNL A   1      33.692  26.951  24.757  1.00  0.00     0.161 A 
ATOM     18  O   UNL A   1      33.243  27.519  22.432  1.00  0.00    -0.486 OA
ATOM     19  O   UNL A   1      33.605  28.239  25.219  1.00  0.00    -0.486 OA
ATOM     20  C   UNL A   1      33.607  28.835  22.860  1.00  0.00     0.271 C 
ATOM     21  C   UNL A   1      33.033  29.114  24.239  1.00  0.00     0.271 C 
ENDBRANCH  10  12
ENDBRANCH   8  10
ENDBRANCH   6   8
ENDBRANCH   3   6
ENDBRANCH   1   2
BRANCH   1  22
ATOM     22  C   UNL A   1      37.869  19.833  24.929  1.00  0.00     0.042 C 
BRANCH  22  23
ATOM     23  C   UNL A   1      39.057  20.309  25.749  1.00  0.00     0.118 C 
BRANCH  23  24
ATOM     24  N   UNL A   1      40.112  19.307  25.842  1.00  0.00    -0.352 N 
ATOM     25  C   UNL A   1      41.452  19.454  26.100  1.00  0.00     0.251 C 
ATOM     26  H   UNL A   1      39.817  18.379  25.696  1.00  0.00     0.163 HD
ATOM     27  O   UNL A   1      42.213  18.507  25.935  1.00  0.00    -0.269 OA
BRANCH  25  28
ATOM     28  C   UNL A   1      41.982  20.757  26.556  1.00  0.00     0.039 A 
ATOM     29  C   UNL A   1      42.443  21.670  25.605  1.00  0.00     0.014 A 
ATOM     30  C   UNL A   1      42.035  21.073  27.915  1.00  0.00     0.014 A 
ATOM     31  C   UNL A   1      42.892  22.928  26.016  1.00  0.00     0.010 A 
ATOM     32  C   UNL A   1      42.389  22.356  28.313  1.00  0.00     0.010 A 
ATOM     33  C   UNL A   1      42.831  23.294  27.369  1.00  0.00    -0.014 A 
BRANCH  33  34
ATOM     34  C   UNL A   1      43.233  24.648  27.824  1.00  0.00     0.031 A 
ATOM     35  C   UNL A   1      42.187  25.693  28.100  1.00  0.00     0.074 A 
ATOM     36  C   UNL A   1      44.540  24.956  27.926  1.00  0.00     0.049 A 
ATOM     37  N   UNL A   1      42.343  26.947  28.441  1.00  0.00    -0.248 NA
ATOM     38  C   UNL A   1      40.781  25.284  27.944  1.00  0.00     0.031 C 
ATOM     39  C   UNL A   1      45.653  24.044  27.652  1.00  0.00     0.029 A 
ATOM     40  N   UNL A   1      45.155  26.129  28.286  1.00  0.00    -0.354 N 
ATOM     41  C   UNL A   1      41.061  27.476  28.524  1.00  0.00     0.074 A 
ATOM     42  C   UNL A   1      40.143  26.427  28.141  1.00  0.00     0.031 C 
ATOM     43  C   UNL A   1      46.812  24.681  27.887  1.00  0.00     0.029 A 
ATOM     44  C   UNL A   1      46.527  26.056  28.283  1.00  0.00     0.049 A 
ATOM     45  H   UNL A   1      44.659  26.947  28.524  1.00  0.00     0.167 HD
ATOM     46  C   UNL A   1      40.677  28.717  28.907  1.00  0.00     0.031 A 
ATOM     47  C   UNL A   1      47.452  26.992  28.563  1.00  0.00     0.031 A 
ATOM     48  C   UNL A   1      41.589  29.759  29.296  1.00  0.00     0.049 A 
ATOM     49  C   UNL A   1      47.002  28.372  28.958  1.00  0.00     0.074 A 
ATOM     50  C   UNL A   1      41.300  31.035  29.747  1.00  0.00     0.029 A 
ATOM     51  N   UNL A   1      42.971  29.645  29.275  1.00  0.00    -0.354 N 
ATOM     52  N   UNL A   1      45.784  28.837  29.094  1.00  0.00    -0.248 NA
ATOM     53  C   UNL A   1      48.058  29.351  29.249  1.00  0.00     0.031 C 
ATOM     54  C   UNL A   1      42.508  31.711  29.948  1.00  0.00     0.029 A 
ATOM     55  C   UNL A   1      43.549  30.836  29.682  1.00  0.00     0.049 A 
ATOM     56  H   UNL A   1      43.467  28.837  29.010  1.00  0.00     0.167 HD
ATOM     57  C   UNL A   1      45.927  30.153  29.515  1.00  0.00     0.074 A 
ATOM     58  C   UNL A   1      47.349  30.405  29.628  1.00  0.00     0.031 C 
ATOM     59  C   UNL A   1      44.966  31.069  29.787  1.00  0.00     0.031 A 
BRANCH  46  60
ATOM     60  C   UNL A   1      39.202  29.012  28.917  1.00  0.00    -0.014 A 
ATOM     61  C   UNL A   1      38.551  29.505  27.774  1.00  0.00     0.009 A 
ATOM     62  C   UNL A   1      38.449  28.773  30.076  1.00  0.00     0.009 A 
ATOM     63  C   UNL A   1      37.185  29.795  27.808  1.00  0.00     0.001 A 
ATOM     64  C   UNL A   1      37.077  29.033  30.097  1.00  0.00     0.001 A 
ATOM     65  C   UNL A   1      36.449  29.554  28.967  1.00  0.00     0.000 A 
ENDBRANCH  46  60
BRANCH  47  66
ATOM     66  C   UNL A   1      48.898  26.655  28.500  1.00  0.00    -0.014 A 
ATOM     67  C   UNL A   1      49.601  26.771  27.291  1.00  0.00     0.009 A 
ATOM     68  C   UNL A   1      49.582  26.210  29.642  1.00  0.00     0.009 A 
ATOM     69  C   UNL A   1      50.952  26.422  27.220  1.00  0.00     0.001 A 
ATOM     70  C   UNL A   1      50.939  25.889  29.575  1.00  0.00     0.001 A 
ATOM     71  C   UNL A   1      51.621  25.985  28.362  1.00  0.00     0.000 A 
ENDBRANCH  47  66
BRANCH  59  72
ATOM     72  C   UNL A   1      45.421  32.417  30.271  1.00  0.00    -0.014 A 
ATOM     73  C   UNL A   1      45.647  33.477  29.379  1.00  0.00     0.009 A 
ATOM     74  C   UNL A   1      45.589  32.639  31.647  1.00  0.00     0.009 A 
ATOM     75  C   UNL A   1      46.066  34.721  29.853  1.00  0.00     0.001 A 
ATOM     76  C   UNL A   1      45.977  33.892  32.121  1.00  0.00     0.001 A 
ATOM     77  C   UNL A   1      46.225  34.930  31.223  1.00  0.00     0.000 A 
ENDBRANCH  59  72
ENDBRANCH  33  34
ENDBRANCH  25  28
ENDBRANCH  23  24
ENDBRANCH  22  23
ENDBRANCH   1  22
TORSDOF 13
ENDMDL
MODEL 2
REMARK VINA RESULT:     -10.9      1.255      6.209
REMARK SMILES C[C@H](Nc1ccc2c(c1)OCCO2)[C@H](C)C(=O)NCCCNC(=O)c1ccc(-c2c3nc(c(-c4ccccc4)c4ccc([nH]4)c(-c4ccccc4)c4nc(c(-c5ccccc5)c5ccc2[nH]5)C=C4)C=C3)cc1
REMARK SMILES IDX 19 1 18 2 16 3 17 4 14 6 15 7 2 8 1 9 3 10 4 12 5 13 9 14
REMARK SMILES IDX 6 15 8 16 7 17 10 18 13 19 11 20 12 21 20 22 21 23 22 24
REMARK SMILES IDX 23 25 24 27 25 28 26 29 72 30 27 31 71 32 28 33 29 34 30 35
REMARK SMILES IDX 65 36 31 37 70 38 64 39 66 40 32 41 69 42 63 43 62 44 33 46
REMARK SMILES IDX 55 47 40 48 54 49 41 50 44 51 53 52 67 53 42 54 43 55 52 57
REMARK SMILES IDX 68 58 45 59 34 60 35 61 39 62 36 63 38 64 37 65 56 66 57 67
REMARK SMILES IDX 61 68 58 69 60 70 59 71 46 72 47 73 51 74 48 75 50 76 49 77
REMARK H PARENT 18 5 3 11 22 26 66 45 44 56
REMARK Flexibility Score: inf
ROOT
ATOM      1  C   UNL A   1      36.564  20.428  24.998  1.00  0.00     0.117 C 
ENDROOT
BRANCH   1   2
ATOM      2  N   UNL A   1      36.811  21.767  25.495  1.00  0.00    -0.356 N 
ATOM      3  C   UNL A   1      35.967  22.782  25.814  1.00  0.00     0.224 C 
ATOM      4  O   UNL A   1      36.492  23.859  26.120  1.00  0.00    -0.275 OA
ATOM      5  H   UNL A   1      37.764  21.979  25.625  1.00  0.00     0.163 HD
BRANCH   3   6
ATOM      6  C   UNL A   1      34.451  22.649  25.751  1.00  0.00     0.097 C 
ATOM      7  C   UNL A   1      33.872  22.903  27.148  1.00  0.00     0.020 C 
BRANCH   6   8
ATOM      8  C   UNL A   1      33.745  23.471  24.646  1.00  0.00     0.088 C 
ATOM      9  C   UNL A   1      33.404  22.608  23.430  1.00  0.00     0.031 C 
BRANCH   8  10
ATOM     10  N   UNL A   1      34.454  24.718  24.312  1.00  0.00    -0.382 N 
ATOM     11  H   UNL A   1      35.360  24.642  23.935  1.00  0.00     0.160 HD
BRANCH  10  12
ATOM     12  C   UNL A   1      33.938  25.994  24.490  1.00  0.00     0.038 A 
ATOM     13  C   UNL A   1      33.412  26.693  23.394  1.00  0.00     0.030 A 
ATOM     14  C   UNL A   1      33.893  26.609  25.742  1.00  0.00     0.076 A 
ATOM     15  C   UNL A   1      32.857  27.969  23.544  1.00  0.00     0.052 A 
ATOM     16  C   UNL A   1      33.313  27.865  25.904  1.00  0.00     0.163 A 
ATOM     17  C   UNL A   1      32.812  28.559  24.802  1.00  0.00     0.161 A 
ATOM     18  O   UNL A   1      33.271  28.356  27.185  1.00  0.00    -0.486 OA
ATOM     19  O   UNL A   1      32.252  29.807  24.888  1.00  0.00    -0.486 OA
ATOM     20  C   UNL A   1      32.304  29.406  27.288  1.00  0.00     0.271 C 
ATOM     21  C   UNL A   1      32.500  30.410  26.164  1.00  0.00     0.271 C 
ENDBRANCH  10  12
ENDBRANCH   8  10
ENDBRANCH   6   8
ENDBRANCH   3   6
ENDBRANCH   1   2
BRANCH   1  22
ATOM     22  C   UNL A   1      37.839  19.606  24.908  1.00  0.00     0.042 C 
BRANCH  22  23
ATOM     23  C   UNL A   1      38.984  20.161  25.742  1.00  0.00     0.118 C 
BRANCH  23  24
ATOM     24  N   UNL A   1      40.131  19.263  25.787  1.00  0.00    -0.352 N 
ATOM     25  C   UNL A   1      41.451  19.526  26.055  1.00  0.00     0.251 C 
ATOM     26  H   UNL A   1      39.927  18.319  25.595  1.00  0.00     0.163 HD
ATOM     27  O   UNL A   1      42.300  18.667  25.845  1.00  0.00    -0.269 OA
BRANCH  25  28
ATOM     28  C   UNL A   1      41.853  20.850  26.576  1.00  0.00     0.039 A 
ATOM     29  C   UNL A   1      42.329  21.813  25.682  1.00  0.00     0.014 A 
ATOM     30  C   UNL A   1      41.775  21.139  27.940  1.00  0.00     0.014 A 
ATOM     31  C   UNL A   1      42.658  23.088  26.150  1.00  0.00     0.010 A 
ATOM     32  C   UNL A   1      42.008  22.433  28.387  1.00  0.00     0.010 A 
ATOM     33  C   UNL A   1      42.461  23.419  27.499  1.00  0.00    -0.014 A 
BRANCH  33  34
ATOM     34  C   UNL A   1      42.734  24.786  28.009  1.00  0.00     0.031 A 
ATOM     35  C   UNL A   1      44.129  25.176  28.413  1.00  0.00     0.074 A 
ATOM     36  C   UNL A   1      41.716  25.653  28.169  1.00  0.00     0.049 A 
ATOM     37  N   UNL A   1      44.553  26.296  28.940  1.00  0.00    -0.248 NA
ATOM     38  C   UNL A   1      45.182  24.164  28.228  1.00  0.00     0.031 C 
ATOM     39  C   UNL A   1      40.312  25.384  27.849  1.00  0.00     0.029 A 
ATOM     40  N   UNL A   1      41.706  26.939  28.647  1.00  0.00    -0.354 N 
ATOM     41  C   UNL A   1      45.912  26.117  29.163  1.00  0.00     0.074 A 
ATOM     42  C   UNL A   1      46.232  24.762  28.770  1.00  0.00     0.031 C 
ATOM     43  C   UNL A   1      39.584  26.483  28.107  1.00  0.00     0.029 A 
ATOM     44  C   UNL A   1      40.459  27.516  28.652  1.00  0.00     0.049 A 
ATOM     45  H   UNL A   1      42.517  27.405  28.958  1.00  0.00     0.167 HD
ATOM     46  C   UNL A   1      46.821  27.005  29.630  1.00  0.00     0.031 A 
ATOM     47  C   UNL A   1      40.064  28.738  29.054  1.00  0.00     0.031 A 
ATOM     48  C   UNL A   1      46.506  28.355  30.014  1.00  0.00     0.049 A 
ATOM     49  C   UNL A   1      41.088  29.697  29.597  1.00  0.00     0.074 A 
ATOM     50  C   UNL A   1      47.362  29.350  30.453  1.00  0.00     0.029 A 
ATOM     51  N   UNL A   1      45.230  28.898  30.007  1.00  0.00    -0.354 N 
ATOM     52  N   UNL A   1      42.380  29.534  29.740  1.00  0.00    -0.248 NA
ATOM     53  C   UNL A   1      40.595  31.015  30.022  1.00  0.00     0.031 C 
ATOM     54  C   UNL A   1      46.597  30.478  30.764  1.00  0.00     0.029 A 
ATOM     55  C   UNL A   1      45.272  30.207  30.459  1.00  0.00     0.049 A 
ATOM     56  H   UNL A   1      44.416  28.424  29.723  1.00  0.00     0.167 HD
ATOM     57  C   UNL A   1      42.860  30.736  30.244  1.00  0.00     0.074 A 
ATOM     58  C   UNL A   1      41.722  31.624  30.365  1.00  0.00     0.031 C 
ATOM     59  C   UNL A   1      44.130  31.076  30.573  1.00  0.00     0.031 A 
BRANCH  46  60
ATOM     60  C   UNL A   1      48.245  26.535  29.756  1.00  0.00    -0.014 A 
ATOM     61  C   UNL A   1      49.162  26.704  28.706  1.00  0.00     0.009 A 
ATOM     62  C   UNL A   1      48.681  25.935  30.946  1.00  0.00     0.009 A 
ATOM     63  C   UNL A   1      50.474  26.242  28.830  1.00  0.00     0.001 A 
ATOM     64  C   UNL A   1      50.002  25.503  31.081  1.00  0.00     0.001 A 
ATOM     65  C   UNL A   1      50.894  25.646  30.019  1.00  0.00     0.000 A 
ENDBRANCH  46  60
BRANCH  47  66
ATOM     66  C   UNL A   1      38.637  29.135  28.943  1.00  0.00    -0.014 A 
ATOM     67  C   UNL A   1      38.133  29.639  27.734  1.00  0.00     0.009 A 
ATOM     68  C   UNL A   1      37.772  29.021  30.043  1.00  0.00     0.009 A 
ATOM     69  C   UNL A   1      36.800  30.046  27.636  1.00  0.00     0.001 A 
ATOM     70  C   UNL A   1      36.432  29.401  29.933  1.00  0.00     0.001 A 
ATOM     71  C   UNL A   1      35.950  29.923  28.734  1.00  0.00     0.000 A 
ENDBRANCH  47  66
BRANCH  59  72
ATOM     72  C   UNL A   1      44.361  32.479  31.059  1.00  0.00    -0.014 A 
ATOM     73  C   UNL A   1      44.627  33.528  30.166  1.00  0.00     0.009 A 
ATOM     74  C   UNL A   1      44.271  32.760  32.431  1.00  0.00     0.009 A 
ATOM     75  C   UNL A   1      44.834  34.824  30.642  1.00  0.00     0.001 A 
ATOM     76  C   UNL A   1      44.447  34.062  32.902  1.00  0.00     0.001 A 
ATOM     77  C   UNL A   1      44.738  35.091  32.008  1.00  0.00     0.000 A 
ENDBRANCH  59  72
ENDBRANCH  33  34
ENDBRANCH  25  28
ENDBRANCH  23  24
ENDBRANCH  22  23
ENDBRANCH   1  22
TORSDOF 13
ENDMDL
MODEL 3
REMARK VINA RESULT:     -10.8      4.236      9.473
REMARK SMILES C[C@H](Nc1ccc2c(c1)OCCO2)[C@H](C)C(=O)NCCCNC(=O)c1ccc(-c2c3nc(c(-c4ccccc4)c4ccc([nH]4)c(-c4ccccc4)c4nc(c(-c5ccccc5)c5ccc2[nH]5)C=C4)C=C3)cc1
REMARK SMILES IDX 19 1 18 2 16 3 17 4 14 6 15 7 2 8 1 9 3 10 4 12 5 13 9 14
REMARK SMILES IDX 6 15 8 16 7 17 10 18 13 19 11 20 12 21 20 22 21 23 22 24
REMARK SMILES IDX 23 25 24 27 25 28 26 29 72 30 27 31 71 32 28 33 29 34 30 35
REMARK SMILES IDX 65 36 31 37 70 38 64 39 66 40 32 41 69 42 63 43 62 44 33 46
REMARK SMILES IDX 55 47 40 48 54 49 41 50 44 51 53 52 67 53 42 54 43 55 52 57
REMARK SMILES IDX 68 58 45 59 34 60 35 61 39 62 36 63 38 64 37 65 56 66 57 67
REMARK SMILES IDX 61 68 58 69 60 70 59 71 46 72 47 73 51 74 48 75 50 76 49 77
REMARK H PARENT 18 5 3 11 22 26 66 45 44 56
REMARK Flexibility Score: inf
ROOT
ATOM      1  C   UNL A   1      31.670  30.216  26.261  1.00  0.00     0.117 C 
ENDROOT
BRANCH   1   2
ATOM      2  N   UNL A   1      32.102  29.974  24.898  1.00  0.00    -0.356 N 
ATOM      3  C   UNL A   1      31.776  29.004  24.005  1.00  0.00     0.224 C 
ATOM      4  O   UNL A   1      32.399  29.007  22.938  1.00  0.00    -0.275 OA
ATOM      5  H   UNL A   1      32.749  30.634  24.558  1.00  0.00     0.163 HD
BRANCH   3   6
ATOM      6  C   UNL A   1      30.746  27.922  24.299  1.00  0.00     0.097 C 
ATOM      7  C   UNL A   1      29.639  27.989  23.240  1.00  0.00     0.020 C 
BRANCH   6   8
ATOM      8  C   UNL A   1      31.303  26.493  24.499  1.00  0.00     0.088 C 
ATOM      9  C   UNL A   1      30.708  25.820  25.737  1.00  0.00     0.031 C 
BRANCH   8  10
ATOM     10  N   UNL A   1      32.774  26.432  24.437  1.00  0.00    -0.382 N 
ATOM     11  H   UNL A   1      33.265  27.285  24.405  1.00  0.00     0.160 HD
BRANCH  10  12
ATOM     12  C   UNL A   1      33.518  25.261  24.420  1.00  0.00     0.038 A 
ATOM     13  C   UNL A   1      33.245  24.275  23.460  1.00  0.00     0.030 A 
ATOM     14  C   UNL A   1      34.564  25.032  25.315  1.00  0.00     0.076 A 
ATOM     15  C   UNL A   1      33.995  23.096  23.397  1.00  0.00     0.052 A 
ATOM     16  C   UNL A   1      35.336  23.875  25.236  1.00  0.00     0.163 A 
ATOM     17  C   UNL A   1      35.041  22.893  24.290  1.00  0.00     0.161 A 
ATOM     18  O   UNL A   1      36.375  23.774  26.128  1.00  0.00    -0.486 OA
ATOM     19  O   UNL A   1      35.744  21.722  24.176  1.00  0.00    -0.486 OA
ATOM     20  C   UNL A   1      37.321  22.797  25.685  1.00  0.00     0.271 C 
ATOM     21  C   UNL A   1      36.606  21.512  25.301  1.00  0.00     0.271 C 
ENDBRANCH  10  12
ENDBRANCH   8  10
ENDBRANCH   6   8
ENDBRANCH   3   6
ENDBRANCH   1   2
BRANCH   1  22
ATOM     22  C   UNL A   1      31.497  31.698  26.552  1.00  0.00     0.042 C 
BRANCH  22  23
ATOM     23  C   UNL A   1      32.729  32.349  27.159  1.00  0.00     0.118 C 
BRANCH  23  24
ATOM     24  N   UNL A   1      32.492  33.728  27.567  1.00  0.00    -0.352 N 
ATOM     25  C   UNL A   1      33.138  34.499  28.501  1.00  0.00     0.251 C 
ATOM     26  H   UNL A   1      31.750  34.177  27.100  1.00  0.00     0.163 HD
ATOM     27  O   UNL A   1      32.658  35.573  28.843  1.00  0.00    -0.269 OA
BRANCH  25  28
ATOM     28  C   UNL A   1      34.401  34.027  29.107  1.00  0.00     0.039 A 
ATOM     29  C   UNL A   1      34.347  33.282  30.289  1.00  0.00     0.014 A 
ATOM     30  C   UNL A   1      35.634  34.326  28.524  1.00  0.00     0.014 A 
ATOM     31  C   UNL A   1      35.526  32.780  30.843  1.00  0.00     0.010 A 
ATOM     32  C   UNL A   1      36.793  33.744  29.020  1.00  0.00     0.010 A 
ATOM     33  C   UNL A   1      36.753  32.973  30.191  1.00  0.00    -0.014 A 
BRANCH  33  34
ATOM     34  C   UNL A   1      38.012  32.389  30.719  1.00  0.00     0.031 A 
ATOM     35  C   UNL A   1      38.557  31.116  30.131  1.00  0.00     0.074 A 
ATOM     36  C   UNL A   1      38.627  32.968  31.767  1.00  0.00     0.049 A 
ATOM     37  N   UNL A   1      39.602  30.419  30.498  1.00  0.00    -0.248 NA
ATOM     38  C   UNL A   1      37.814  30.533  29.002  1.00  0.00     0.031 C 
ATOM     39  C   UNL A   1      38.180  34.185  32.450  1.00  0.00     0.029 A 
ATOM     40  N   UNL A   1      39.763  32.606  32.446  1.00  0.00    -0.354 N 
ATOM     41  C   UNL A   1      39.631  29.313  29.658  1.00  0.00     0.074 A 
ATOM     42  C   UNL A   1      38.468  29.399  28.803  1.00  0.00     0.031 C 
ATOM     43  C   UNL A   1      39.051  34.486  33.427  1.00  0.00     0.029 A 
ATOM     44  C   UNL A   1      40.091  33.463  33.469  1.00  0.00     0.049 A 
ATOM     45  H   UNL A   1      40.294  31.807  32.221  1.00  0.00     0.167 HD
ATOM     46  C   UNL A   1      40.553  28.325  29.586  1.00  0.00     0.031 A 
ATOM     47  C   UNL A   1      41.110  33.425  34.347  1.00  0.00     0.031 A 
ATOM     48  C   UNL A   1      41.715  28.242  30.430  1.00  0.00     0.049 A 
ATOM     49  C   UNL A   1      42.107  32.302  34.265  1.00  0.00     0.074 A 
ATOM     50  C   UNL A   1      42.736  27.309  30.405  1.00  0.00     0.029 A 
ATOM     51  N   UNL A   1      42.007  29.128  31.457  1.00  0.00    -0.354 N 
ATOM     52  N   UNL A   1      42.155  31.299  33.423  1.00  0.00    -0.248 NA
ATOM     53  C   UNL A   1      43.195  32.314  35.252  1.00  0.00     0.031 C 
ATOM     54  C   UNL A   1      43.618  27.599  31.452  1.00  0.00     0.029 A 
ATOM     55  C   UNL A   1      43.179  28.748  32.089  1.00  0.00     0.049 A 
ATOM     56  H   UNL A   1      41.461  29.911  31.700  1.00  0.00     0.167 HD
ATOM     57  C   UNL A   1      43.293  30.577  33.758  1.00  0.00     0.074 A 
ATOM     58  C   UNL A   1      43.915  31.269  34.869  1.00  0.00     0.031 C 
ATOM     59  C   UNL A   1      43.783  29.447  33.193  1.00  0.00     0.031 A 
BRANCH  46  60
ATOM     60  C   UNL A   1      40.335  27.250  28.557  1.00  0.00    -0.014 A 
ATOM     61  C   UNL A   1      39.578  26.104  28.850  1.00  0.00     0.009 A 
ATOM     62  C   UNL A   1      40.875  27.393  27.270  1.00  0.00     0.009 A 
ATOM     63  C   UNL A   1      39.403  25.105  27.890  1.00  0.00     0.001 A 
ATOM     64  C   UNL A   1      40.673  26.408  26.301  1.00  0.00     0.001 A 
ATOM     65  C   UNL A   1      39.947  25.260  26.615  1.00  0.00     0.000 A 
ENDBRANCH  46  60
BRANCH  47  66
ATOM     66  C   UNL A   1      41.255  34.495  35.368  1.00  0.00    -0.014 A 
ATOM     67  C   UNL A   1      40.608  34.383  36.609  1.00  0.00     0.009 A 
ATOM     68  C   UNL A   1      42.032  35.635  35.109  1.00  0.00     0.009 A 
ATOM     69  C   UNL A   1      40.714  35.403  37.557  1.00  0.00     0.001 A 
ATOM     70  C   UNL A   1      42.160  36.639  36.071  1.00  0.00     0.001 A 
ATOM     71  C   UNL A   1      41.493  36.528  37.290  1.00  0.00     0.000 A 
ENDBRANCH  47  66
BRANCH  59  72
ATOM     72  C   UNL A   1      45.074  28.909  33.743  1.00  0.00    -0.014 A 
ATOM     73  C   UNL A   1      46.316  29.341  33.253  1.00  0.00     0.009 A 
ATOM     74  C   UNL A   1      45.044  27.983  34.798  1.00  0.00     0.009 A 
ATOM     75  C   UNL A   1      47.501  28.829  33.783  1.00  0.00     0.001 A 
ATOM     76  C   UNL A   1      46.230  27.496  35.348  1.00  0.00     0.001 A 
ATOM     77  C   UNL A   1      47.458  27.912  34.833  1.00  0.00     0.000 A 
ENDBRANCH  59  72
ENDBRANCH  33  34
ENDBRANCH  25  28
ENDBRANCH  23  24
ENDBRANCH  22  23
ENDBRANCH   1  22
TORSDOF 13
ENDMDL
