MODEL 1
REMARK VINA RESULT:     -11.7      0.000      0.000
REMARK SMILES O=C(NCCCNC(=O)c1ccc(-c2c3nc(c(-c4ccccc4)c4ccc([nH]4)c(-c4ccccc4)c4nc(c(-c5ccccc5)c5ccc2[nH]5)C=C4)C=C3)cc1)C1=Cc2cc(Cl)c(Cl)c(Cl)c2O[C@@H]1C(F)(F)F
REMARK SMILES IDX 5 1 4 2 3 3 1 4 2 5 58 7 59 8 70 9 60 10 69 11 61 12 68 13
REMARK SMILES IDX 62 14 66 15 63 16 64 17 67 18 65 19 71 20 72 21 73 22 74 23
REMARK SMILES IDX 6 24 7 25 8 26 9 28 10 29 11 30 57 31 12 32 56 33 13 34
REMARK SMILES IDX 14 35 15 36 50 37 16 38 55 39 49 40 51 41 17 42 54 43 48 44
REMARK SMILES IDX 47 45 18 47 40 48 25 49 39 50 26 51 29 52 38 53 52 54 27 55
REMARK SMILES IDX 28 56 37 58 53 59 30 60 19 61 20 62 24 63 21 64 23 65 22 66
REMARK SMILES IDX 41 67 42 68 46 69 43 70 45 71 44 72 31 73 32 74 36 75 33 76
REMARK SMILES IDX 35 77 34 78
REMARK H PARENT 3 6 7 27 51 46 29 57
REMARK Flexibility Score: inf
ROOT
ATOM      1  C   UNL A   1      33.227  29.688  25.783  1.00  0.00     0.042 C 
ENDROOT
BRANCH   1   2
ATOM      2  C   UNL A   1      31.915  29.113  25.260  1.00  0.00     0.118 C 
BRANCH   2   3
ATOM      3  N   UNL A   1      31.429  27.961  26.024  1.00  0.00    -0.352 N 
ATOM      4  O   UNL A   1      31.403  25.819  26.768  1.00  0.00    -0.270 OA
ATOM      5  C   UNL A   1      31.735  26.624  25.910  1.00  0.00     0.251 C 
ATOM      6  H   UNL A   1      30.779  28.178  26.731  1.00  0.00     0.163 HD
BRANCH   5   7
ATOM      7  C   UNL A   1      32.554  26.209  24.754  1.00  0.00     0.067 C 
ATOM      8  C   UNL A   1      33.875  26.067  24.920  1.00  0.00     0.025 C 
ATOM      9  C   UNL A   1      31.834  25.620  23.584  1.00  0.00     0.314 C 
ATOM     10  C   UNL A   1      34.347  24.744  24.477  1.00  0.00     0.020 A 
ATOM     11  O   UNL A   1      32.243  24.257  23.330  1.00  0.00    -0.474 OA
ATOM     12  C   UNL A   1      35.494  24.243  25.098  1.00  0.00     0.034 A 
ATOM     13  C   UNL A   1      33.462  23.852  23.832  1.00  0.00     0.148 A 
ATOM     14  C   UNL A   1      35.714  22.864  25.164  1.00  0.00     0.062 A 
ATOM     15  C   UNL A   1      33.704  22.466  23.869  1.00  0.00     0.103 A 
ATOM     16  Cl  UNL A   1      37.060  22.340  26.118  1.00  0.00    -0.083 Cl
ATOM     17  C   UNL A   1      34.817  21.966  24.566  1.00  0.00     0.082 A 
ATOM     18  Cl  UNL A   1      32.515  21.393  23.189  1.00  0.00    -0.079 Cl
ATOM     19  Cl  UNL A   1      35.037  20.254  24.769  1.00  0.00    -0.081 Cl
BRANCH   9  20
ATOM     20  C   UNL A   1      32.021  26.488  22.328  1.00  0.00     0.429 C 
ATOM     21  F   UNL A   1      33.331  26.616  22.011  1.00  0.00    -0.167 F 
ATOM     22  F   UNL A   1      31.405  25.955  21.248  1.00  0.00    -0.167 F 
ATOM     23  F   UNL A   1      31.527  27.740  22.497  1.00  0.00    -0.167 F 
ENDBRANCH   9  20
ENDBRANCH   5   7
ENDBRANCH   2   3
ENDBRANCH   1   2
BRANCH   1  24
ATOM     24  C   UNL A   1      33.382  29.521  27.291  1.00  0.00     0.118 C 
BRANCH  24  25
ATOM     25  N   UNL A   1      33.662  30.772  27.992  1.00  0.00    -0.352 N 
ATOM     26  C   UNL A   1      34.778  31.217  28.674  1.00  0.00     0.251 C 
ATOM     27  H   UNL A   1      32.918  31.417  27.975  1.00  0.00     0.163 HD
ATOM     28  O   UNL A   1      34.730  32.274  29.280  1.00  0.00    -0.269 OA
BRANCH  26  29
ATOM     29  C   UNL A   1      36.017  30.405  28.713  1.00  0.00     0.039 A 
ATOM     30  C   UNL A   1      36.836  30.356  27.580  1.00  0.00     0.014 A 
ATOM     31  C   UNL A   1      36.382  29.699  29.857  1.00  0.00     0.014 A 
ATOM     32  C   UNL A   1      38.078  29.716  27.644  1.00  0.00     0.010 A 
ATOM     33  C   UNL A   1      37.660  29.163  29.958  1.00  0.00     0.010 A 
ATOM     34  C   UNL A   1      38.532  29.181  28.859  1.00  0.00    -0.014 A 
BRANCH  34  35
ATOM     35  C   UNL A   1      39.918  28.670  29.037  1.00  0.00     0.031 A 
ATOM     36  C   UNL A   1      41.021  29.607  29.451  1.00  0.00     0.074 A 
ATOM     37  C   UNL A   1      40.210  27.399  28.695  1.00  0.00     0.049 A 
ATOM     38  N   UNL A   1      42.315  29.407  29.463  1.00  0.00    -0.248 NA
ATOM     39  C   UNL A   1      40.619  30.960  29.867  1.00  0.00     0.031 C 
ATOM     40  C   UNL A   1      39.246  26.395  28.233  1.00  0.00     0.029 A 
ATOM     41  N   UNL A   1      41.414  26.736  28.663  1.00  0.00    -0.354 N 
ATOM     42  C   UNL A   1      42.879  30.618  29.847  1.00  0.00     0.074 A 
ATOM     43  C   UNL A   1      41.792  31.558  30.014  1.00  0.00     0.031 C 
ATOM     44  C   UNL A   1      39.891  25.242  27.991  1.00  0.00     0.029 A 
ATOM     45  C   UNL A   1      41.317  25.438  28.222  1.00  0.00     0.049 A 
ATOM     46  H   UNL A   1      42.264  27.152  28.932  1.00  0.00     0.167 HD
ATOM     47  C   UNL A   1      44.183  30.918  30.058  1.00  0.00     0.031 A 
ATOM     48  C   UNL A   1      42.270  24.512  28.004  1.00  0.00     0.031 A 
ATOM     49  C   UNL A   1      45.260  29.974  29.929  1.00  0.00     0.049 A 
ATOM     50  C   UNL A   1      43.709  24.871  28.243  1.00  0.00     0.074 A 
ATOM     51  C   UNL A   1      46.605  30.160  30.200  1.00  0.00     0.029 A 
ATOM     52  N   UNL A   1      45.114  28.665  29.500  1.00  0.00    -0.354 N 
ATOM     53  N   UNL A   1      44.220  26.005  28.655  1.00  0.00    -0.248 NA
ATOM     54  C   UNL A   1      44.705  23.820  27.980  1.00  0.00     0.031 C 
ATOM     55  C   UNL A   1      47.279  28.974  29.890  1.00  0.00     0.029 A 
ATOM     56  C   UNL A   1      46.347  28.038  29.472  1.00  0.00     0.049 A 
ATOM     57  H   UNL A   1      44.259  28.244  29.252  1.00  0.00     0.167 HD
ATOM     58  C   UNL A   1      45.591  25.802  28.717  1.00  0.00     0.074 A 
ATOM     59  C   UNL A   1      45.832  24.430  28.320  1.00  0.00     0.031 C 
ATOM     60  C   UNL A   1      46.567  26.675  29.068  1.00  0.00     0.031 A 
BRANCH  47  61
ATOM     61  C   UNL A   1      44.514  32.330  30.452  1.00  0.00    -0.014 A 
ATOM     62  C   UNL A   1      44.749  33.320  29.485  1.00  0.00     0.009 A 
ATOM     63  C   UNL A   1      44.558  32.684  31.810  1.00  0.00     0.009 A 
ATOM     64  C   UNL A   1      45.060  34.626  29.870  1.00  0.00     0.001 A 
ATOM     65  C   UNL A   1      44.841  33.997  32.191  1.00  0.00     0.001 A 
ATOM     66  C   UNL A   1      45.100  34.964  31.221  1.00  0.00     0.000 A 
ENDBRANCH  47  61
BRANCH  48  67
ATOM     67  C   UNL A   1      41.900  23.155  27.526  1.00  0.00    -0.014 A 
ATOM     68  C   UNL A   1      41.469  22.177  28.437  1.00  0.00     0.009 A 
ATOM     69  C   UNL A   1      41.980  22.824  26.165  1.00  0.00     0.009 A 
ATOM     70  C   UNL A   1      41.153  20.890  27.999  1.00  0.00     0.001 A 
ATOM     71  C   UNL A   1      41.637  21.544  25.725  1.00  0.00     0.001 A 
ATOM     72  C   UNL A   1      41.233  20.576  26.643  1.00  0.00     0.000 A 
ENDBRANCH  48  67
BRANCH  60  73
ATOM     73  C   UNL A   1      47.978  26.166  29.049  1.00  0.00    -0.014 A 
ATOM     74  C   UNL A   1      48.741  26.196  27.872  1.00  0.00     0.009 A 
ATOM     75  C   UNL A   1      48.565  25.691  30.232  1.00  0.00     0.009 A 
ATOM     76  C   UNL A   1      50.059  25.738  27.875  1.00  0.00     0.001 A 
ATOM     77  C   UNL A   1      49.891  25.257  30.238  1.00  0.00     0.001 A 
ATOM     78  C   UNL A   1      50.635  25.273  29.058  1.00  0.00     0.000 A 
ENDBRANCH  60  73
ENDBRANCH  34  35
ENDBRANCH  26  29
ENDBRANCH  24  25
ENDBRANCH   1  24
TORSDOF 11
ENDMDL
MODEL 2
REMARK VINA RESULT:     -11.7      2.819      7.483
REMARK SMILES O=C(NCCCNC(=O)c1ccc(-c2c3nc(c(-c4ccccc4)c4ccc([nH]4)c(-c4ccccc4)c4nc(c(-c5ccccc5)c5ccc2[nH]5)C=C4)C=C3)cc1)C1=Cc2cc(Cl)c(Cl)c(Cl)c2O[C@@H]1C(F)(F)F
REMARK SMILES IDX 5 1 4 2 3 3 1 4 2 5 58 7 59 8 70 9 60 10 69 11 61 12 68 13
REMARK SMILES IDX 62 14 66 15 63 16 64 17 67 18 65 19 71 20 72 21 73 22 74 23
REMARK SMILES IDX 6 24 7 25 8 26 9 28 10 29 11 30 57 31 12 32 56 33 13 34
REMARK SMILES IDX 14 35 15 36 50 37 16 38 55 39 49 40 51 41 17 42 54 43 48 44
REMARK SMILES IDX 47 45 18 47 40 48 25 49 39 50 26 51 29 52 38 53 52 54 27 55
REMARK SMILES IDX 28 56 37 58 53 59 30 60 19 61 20 62 24 63 21 64 23 65 22 66
REMARK SMILES IDX 41 67 42 68 46 69 43 70 45 71 44 72 31 73 32 74 36 75 33 76
REMARK SMILES IDX 35 77 34 78
REMARK H PARENT 3 6 7 27 51 46 29 57
REMARK Flexibility Score: inf
ROOT
ATOM      1  C   UNL A   1      36.945  20.841  25.002  1.00  0.00     0.042 C 
ENDROOT
BRANCH   1   2
ATOM      2  C   UNL A   1      35.940  21.973  25.190  1.00  0.00     0.118 C 
BRANCH   2   3
ATOM      3  N   UNL A   1      35.478  22.567  23.933  1.00  0.00    -0.352 N 
ATOM      4  O   UNL A   1      34.398  24.059  22.610  1.00  0.00    -0.270 OA
ATOM      5  C   UNL A   1      34.511  23.518  23.700  1.00  0.00     0.251 C 
ATOM      6  H   UNL A   1      35.931  22.231  23.126  1.00  0.00     0.163 HD
BRANCH   5   7
ATOM      7  C   UNL A   1      33.666  23.924  24.840  1.00  0.00     0.067 C 
ATOM      8  C   UNL A   1      34.098  24.906  25.642  1.00  0.00     0.025 C 
ATOM      9  C   UNL A   1      32.238  23.485  24.823  1.00  0.00     0.314 C 
ATOM     10  C   UNL A   1      33.096  25.976  25.789  1.00  0.00     0.020 A 
ATOM     11  O   UNL A   1      31.328  24.609  24.797  1.00  0.00    -0.474 OA
ATOM     12  C   UNL A   1      33.579  27.258  26.067  1.00  0.00     0.034 A 
ATOM     13  C   UNL A   1      31.807  25.827  25.232  1.00  0.00     0.148 A 
ATOM     14  C   UNL A   1      32.834  28.385  25.707  1.00  0.00     0.062 A 
ATOM     15  C   UNL A   1      31.043  26.963  24.902  1.00  0.00     0.103 A 
ATOM     16  Cl  UNL A   1      33.602  29.921  25.919  1.00  0.00    -0.083 Cl
ATOM     17  C   UNL A   1      31.570  28.248  25.110  1.00  0.00     0.082 A 
ATOM     18  Cl  UNL A   1      29.524  26.738  24.084  1.00  0.00    -0.079 Cl
ATOM     19  Cl  UNL A   1      30.717  29.655  24.552  1.00  0.00    -0.081 Cl
BRANCH   9  20
ATOM     20  C   UNL A   1      31.930  22.562  26.014  1.00  0.00     0.429 C 
ATOM     21  F   UNL A   1      30.750  21.919  25.844  1.00  0.00    -0.167 F 
ATOM     22  F   UNL A   1      32.877  21.610  26.174  1.00  0.00    -0.167 F 
ATOM     23  F   UNL A   1      31.847  23.248  27.181  1.00  0.00    -0.167 F 
ENDBRANCH   9  20
ENDBRANCH   5   7
ENDBRANCH   2   3
ENDBRANCH   1   2
BRANCH   1  24
ATOM     24  C   UNL A   1      38.329  21.188  25.543  1.00  0.00     0.118 C 
BRANCH  24  25
ATOM     25  N   UNL A   1      39.253  20.056  25.552  1.00  0.00    -0.352 N 
ATOM     26  C   UNL A   1      40.571  19.945  25.948  1.00  0.00     0.251 C 
ATOM     27  H   UNL A   1      38.863  19.217  25.213  1.00  0.00     0.163 HD
ATOM     28  O   UNL A   1      41.172  18.902  25.752  1.00  0.00    -0.269 OA
BRANCH  26  29
ATOM     29  C   UNL A   1      41.276  21.092  26.567  1.00  0.00     0.039 A 
ATOM     30  C   UNL A   1      41.864  22.056  25.741  1.00  0.00     0.014 A 
ATOM     31  C   UNL A   1      41.356  21.230  27.951  1.00  0.00     0.014 A 
ATOM     32  C   UNL A   1      42.406  23.217  26.302  1.00  0.00     0.010 A 
ATOM     33  C   UNL A   1      41.789  22.430  28.501  1.00  0.00     0.010 A 
ATOM     34  C   UNL A   1      42.302  23.448  27.682  1.00  0.00    -0.014 A 
BRANCH  34  35
ATOM     35  C   UNL A   1      42.678  24.746  28.304  1.00  0.00     0.031 A 
ATOM     36  C   UNL A   1      41.636  25.811  28.517  1.00  0.00     0.074 A 
ATOM     37  C   UNL A   1      43.976  25.017  28.552  1.00  0.00     0.049 A 
ATOM     38  N   UNL A   1      41.794  27.068  28.850  1.00  0.00    -0.248 NA
ATOM     39  C   UNL A   1      40.235  25.424  28.283  1.00  0.00     0.031 C 
ATOM     40  C   UNL A   1      45.096  24.093  28.350  1.00  0.00     0.029 A 
ATOM     41  N   UNL A   1      44.577  26.165  29.011  1.00  0.00    -0.354 N 
ATOM     42  C   UNL A   1      40.521  27.626  28.826  1.00  0.00     0.074 A 
ATOM     43  C   UNL A   1      39.610  26.585  28.402  1.00  0.00     0.031 C 
ATOM     44  C   UNL A   1      46.239  24.700  28.706  1.00  0.00     0.029 A 
ATOM     45  C   UNL A   1      45.945  26.070  29.106  1.00  0.00     0.049 A 
ATOM     46  H   UNL A   1      44.074  26.976  29.249  1.00  0.00     0.167 HD
ATOM     47  C   UNL A   1      40.140  28.886  29.143  1.00  0.00     0.031 A 
ATOM     48  C   UNL A   1      46.865  26.990  29.454  1.00  0.00     0.031 A 
ATOM     49  C   UNL A   1      41.040  29.910  29.602  1.00  0.00     0.049 A 
ATOM     50  C   UNL A   1      46.417  28.381  29.799  1.00  0.00     0.074 A 
ATOM     51  C   UNL A   1      40.740  31.193  30.027  1.00  0.00     0.029 A 
ATOM     52  N   UNL A   1      42.414  29.764  29.703  1.00  0.00    -0.354 N 
ATOM     53  N   UNL A   1      45.205  28.877  29.821  1.00  0.00    -0.248 NA
ATOM     54  C   UNL A   1      47.470  29.343  30.164  1.00  0.00     0.031 C 
ATOM     55  C   UNL A   1      41.941  31.839  30.341  1.00  0.00     0.029 A 
ATOM     56  C   UNL A   1      42.981  30.942  30.157  1.00  0.00     0.049 A 
ATOM     57  H   UNL A   1      42.913  28.943  29.484  1.00  0.00     0.167 HD
ATOM     58  C   UNL A   1      45.344  30.200  30.215  1.00  0.00     0.074 A 
ATOM     59  C   UNL A   1      46.757  30.425  30.443  1.00  0.00     0.031 C 
ATOM     60  C   UNL A   1      44.388  31.148  30.371  1.00  0.00     0.031 A 
BRANCH  47  61
ATOM     61  C   UNL A   1      38.683  29.226  29.006  1.00  0.00    -0.014 A 
ATOM     62  C   UNL A   1      37.800  29.098  30.091  1.00  0.00     0.009 A 
ATOM     63  C   UNL A   1      38.191  29.712  27.785  1.00  0.00     0.009 A 
ATOM     64  C   UNL A   1      36.449  29.414  29.944  1.00  0.00     0.001 A 
ATOM     65  C   UNL A   1      36.843  30.054  27.649  1.00  0.00     0.001 A 
ATOM     66  C   UNL A   1      35.972  29.896  28.726  1.00  0.00     0.000 A 
ENDBRANCH  47  61
BRANCH  48  67
ATOM     67  C   UNL A   1      48.307  26.630  29.488  1.00  0.00    -0.014 A 
ATOM     68  C   UNL A   1      49.114  26.833  28.357  1.00  0.00     0.009 A 
ATOM     69  C   UNL A   1      48.883  26.074  30.641  1.00  0.00     0.009 A 
ATOM     70  C   UNL A   1      50.460  26.464  28.372  1.00  0.00     0.001 A 
ATOM     71  C   UNL A   1      50.236  25.732  30.662  1.00  0.00     0.001 A 
ATOM     72  C   UNL A   1      51.021  25.918  29.526  1.00  0.00     0.000 A 
ENDBRANCH  48  67
BRANCH  60  73
ATOM     73  C   UNL A   1      44.840  32.507  30.821  1.00  0.00    -0.014 A 
ATOM     74  C   UNL A   1      45.164  33.505  29.889  1.00  0.00     0.009 A 
ATOM     75  C   UNL A   1      44.899  32.805  32.191  1.00  0.00     0.009 A 
ATOM     76  C   UNL A   1      45.564  34.769  30.323  1.00  0.00     0.001 A 
ATOM     77  C   UNL A   1      45.274  34.078  32.621  1.00  0.00     0.001 A 
ATOM     78  C   UNL A   1      45.614  35.057  31.688  1.00  0.00     0.000 A 
ENDBRANCH  60  73
ENDBRANCH  34  35
ENDBRANCH  26  29
ENDBRANCH  24  25
ENDBRANCH   1  24
TORSDOF 11
ENDMDL
MODEL 3
REMARK VINA RESULT:     -11.6      5.200     10.388
REMARK SMILES O=C(NCCCNC(=O)c1ccc(-c2c3nc(c(-c4ccccc4)c4ccc([nH]4)c(-c4ccccc4)c4nc(c(-c5ccccc5)c5ccc2[nH]5)C=C4)C=C3)cc1)C1=Cc2cc(Cl)c(Cl)c(Cl)c2O[C@@H]1C(F)(F)F
REMARK SMILES IDX 5 1 4 2 3 3 1 4 2 5 58 7 59 8 70 9 60 10 69 11 61 12 68 13
REMARK SMILES IDX 62 14 66 15 63 16 64 17 67 18 65 19 71 20 72 21 73 22 74 23
REMARK SMILES IDX 6 24 7 25 8 26 9 28 10 29 11 30 57 31 12 32 56 33 13 34
REMARK SMILES IDX 14 35 15 36 50 37 16 38 55 39 49 40 51 41 17 42 54 43 48 44
REMARK SMILES IDX 47 45 18 47 40 48 25 49 39 50 26 51 29 52 38 53 52 54 27 55
REMARK SMILES IDX 28 56 37 58 53 59 30 60 19 61 20 62 24 63 21 64 23 65 22 66
REMARK SMILES IDX 41 67 42 68 46 69 43 70 45 71 44 72 31 73 32 74 36 75 33 76
REMARK SMILES IDX 35 77 34 78
REMARK H PARENT 3 6 7 27 51 46 29 57
REMARK Flexibility Score: inf
ROOT
ATOM      1  C   UNL A   1      41.698  21.760  26.058  1.00  0.00     0.042 C 
ENDROOT
BRANCH   1   2
ATOM      2  C   UNL A   1      42.978  21.717  26.887  1.00  0.00     0.118 C 
BRANCH   2   3
ATOM      3  N   UNL A   1      44.151  21.258  26.139  1.00  0.00    -0.352 N 
ATOM      4  O   UNL A   1      46.282  21.322  25.367  1.00  0.00    -0.270 OA
ATOM      5  C   UNL A   1      45.313  21.919  25.812  1.00  0.00     0.251 C 
ATOM      6  H   UNL A   1      44.099  20.329  25.818  1.00  0.00     0.163 HD
BRANCH   5   7
ATOM      7  C   UNL A   1      45.377  23.366  26.096  1.00  0.00     0.067 C 
ATOM      8  C   UNL A   1      46.014  23.776  27.200  1.00  0.00     0.025 C 
ATOM      9  C   UNL A   1      45.059  24.297  24.971  1.00  0.00     0.314 C 
ATOM     10  C   UNL A   1      47.038  24.791  26.899  1.00  0.00     0.020 A 
ATOM     11  O   UNL A   1      46.185  25.140  24.635  1.00  0.00    -0.474 OA
ATOM     12  C   UNL A   1      48.126  24.868  27.774  1.00  0.00     0.034 A 
ATOM     13  C   UNL A   1      47.162  25.313  25.593  1.00  0.00     0.148 A 
ATOM     14  C   UNL A   1      49.353  25.368  27.329  1.00  0.00     0.062 A 
ATOM     15  C   UNL A   1      48.389  25.849  25.158  1.00  0.00     0.103 A 
ATOM     16  Cl  UNL A   1      50.684  25.243  28.429  1.00  0.00    -0.083 Cl
ATOM     17  C   UNL A   1      49.499  25.848  26.018  1.00  0.00     0.082 A 
ATOM     18  Cl  UNL A   1      48.540  26.348  23.498  1.00  0.00    -0.079 Cl
ATOM     19  Cl  UNL A   1      51.062  26.345  25.444  1.00  0.00    -0.081 Cl
BRANCH   9  20
ATOM     20  C   UNL A   1      43.819  25.149  25.294  1.00  0.00     0.429 C 
ATOM     21  F   UNL A   1      42.809  24.891  24.430  1.00  0.00    -0.167 F 
ATOM     22  F   UNL A   1      43.346  24.901  26.537  1.00  0.00    -0.167 F 
ATOM     23  F   UNL A   1      44.080  26.477  25.219  1.00  0.00    -0.167 F 
ENDBRANCH   9  20
ENDBRANCH   5   7
ENDBRANCH   2   3
ENDBRANCH   1   2
BRANCH   1  24
ATOM     24  C   UNL A   1      40.464  21.364  26.863  1.00  0.00     0.118 C 
BRANCH  24  25
ATOM     25  N   UNL A   1      39.213  21.863  26.295  1.00  0.00    -0.352 N 
ATOM     26  C   UNL A   1      38.641  23.120  26.287  1.00  0.00     0.251 C 
ATOM     27  H   UNL A   1      38.679  21.176  25.834  1.00  0.00     0.163 HD
ATOM     28  O   UNL A   1      37.516  23.267  25.837  1.00  0.00    -0.269 OA
BRANCH  26  29
ATOM     29  C   UNL A   1      39.359  24.284  26.857  1.00  0.00     0.039 A 
ATOM     30  C   UNL A   1      40.013  25.171  25.995  1.00  0.00     0.014 A 
ATOM     31  C   UNL A   1      39.387  24.514  28.231  1.00  0.00     0.014 A 
ATOM     32  C   UNL A   1      40.571  26.350  26.499  1.00  0.00     0.010 A 
ATOM     33  C   UNL A   1      39.838  25.735  28.717  1.00  0.00     0.010 A 
ATOM     34  C   UNL A   1      40.419  26.678  27.854  1.00  0.00    -0.014 A 
BRANCH  34  35
ATOM     35  C   UNL A   1      40.813  28.003  28.403  1.00  0.00     0.031 A 
ATOM     36  C   UNL A   1      42.233  28.248  28.839  1.00  0.00     0.074 A 
ATOM     37  C   UNL A   1      39.869  28.937  28.636  1.00  0.00     0.049 A 
ATOM     38  N   UNL A   1      42.728  29.250  29.522  1.00  0.00    -0.248 NA
ATOM     39  C   UNL A   1      43.219  27.209  28.499  1.00  0.00     0.031 C 
ATOM     40  C   UNL A   1      38.446  28.815  28.306  1.00  0.00     0.029 A 
ATOM     41  N   UNL A   1      39.962  30.174  29.228  1.00  0.00    -0.354 N 
ATOM     42  C   UNL A   1      44.068  28.941  29.725  1.00  0.00     0.074 A 
ATOM     43  C   UNL A   1      44.298  27.641  29.134  1.00  0.00     0.031 C 
ATOM     44  C   UNL A   1      37.808  29.938  28.675  1.00  0.00     0.029 A 
ATOM     45  C   UNL A   1      38.760  30.834  29.319  1.00  0.00     0.049 A 
ATOM     46  H   UNL A   1      40.811  30.551  29.555  1.00  0.00     0.167 HD
ATOM     47  C   UNL A   1      45.026  29.679  30.335  1.00  0.00     0.031 A 
ATOM     48  C   UNL A   1      38.451  32.019  29.879  1.00  0.00     0.031 A 
ATOM     49  C   UNL A   1      44.807  30.989  30.888  1.00  0.00     0.049 A 
ATOM     50  C   UNL A   1      39.531  32.818  30.550  1.00  0.00     0.074 A 
ATOM     51  C   UNL A   1      45.731  31.850  31.453  1.00  0.00     0.029 A 
ATOM     52  N   UNL A   1      43.578  31.627  30.939  1.00  0.00    -0.354 N 
ATOM     53  N   UNL A   1      40.803  32.534  30.688  1.00  0.00    -0.248 NA
ATOM     54  C   UNL A   1      39.130  34.100  31.149  1.00  0.00     0.031 C 
ATOM     55  C   UNL A   1      45.051  32.993  31.888  1.00  0.00     0.029 A 
ATOM     56  C   UNL A   1      43.714  32.861  31.551  1.00  0.00     0.049 A 
ATOM     57  H   UNL A   1      42.734  31.257  30.593  1.00  0.00     0.167 HD
ATOM     58  C   UNL A   1      41.357  33.606  31.373  1.00  0.00     0.074 A 
ATOM     59  C   UNL A   1      40.288  34.556  31.605  1.00  0.00     0.031 C 
ATOM     60  C   UNL A   1      42.637  33.788  31.779  1.00  0.00     0.031 A 
BRANCH  47  61
ATOM     61  C   UNL A   1      46.402  29.085  30.431  1.00  0.00    -0.014 A 
ATOM     62  C   UNL A   1      46.795  28.338  31.554  1.00  0.00     0.009 A 
ATOM     63  C   UNL A   1      47.309  29.244  29.371  1.00  0.00     0.009 A 
ATOM     64  C   UNL A   1      48.080  27.796  31.629  1.00  0.00     0.001 A 
ATOM     65  C   UNL A   1      48.583  28.676  29.437  1.00  0.00     0.001 A 
ATOM     66  C   UNL A   1      48.970  27.961  30.569  1.00  0.00     0.000 A 
ENDBRANCH  47  61
BRANCH  48  67
ATOM     67  C   UNL A   1      37.054  32.524  29.836  1.00  0.00    -0.014 A 
ATOM     68  C   UNL A   1      36.158  32.216  30.872  1.00  0.00     0.009 A 
ATOM     69  C   UNL A   1      36.604  33.307  28.761  1.00  0.00     0.009 A 
ATOM     70  C   UNL A   1      34.835  32.659  30.820  1.00  0.00     0.001 A 
ATOM     71  C   UNL A   1      35.288  33.771  28.725  1.00  0.00     0.001 A 
ATOM     72  C   UNL A   1      34.402  33.439  29.749  1.00  0.00     0.000 A 
ENDBRANCH  48  67
BRANCH  60  73
ATOM     73  C   UNL A   1      42.951  35.065  32.502  1.00  0.00    -0.014 A 
ATOM     74  C   UNL A   1      42.811  35.159  33.895  1.00  0.00     0.009 A 
ATOM     75  C   UNL A   1      43.432  36.172  31.786  1.00  0.00     0.009 A 
ATOM     76  C   UNL A   1      43.125  36.347  34.555  1.00  0.00     0.001 A 
ATOM     77  C   UNL A   1      43.769  37.351  32.453  1.00  0.00     0.001 A 
ATOM     78  C   UNL A   1      43.608  37.441  33.835  1.00  0.00     0.000 A 
ENDBRANCH  60  73
ENDBRANCH  34  35
ENDBRANCH  26  29
ENDBRANCH  24  25
ENDBRANCH   1  24
TORSDOF 11
ENDMDL
