MODEL 1
REMARK VINA RESULT:     -11.9      0.000      0.000
REMARK SMILES O=C(NCCCNC(=O)c1ccc(-c2c3nc(c(-c4ccccc4)c4ccc([nH]4)c(-c4ccccc4)c4nc(c(-c5ccccc5)c5ccc2[nH]5)C=C4)C=C3)cc1)C1=Cc2cc(Cl)cc(Cl)c2O[C@@H]1C(F)(F)F
REMARK SMILES IDX 5 1 4 2 3 3 1 4 2 5 58 7 59 8 69 9 60 10 68 11 61 12 67 13
REMARK SMILES IDX 62 14 65 15 63 16 64 17 66 18 70 19 71 20 72 21 73 22 6 23
REMARK SMILES IDX 7 24 8 25 9 27 10 28 11 29 57 30 12 31 56 32 13 33 14 34
REMARK SMILES IDX 15 35 50 36 16 37 55 38 49 39 51 40 17 41 54 42 48 43 47 44
REMARK SMILES IDX 18 46 40 47 25 48 39 49 26 50 29 51 38 52 52 53 27 54 28 55
REMARK SMILES IDX 37 57 53 58 30 59 19 60 20 61 24 62 21 63 23 64 22 65 41 66
REMARK SMILES IDX 42 67 46 68 43 69 45 70 44 71 31 72 32 73 36 74 33 75 35 76
REMARK SMILES IDX 34 77
REMARK H PARENT 3 6 7 26 51 45 29 56
REMARK Flexibility Score: inf
ROOT
ATOM      1  C   UNL A   1      31.846  28.496  26.702  1.00  0.00     0.042 C 
ENDROOT
BRANCH   1   2
ATOM      2  C   UNL A   1      31.843  27.178  25.935  1.00  0.00     0.118 C 
BRANCH   2   3
ATOM      3  N   UNL A   1      31.510  26.026  26.779  1.00  0.00    -0.352 N 
ATOM      4  O   UNL A   1      31.692  23.917  27.591  1.00  0.00    -0.270 OA
ATOM      5  C   UNL A   1      31.900  24.712  26.686  1.00  0.00     0.251 C 
ATOM      6  H   UNL A   1      30.909  26.227  27.532  1.00  0.00     0.163 HD
BRANCH   5   7
ATOM      7  C   UNL A   1      32.624  24.318  25.467  1.00  0.00     0.067 C 
ATOM      8  C   UNL A   1      33.915  24.660  25.402  1.00  0.00     0.025 C 
ATOM      9  C   UNL A   1      32.012  23.249  24.620  1.00  0.00     0.314 C 
ATOM     10  C   UNL A   1      34.788  23.553  24.996  1.00  0.00     0.020 A 
ATOM     11  O   UNL A   1      32.888  22.108  24.460  1.00  0.00    -0.474 OA
ATOM     12  C   UNL A   1      36.140  23.655  25.343  1.00  0.00     0.032 A 
ATOM     13  C   UNL A   1      34.231  22.294  24.694  1.00  0.00     0.146 A 
ATOM     14  C   UNL A   1      36.899  22.498  25.500  1.00  0.00     0.043 A 
ATOM     15  C   UNL A   1      35.022  21.144  24.829  1.00  0.00     0.085 A 
ATOM     16  Cl  UNL A   1      38.495  22.620  26.132  1.00  0.00    -0.084 Cl
ATOM     17  C   UNL A   1      36.344  21.244  25.261  1.00  0.00     0.045 A 
ATOM     18  Cl  UNL A   1      34.339  19.566  24.649  1.00  0.00    -0.080 Cl
BRANCH   9  19
ATOM     19  C   UNL A   1      31.576  23.798  23.252  1.00  0.00     0.429 C 
ATOM     20  F   UNL A   1      30.307  23.424  22.958  1.00  0.00    -0.167 F 
ATOM     21  F   UNL A   1      31.602  25.150  23.219  1.00  0.00    -0.167 F 
ATOM     22  F   UNL A   1      32.368  23.354  22.248  1.00  0.00    -0.167 F 
ENDBRANCH   9  19
ENDBRANCH   5   7
ENDBRANCH   2   3
ENDBRANCH   1   2
BRANCH   1  23
ATOM     23  C   UNL A   1      33.215  28.833  27.283  1.00  0.00     0.118 C 
BRANCH  23  24
ATOM     24  N   UNL A   1      33.359  30.215  27.724  1.00  0.00    -0.352 N 
ATOM     25  C   UNL A   1      34.451  30.877  28.257  1.00  0.00     0.251 C 
ATOM     26  H   UNL A   1      32.549  30.766  27.627  1.00  0.00     0.163 HD
ATOM     27  O   UNL A   1      34.339  32.031  28.623  1.00  0.00    -0.269 OA
BRANCH  25  28
ATOM     28  C   UNL A   1      35.744  30.167  28.430  1.00  0.00     0.039 A 
ATOM     29  C   UNL A   1      36.655  30.150  27.369  1.00  0.00     0.014 A 
ATOM     30  C   UNL A   1      36.079  29.553  29.635  1.00  0.00     0.014 A 
ATOM     31  C   UNL A   1      37.935  29.617  27.557  1.00  0.00     0.010 A 
ATOM     32  C   UNL A   1      37.387  29.143  29.860  1.00  0.00     0.010 A 
ATOM     33  C   UNL A   1      38.334  29.168  28.824  1.00  0.00    -0.014 A 
BRANCH  33  34
ATOM     34  C   UNL A   1      39.722  28.712  29.105  1.00  0.00     0.031 A 
ATOM     35  C   UNL A   1      40.710  29.658  29.740  1.00  0.00     0.074 A 
ATOM     36  C   UNL A   1      40.131  27.495  28.694  1.00  0.00     0.049 A 
ATOM     37  N   UNL A   1      41.997  29.511  29.926  1.00  0.00    -0.248 NA
ATOM     38  C   UNL A   1      40.189  30.965  30.178  1.00  0.00     0.031 C 
ATOM     39  C   UNL A   1      39.299  26.501  28.009  1.00  0.00     0.029 A 
ATOM     40  N   UNL A   1      41.360  26.888  28.784  1.00  0.00    -0.354 N 
ATOM     41  C   UNL A   1      42.442  30.718  30.452  1.00  0.00     0.074 A 
ATOM     42  C   UNL A   1      41.301  31.604  30.502  1.00  0.00     0.031 C 
ATOM     43  C   UNL A   1      40.029  25.397  27.778  1.00  0.00     0.029 A 
ATOM     44  C   UNL A   1      41.390  25.620  28.253  1.00  0.00     0.049 A 
ATOM     45  H   UNL A   1      42.145  27.320  29.189  1.00  0.00     0.167 HD
ATOM     46  C   UNL A   1      43.680  31.054  30.883  1.00  0.00     0.031 A 
ATOM     47  C   UNL A   1      42.400  24.736  28.156  1.00  0.00     0.031 A 
ATOM     48  C   UNL A   1      44.801  30.155  30.887  1.00  0.00     0.049 A 
ATOM     49  C   UNL A   1      43.756  25.113  28.686  1.00  0.00     0.074 A 
ATOM     50  C   UNL A   1      46.076  30.368  31.380  1.00  0.00     0.029 A 
ATOM     51  N   UNL A   1      44.773  28.863  30.388  1.00  0.00    -0.354 N 
ATOM     52  N   UNL A   1      44.143  26.238  29.236  1.00  0.00    -0.248 NA
ATOM     53  C   UNL A   1      44.809  24.093  28.592  1.00  0.00     0.031 C 
ATOM     54  C   UNL A   1      46.831  29.214  31.147  1.00  0.00     0.029 A 
ATOM     55  C   UNL A   1      46.012  28.268  30.552  1.00  0.00     0.049 A 
ATOM     56  H   UNL A   1      43.988  28.432  29.979  1.00  0.00     0.167 HD
ATOM     57  C   UNL A   1      45.476  26.052  29.577  1.00  0.00     0.074 A 
ATOM     58  C   UNL A   1      45.826  24.701  29.186  1.00  0.00     0.031 C 
ATOM     59  C   UNL A   1      46.336  26.922  30.161  1.00  0.00     0.031 A 
BRANCH  46  60
ATOM     60  C   UNL A   1      43.879  32.456  31.392  1.00  0.00    -0.014 A 
ATOM     61  C   UNL A   1      43.698  32.770  32.749  1.00  0.00     0.009 A 
ATOM     62  C   UNL A   1      44.263  33.474  30.506  1.00  0.00     0.009 A 
ATOM     63  C   UNL A   1      43.853  34.083  33.200  1.00  0.00     0.001 A 
ATOM     64  C   UNL A   1      44.449  34.780  30.965  1.00  0.00     0.001 A 
ATOM     65  C   UNL A   1      44.231  35.086  32.308  1.00  0.00     0.000 A 
ENDBRANCH  46  60
BRANCH  47  66
ATOM     66  C   UNL A   1      42.165  23.393  27.564  1.00  0.00    -0.014 A 
ATOM     67  C   UNL A   1      42.535  23.132  26.235  1.00  0.00     0.009 A 
ATOM     68  C   UNL A   1      41.573  22.368  28.317  1.00  0.00     0.009 A 
ATOM     69  C   UNL A   1      42.291  21.881  25.664  1.00  0.00     0.001 A 
ATOM     70  C   UNL A   1      41.355  21.109  27.752  1.00  0.00     0.001 A 
ATOM     71  C   UNL A   1      41.706  20.870  26.424  1.00  0.00     0.000 A 
ENDBRANCH  47  66
BRANCH  59  72
ATOM     72  C   UNL A   1      47.724  26.425  30.446  1.00  0.00    -0.014 A 
ATOM     73  C   UNL A   1      48.060  25.880  31.693  1.00  0.00     0.009 A 
ATOM     74  C   UNL A   1      48.694  26.463  29.432  1.00  0.00     0.009 A 
ATOM     75  C   UNL A   1      49.353  25.411  31.930  1.00  0.00     0.001 A 
ATOM     76  C   UNL A   1      49.978  25.968  29.664  1.00  0.00     0.001 A 
ATOM     77  C   UNL A   1      50.309  25.451  30.915  1.00  0.00     0.000 A 
ENDBRANCH  59  72
ENDBRANCH  33  34
ENDBRANCH  25  28
ENDBRANCH  23  24
ENDBRANCH   1  23
TORSDOF 11
ENDMDL
MODEL 2
REMARK VINA RESULT:     -11.6      2.552      6.950
REMARK SMILES O=C(NCCCNC(=O)c1ccc(-c2c3nc(c(-c4ccccc4)c4ccc([nH]4)c(-c4ccccc4)c4nc(c(-c5ccccc5)c5ccc2[nH]5)C=C4)C=C3)cc1)C1=Cc2cc(Cl)cc(Cl)c2O[C@@H]1C(F)(F)F
REMARK SMILES IDX 5 1 4 2 3 3 1 4 2 5 58 7 59 8 69 9 60 10 68 11 61 12 67 13
REMARK SMILES IDX 62 14 65 15 63 16 64 17 66 18 70 19 71 20 72 21 73 22 6 23
REMARK SMILES IDX 7 24 8 25 9 27 10 28 11 29 57 30 12 31 56 32 13 33 14 34
REMARK SMILES IDX 15 35 50 36 16 37 55 38 49 39 51 40 17 41 54 42 48 43 47 44
REMARK SMILES IDX 18 46 40 47 25 48 39 49 26 50 29 51 38 52 52 53 27 54 28 55
REMARK SMILES IDX 37 57 53 58 30 59 19 60 20 61 24 62 21 63 23 64 22 65 41 66
REMARK SMILES IDX 42 67 46 68 43 69 45 70 44 71 31 72 32 73 36 74 33 75 35 76
REMARK SMILES IDX 34 77
REMARK H PARENT 3 6 7 26 51 45 29 56
REMARK Flexibility Score: inf
ROOT
ATOM      1  C   UNL A   1      31.794  30.103  26.878  1.00  0.00     0.042 C 
ENDROOT
BRANCH   1   2
ATOM      2  C   UNL A   1      32.272  28.807  27.522  1.00  0.00     0.118 C 
BRANCH   2   3
ATOM      3  N   UNL A   1      31.385  27.671  27.250  1.00  0.00    -0.352 N 
ATOM      4  O   UNL A   1      30.810  25.612  26.496  1.00  0.00    -0.270 OA
ATOM      5  C   UNL A   1      31.571  26.567  26.454  1.00  0.00     0.251 C 
ATOM      6  H   UNL A   1      30.517  27.706  27.712  1.00  0.00     0.163 HD
BRANCH   5   7
ATOM      7  C   UNL A   1      32.758  26.566  25.583  1.00  0.00     0.067 C 
ATOM      8  C   UNL A   1      33.850  25.962  26.063  1.00  0.00     0.025 C 
ATOM      9  C   UNL A   1      32.545  26.852  24.131  1.00  0.00     0.314 C 
ATOM     10  C   UNL A   1      34.466  25.036  25.106  1.00  0.00     0.020 A 
ATOM     11  O   UNL A   1      33.003  25.770  23.287  1.00  0.00    -0.474 OA
ATOM     12  C   UNL A   1      35.289  24.036  25.636  1.00  0.00     0.032 A 
ATOM     13  C   UNL A   1      33.911  24.883  23.819  1.00  0.00     0.146 A 
ATOM     14  C   UNL A   1      35.462  22.845  24.937  1.00  0.00     0.043 A 
ATOM     15  C   UNL A   1      34.123  23.687  23.119  1.00  0.00     0.085 A 
ATOM     16  Cl  UNL A   1      36.298  21.543  25.689  1.00  0.00    -0.084 Cl
ATOM     17  C   UNL A   1      34.872  22.658  23.690  1.00  0.00     0.045 A 
ATOM     18  Cl  UNL A   1      33.316  23.377  21.622  1.00  0.00    -0.080 Cl
BRANCH   9  19
ATOM     19  C   UNL A   1      33.199  28.181  23.719  1.00  0.00     0.429 C 
ATOM     20  F   UNL A   1      32.262  29.127  23.464  1.00  0.00    -0.167 F 
ATOM     21  F   UNL A   1      33.997  28.674  24.693  1.00  0.00    -0.167 F 
ATOM     22  F   UNL A   1      33.955  28.053  22.603  1.00  0.00    -0.167 F 
ENDBRANCH   9  19
ENDBRANCH   5   7
ENDBRANCH   2   3
ENDBRANCH   1   2
BRANCH   1  23
ATOM     23  C   UNL A   1      32.868  31.184  26.867  1.00  0.00     0.118 C 
BRANCH  23  24
ATOM     24  N   UNL A   1      32.395  32.508  27.255  1.00  0.00    -0.352 N 
ATOM     25  C   UNL A   1      32.994  33.481  28.035  1.00  0.00     0.251 C 
ATOM     26  H   UNL A   1      31.506  32.747  26.906  1.00  0.00     0.163 HD
ATOM     27  O   UNL A   1      32.392  34.506  28.292  1.00  0.00    -0.269 OA
BRANCH  25  28
ATOM     28  C   UNL A   1      34.349  33.257  28.601  1.00  0.00     0.039 A 
ATOM     29  C   UNL A   1      34.470  32.600  29.830  1.00  0.00     0.014 A 
ATOM     30  C   UNL A   1      35.496  33.653  27.917  1.00  0.00     0.014 A 
ATOM     31  C   UNL A   1      35.735  32.246  30.310  1.00  0.00     0.010 A 
ATOM     32  C   UNL A   1      36.739  33.190  28.328  1.00  0.00     0.010 A 
ATOM     33  C   UNL A   1      36.878  32.482  29.531  1.00  0.00    -0.014 A 
BRANCH  33  34
ATOM     34  C   UNL A   1      38.229  32.010  29.940  1.00  0.00     0.031 A 
ATOM     35  C   UNL A   1      38.762  30.704  29.408  1.00  0.00     0.074 A 
ATOM     36  C   UNL A   1      38.930  32.691  30.868  1.00  0.00     0.049 A 
ATOM     37  N   UNL A   1      39.839  30.046  29.754  1.00  0.00    -0.248 NA
ATOM     38  C   UNL A   1      37.949  30.023  28.386  1.00  0.00     0.031 C 
ATOM     39  C   UNL A   1      38.507  33.937  31.515  1.00  0.00     0.029 A 
ATOM     40  N   UNL A   1      40.151  32.424  31.439  1.00  0.00    -0.354 N 
ATOM     41  C   UNL A   1      39.802  28.859  29.033  1.00  0.00     0.074 A 
ATOM     42  C   UNL A   1      38.572  28.861  28.275  1.00  0.00     0.031 C 
ATOM     43  C   UNL A   1      39.467  34.344  32.362  1.00  0.00     0.029 A 
ATOM     44  C   UNL A   1      40.551  33.368  32.354  1.00  0.00     0.049 A 
ATOM     45  H   UNL A   1      40.688  31.631  31.214  1.00  0.00     0.167 HD
ATOM     46  C   UNL A   1      40.721  27.865  28.980  1.00  0.00     0.031 A 
ATOM     47  C   UNL A   1      41.666  33.440  33.106  1.00  0.00     0.031 A 
ATOM     48  C   UNL A   1      41.971  27.889  29.689  1.00  0.00     0.049 A 
ATOM     49  C   UNL A   1      42.695  32.350  32.995  1.00  0.00     0.074 A 
ATOM     50  C   UNL A   1      43.008  26.974  29.640  1.00  0.00     0.029 A 
ATOM     51  N   UNL A   1      42.358  28.890  30.565  1.00  0.00    -0.354 N 
ATOM     52  N   UNL A   1      42.672  31.265  32.261  1.00  0.00    -0.248 NA
ATOM     53  C   UNL A   1      43.910  32.504  33.808  1.00  0.00     0.031 C 
ATOM     54  C   UNL A   1      44.011  27.406  30.514  1.00  0.00     0.029 A 
ATOM     55  C   UNL A   1      43.616  28.612  31.071  1.00  0.00     0.049 A 
ATOM     56  H   UNL A   1      41.819  29.682  30.793  1.00  0.00     0.167 HD
ATOM     57  C   UNL A   1      43.877  30.619  32.503  1.00  0.00     0.074 A 
ATOM     58  C   UNL A   1      44.614  31.443  33.439  1.00  0.00     0.031 C 
ATOM     59  C   UNL A   1      44.333  29.447  31.997  1.00  0.00     0.031 A 
BRANCH  46  60
ATOM     60  C   UNL A   1      40.403  26.674  28.118  1.00  0.00    -0.014 A 
ATOM     61  C   UNL A   1      40.896  26.573  26.807  1.00  0.00     0.009 A 
ATOM     62  C   UNL A   1      39.612  25.633  28.627  1.00  0.00     0.009 A 
ATOM     63  C   UNL A   1      40.564  25.477  26.007  1.00  0.00     0.001 A 
ATOM     64  C   UNL A   1      39.308  24.523  27.836  1.00  0.00     0.001 A 
ATOM     65  C   UNL A   1      39.773  24.452  26.524  1.00  0.00     0.000 A 
ENDBRANCH  46  60
BRANCH  47  66
ATOM     66  C   UNL A   1      41.886  34.602  34.007  1.00  0.00    -0.014 A 
ATOM     67  C   UNL A   1      41.486  34.540  35.351  1.00  0.00     0.009 A 
ATOM     68  C   UNL A   1      42.495  35.774  33.535  1.00  0.00     0.009 A 
ATOM     69  C   UNL A   1      41.665  35.638  36.195  1.00  0.00     0.001 A 
ATOM     70  C   UNL A   1      42.698  36.861  34.388  1.00  0.00     0.001 A 
ATOM     71  C   UNL A   1      42.274  36.796  35.715  1.00  0.00     0.000 A 
ENDBRANCH  47  66
BRANCH  59  72
ATOM     72  C   UNL A   1      45.707  29.009  32.416  1.00  0.00    -0.014 A 
ATOM     73  C   UNL A   1      45.897  28.179  33.531  1.00  0.00     0.009 A 
ATOM     74  C   UNL A   1      46.820  29.397  31.655  1.00  0.00     0.009 A 
ATOM     75  C   UNL A   1      47.182  27.771  33.893  1.00  0.00     0.001 A 
ATOM     76  C   UNL A   1      48.100  28.966  32.004  1.00  0.00     0.001 A 
ATOM     77  C   UNL A   1      48.280  28.161  33.128  1.00  0.00     0.000 A 
ENDBRANCH  59  72
ENDBRANCH  33  34
ENDBRANCH  25  28
ENDBRANCH  23  24
ENDBRANCH   1  23
TORSDOF 11
ENDMDL
MODEL 3
REMARK VINA RESULT:     -11.6      2.593      7.463
REMARK SMILES O=C(NCCCNC(=O)c1ccc(-c2c3nc(c(-c4ccccc4)c4ccc([nH]4)c(-c4ccccc4)c4nc(c(-c5ccccc5)c5ccc2[nH]5)C=C4)C=C3)cc1)C1=Cc2cc(Cl)cc(Cl)c2O[C@@H]1C(F)(F)F
REMARK SMILES IDX 5 1 4 2 3 3 1 4 2 5 58 7 59 8 69 9 60 10 68 11 61 12 67 13
REMARK SMILES IDX 62 14 65 15 63 16 64 17 66 18 70 19 71 20 72 21 73 22 6 23
REMARK SMILES IDX 7 24 8 25 9 27 10 28 11 29 57 30 12 31 56 32 13 33 14 34
REMARK SMILES IDX 15 35 50 36 16 37 55 38 49 39 51 40 17 41 54 42 48 43 47 44
REMARK SMILES IDX 18 46 40 47 25 48 39 49 26 50 29 51 38 52 52 53 27 54 28 55
REMARK SMILES IDX 37 57 53 58 30 59 19 60 20 61 24 62 21 63 23 64 22 65 41 66
REMARK SMILES IDX 42 67 46 68 43 69 45 70 44 71 31 72 32 73 36 74 33 75 35 76
REMARK SMILES IDX 34 77
REMARK H PARENT 3 6 7 26 51 45 29 56
REMARK Flexibility Score: inf
ROOT
ATOM      1  C   UNL A   1      37.403  20.284  24.946  1.00  0.00     0.042 C 
ENDROOT
BRANCH   1   2
ATOM      2  C   UNL A   1      36.213  21.148  25.345  1.00  0.00     0.118 C 
BRANCH   2   3
ATOM      3  N   UNL A   1      35.434  21.616  24.194  1.00  0.00    -0.352 N 
ATOM      4  O   UNL A   1      34.148  23.045  22.991  1.00  0.00    -0.270 OA
ATOM      5  C   UNL A   1      34.561  22.671  24.079  1.00  0.00     0.251 C 
ATOM      6  H   UNL A   1      35.555  21.089  23.372  1.00  0.00     0.163 HD
BRANCH   5   7
ATOM      7  C   UNL A   1      34.184  23.362  25.322  1.00  0.00     0.067 C 
ATOM      8  C   UNL A   1      34.651  24.605  25.480  1.00  0.00     0.025 C 
ATOM      9  C   UNL A   1      33.021  22.815  26.087  1.00  0.00     0.314 C 
ATOM     10  C   UNL A   1      33.619  25.563  25.893  1.00  0.00     0.020 A 
ATOM     11  O   UNL A   1      31.967  23.794  26.253  1.00  0.00    -0.474 OA
ATOM     12  C   UNL A   1      33.871  26.914  25.633  1.00  0.00     0.032 A 
ATOM     13  C   UNL A   1      32.298  25.121  26.109  1.00  0.00     0.146 A 
ATOM     14  C   UNL A   1      32.805  27.796  25.476  1.00  0.00     0.043 A 
ATOM     15  C   UNL A   1      31.240  26.033  25.976  1.00  0.00     0.085 A 
ATOM     16  Cl  UNL A   1      33.115  29.403  24.948  1.00  0.00    -0.084 Cl
ATOM     17  C   UNL A   1      31.492  27.360  25.630  1.00  0.00     0.045 A 
ATOM     18  Cl  UNL A   1      29.595  25.505  26.049  1.00  0.00    -0.080 Cl
BRANCH   9  19
ATOM     19  C   UNL A   1      33.460  22.248  27.447  1.00  0.00     0.429 C 
ATOM     20  F   UNL A   1      32.489  22.408  28.378  1.00  0.00    -0.167 F 
ATOM     21  F   UNL A   1      33.724  20.923  27.380  1.00  0.00    -0.167 F 
ATOM     22  F   UNL A   1      34.573  22.859  27.918  1.00  0.00    -0.167 F 
ENDBRANCH   9  19
ENDBRANCH   5   7
ENDBRANCH   2   3
ENDBRANCH   1   2
BRANCH   1  23
ATOM     23  C   UNL A   1      38.680  20.666  25.686  1.00  0.00     0.118 C 
BRANCH  23  24
ATOM     24  N   UNL A   1      39.723  19.648  25.655  1.00  0.00    -0.352 N 
ATOM     25  C   UNL A   1      41.057  19.719  26.016  1.00  0.00     0.251 C 
ATOM     26  H   UNL A   1      39.431  18.768  25.322  1.00  0.00     0.163 HD
ATOM     27  O   UNL A   1      41.781  18.756  25.849  1.00  0.00    -0.269 OA
BRANCH  25  28
ATOM     28  C   UNL A   1      41.618  20.982  26.560  1.00  0.00     0.039 A 
ATOM     29  C   UNL A   1      42.132  21.932  25.672  1.00  0.00     0.014 A 
ATOM     30  C   UNL A   1      41.608  21.252  27.927  1.00  0.00     0.014 A 
ATOM     31  C   UNL A   1      42.529  23.187  26.146  1.00  0.00     0.010 A 
ATOM     32  C   UNL A   1      41.879  22.537  28.378  1.00  0.00     0.010 A 
ATOM     33  C   UNL A   1      42.345  23.523  27.496  1.00  0.00    -0.014 A 
BRANCH  33  34
ATOM     34  C   UNL A   1      42.631  24.885  28.022  1.00  0.00     0.031 A 
ATOM     35  C   UNL A   1      44.028  25.242  28.463  1.00  0.00     0.074 A 
ATOM     36  C   UNL A   1      41.626  25.764  28.207  1.00  0.00     0.049 A 
ATOM     37  N   UNL A   1      44.453  26.312  29.086  1.00  0.00    -0.248 NA
ATOM     38  C   UNL A   1      45.078  24.239  28.215  1.00  0.00     0.031 C 
ATOM     39  C   UNL A   1      40.215  25.529  27.884  1.00  0.00     0.029 A 
ATOM     40  N   UNL A   1      41.636  27.036  28.726  1.00  0.00    -0.354 N 
ATOM     41  C   UNL A   1      45.799  26.086  29.347  1.00  0.00     0.074 A 
ATOM     42  C   UNL A   1      46.107  24.758  28.867  1.00  0.00     0.031 C 
ATOM     43  C   UNL A   1      39.506  26.632  28.174  1.00  0.00     0.029 A 
ATOM     44  C   UNL A   1      40.398  27.633  28.746  1.00  0.00     0.049 A 
ATOM     45  H   UNL A   1      42.452  27.477  29.052  1.00  0.00     0.167 HD
ATOM     46  C   UNL A   1      46.709  26.916  29.909  1.00  0.00     0.031 A 
ATOM     47  C   UNL A   1      40.021  28.851  29.180  1.00  0.00     0.031 A 
ATOM     48  C   UNL A   1      46.417  28.258  30.334  1.00  0.00     0.049 A 
ATOM     49  C   UNL A   1      41.058  29.775  29.756  1.00  0.00     0.074 A 
ATOM     50  C   UNL A   1      47.284  29.211  30.837  1.00  0.00     0.029 A 
ATOM     51  N   UNL A   1      45.161  28.841  30.289  1.00  0.00    -0.354 N 
ATOM     52  N   UNL A   1      42.339  29.568  29.939  1.00  0.00    -0.248 NA
ATOM     53  C   UNL A   1      40.596  31.107  30.174  1.00  0.00     0.031 C 
ATOM     54  C   UNL A   1      46.544  30.362  31.129  1.00  0.00     0.029 A 
ATOM     55  C   UNL A   1      45.227  30.138  30.764  1.00  0.00     0.049 A 
ATOM     56  H   UNL A   1      44.343  28.397  29.965  1.00  0.00     0.167 HD
ATOM     57  C   UNL A   1      42.842  30.749  30.467  1.00  0.00     0.074 A 
ATOM     58  C   UNL A   1      41.730  31.674  30.561  1.00  0.00     0.031 C 
ATOM     59  C   UNL A   1      44.110  31.043  30.844  1.00  0.00     0.031 A 
BRANCH  46  60
ATOM     60  C   UNL A   1      48.107  26.392  30.087  1.00  0.00    -0.014 A 
ATOM     61  C   UNL A   1      48.505  25.768  31.280  1.00  0.00     0.009 A 
ATOM     62  C   UNL A   1      49.037  26.511  29.042  1.00  0.00     0.009 A 
ATOM     63  C   UNL A   1      49.817  25.318  31.443  1.00  0.00     0.001 A 
ATOM     64  C   UNL A   1      50.339  26.030  29.194  1.00  0.00     0.001 A 
ATOM     65  C   UNL A   1      50.732  25.446  30.398  1.00  0.00     0.000 A 
ENDBRANCH  46  60
BRANCH  47  66
ATOM     66  C   UNL A   1      38.604  29.284  29.058  1.00  0.00    -0.014 A 
ATOM     67  C   UNL A   1      38.118  29.773  27.836  1.00  0.00     0.009 A 
ATOM     68  C   UNL A   1      37.733  29.212  30.154  1.00  0.00     0.009 A 
ATOM     69  C   UNL A   1      36.795  30.207  27.721  1.00  0.00     0.001 A 
ATOM     70  C   UNL A   1      36.402  29.621  30.031  1.00  0.00     0.001 A 
ATOM     71  C   UNL A   1      35.938  30.127  28.817  1.00  0.00     0.000 A 
ENDBRANCH  47  66
BRANCH  59  72
ATOM     72  C   UNL A   1      44.369  32.431  31.354  1.00  0.00    -0.014 A 
ATOM     73  C   UNL A   1      44.692  33.479  30.480  1.00  0.00     0.009 A 
ATOM     74  C   UNL A   1      44.240  32.699  32.725  1.00  0.00     0.009 A 
ATOM     75  C   UNL A   1      44.913  34.765  30.975  1.00  0.00     0.001 A 
ATOM     76  C   UNL A   1      44.435  33.992  33.214  1.00  0.00     0.001 A 
ATOM     77  C   UNL A   1      44.780  35.021  32.340  1.00  0.00     0.000 A 
ENDBRANCH  59  72
ENDBRANCH  33  34
ENDBRANCH  25  28
ENDBRANCH  23  24
ENDBRANCH   1  23
TORSDOF 11
ENDMDL
