MODEL 1
REMARK VINA RESULT:     -11.7      0.000      0.000
REMARK SMILES O=C(NCCCNC(=O)[C@@H]1CCC[N@@H+](Cc2cccc3ccccc23)C1)c1ccc(-c2c3nc(c(-c4ccccc4)c4ccc([nH]4)c(-c4ccccc4)c4nc(c(-c5ccccc5)c5ccc2[nH]5)C=C4)C=C3)cc1
REMARK SMILES IDX 5 1 4 2 3 3 1 4 2 5 27 7 28 8 74 9 29 10 73 11 30 12 31 13
REMARK SMILES IDX 32 14 67 15 33 16 72 17 66 18 68 19 34 20 71 21 65 22 64 23
REMARK SMILES IDX 35 25 57 26 42 27 56 28 43 29 46 30 55 31 69 32 44 33 45 34
REMARK SMILES IDX 54 36 70 37 47 38 36 39 37 40 41 41 38 42 40 43 39 44 58 45
REMARK SMILES IDX 59 46 63 47 60 48 62 49 61 50 48 51 49 52 53 53 50 54 52 55
REMARK SMILES IDX 51 56 6 57 7 58 8 59 9 61 10 62 11 63 26 64 12 65 14 66
REMARK SMILES IDX 13 67 15 69 16 70 17 71 25 72 18 73 20 74 24 75 19 76 21 77
REMARK SMILES IDX 23 78 22 79
REMARK H PARENT 3 6 68 24 46 35 7 60 14 68
REMARK Flexibility Score: inf
ROOT
ATOM      1  C   UNL A   1      37.772  19.600  24.701  1.00  0.00     0.042 C 
ENDROOT
BRANCH   1   2
ATOM      2  C   UNL A   1      38.812  20.104  25.686  1.00  0.00     0.118 C 
BRANCH   2   3
ATOM      3  N   UNL A   1      39.976  19.237  25.751  1.00  0.00    -0.352 N 
ATOM      4  O   UNL A   1      42.174  18.745  25.834  1.00  0.00    -0.269 OA
ATOM      5  C   UNL A   1      41.281  19.556  26.041  1.00  0.00     0.251 C 
ATOM      6  H   UNL A   1      39.807  18.286  25.559  1.00  0.00     0.163 HD
BRANCH   5   7
ATOM      7  C   UNL A   1      41.603  20.891  26.595  1.00  0.00     0.039 A 
ATOM      8  C   UNL A   1      41.559  21.111  27.972  1.00  0.00     0.014 A 
ATOM      9  C   UNL A   1      41.973  21.927  25.733  1.00  0.00     0.014 A 
ATOM     10  C   UNL A   1      41.725  22.394  28.472  1.00  0.00     0.010 A 
ATOM     11  C   UNL A   1      42.263  23.194  26.252  1.00  0.00     0.010 A 
ATOM     12  C   UNL A   1      42.123  23.442  27.625  1.00  0.00    -0.014 A 
BRANCH  12  13
ATOM     13  C   UNL A   1      42.489  24.740  28.243  1.00  0.00     0.031 A 
ATOM     14  C   UNL A   1      43.907  25.074  28.609  1.00  0.00     0.074 A 
ATOM     15  C   UNL A   1      41.511  25.653  28.409  1.00  0.00     0.049 A 
ATOM     16  N   UNL A   1      44.386  26.200  29.075  1.00  0.00    -0.248 NA
ATOM     17  C   UNL A   1      44.914  24.017  28.439  1.00  0.00     0.031 C 
ATOM     18  C   UNL A   1      40.092  25.432  28.106  1.00  0.00     0.029 A 
ATOM     19  N   UNL A   1      41.557  26.957  28.828  1.00  0.00    -0.354 N 
ATOM     20  C   UNL A   1      45.746  25.987  29.261  1.00  0.00     0.074 A 
ATOM     21  C   UNL A   1      46.011  24.614  28.890  1.00  0.00     0.031 C 
ATOM     22  C   UNL A   1      39.420  26.578  28.274  1.00  0.00     0.029 A 
ATOM     23  C   UNL A   1      40.338  27.591  28.774  1.00  0.00     0.049 A 
ATOM     24  H   UNL A   1      42.382  27.396  29.138  1.00  0.00     0.167 HD
ATOM     25  C   UNL A   1      46.686  26.861  29.696  1.00  0.00     0.031 A 
ATOM     26  C   UNL A   1      39.990  28.847  29.104  1.00  0.00     0.031 A 
ATOM     27  C   UNL A   1      46.412  28.224  30.078  1.00  0.00     0.049 A 
ATOM     28  C   UNL A   1      41.049  29.779  29.608  1.00  0.00     0.074 A 
ATOM     29  C   UNL A   1      47.298  29.188  30.529  1.00  0.00     0.029 A 
ATOM     30  N   UNL A   1      45.159  28.816  30.056  1.00  0.00    -0.354 N 
ATOM     31  N   UNL A   1      42.335  29.566  29.753  1.00  0.00    -0.248 NA
ATOM     32  C   UNL A   1      40.609  31.126  29.993  1.00  0.00     0.031 C 
ATOM     33  C   UNL A   1      46.572  30.347  30.827  1.00  0.00     0.029 A 
ATOM     34  C   UNL A   1      45.244  30.125  30.503  1.00  0.00     0.049 A 
ATOM     35  H   UNL A   1      44.330  28.371  29.766  1.00  0.00     0.167 HD
ATOM     36  C   UNL A   1      42.859  30.754  30.239  1.00  0.00     0.074 A 
ATOM     37  C   UNL A   1      41.760  31.694  30.324  1.00  0.00     0.031 C 
ATOM     38  C   UNL A   1      44.135  31.039  30.595  1.00  0.00     0.031 A 
BRANCH  25  39
ATOM     39  C   UNL A   1      48.105  26.369  29.801  1.00  0.00    -0.014 A 
ATOM     40  C   UNL A   1      49.001  26.500  28.727  1.00  0.00     0.009 A 
ATOM     41  C   UNL A   1      48.571  25.827  31.009  1.00  0.00     0.009 A 
ATOM     42  C   UNL A   1      50.326  26.078  28.856  1.00  0.00     0.001 A 
ATOM     43  C   UNL A   1      49.903  25.431  31.143  1.00  0.00     0.001 A 
ATOM     44  C   UNL A   1      50.778  25.550  30.064  1.00  0.00     0.000 A 
ENDBRANCH  25  39
BRANCH  26  45
ATOM     45  C   UNL A   1      38.570  29.276  29.004  1.00  0.00    -0.014 A 
ATOM     46  C   UNL A   1      37.718  29.222  30.117  1.00  0.00     0.009 A 
ATOM     47  C   UNL A   1      38.058  29.738  27.781  1.00  0.00     0.009 A 
ATOM     48  C   UNL A   1      36.376  29.591  29.998  1.00  0.00     0.001 A 
ATOM     49  C   UNL A   1      36.727  30.142  27.673  1.00  0.00     0.001 A 
ATOM     50  C   UNL A   1      35.884  30.055  28.779  1.00  0.00     0.000 A 
ENDBRANCH  26  45
BRANCH  38  51
ATOM     51  C   UNL A   1      44.398  32.434  31.090  1.00  0.00    -0.014 A 
ATOM     52  C   UNL A   1      44.734  33.470  30.203  1.00  0.00     0.009 A 
ATOM     53  C   UNL A   1      44.317  32.713  32.463  1.00  0.00     0.009 A 
ATOM     54  C   UNL A   1      45.032  34.744  30.686  1.00  0.00     0.001 A 
ATOM     55  C   UNL A   1      44.581  33.996  32.940  1.00  0.00     0.001 A 
ATOM     56  C   UNL A   1      44.952  35.007  32.054  1.00  0.00     0.000 A 
ENDBRANCH  38  51
ENDBRANCH  12  13
ENDBRANCH   5   7
ENDBRANCH   2   3
ENDBRANCH   1   2
BRANCH   1  57
ATOM     57  C   UNL A   1      36.361  20.087  25.010  1.00  0.00     0.117 C 
BRANCH  57  58
ATOM     58  N   UNL A   1      36.387  21.362  25.697  1.00  0.00    -0.356 N 
ATOM     59  C   UNL A   1      35.500  22.393  25.702  1.00  0.00     0.228 C 
ATOM     60  H   UNL A   1      37.184  21.506  26.256  1.00  0.00     0.163 HD
ATOM     61  O   UNL A   1      35.819  23.367  26.387  1.00  0.00    -0.275 OA
BRANCH  59  62
ATOM     62  C   UNL A   1      34.139  22.269  25.007  1.00  0.00     0.133 C 
ATOM     63  C   UNL A   1      34.071  22.542  23.503  1.00  0.00     0.025 C 
ATOM     64  C   UNL A   1      33.103  23.184  25.687  1.00  0.00     0.276 C 
ATOM     65  C   UNL A   1      34.318  24.015  23.203  1.00  0.00     0.062 C 
ATOM     66  N   UNL A   1      33.244  24.610  25.350  1.00  0.00    -0.331 N 
ATOM     67  C   UNL A   1      33.277  24.880  23.913  1.00  0.00     0.262 C 
ATOM     68  H   UNL A   1      34.173  24.867  25.685  1.00  0.00     0.348 HD
BRANCH  66  69
ATOM     69  C   UNL A   1      32.301  25.478  26.086  1.00  0.00     0.299 C 
BRANCH  69  70
ATOM     70  C   UNL A   1      32.338  26.959  25.723  1.00  0.00     0.014 A 
ATOM     71  C   UNL A   1      33.383  27.735  26.261  1.00  0.00     0.010 A 
ATOM     72  C   UNL A   1      31.349  27.593  24.911  1.00  0.00    -0.010 A 
ATOM     73  C   UNL A   1      33.408  29.115  26.122  1.00  0.00     0.001 A 
ATOM     74  C   UNL A   1      31.408  29.004  24.753  1.00  0.00    -0.018 A 
ATOM     75  C   UNL A   1      30.309  26.914  24.231  1.00  0.00     0.009 A 
ATOM     76  C   UNL A   1      32.414  29.745  25.386  1.00  0.00     0.009 A 
ATOM     77  C   UNL A   1      30.464  29.670  23.955  1.00  0.00     0.009 A 
ATOM     78  C   UNL A   1      29.390  27.589  23.419  1.00  0.00     0.001 A 
ATOM     79  C   UNL A   1      29.468  28.968  23.283  1.00  0.00     0.001 A 
ENDBRANCH  69  70
ENDBRANCH  66  69
ENDBRANCH  59  62
ENDBRANCH  57  58
ENDBRANCH   1  57
TORSDOF 12
ENDMDL
MODEL 2
REMARK VINA RESULT:     -11.7      3.190      8.896
REMARK SMILES O=C(NCCCNC(=O)[C@@H]1CCC[N@@H+](Cc2cccc3ccccc23)C1)c1ccc(-c2c3nc(c(-c4ccccc4)c4ccc([nH]4)c(-c4ccccc4)c4nc(c(-c5ccccc5)c5ccc2[nH]5)C=C4)C=C3)cc1
REMARK SMILES IDX 5 1 4 2 3 3 1 4 2 5 27 7 28 8 74 9 29 10 73 11 30 12 31 13
REMARK SMILES IDX 32 14 67 15 33 16 72 17 66 18 68 19 34 20 71 21 65 22 64 23
REMARK SMILES IDX 35 25 57 26 42 27 56 28 43 29 46 30 55 31 69 32 44 33 45 34
REMARK SMILES IDX 54 36 70 37 47 38 36 39 37 40 41 41 38 42 40 43 39 44 58 45
REMARK SMILES IDX 59 46 63 47 60 48 62 49 61 50 48 51 49 52 53 53 50 54 52 55
REMARK SMILES IDX 51 56 6 57 7 58 8 59 9 61 10 62 11 63 26 64 12 65 14 66
REMARK SMILES IDX 13 67 15 69 16 70 17 71 25 72 18 73 20 74 24 75 19 76 21 77
REMARK SMILES IDX 23 78 22 79
REMARK H PARENT 3 6 68 24 46 35 7 60 14 68
REMARK Flexibility Score: inf
ROOT
ATOM      1  C   UNL A   1      31.107  31.759  26.520  1.00  0.00     0.042 C 
ENDROOT
BRANCH   1   2
ATOM      2  C   UNL A   1      32.441  32.332  26.964  1.00  0.00     0.118 C 
BRANCH   2   3
ATOM      3  N   UNL A   1      32.314  33.676  27.500  1.00  0.00    -0.352 N 
ATOM      4  O   UNL A   1      32.719  35.368  28.934  1.00  0.00    -0.269 OA
ATOM      5  C   UNL A   1      33.097  34.318  28.430  1.00  0.00     0.251 C 
ATOM      6  H   UNL A   1      31.560  34.203  27.148  1.00  0.00     0.163 HD
BRANCH   5   7
ATOM      7  C   UNL A   1      34.394  33.727  28.829  1.00  0.00     0.039 A 
ATOM      8  C   UNL A   1      35.554  34.029  28.115  1.00  0.00     0.014 A 
ATOM      9  C   UNL A   1      34.457  32.881  29.939  1.00  0.00     0.014 A 
ATOM     10  C   UNL A   1      36.736  33.365  28.407  1.00  0.00     0.010 A 
ATOM     11  C   UNL A   1      35.679  32.308  30.310  1.00  0.00     0.010 A 
ATOM     12  C   UNL A   1      36.826  32.532  29.534  1.00  0.00    -0.014 A 
BRANCH  12  13
ATOM     13  C   UNL A   1      38.163  32.016  29.918  1.00  0.00     0.031 A 
ATOM     14  C   UNL A   1      39.036  32.733  30.907  1.00  0.00     0.074 A 
ATOM     15  C   UNL A   1      38.551  30.832  29.401  1.00  0.00     0.049 A 
ATOM     16  N   UNL A   1      40.189  32.356  31.402  1.00  0.00    -0.248 NA
ATOM     17  C   UNL A   1      38.569  34.037  31.399  1.00  0.00     0.031 C 
ATOM     18  C   UNL A   1      37.790  30.054  28.416  1.00  0.00     0.029 A 
ATOM     19  N   UNL A   1      39.649  30.054  29.655  1.00  0.00    -0.354 N 
ATOM     20  C   UNL A   1      40.589  33.376  32.256  1.00  0.00     0.074 A 
ATOM     21  C   UNL A   1      39.572  34.403  32.188  1.00  0.00     0.031 C 
ATOM     22  C   UNL A   1      38.404  28.882  28.210  1.00  0.00     0.029 A 
ATOM     23  C   UNL A   1      39.639  28.857  28.980  1.00  0.00     0.049 A 
ATOM     24  H   UNL A   1      40.376  30.327  30.260  1.00  0.00     0.167 HD
ATOM     25  C   UNL A   1      41.699  33.442  33.031  1.00  0.00     0.031 A 
ATOM     26  C   UNL A   1      40.531  27.851  28.967  1.00  0.00     0.031 A 
ATOM     27  C   UNL A   1      42.715  32.421  33.083  1.00  0.00     0.049 A 
ATOM     28  C   UNL A   1      41.762  27.970  29.814  1.00  0.00     0.074 A 
ATOM     29  C   UNL A   1      43.874  32.395  33.839  1.00  0.00     0.029 A 
ATOM     30  N   UNL A   1      42.693  31.244  32.349  1.00  0.00    -0.354 N 
ATOM     31  N   UNL A   1      42.108  28.932  30.635  1.00  0.00    -0.248 NA
ATOM     32  C   UNL A   1      42.723  26.864  29.733  1.00  0.00     0.031 C 
ATOM     33  C   UNL A   1      44.578  31.228  33.524  1.00  0.00     0.029 A 
ATOM     34  C   UNL A   1      43.827  30.496  32.619  1.00  0.00     0.049 A 
ATOM     35  H   UNL A   1      41.977  30.981  31.727  1.00  0.00     0.167 HD
ATOM     36  C   UNL A   1      43.325  28.543  31.174  1.00  0.00     0.074 A 
ATOM     37  C   UNL A   1      43.633  27.241  30.618  1.00  0.00     0.031 C 
ATOM     38  C   UNL A   1      44.124  29.209  32.043  1.00  0.00     0.031 A 
BRANCH  25  39
ATOM     39  C   UNL A   1      41.888  34.672  33.878  1.00  0.00    -0.014 A 
ATOM     40  C   UNL A   1      42.574  35.794  33.388  1.00  0.00     0.009 A 
ATOM     41  C   UNL A   1      41.317  34.734  35.160  1.00  0.00     0.009 A 
ATOM     42  C   UNL A   1      42.704  36.943  34.171  1.00  0.00     0.001 A 
ATOM     43  C   UNL A   1      41.426  35.893  35.930  1.00  0.00     0.001 A 
ATOM     44  C   UNL A   1      42.124  36.994  35.438  1.00  0.00     0.000 A 
ENDBRANCH  25  39
BRANCH  26  45
ATOM     45  C   UNL A   1      40.307  26.670  28.094  1.00  0.00    -0.014 A 
ATOM     46  C   UNL A   1      40.827  26.623  26.792  1.00  0.00     0.009 A 
ATOM     47  C   UNL A   1      39.560  25.577  28.564  1.00  0.00     0.009 A 
ATOM     48  C   UNL A   1      40.575  25.523  25.970  1.00  0.00     0.001 A 
ATOM     49  C   UNL A   1      39.342  24.463  27.754  1.00  0.00     0.001 A 
ATOM     50  C   UNL A   1      39.838  24.442  26.453  1.00  0.00     0.000 A 
ENDBRANCH  26  45
BRANCH  38  51
ATOM     51  C   UNL A   1      45.395  28.519  32.451  1.00  0.00    -0.014 A 
ATOM     52  C   UNL A   1      45.416  27.600  33.513  1.00  0.00     0.009 A 
ATOM     53  C   UNL A   1      46.589  28.799  31.769  1.00  0.00     0.009 A 
ATOM     54  C   UNL A   1      46.616  27.014  33.915  1.00  0.00     0.001 A 
ATOM     55  C   UNL A   1      47.781  28.185  32.151  1.00  0.00     0.001 A 
ATOM     56  C   UNL A   1      47.797  27.304  33.232  1.00  0.00     0.000 A 
ENDBRANCH  38  51
ENDBRANCH  12  13
ENDBRANCH   5   7
ENDBRANCH   2   3
ENDBRANCH   1   2
BRANCH   1  57
ATOM     57  C   UNL A   1      31.230  30.756  25.379  1.00  0.00     0.117 C 
BRANCH  57  58
ATOM     58  N   UNL A   1      32.512  30.084  25.410  1.00  0.00    -0.356 N 
ATOM     59  C   UNL A   1      32.854  28.798  25.133  1.00  0.00     0.228 C 
ATOM     60  H   UNL A   1      33.266  30.658  25.677  1.00  0.00     0.163 HD
ATOM     61  O   UNL A   1      34.048  28.522  25.270  1.00  0.00    -0.275 OA
BRANCH  59  62
ATOM     62  C   UNL A   1      31.829  27.812  24.559  1.00  0.00     0.133 C 
ATOM     63  C   UNL A   1      30.916  27.070  25.537  1.00  0.00     0.025 C 
ATOM     64  C   UNL A   1      32.531  26.751  23.691  1.00  0.00     0.276 C 
ATOM     65  C   UNL A   1      31.707  26.073  26.374  1.00  0.00     0.062 C 
ATOM     66  N   UNL A   1      33.231  25.710  24.460  1.00  0.00    -0.331 N 
ATOM     67  C   UNL A   1      32.398  25.054  25.467  1.00  0.00     0.262 C 
ATOM     68  H   UNL A   1      33.940  26.212  24.994  1.00  0.00     0.348 HD
BRANCH  66  69
ATOM     69  C   UNL A   1      33.975  24.758  23.608  1.00  0.00     0.299 C 
BRANCH  69  70
ATOM     70  C   UNL A   1      34.631  23.588  24.333  1.00  0.00     0.014 A 
ATOM     71  C   UNL A   1      35.810  23.851  25.059  1.00  0.00     0.010 A 
ATOM     72  C   UNL A   1      34.137  22.250  24.273  1.00  0.00    -0.010 A 
ATOM     73  C   UNL A   1      36.565  22.827  25.613  1.00  0.00     0.001 A 
ATOM     74  C   UNL A   1      34.906  21.217  24.874  1.00  0.00    -0.018 A 
ATOM     75  C   UNL A   1      32.916  21.869  23.666  1.00  0.00     0.009 A 
ATOM     76  C   UNL A   1      36.122  21.516  25.504  1.00  0.00     0.009 A 
ATOM     77  C   UNL A   1      34.455  19.888  24.849  1.00  0.00     0.009 A 
ATOM     78  C   UNL A   1      32.467  20.543  23.671  1.00  0.00     0.001 A 
ATOM     79  C   UNL A   1      33.239  19.553  24.262  1.00  0.00     0.001 A 
ENDBRANCH  69  70
ENDBRANCH  66  69
ENDBRANCH  59  62
ENDBRANCH  57  58
ENDBRANCH   1  57
TORSDOF 12
ENDMDL
MODEL 3
REMARK VINA RESULT:     -11.6      0.672      1.337
REMARK SMILES O=C(NCCCNC(=O)[C@@H]1CCC[N@@H+](Cc2cccc3ccccc23)C1)c1ccc(-c2c3nc(c(-c4ccccc4)c4ccc([nH]4)c(-c4ccccc4)c4nc(c(-c5ccccc5)c5ccc2[nH]5)C=C4)C=C3)cc1
REMARK SMILES IDX 5 1 4 2 3 3 1 4 2 5 27 7 28 8 74 9 29 10 73 11 30 12 31 13
REMARK SMILES IDX 32 14 67 15 33 16 72 17 66 18 68 19 34 20 71 21 65 22 64 23
REMARK SMILES IDX 35 25 57 26 42 27 56 28 43 29 46 30 55 31 69 32 44 33 45 34
REMARK SMILES IDX 54 36 70 37 47 38 36 39 37 40 41 41 38 42 40 43 39 44 58 45
REMARK SMILES IDX 59 46 63 47 60 48 62 49 61 50 48 51 49 52 53 53 50 54 52 55
REMARK SMILES IDX 51 56 6 57 7 58 8 59 9 61 10 62 11 63 26 64 12 65 14 66
REMARK SMILES IDX 13 67 15 69 16 70 17 71 25 72 18 73 20 74 24 75 19 76 21 77
REMARK SMILES IDX 23 78 22 79
REMARK H PARENT 3 6 68 24 46 35 7 60 14 68
REMARK Flexibility Score: inf
ROOT
ATOM      1  C   UNL A   1      37.523  19.497  24.984  1.00  0.00     0.042 C 
ENDROOT
BRANCH   1   2
ATOM      2  C   UNL A   1      38.756  20.189  25.538  1.00  0.00     0.118 C 
BRANCH   2   3
ATOM      3  N   UNL A   1      39.878  19.279  25.692  1.00  0.00    -0.352 N 
ATOM      4  O   UNL A   1      42.046  18.704  25.921  1.00  0.00    -0.269 OA
ATOM      5  C   UNL A   1      41.175  19.554  26.057  1.00  0.00     0.251 C 
ATOM      6  H   UNL A   1      39.682  18.332  25.510  1.00  0.00     0.163 HD
BRANCH   5   7
ATOM      7  C   UNL A   1      41.516  20.887  26.602  1.00  0.00     0.039 A 
ATOM      8  C   UNL A   1      41.387  21.142  27.968  1.00  0.00     0.014 A 
ATOM      9  C   UNL A   1      41.990  21.885  25.746  1.00  0.00     0.014 A 
ATOM     10  C   UNL A   1      41.575  22.429  28.450  1.00  0.00     0.010 A 
ATOM     11  C   UNL A   1      42.299  23.151  26.256  1.00  0.00     0.010 A 
ATOM     12  C   UNL A   1      42.075  23.438  27.611  1.00  0.00    -0.014 A 
BRANCH  12  13
ATOM     13  C   UNL A   1      42.454  24.735  28.224  1.00  0.00     0.031 A 
ATOM     14  C   UNL A   1      43.877  25.061  28.576  1.00  0.00     0.074 A 
ATOM     15  C   UNL A   1      41.483  25.654  28.399  1.00  0.00     0.049 A 
ATOM     16  N   UNL A   1      44.368  26.185  29.037  1.00  0.00    -0.248 NA
ATOM     17  C   UNL A   1      44.877  23.998  28.398  1.00  0.00     0.031 C 
ATOM     18  C   UNL A   1      40.060  25.440  28.109  1.00  0.00     0.029 A 
ATOM     19  N   UNL A   1      41.540  26.958  28.816  1.00  0.00    -0.354 N 
ATOM     20  C   UNL A   1      45.728  25.964  29.211  1.00  0.00     0.074 A 
ATOM     21  C   UNL A   1      45.982  24.589  28.838  1.00  0.00     0.031 C 
ATOM     22  C   UNL A   1      39.397  26.591  28.283  1.00  0.00     0.029 A 
ATOM     23  C   UNL A   1      40.325  27.598  28.773  1.00  0.00     0.049 A 
ATOM     24  H   UNL A   1      42.371  27.392  29.118  1.00  0.00     0.167 HD
ATOM     25  C   UNL A   1      46.677  26.833  29.636  1.00  0.00     0.031 A 
ATOM     26  C   UNL A   1      39.987  28.857  29.106  1.00  0.00     0.031 A 
ATOM     27  C   UNL A   1      46.415  28.197  30.020  1.00  0.00     0.049 A 
ATOM     28  C   UNL A   1      41.056  29.783  29.599  1.00  0.00     0.074 A 
ATOM     29  C   UNL A   1      47.310  29.156  30.462  1.00  0.00     0.029 A 
ATOM     30  N   UNL A   1      45.164  28.796  30.010  1.00  0.00    -0.354 N 
ATOM     31  N   UNL A   1      42.342  29.562  29.732  1.00  0.00    -0.248 NA
ATOM     32  C   UNL A   1      40.628  31.132  29.987  1.00  0.00     0.031 C 
ATOM     33  C   UNL A   1      46.593  30.319  30.766  1.00  0.00     0.029 A 
ATOM     34  C   UNL A   1      45.261  30.105  30.455  1.00  0.00     0.049 A 
ATOM     35  H   UNL A   1      44.330  28.356  29.728  1.00  0.00     0.167 HD
ATOM     36  C   UNL A   1      42.877  30.747  30.213  1.00  0.00     0.074 A 
ATOM     37  C   UNL A   1      41.784  31.694  30.308  1.00  0.00     0.031 C 
ATOM     38  C   UNL A   1      44.159  31.026  30.557  1.00  0.00     0.031 A 
BRANCH  25  39
ATOM     39  C   UNL A   1      48.094  26.332  29.728  1.00  0.00    -0.014 A 
ATOM     40  C   UNL A   1      48.980  26.458  28.646  1.00  0.00     0.009 A 
ATOM     41  C   UNL A   1      48.568  25.788  30.933  1.00  0.00     0.009 A 
ATOM     42  C   UNL A   1      50.304  26.028  28.762  1.00  0.00     0.001 A 
ATOM     43  C   UNL A   1      49.899  25.384  31.054  1.00  0.00     0.001 A 
ATOM     44  C   UNL A   1      50.764  25.498  29.967  1.00  0.00     0.000 A 
ENDBRANCH  25  39
BRANCH  26  45
ATOM     45  C   UNL A   1      38.569  29.293  29.019  1.00  0.00    -0.014 A 
ATOM     46  C   UNL A   1      37.733  29.264  30.145  1.00  0.00     0.009 A 
ATOM     47  C   UNL A   1      38.042  29.738  27.795  1.00  0.00     0.009 A 
ATOM     48  C   UNL A   1      36.392  29.640  30.039  1.00  0.00     0.001 A 
ATOM     49  C   UNL A   1      36.712  30.149  27.700  1.00  0.00     0.001 A 
ATOM     50  C   UNL A   1      35.885  30.087  28.819  1.00  0.00     0.000 A 
ENDBRANCH  26  45
BRANCH  38  51
ATOM     51  C   UNL A   1      44.434  32.419  31.048  1.00  0.00    -0.014 A 
ATOM     52  C   UNL A   1      44.768  33.452  30.157  1.00  0.00     0.009 A 
ATOM     53  C   UNL A   1      44.366  32.700  32.421  1.00  0.00     0.009 A 
ATOM     54  C   UNL A   1      45.078  34.725  30.637  1.00  0.00     0.001 A 
ATOM     55  C   UNL A   1      44.642  33.982  32.895  1.00  0.00     0.001 A 
ATOM     56  C   UNL A   1      45.012  34.990  32.005  1.00  0.00     0.000 A 
ENDBRANCH  38  51
ENDBRANCH  12  13
ENDBRANCH   5   7
ENDBRANCH   2   3
ENDBRANCH   1   2
BRANCH   1  57
ATOM     57  C   UNL A   1      36.392  20.459  24.644  1.00  0.00     0.117 C 
BRANCH  57  58
ATOM     58  N   UNL A   1      35.544  20.697  25.793  1.00  0.00    -0.356 N 
ATOM     59  C   UNL A   1      34.480  21.526  25.965  1.00  0.00     0.228 C 
ATOM     60  H   UNL A   1      35.778  20.165  26.588  1.00  0.00     0.163 HD
ATOM     61  O   UNL A   1      33.968  21.513  27.086  1.00  0.00    -0.275 OA
BRANCH  59  62
ATOM     62  C   UNL A   1      33.891  22.310  24.786  1.00  0.00     0.133 C 
ATOM     63  C   UNL A   1      34.800  23.295  24.048  1.00  0.00     0.025 C 
ATOM     64  C   UNL A   1      32.637  23.087  25.230  1.00  0.00     0.276 C 
ATOM     65  C   UNL A   1      35.145  24.486  24.931  1.00  0.00     0.062 C 
ATOM     66  N   UNL A   1      32.926  24.302  26.008  1.00  0.00    -0.331 N 
ATOM     67  C   UNL A   1      33.870  25.213  25.359  1.00  0.00     0.262 C 
ATOM     68  H   UNL A   1      33.413  23.971  26.840  1.00  0.00     0.348 HD
BRANCH  66  69
ATOM     69  C   UNL A   1      31.709  24.980  26.503  1.00  0.00     0.299 C 
BRANCH  69  70
ATOM     70  C   UNL A   1      31.195  26.134  25.649  1.00  0.00     0.014 A 
ATOM     71  C   UNL A   1      30.399  25.812  24.531  1.00  0.00     0.010 A 
ATOM     72  C   UNL A   1      31.516  27.503  25.902  1.00  0.00    -0.010 A 
ATOM     73  C   UNL A   1      30.023  26.776  23.607  1.00  0.00     0.001 A 
ATOM     74  C   UNL A   1      31.095  28.481  24.961  1.00  0.00    -0.018 A 
ATOM     75  C   UNL A   1      32.219  27.968  27.040  1.00  0.00     0.009 A 
ATOM     76  C   UNL A   1      30.386  28.100  23.815  1.00  0.00     0.009 A 
ATOM     77  C   UNL A   1      31.378  29.839  25.173  1.00  0.00     0.009 A 
ATOM     78  C   UNL A   1      32.472  29.328  27.250  1.00  0.00     0.001 A 
ATOM     79  C   UNL A   1      32.052  30.263  26.315  1.00  0.00     0.001 A 
ENDBRANCH  69  70
ENDBRANCH  66  69
ENDBRANCH  59  62
ENDBRANCH  57  58
ENDBRANCH   1  57
TORSDOF 12
ENDMDL
