MODEL 1
REMARK VINA RESULT:     -11.4      0.000      0.000
REMARK SMILES CC(C)[NH2+][C@@]1(C(=O)NCCCNC(=O)c2ccc(-c3c4nc(c(-c5ccccc5)c5ccc([nH]5)c(-c5ccccc5)c5nc(c(-c6ccccc6)c6ccc3[nH]6)C=C5)C=C4)cc2)CC[C@H](Oc2ccccc2F)C1
REMARK SMILES IDX 10 1 9 2 8 3 6 4 7 5 5 7 63 8 74 9 64 10 65 11 4 12 2 15
REMARK SMILES IDX 1 16 3 17 66 18 67 19 68 20 72 21 69 22 71 23 73 24 70 25
REMARK SMILES IDX 11 26 12 27 13 28 14 30 15 31 16 32 62 33 17 34 61 35 18 36
REMARK SMILES IDX 19 37 20 38 55 39 21 40 60 41 54 42 56 43 22 44 59 45 53 46
REMARK SMILES IDX 52 47 23 49 45 50 30 51 44 52 31 53 34 54 43 55 57 56 32 57
REMARK SMILES IDX 33 58 42 60 58 61 35 62 24 63 25 64 29 65 26 66 28 67 27 68
REMARK SMILES IDX 46 69 47 70 51 71 48 72 50 73 49 74 36 75 37 76 41 77 38 78
REMARK SMILES IDX 40 79 39 80
REMARK H PARENT 8 6 4 13 4 14 12 29 56 48 34 59
REMARK Flexibility Score: inf
ROOT
ATOM      1  C   UNL A   1      34.048  28.588  25.943  1.00  0.00     0.042 C 
ENDROOT
BRANCH   1   2
ATOM      2  C   UNL A   1      33.244  29.275  24.852  1.00  0.00     0.118 C 
BRANCH   2   3
ATOM      3  N   UNL A   1      33.790  29.038  23.538  1.00  0.00    -0.351 N 
ATOM      4  C   UNL A   1      33.550  28.094  22.592  1.00  0.00     0.281 C 
ATOM      5  O   UNL A   1      34.326  28.147  21.622  1.00  0.00    -0.268 OA
ATOM      6  H   UNL A   1      34.476  29.694  23.273  1.00  0.00     0.163 HD
BRANCH   4   7
ATOM      7  C   UNL A   1      32.442  26.942  22.679  1.00  0.00     0.179 C 
ATOM      8  C   UNL A   1      32.200  26.447  24.112  1.00  0.00     0.083 C 
ATOM      9  C   UNL A   1      32.924  25.725  21.875  1.00  0.00     0.124 C 
ATOM     10  C   UNL A   1      32.693  25.003  24.194  1.00  0.00     0.052 C 
ATOM     11  C   UNL A   1      32.811  24.477  22.767  1.00  0.00     0.180 C 
BRANCH   7  12
ATOM     12  N   UNL A   1      31.239  27.598  22.122  1.00  0.00    -0.332 N 
ATOM     13  H   UNL A   1      31.582  28.173  21.352  1.00  0.00     0.347 HD
ATOM     14  H   UNL A   1      30.647  26.780  21.978  1.00  0.00     0.347 HD
BRANCH  12  15
ATOM     15  C   UNL A   1      30.316  28.448  22.850  1.00  0.00     0.176 C 
ATOM     16  C   UNL A   1      30.113  29.702  21.983  1.00  0.00     0.075 C 
ATOM     17  C   UNL A   1      28.954  27.821  23.128  1.00  0.00     0.075 C 
ENDBRANCH  12  15
ENDBRANCH   7  12
BRANCH  11  18
ATOM     18  O   UNL A   1      33.859  23.585  22.371  1.00  0.00    -0.487 OA
BRANCH  18  19
ATOM     19  C   UNL A   1      34.748  22.966  23.191  1.00  0.00     0.155 A 
ATOM     20  C   UNL A   1      36.076  23.326  23.392  1.00  0.00     0.049 A 
ATOM     21  C   UNL A   1      34.243  21.878  23.921  1.00  0.00     0.165 A 
ATOM     22  C   UNL A   1      36.910  22.535  24.197  1.00  0.00     0.004 A 
ATOM     23  C   UNL A   1      35.058  21.099  24.740  1.00  0.00     0.043 A 
ATOM     24  F   UNL A   1      32.957  21.516  23.783  1.00  0.00    -0.203 F 
ATOM     25  C   UNL A   1      36.407  21.414  24.858  1.00  0.00     0.003 A 
ENDBRANCH  18  19
ENDBRANCH  11  18
ENDBRANCH   4   7
ENDBRANCH   2   3
ENDBRANCH   1   2
BRANCH   1  26
ATOM     26  C   UNL A   1      33.498  28.821  27.339  1.00  0.00     0.118 C 
BRANCH  26  27
ATOM     27  N   UNL A   1      33.612  30.223  27.735  1.00  0.00    -0.352 N 
ATOM     28  C   UNL A   1      34.609  30.897  28.395  1.00  0.00     0.251 C 
ATOM     29  H   UNL A   1      32.839  30.781  27.485  1.00  0.00     0.163 HD
ATOM     30  O   UNL A   1      34.368  32.018  28.855  1.00  0.00    -0.269 OA
BRANCH  28  31
ATOM     31  C   UNL A   1      35.957  30.313  28.580  1.00  0.00     0.039 A 
ATOM     32  C   UNL A   1      36.858  30.312  27.508  1.00  0.00     0.014 A 
ATOM     33  C   UNL A   1      36.331  29.716  29.783  1.00  0.00     0.014 A 
ATOM     34  C   UNL A   1      38.149  29.795  27.672  1.00  0.00     0.010 A 
ATOM     35  C   UNL A   1      37.642  29.305  29.982  1.00  0.00     0.010 A 
ATOM     36  C   UNL A   1      38.564  29.324  28.925  1.00  0.00    -0.014 A 
BRANCH  36  37
ATOM     37  C   UNL A   1      39.930  28.795  29.172  1.00  0.00     0.031 A 
ATOM     38  C   UNL A   1      40.994  29.717  29.706  1.00  0.00     0.074 A 
ATOM     39  C   UNL A   1      40.246  27.537  28.813  1.00  0.00     0.049 A 
ATOM     40  N   UNL A   1      42.283  29.521  29.816  1.00  0.00    -0.248 NA
ATOM     41  C   UNL A   1      40.552  31.054  30.138  1.00  0.00     0.031 C 
ATOM     42  C   UNL A   1      39.317  26.550  28.258  1.00  0.00     0.029 A 
ATOM     43  N   UNL A   1      41.452  26.879  28.838  1.00  0.00    -0.354 N 
ATOM     44  C   UNL A   1      42.807  30.718  30.289  1.00  0.00     0.074 A 
ATOM     45  C   UNL A   1      41.706  31.649  30.400  1.00  0.00     0.031 C 
ATOM     46  C   UNL A   1      39.984  25.411  28.009  1.00  0.00     0.029 A 
ATOM     47  C   UNL A   1      41.393  25.602  28.335  1.00  0.00     0.049 A 
ATOM     48  H   UNL A   1      42.279  27.286  29.185  1.00  0.00     0.167 HD
ATOM     49  C   UNL A   1      44.087  31.014  30.619  1.00  0.00     0.031 A 
ATOM     50  C   UNL A   1      42.370  24.696  28.136  1.00  0.00     0.031 A 
ATOM     51  C   UNL A   1      45.176  30.080  30.529  1.00  0.00     0.049 A 
ATOM     52  C   UNL A   1      43.787  25.052  28.495  1.00  0.00     0.074 A 
ATOM     53  C   UNL A   1      46.499  30.263  30.891  1.00  0.00     0.029 A 
ATOM     54  N   UNL A   1      45.065  28.786  30.044  1.00  0.00    -0.354 N 
ATOM     55  N   UNL A   1      44.259  26.170  28.990  1.00  0.00    -0.248 NA
ATOM     56  C   UNL A   1      44.806  24.015  28.274  1.00  0.00     0.031 C 
ATOM     57  C   UNL A   1      47.200  29.095  30.579  1.00  0.00     0.029 A 
ATOM     58  C   UNL A   1      46.301  28.164  30.081  1.00  0.00     0.049 A 
ATOM     59  H   UNL A   1      44.233  28.373  29.720  1.00  0.00     0.167 HD
ATOM     60  C   UNL A   1      45.619  25.959  29.178  1.00  0.00     0.074 A 
ATOM     61  C   UNL A   1      45.895  24.603  28.750  1.00  0.00     0.031 C 
ATOM     62  C   UNL A   1      46.554  26.809  29.669  1.00  0.00     0.031 A 
BRANCH  49  63
ATOM     63  C   UNL A   1      44.374  32.409  31.100  1.00  0.00    -0.014 A 
ATOM     64  C   UNL A   1      44.709  33.438  30.204  1.00  0.00     0.009 A 
ATOM     65  C   UNL A   1      44.282  32.708  32.469  1.00  0.00     0.009 A 
ATOM     66  C   UNL A   1      44.988  34.723  30.672  1.00  0.00     0.001 A 
ATOM     67  C   UNL A   1      44.529  34.002  32.931  1.00  0.00     0.001 A 
ATOM     68  C   UNL A   1      44.894  35.005  32.034  1.00  0.00     0.000 A 
ENDBRANCH  49  63
BRANCH  50  69
ATOM     69  C   UNL A   1      42.044  23.357  27.578  1.00  0.00    -0.014 A 
ATOM     70  C   UNL A   1      41.452  22.376  28.390  1.00  0.00     0.009 A 
ATOM     71  C   UNL A   1      42.329  23.046  26.240  1.00  0.00     0.009 A 
ATOM     72  C   UNL A   1      41.181  21.103  27.881  1.00  0.00     0.001 A 
ATOM     73  C   UNL A   1      42.030  21.782  25.725  1.00  0.00     0.001 A 
ATOM     74  C   UNL A   1      41.466  20.809  26.549  1.00  0.00     0.000 A 
ENDBRANCH  50  69
BRANCH  62  75
ATOM     75  C   UNL A   1      47.952  26.285  29.833  1.00  0.00    -0.014 A 
ATOM     76  C   UNL A   1      48.405  25.767  31.055  1.00  0.00     0.009 A 
ATOM     77  C   UNL A   1      48.807  26.249  28.719  1.00  0.00     0.009 A 
ATOM     78  C   UNL A   1      49.697  25.246  31.164  1.00  0.00     0.001 A 
ATOM     79  C   UNL A   1      50.085  25.700  28.822  1.00  0.00     0.001 A 
ATOM     80  C   UNL A   1      50.531  25.205  30.047  1.00  0.00     0.000 A 
ENDBRANCH  62  75
ENDBRANCH  36  37
ENDBRANCH  28  31
ENDBRANCH  26  27
ENDBRANCH   1  26
TORSDOF 14
ENDMDL
MODEL 2
REMARK VINA RESULT:     -11.4      1.407      2.043
REMARK SMILES CC(C)[NH2+][C@@]1(C(=O)NCCCNC(=O)c2ccc(-c3c4nc(c(-c5ccccc5)c5ccc([nH]5)c(-c5ccccc5)c5nc(c(-c6ccccc6)c6ccc3[nH]6)C=C5)C=C4)cc2)CC[C@H](Oc2ccccc2F)C1
REMARK SMILES IDX 10 1 9 2 8 3 6 4 7 5 5 7 63 8 74 9 64 10 65 11 4 12 2 15
REMARK SMILES IDX 1 16 3 17 66 18 67 19 68 20 72 21 69 22 71 23 73 24 70 25
REMARK SMILES IDX 11 26 12 27 13 28 14 30 15 31 16 32 62 33 17 34 61 35 18 36
REMARK SMILES IDX 19 37 20 38 55 39 21 40 60 41 54 42 56 43 22 44 59 45 53 46
REMARK SMILES IDX 52 47 23 49 45 50 30 51 44 52 31 53 34 54 43 55 57 56 32 57
REMARK SMILES IDX 33 58 42 60 58 61 35 62 24 63 25 64 29 65 26 66 28 67 27 68
REMARK SMILES IDX 46 69 47 70 51 71 48 72 50 73 49 74 36 75 37 76 41 77 38 78
REMARK SMILES IDX 40 79 39 80
REMARK H PARENT 8 6 4 13 4 14 12 29 56 48 34 59
REMARK Flexibility Score: inf
ROOT
ATOM      1  C   UNL A   1      32.409  28.226  27.549  1.00  0.00     0.042 C 
ENDROOT
BRANCH   1   2
ATOM      2  C   UNL A   1      31.544  27.761  26.390  1.00  0.00     0.118 C 
BRANCH   2   3
ATOM      3  N   UNL A   1      30.836  26.541  26.690  1.00  0.00    -0.351 N 
ATOM      4  C   UNL A   1      30.794  25.323  26.092  1.00  0.00     0.281 C 
ATOM      5  O   UNL A   1      29.951  24.552  26.582  1.00  0.00    -0.268 OA
ATOM      6  H   UNL A   1      30.268  26.604  27.493  1.00  0.00     0.163 HD
BRANCH   4   7
ATOM      7  C   UNL A   1      31.660  24.873  24.823  1.00  0.00     0.179 C 
ATOM      8  C   UNL A   1      31.064  23.667  24.084  1.00  0.00     0.083 C 
ATOM      9  C   UNL A   1      33.056  24.444  25.299  1.00  0.00     0.124 C 
ATOM     10  C   UNL A   1      32.021  22.490  24.267  1.00  0.00     0.052 C 
ATOM     11  C   UNL A   1      33.366  23.058  24.709  1.00  0.00     0.180 C 
BRANCH   7  12
ATOM     12  N   UNL A   1      31.657  26.085  23.975  1.00  0.00    -0.332 N 
ATOM     13  H   UNL A   1      31.029  26.738  24.445  1.00  0.00     0.347 HD
ATOM     14  H   UNL A   1      32.661  26.245  23.896  1.00  0.00     0.347 HD
BRANCH  12  15
ATOM     15  C   UNL A   1      31.287  26.145  22.573  1.00  0.00     0.176 C 
ATOM     16  C   UNL A   1      30.641  27.524  22.358  1.00  0.00     0.075 C 
ATOM     17  C   UNL A   1      32.449  25.992  21.599  1.00  0.00     0.075 C 
ENDBRANCH  12  15
ENDBRANCH   7  12
BRANCH  11  18
ATOM     18  O   UNL A   1      34.203  22.380  25.653  1.00  0.00    -0.487 OA
BRANCH  18  19
ATOM     19  C   UNL A   1      35.561  22.363  25.664  1.00  0.00     0.155 A 
ATOM     20  C   UNL A   1      36.396  23.391  26.088  1.00  0.00     0.049 A 
ATOM     21  C   UNL A   1      36.156  21.169  25.229  1.00  0.00     0.165 A 
ATOM     22  C   UNL A   1      37.788  23.274  25.952  1.00  0.00     0.004 A 
ATOM     23  C   UNL A   1      37.538  21.035  25.111  1.00  0.00     0.043 A 
ATOM     24  F   UNL A   1      35.387  20.138  24.842  1.00  0.00    -0.203 F 
ATOM     25  C   UNL A   1      38.359  22.105  25.450  1.00  0.00     0.003 A 
ENDBRANCH  18  19
ENDBRANCH  11  18
ENDBRANCH   4   7
ENDBRANCH   2   3
ENDBRANCH   1   2
BRANCH   1  26
ATOM     26  C   UNL A   1      33.685  28.925  27.111  1.00  0.00     0.118 C 
BRANCH  26  27
ATOM     27  N   UNL A   1      33.761  30.285  27.640  1.00  0.00    -0.352 N 
ATOM     28  C   UNL A   1      34.714  30.901  28.413  1.00  0.00     0.251 C 
ATOM     29  H   UNL A   1      32.998  30.859  27.399  1.00  0.00     0.163 HD
ATOM     30  O   UNL A   1      34.435  31.974  28.960  1.00  0.00    -0.269 OA
BRANCH  28  31
ATOM     31  C   UNL A   1      36.055  30.310  28.618  1.00  0.00     0.039 A 
ATOM     32  C   UNL A   1      36.980  30.325  27.567  1.00  0.00     0.014 A 
ATOM     33  C   UNL A   1      36.401  29.693  29.820  1.00  0.00     0.014 A 
ATOM     34  C   UNL A   1      38.266  29.802  27.751  1.00  0.00     0.010 A 
ATOM     35  C   UNL A   1      37.707  29.276  30.041  1.00  0.00     0.010 A 
ATOM     36  C   UNL A   1      38.652  29.310  29.006  1.00  0.00    -0.014 A 
BRANCH  36  37
ATOM     37  C   UNL A   1      40.011  28.773  29.274  1.00  0.00     0.031 A 
ATOM     38  C   UNL A   1      41.060  29.679  29.862  1.00  0.00     0.074 A 
ATOM     39  C   UNL A   1      40.337  27.525  28.888  1.00  0.00     0.049 A 
ATOM     40  N   UNL A   1      42.346  29.479  30.002  1.00  0.00    -0.248 NA
ATOM     41  C   UNL A   1      40.606  31.004  30.320  1.00  0.00     0.031 C 
ATOM     42  C   UNL A   1      39.424  26.555  28.281  1.00  0.00     0.029 A 
ATOM     43  N   UNL A   1      41.542  26.867  28.928  1.00  0.00    -0.354 N 
ATOM     44  C   UNL A   1      42.856  30.663  30.523  1.00  0.00     0.074 A 
ATOM     45  C   UNL A   1      41.752  31.590  30.630  1.00  0.00     0.031 C 
ATOM     46  C   UNL A   1      40.097  25.423  28.018  1.00  0.00     0.029 A 
ATOM     47  C   UNL A   1      41.497  25.604  28.387  1.00  0.00     0.049 A 
ATOM     48  H   UNL A   1      42.360  27.263  29.308  1.00  0.00     0.167 HD
ATOM     49  C   UNL A   1      44.127  30.948  30.895  1.00  0.00     0.031 A 
ATOM     50  C   UNL A   1      42.479  24.704  28.189  1.00  0.00     0.031 A 
ATOM     51  C   UNL A   1      45.218  30.017  30.808  1.00  0.00     0.049 A 
ATOM     52  C   UNL A   1      43.886  25.049  28.596  1.00  0.00     0.074 A 
ATOM     53  C   UNL A   1      46.530  30.188  31.211  1.00  0.00     0.029 A 
ATOM     54  N   UNL A   1      45.121  28.737  30.284  1.00  0.00    -0.354 N 
ATOM     55  N   UNL A   1      44.344  26.152  29.135  1.00  0.00    -0.248 NA
ATOM     56  C   UNL A   1      44.911  24.018  28.374  1.00  0.00     0.031 C 
ATOM     57  C   UNL A   1      47.240  29.029  30.885  1.00  0.00     0.029 A 
ATOM     58  C   UNL A   1      46.355  28.114  30.337  1.00  0.00     0.049 A 
ATOM     59  H   UNL A   1      44.298  28.333  29.926  1.00  0.00     0.167 HD
ATOM     60  C   UNL A   1      45.698  25.935  29.354  1.00  0.00     0.074 A 
ATOM     61  C   UNL A   1      45.986  24.591  28.895  1.00  0.00     0.031 C 
ATOM     62  C   UNL A   1      46.619  26.770  29.893  1.00  0.00     0.031 A 
BRANCH  49  63
ATOM     63  C   UNL A   1      44.400  32.329  31.423  1.00  0.00    -0.014 A 
ATOM     64  C   UNL A   1      44.755  33.383  30.565  1.00  0.00     0.009 A 
ATOM     65  C   UNL A   1      44.276  32.588  32.797  1.00  0.00     0.009 A 
ATOM     66  C   UNL A   1      45.022  34.655  31.077  1.00  0.00     0.001 A 
ATOM     67  C   UNL A   1      44.509  33.868  33.302  1.00  0.00     0.001 A 
ATOM     68  C   UNL A   1      44.895  34.897  32.443  1.00  0.00     0.000 A 
ENDBRANCH  49  63
BRANCH  50  69
ATOM     69  C   UNL A   1      42.169  23.381  27.585  1.00  0.00    -0.014 A 
ATOM     70  C   UNL A   1      42.386  23.160  26.216  1.00  0.00     0.009 A 
ATOM     71  C   UNL A   1      41.648  22.337  28.365  1.00  0.00     0.009 A 
ATOM     72  C   UNL A   1      42.060  21.931  25.635  1.00  0.00     0.001 A 
ATOM     73  C   UNL A   1      41.350  21.100  27.788  1.00  0.00     0.001 A 
ATOM     74  C   UNL A   1      41.546  20.902  26.422  1.00  0.00     0.000 A 
ENDBRANCH  50  69
BRANCH  62  75
ATOM     75  C   UNL A   1      48.013  26.241  30.080  1.00  0.00    -0.014 A 
ATOM     76  C   UNL A   1      48.977  26.333  29.066  1.00  0.00     0.009 A 
ATOM     77  C   UNL A   1      48.381  25.700  31.324  1.00  0.00     0.009 A 
ATOM     78  C   UNL A   1      50.277  25.873  29.287  1.00  0.00     0.001 A 
ATOM     79  C   UNL A   1      49.687  25.269  31.551  1.00  0.00     0.001 A 
ATOM     80  C   UNL A   1      50.633  25.349  30.530  1.00  0.00     0.000 A 
ENDBRANCH  62  75
ENDBRANCH  36  37
ENDBRANCH  28  31
ENDBRANCH  26  27
ENDBRANCH   1  26
TORSDOF 14
ENDMDL
MODEL 3
REMARK VINA RESULT:     -11.4      2.752      7.319
REMARK SMILES CC(C)[NH2+][C@@]1(C(=O)NCCCNC(=O)c2ccc(-c3c4nc(c(-c5ccccc5)c5ccc([nH]5)c(-c5ccccc5)c5nc(c(-c6ccccc6)c6ccc3[nH]6)C=C5)C=C4)cc2)CC[C@H](Oc2ccccc2F)C1
REMARK SMILES IDX 10 1 9 2 8 3 6 4 7 5 5 7 63 8 74 9 64 10 65 11 4 12 2 15
REMARK SMILES IDX 1 16 3 17 66 18 67 19 68 20 72 21 69 22 71 23 73 24 70 25
REMARK SMILES IDX 11 26 12 27 13 28 14 30 15 31 16 32 62 33 17 34 61 35 18 36
REMARK SMILES IDX 19 37 20 38 55 39 21 40 60 41 54 42 56 43 22 44 59 45 53 46
REMARK SMILES IDX 52 47 23 49 45 50 30 51 44 52 31 53 34 54 43 55 57 56 32 57
REMARK SMILES IDX 33 58 42 60 58 61 35 62 24 63 25 64 29 65 26 66 28 67 27 68
REMARK SMILES IDX 46 69 47 70 51 71 48 72 50 73 49 74 36 75 37 76 41 77 38 78
REMARK SMILES IDX 40 79 39 80
REMARK H PARENT 8 6 4 13 4 14 12 29 56 48 34 59
REMARK Flexibility Score: inf
ROOT
ATOM      1  C   UNL A   1      37.458  19.432  24.873  1.00  0.00     0.042 C 
ENDROOT
BRANCH   1   2
ATOM      2  C   UNL A   1      36.179  20.244  24.980  1.00  0.00     0.118 C 
BRANCH   2   3
ATOM      3  N   UNL A   1      36.237  21.462  24.208  1.00  0.00    -0.351 N 
ATOM      4  C   UNL A   1      35.417  22.540  24.116  1.00  0.00     0.281 C 
ATOM      5  O   UNL A   1      35.746  23.346  23.228  1.00  0.00    -0.268 OA
ATOM      6  H   UNL A   1      37.033  21.523  23.631  1.00  0.00     0.163 HD
BRANCH   4   7
ATOM      7  C   UNL A   1      34.092  22.785  24.980  1.00  0.00     0.179 C 
ATOM      8  C   UNL A   1      34.231  22.326  26.438  1.00  0.00     0.083 C 
ATOM      9  C   UNL A   1      32.943  21.964  24.374  1.00  0.00     0.124 C 
ATOM     10  C   UNL A   1      33.294  21.135  26.642  1.00  0.00     0.052 C 
ATOM     11  C   UNL A   1      32.286  21.144  25.497  1.00  0.00     0.180 C 
BRANCH   7  12
ATOM     12  N   UNL A   1      33.903  24.249  24.887  1.00  0.00    -0.332 N 
ATOM     13  H   UNL A   1      34.817  24.619  24.629  1.00  0.00     0.347 HD
ATOM     14  H   UNL A   1      33.098  24.281  24.262  1.00  0.00     0.347 HD
BRANCH  12  15
ATOM     15  C   UNL A   1      33.427  25.117  25.949  1.00  0.00     0.176 C 
ATOM     16  C   UNL A   1      33.938  26.527  25.610  1.00  0.00     0.075 C 
ATOM     17  C   UNL A   1      31.911  25.169  26.099  1.00  0.00     0.075 C 
ENDBRANCH  12  15
ENDBRANCH   7  12
BRANCH  11  18
ATOM     18  O   UNL A   1      31.802  19.934  24.903  1.00  0.00    -0.487 OA
BRANCH  18  19
ATOM     19  C   UNL A   1      32.499  18.781  24.735  1.00  0.00     0.155 A 
ATOM     20  C   UNL A   1      32.917  17.914  25.739  1.00  0.00     0.049 A 
ATOM     21  C   UNL A   1      32.789  18.435  23.405  1.00  0.00     0.165 A 
ATOM     22  C   UNL A   1      33.717  16.804  25.429  1.00  0.00     0.004 A 
ATOM     23  C   UNL A   1      33.565  17.323  23.085  1.00  0.00     0.043 A 
ATOM     24  F   UNL A   1      32.376  19.227  22.402  1.00  0.00    -0.203 F 
ATOM     25  C   UNL A   1      34.055  16.517  24.106  1.00  0.00     0.003 A 
ENDBRANCH  18  19
ENDBRANCH  11  18
ENDBRANCH   4   7
ENDBRANCH   2   3
ENDBRANCH   1   2
BRANCH   1  26
ATOM     26  C   UNL A   1      38.678  20.145  25.427  1.00  0.00     0.118 C 
BRANCH  26  27
ATOM     27  N   UNL A   1      39.777  19.216  25.678  1.00  0.00    -0.352 N 
ATOM     28  C   UNL A   1      41.086  19.438  26.025  1.00  0.00     0.251 C 
ATOM     29  H   UNL A   1      39.537  18.265  25.582  1.00  0.00     0.163 HD
ATOM     30  O   UNL A   1      41.896  18.510  25.922  1.00  0.00    -0.269 OA
BRANCH  28  31
ATOM     31  C   UNL A   1      41.554  20.757  26.506  1.00  0.00     0.039 A 
ATOM     32  C   UNL A   1      41.786  20.947  27.874  1.00  0.00     0.014 A 
ATOM     33  C   UNL A   1      41.720  21.831  25.632  1.00  0.00     0.014 A 
ATOM     34  C   UNL A   1      42.261  22.178  28.345  1.00  0.00     0.010 A 
ATOM     35  C   UNL A   1      42.295  23.014  26.079  1.00  0.00     0.010 A 
ATOM     36  C   UNL A   1      42.559  23.208  27.442  1.00  0.00    -0.014 A 
BRANCH  36  37
ATOM     37  C   UNL A   1      43.097  24.523  27.876  1.00  0.00     0.031 A 
ATOM     38  C   UNL A   1      42.143  25.613  28.289  1.00  0.00     0.074 A 
ATOM     39  C   UNL A   1      44.416  24.779  27.790  1.00  0.00     0.049 A 
ATOM     40  N   UNL A   1      42.379  26.879  28.519  1.00  0.00    -0.248 NA
ATOM     41  C   UNL A   1      40.726  25.233  28.423  1.00  0.00     0.031 C 
ATOM     42  C   UNL A   1      45.445  23.821  27.379  1.00  0.00     0.029 A 
ATOM     43  N   UNL A   1      45.116  25.937  28.022  1.00  0.00    -0.354 N 
ATOM     44  C   UNL A   1      41.140  27.451  28.784  1.00  0.00     0.074 A 
ATOM     45  C   UNL A   1      40.151  26.406  28.639  1.00  0.00     0.031 C 
ATOM     46  C   UNL A   1      46.643  24.427  27.401  1.00  0.00     0.029 A 
ATOM     47  C   UNL A   1      46.463  25.826  27.774  1.00  0.00     0.049 A 
ATOM     48  H   UNL A   1      44.692  26.769  28.336  1.00  0.00     0.167 HD
ATOM     49  C   UNL A   1      40.851  28.727  29.132  1.00  0.00     0.031 A 
ATOM     50  C   UNL A   1      47.439  26.753  27.820  1.00  0.00     0.031 A 
ATOM     51  C   UNL A   1      41.838  29.759  29.297  1.00  0.00     0.049 A 
ATOM     52  C   UNL A   1      47.092  28.168  28.195  1.00  0.00     0.074 A 
ATOM     53  C   UNL A   1      41.655  31.068  29.703  1.00  0.00     0.029 A 
ATOM     54  N   UNL A   1      43.195  29.593  29.067  1.00  0.00    -0.354 N 
ATOM     55  N   UNL A   1      45.923  28.682  28.493  1.00  0.00    -0.248 NA
ATOM     56  C   UNL A   1      48.202  29.131  28.248  1.00  0.00     0.031 C 
ATOM     57  C   UNL A   1      42.896  31.711  29.671  1.00  0.00     0.029 A 
ATOM     58  C   UNL A   1      43.859  30.783  29.306  1.00  0.00     0.049 A 
ATOM     59  H   UNL A   1      43.621  28.755  28.776  1.00  0.00     0.167 HD
ATOM     60  C   UNL A   1      46.163  30.014  28.807  1.00  0.00     0.074 A 
ATOM     61  C   UNL A   1      47.589  30.227  28.670  1.00  0.00     0.031 C 
ATOM     62  C   UNL A   1      45.281  30.972  29.183  1.00  0.00     0.031 A 
BRANCH  49  63
ATOM     63  C   UNL A   1      39.404  29.075  29.350  1.00  0.00    -0.014 A 
ATOM     64  C   UNL A   1      38.604  29.564  28.305  1.00  0.00     0.009 A 
ATOM     65  C   UNL A   1      38.824  28.885  30.615  1.00  0.00     0.009 A 
ATOM     66  C   UNL A   1      37.267  29.897  28.532  1.00  0.00     0.001 A 
ATOM     67  C   UNL A   1      37.478  29.187  30.830  1.00  0.00     0.001 A 
ATOM     68  C   UNL A   1      36.704  29.705  29.792  1.00  0.00     0.000 A 
ENDBRANCH  49  63
BRANCH  50  69
ATOM     69  C   UNL A   1      48.844  26.375  27.513  1.00  0.00    -0.014 A 
ATOM     70  C   UNL A   1      49.313  26.407  26.191  1.00  0.00     0.009 A 
ATOM     71  C   UNL A   1      49.720  25.972  28.533  1.00  0.00     0.009 A 
ATOM     72  C   UNL A   1      50.621  26.015  25.892  1.00  0.00     0.001 A 
ATOM     73  C   UNL A   1      51.036  25.608  28.235  1.00  0.00     0.001 A 
ATOM     74  C   UNL A   1      51.481  25.620  26.914  1.00  0.00     0.000 A 
ENDBRANCH  50  69
BRANCH  62  75
ATOM     75  C   UNL A   1      45.833  32.324  29.537  1.00  0.00    -0.014 A 
ATOM     76  C   UNL A   1      46.268  32.624  30.836  1.00  0.00     0.009 A 
ATOM     77  C   UNL A   1      45.979  33.292  28.529  1.00  0.00     0.009 A 
ATOM     78  C   UNL A   1      46.819  33.875  31.123  1.00  0.00     0.001 A 
ATOM     79  C   UNL A   1      46.557  34.529  28.812  1.00  0.00     0.001 A 
ATOM     80  C   UNL A   1      46.970  34.822  30.111  1.00  0.00     0.000 A 
ENDBRANCH  62  75
ENDBRANCH  36  37
ENDBRANCH  28  31
ENDBRANCH  26  27
ENDBRANCH   1  26
TORSDOF 14
ENDMDL
