MODEL 1
REMARK VINA RESULT:     -11.9      0.000      0.000
REMARK SMILES C[C@H]1[C@H](C(=O)NCCCNC(=O)c2ccc(-c3c4nc(c(-c5ccccc5)c5ccc([nH]5)c(-c5ccccc5)c5nc(c(-c6ccccc6)c6ccc3[nH]6)C=C5)C=C4)cc2)CCN1C(=O)c1ccc2ccccc2c1
REMARK SMILES IDX 8 1 7 2 6 3 4 4 5 5 3 7 1 8 2 9 63 10 61 11 62 12 64 13
REMARK SMILES IDX 65 14 66 15 67 16 75 17 68 18 74 19 69 20 73 21 70 22 72 23
REMARK SMILES IDX 71 24 9 25 10 26 11 27 12 29 13 30 14 31 60 32 15 33 59 34
REMARK SMILES IDX 16 35 17 36 18 37 53 38 19 39 58 40 52 41 54 42 20 43 57 44
REMARK SMILES IDX 51 45 50 46 21 48 43 49 28 50 42 51 29 52 32 53 41 54 55 55
REMARK SMILES IDX 30 56 31 57 40 59 56 60 33 61 22 62 23 63 27 64 24 65 26 66
REMARK SMILES IDX 25 67 44 68 45 69 49 70 46 71 48 72 47 73 34 74 35 75 39 76
REMARK SMILES IDX 36 77 38 78 37 79
REMARK H PARENT 6 6 10 28 54 47 32 58
REMARK Flexibility Score: inf
ROOT
ATOM      1  C   UNL A   1      33.846  28.234  25.945  1.00  0.00     0.042 C 
ENDROOT
BRANCH   1   2
ATOM      2  C   UNL A   1      33.184  29.162  24.939  1.00  0.00     0.117 C 
BRANCH   2   3
ATOM      3  N   UNL A   1      33.806  29.071  23.629  1.00  0.00    -0.356 N 
ATOM      4  C   UNL A   1      33.592  28.220  22.593  1.00  0.00     0.225 C 
ATOM      5  O   UNL A   1      34.325  28.338  21.608  1.00  0.00    -0.275 OA
ATOM      6  H   UNL A   1      34.505  29.743  23.464  1.00  0.00     0.163 HD
BRANCH   4   7
ATOM      7  C   UNL A   1      32.507  27.155  22.609  1.00  0.00     0.102 C 
ATOM      8  C   UNL A   1      32.862  24.760  21.941  1.00  0.00     0.032 C 
ATOM      9  C   UNL A   1      33.022  25.779  23.070  1.00  0.00     0.094 C 
ATOM     10  N   UNL A   1      32.217  25.457  24.250  1.00  0.00    -0.335 N 
ATOM     11  C   UNL A   1      31.302  27.511  23.481  1.00  0.00     0.037 C 
ATOM     12  C   UNL A   1      31.025  26.280  24.323  1.00  0.00     0.121 C 
BRANCH  10  13
ATOM     13  C   UNL A   1      32.473  24.536  25.252  1.00  0.00     0.254 C 
ATOM     14  O   UNL A   1      31.700  24.308  26.178  1.00  0.00    -0.269 OA
BRANCH  13  15
ATOM     15  C   UNL A   1      33.692  23.712  25.169  1.00  0.00     0.040 A 
ATOM     16  C   UNL A   1      33.544  22.394  24.737  1.00  0.00     0.014 A 
ATOM     17  C   UNL A   1      34.929  24.183  25.613  1.00  0.00     0.022 A 
ATOM     18  C   UNL A   1      34.657  21.559  24.670  1.00  0.00     0.009 A 
ATOM     19  C   UNL A   1      36.054  23.338  25.580  1.00  0.00    -0.018 A 
ATOM     20  C   UNL A   1      35.917  22.018  25.081  1.00  0.00    -0.018 A 
ATOM     21  C   UNL A   1      37.311  23.756  26.050  1.00  0.00     0.009 A 
ATOM     22  C   UNL A   1      37.038  21.177  25.028  1.00  0.00     0.009 A 
ATOM     23  C   UNL A   1      38.411  22.894  26.020  1.00  0.00     0.001 A 
ATOM     24  C   UNL A   1      38.277  21.610  25.498  1.00  0.00     0.001 A 
ENDBRANCH  13  15
ENDBRANCH  10  13
ENDBRANCH   4   7
ENDBRANCH   2   3
ENDBRANCH   1   2
BRANCH   1  25
ATOM     25  C   UNL A   1      33.497  28.551  27.392  1.00  0.00     0.118 C 
BRANCH  25  26
ATOM     26  N   UNL A   1      33.534  29.978  27.672  1.00  0.00    -0.352 N 
ATOM     27  C   UNL A   1      34.514  30.751  28.244  1.00  0.00     0.251 C 
ATOM     28  H   UNL A   1      32.724  30.471  27.409  1.00  0.00     0.163 HD
ATOM     29  O   UNL A   1      34.255  31.903  28.575  1.00  0.00    -0.269 OA
BRANCH  27  30
ATOM     30  C   UNL A   1      35.869  30.206  28.478  1.00  0.00     0.039 A 
ATOM     31  C   UNL A   1      36.792  30.236  27.428  1.00  0.00     0.014 A 
ATOM     32  C   UNL A   1      36.226  29.634  29.700  1.00  0.00     0.014 A 
ATOM     33  C   UNL A   1      38.085  29.747  27.628  1.00  0.00     0.010 A 
ATOM     34  C   UNL A   1      37.541  29.242  29.929  1.00  0.00     0.010 A 
ATOM     35  C   UNL A   1      38.482  29.282  28.891  1.00  0.00    -0.014 A 
BRANCH  35  36
ATOM     36  C   UNL A   1      39.875  28.830  29.135  1.00  0.00     0.031 A 
ATOM     37  C   UNL A   1      40.875  29.749  29.786  1.00  0.00     0.074 A 
ATOM     38  C   UNL A   1      40.254  27.603  28.728  1.00  0.00     0.049 A 
ATOM     39  N   UNL A   1      42.136  29.533  30.062  1.00  0.00    -0.248 NA
ATOM     40  C   UNL A   1      40.403  31.094  30.151  1.00  0.00     0.031 C 
ATOM     41  C   UNL A   1      39.396  26.634  28.041  1.00  0.00     0.029 A 
ATOM     42  N   UNL A   1      41.461  26.960  28.834  1.00  0.00    -0.354 N 
ATOM     43  C   UNL A   1      42.609  30.713  30.622  1.00  0.00     0.074 A 
ATOM     44  C   UNL A   1      41.517  31.662  30.588  1.00  0.00     0.031 C 
ATOM     45  C   UNL A   1      40.093  25.508  27.823  1.00  0.00     0.029 A 
ATOM     46  C   UNL A   1      41.455  25.689  28.313  1.00  0.00     0.049 A 
ATOM     47  H   UNL A   1      42.257  27.370  29.245  1.00  0.00     0.167 HD
ATOM     48  C   UNL A   1      43.831  30.979  31.141  1.00  0.00     0.031 A 
ATOM     49  C   UNL A   1      42.435  24.770  28.235  1.00  0.00     0.031 A 
ATOM     50  C   UNL A   1      44.917  30.035  31.174  1.00  0.00     0.049 A 
ATOM     51  C   UNL A   1      43.788  25.093  28.804  1.00  0.00     0.074 A 
ATOM     52  C   UNL A   1      46.180  30.192  31.718  1.00  0.00     0.029 A 
ATOM     53  N   UNL A   1      44.870  28.758  30.635  1.00  0.00    -0.354 N 
ATOM     54  N   UNL A   1      44.197  26.190  29.393  1.00  0.00    -0.248 NA
ATOM     55  C   UNL A   1      44.810  24.042  28.710  1.00  0.00     0.031 C 
ATOM     56  C   UNL A   1      46.915  29.032  31.456  1.00  0.00     0.029 A 
ATOM     57  C   UNL A   1      46.089  28.126  30.809  1.00  0.00     0.049 A 
ATOM     58  H   UNL A   1      44.085  28.361  30.193  1.00  0.00     0.167 HD
ATOM     59  C   UNL A   1      45.515  25.954  29.762  1.00  0.00     0.074 A 
ATOM     60  C   UNL A   1      45.827  24.600  29.351  1.00  0.00     0.031 C 
ATOM     61  C   UNL A   1      46.390  26.784  30.383  1.00  0.00     0.031 A 
BRANCH  48  62
ATOM     62  C   UNL A   1      44.057  32.355  31.710  1.00  0.00    -0.014 A 
ATOM     63  C   UNL A   1      43.798  32.634  33.062  1.00  0.00     0.009 A 
ATOM     64  C   UNL A   1      44.559  33.378  30.892  1.00  0.00     0.009 A 
ATOM     65  C   UNL A   1      43.997  33.920  33.571  1.00  0.00     0.001 A 
ATOM     66  C   UNL A   1      44.790  34.653  31.412  1.00  0.00     0.001 A 
ATOM     67  C   UNL A   1      44.498  34.926  32.747  1.00  0.00     0.000 A 
ENDBRANCH  48  62
BRANCH  49  68
ATOM     68  C   UNL A   1      42.169  23.451  27.602  1.00  0.00    -0.014 A 
ATOM     69  C   UNL A   1      41.576  22.412  28.335  1.00  0.00     0.009 A 
ATOM     70  C   UNL A   1      42.507  23.226  26.258  1.00  0.00     0.009 A 
ATOM     71  C   UNL A   1      41.354  21.165  27.743  1.00  0.00     0.001 A 
ATOM     72  C   UNL A   1      42.253  21.990  25.660  1.00  0.00     0.001 A 
ATOM     73  C   UNL A   1      41.687  20.957  26.406  1.00  0.00     0.000 A 
ENDBRANCH  49  68
BRANCH  61  74
ATOM     74  C   UNL A   1      47.760  26.236  30.677  1.00  0.00    -0.014 A 
ATOM     75  C   UNL A   1      48.086  25.720  31.941  1.00  0.00     0.009 A 
ATOM     76  C   UNL A   1      48.731  26.218  29.664  1.00  0.00     0.009 A 
ATOM     77  C   UNL A   1      49.372  25.238  32.198  1.00  0.00     0.001 A 
ATOM     78  C   UNL A   1      50.005  25.703  29.913  1.00  0.00     0.001 A 
ATOM     79  C   UNL A   1      50.327  25.226  31.182  1.00  0.00     0.000 A 
ENDBRANCH  61  74
ENDBRANCH  35  36
ENDBRANCH  27  30
ENDBRANCH  25  26
ENDBRANCH   1  25
TORSDOF 12
ENDMDL
MODEL 2
REMARK VINA RESULT:     -11.7      2.361      7.790
REMARK SMILES C[C@H]1[C@H](C(=O)NCCCNC(=O)c2ccc(-c3c4nc(c(-c5ccccc5)c5ccc([nH]5)c(-c5ccccc5)c5nc(c(-c6ccccc6)c6ccc3[nH]6)C=C5)C=C4)cc2)CCN1C(=O)c1ccc2ccccc2c1
REMARK SMILES IDX 8 1 7 2 6 3 4 4 5 5 3 7 1 8 2 9 63 10 61 11 62 12 64 13
REMARK SMILES IDX 65 14 66 15 67 16 75 17 68 18 74 19 69 20 73 21 70 22 72 23
REMARK SMILES IDX 71 24 9 25 10 26 11 27 12 29 13 30 14 31 60 32 15 33 59 34
REMARK SMILES IDX 16 35 17 36 18 37 53 38 19 39 58 40 52 41 54 42 20 43 57 44
REMARK SMILES IDX 51 45 50 46 21 48 43 49 28 50 42 51 29 52 32 53 41 54 55 55
REMARK SMILES IDX 30 56 31 57 40 59 56 60 33 61 22 62 23 63 27 64 24 65 26 66
REMARK SMILES IDX 25 67 44 68 45 69 49 70 46 71 48 72 47 73 34 74 35 75 39 76
REMARK SMILES IDX 36 77 38 78 37 79
REMARK H PARENT 6 6 10 28 54 47 32 58
REMARK Flexibility Score: inf
ROOT
ATOM      1  C   UNL A   1      35.972  23.664  26.020  1.00  0.00     0.042 C 
ENDROOT
BRANCH   1   2
ATOM      2  C   UNL A   1      34.610  23.926  25.396  1.00  0.00     0.117 C 
BRANCH   2   3
ATOM      3  N   UNL A   1      33.626  22.944  25.817  1.00  0.00    -0.356 N 
ATOM      4  C   UNL A   1      32.492  22.498  25.218  1.00  0.00     0.225 C 
ATOM      5  O   UNL A   1      31.804  21.690  25.847  1.00  0.00    -0.275 OA
ATOM      6  H   UNL A   1      33.815  22.528  26.689  1.00  0.00     0.163 HD
BRANCH   4   7
ATOM      7  C   UNL A   1      32.055  22.953  23.835  1.00  0.00     0.102 C 
ATOM      8  C   UNL A   1      30.341  24.737  23.404  1.00  0.00     0.032 C 
ATOM      9  C   UNL A   1      31.806  24.470  23.750  1.00  0.00     0.094 C 
ATOM     10  N   UNL A   1      32.734  24.941  22.720  1.00  0.00    -0.335 N 
ATOM     11  C   UNL A   1      33.038  22.585  22.722  1.00  0.00     0.037 C 
ATOM     12  C   UNL A   1      33.224  23.848  21.904  1.00  0.00     0.121 C 
BRANCH  10  13
ATOM     13  C   UNL A   1      33.184  26.229  22.480  1.00  0.00     0.254 C 
ATOM     14  O   UNL A   1      33.744  26.569  21.441  1.00  0.00    -0.269 OA
BRANCH  13  15
ATOM     15  C   UNL A   1      32.907  27.279  23.475  1.00  0.00     0.040 A 
ATOM     16  C   UNL A   1      31.795  28.093  23.253  1.00  0.00     0.014 A 
ATOM     17  C   UNL A   1      33.777  27.535  24.537  1.00  0.00     0.022 A 
ATOM     18  C   UNL A   1      31.503  29.123  24.143  1.00  0.00     0.009 A 
ATOM     19  C   UNL A   1      33.509  28.594  25.425  1.00  0.00    -0.018 A 
ATOM     20  C   UNL A   1      32.345  29.381  25.235  1.00  0.00    -0.018 A 
ATOM     21  C   UNL A   1      34.375  28.910  26.486  1.00  0.00     0.009 A 
ATOM     22  C   UNL A   1      32.062  30.425  26.127  1.00  0.00     0.009 A 
ATOM     23  C   UNL A   1      34.094  29.976  27.346  1.00  0.00     0.001 A 
ATOM     24  C   UNL A   1      32.933  30.724  27.174  1.00  0.00     0.001 A 
ENDBRANCH  13  15
ENDBRANCH  10  13
ENDBRANCH   4   7
ENDBRANCH   2   3
ENDBRANCH   1   2
BRANCH   1  25
ATOM     25  C   UNL A   1      37.111  23.634  25.012  1.00  0.00     0.118 C 
BRANCH  25  26
ATOM     26  N   UNL A   1      38.168  22.710  25.395  1.00  0.00    -0.352 N 
ATOM     27  C   UNL A   1      39.335  22.924  26.084  1.00  0.00     0.251 C 
ATOM     28  H   UNL A   1      38.021  21.778  25.115  1.00  0.00     0.163 HD
ATOM     29  O   UNL A   1      40.184  22.040  26.120  1.00  0.00    -0.269 OA
BRANCH  27  30
ATOM     30  C   UNL A   1      39.586  24.211  26.769  1.00  0.00     0.039 A 
ATOM     31  C   UNL A   1      39.087  24.389  28.063  1.00  0.00     0.014 A 
ATOM     32  C   UNL A   1      40.269  25.253  26.139  1.00  0.00     0.014 A 
ATOM     33  C   UNL A   1      39.327  25.586  28.741  1.00  0.00     0.010 A 
ATOM     34  C   UNL A   1      40.594  26.404  26.851  1.00  0.00     0.010 A 
ATOM     35  C   UNL A   1      40.116  26.589  28.155  1.00  0.00    -0.014 A 
BRANCH  35  36
ATOM     36  C   UNL A   1      40.440  27.835  28.895  1.00  0.00     0.031 A 
ATOM     37  C   UNL A   1      41.765  27.987  29.593  1.00  0.00     0.074 A 
ATOM     38  C   UNL A   1      39.520  28.814  28.976  1.00  0.00     0.049 A 
ATOM     39  N   UNL A   1      42.215  28.993  30.300  1.00  0.00    -0.248 NA
ATOM     40  C   UNL A   1      42.697  26.851  29.508  1.00  0.00     0.031 C 
ATOM     41  C   UNL A   1      38.179  28.771  28.385  1.00  0.00     0.029 A 
ATOM     42  N   UNL A   1      39.573  30.041  29.588  1.00  0.00    -0.354 N 
ATOM     43  C   UNL A   1      43.472  28.608  30.749  1.00  0.00     0.074 A 
ATOM     44  C   UNL A   1      43.687  27.254  30.290  1.00  0.00     0.031 C 
ATOM     45  C   UNL A   1      37.554  29.933  28.631  1.00  0.00     0.029 A 
ATOM     46  C   UNL A   1      38.428  30.784  29.431  1.00  0.00     0.049 A 
ATOM     47  H   UNL A   1      40.357  30.360  30.092  1.00  0.00     0.167 HD
ATOM     48  C   UNL A   1      44.376  29.324  31.458  1.00  0.00     0.031 A 
ATOM     49  C   UNL A   1      38.113  32.013  29.883  1.00  0.00     0.031 A 
ATOM     50  C   UNL A   1      44.162  30.671  31.916  1.00  0.00     0.049 A 
ATOM     51  C   UNL A   1      39.129  32.782  30.680  1.00  0.00     0.074 A 
ATOM     52  C   UNL A   1      45.033  31.498  32.603  1.00  0.00     0.029 A 
ATOM     53  N   UNL A   1      42.988  31.388  31.738  1.00  0.00    -0.354 N 
ATOM     54  N   UNL A   1      40.339  32.429  31.037  1.00  0.00    -0.248 NA
ATOM     55  C   UNL A   1      38.736  34.126  31.125  1.00  0.00     0.031 C 
ATOM     56  C   UNL A   1      44.366  32.693  32.891  1.00  0.00     0.029 A 
ATOM     57  C   UNL A   1      43.102  32.636  32.324  1.00  0.00     0.049 A 
ATOM     58  H   UNL A   1      42.191  31.056  31.264  1.00  0.00     0.167 HD
ATOM     59  C   UNL A   1      40.863  33.516  31.727  1.00  0.00     0.074 A 
ATOM     60  C   UNL A   1      39.846  34.546  31.715  1.00  0.00     0.031 C 
ATOM     61  C   UNL A   1      42.077  33.647  32.317  1.00  0.00     0.031 A 
BRANCH  48  62
ATOM     62  C   UNL A   1      45.684  28.653  31.788  1.00  0.00    -0.014 A 
ATOM     63  C   UNL A   1      45.843  27.909  32.968  1.00  0.00     0.009 A 
ATOM     64  C   UNL A   1      46.763  28.743  30.895  1.00  0.00     0.009 A 
ATOM     65  C   UNL A   1      47.067  27.305  33.267  1.00  0.00     0.001 A 
ATOM     66  C   UNL A   1      47.975  28.111  31.180  1.00  0.00     0.001 A 
ATOM     67  C   UNL A   1      48.130  27.403  32.370  1.00  0.00     0.000 A 
ENDBRANCH  48  62
BRANCH  49  68
ATOM     68  C   UNL A   1      36.780  32.597  29.579  1.00  0.00    -0.014 A 
ATOM     69  C   UNL A   1      36.543  33.243  28.356  1.00  0.00     0.009 A 
ATOM     70  C   UNL A   1      35.736  32.510  30.513  1.00  0.00     0.009 A 
ATOM     71  C   UNL A   1      35.296  33.815  28.088  1.00  0.00     0.001 A 
ATOM     72  C   UNL A   1      34.482  33.053  30.229  1.00  0.00     0.001 A 
ATOM     73  C   UNL A   1      34.266  33.715  29.021  1.00  0.00     0.000 A 
ENDBRANCH  49  68
BRANCH  61  74
ATOM     74  C   UNL A   1      42.375  34.966  32.978  1.00  0.00    -0.014 A 
ATOM     75  C   UNL A   1      41.863  35.282  34.246  1.00  0.00     0.009 A 
ATOM     76  C   UNL A   1      43.200  35.897  32.326  1.00  0.00     0.009 A 
ATOM     77  C   UNL A   1      42.135  36.522  34.829  1.00  0.00     0.001 A 
ATOM     78  C   UNL A   1      43.498  37.121  32.926  1.00  0.00     0.001 A 
ATOM     79  C   UNL A   1      42.956  37.437  34.170  1.00  0.00     0.000 A 
ENDBRANCH  61  74
ENDBRANCH  35  36
ENDBRANCH  27  30
ENDBRANCH  25  26
ENDBRANCH   1  25
TORSDOF 12
ENDMDL
MODEL 3
REMARK VINA RESULT:     -11.5      1.348      4.121
REMARK SMILES C[C@H]1[C@H](C(=O)NCCCNC(=O)c2ccc(-c3c4nc(c(-c5ccccc5)c5ccc([nH]5)c(-c5ccccc5)c5nc(c(-c6ccccc6)c6ccc3[nH]6)C=C5)C=C4)cc2)CCN1C(=O)c1ccc2ccccc2c1
REMARK SMILES IDX 8 1 7 2 6 3 4 4 5 5 3 7 1 8 2 9 63 10 61 11 62 12 64 13
REMARK SMILES IDX 65 14 66 15 67 16 75 17 68 18 74 19 69 20 73 21 70 22 72 23
REMARK SMILES IDX 71 24 9 25 10 26 11 27 12 29 13 30 14 31 60 32 15 33 59 34
REMARK SMILES IDX 16 35 17 36 18 37 53 38 19 39 58 40 52 41 54 42 20 43 57 44
REMARK SMILES IDX 51 45 50 46 21 48 43 49 28 50 42 51 29 52 32 53 41 54 55 55
REMARK SMILES IDX 30 56 31 57 40 59 56 60 33 61 22 62 23 63 27 64 24 65 26 66
REMARK SMILES IDX 25 67 44 68 45 69 49 70 46 71 48 72 47 73 34 74 35 75 39 76
REMARK SMILES IDX 36 77 38 78 37 79
REMARK H PARENT 6 6 10 28 54 47 32 58
REMARK Flexibility Score: inf
ROOT
ATOM      1  C   UNL A   1      32.244  27.908  27.587  1.00  0.00     0.042 C 
ENDROOT
BRANCH   1   2
ATOM      2  C   UNL A   1      31.740  26.957  26.514  1.00  0.00     0.117 C 
BRANCH   2   3
ATOM      3  N   UNL A   1      31.353  25.672  27.071  1.00  0.00    -0.356 N 
ATOM      4  C   UNL A   1      31.596  24.403  26.652  1.00  0.00     0.225 C 
ATOM      5  O   UNL A   1      31.080  23.488  27.300  1.00  0.00    -0.275 OA
ATOM      6  H   UNL A   1      30.821  25.731  27.898  1.00  0.00     0.163 HD
BRANCH   4   7
ATOM      7  C   UNL A   1      32.458  24.085  25.442  1.00  0.00     0.102 C 
ATOM      8  C   UNL A   1      31.561  23.347  23.215  1.00  0.00     0.032 C 
ATOM      9  C   UNL A   1      31.832  24.553  24.116  1.00  0.00     0.094 C 
ATOM     10  N   UNL A   1      32.812  25.481  23.549  1.00  0.00    -0.335 N 
ATOM     11  C   UNL A   1      33.870  24.669  25.516  1.00  0.00     0.037 C 
ATOM     12  C   UNL A   1      34.112  25.329  24.172  1.00  0.00     0.121 C 
BRANCH  10  13
ATOM     13  C   UNL A   1      32.631  26.445  22.571  1.00  0.00     0.254 C 
ATOM     14  O   UNL A   1      33.096  26.358  21.438  1.00  0.00    -0.269 OA
BRANCH  13  15
ATOM     15  C   UNL A   1      31.764  27.601  22.860  1.00  0.00     0.040 A 
ATOM     16  C   UNL A   1      32.292  28.611  23.665  1.00  0.00     0.014 A 
ATOM     17  C   UNL A   1      30.431  27.642  22.447  1.00  0.00     0.022 A 
ATOM     18  C   UNL A   1      31.507  29.712  23.997  1.00  0.00     0.009 A 
ATOM     19  C   UNL A   1      29.619  28.735  22.804  1.00  0.00    -0.018 A 
ATOM     20  C   UNL A   1      30.174  29.791  23.569  1.00  0.00    -0.018 A 
ATOM     21  C   UNL A   1      28.263  28.802  22.441  1.00  0.00     0.009 A 
ATOM     22  C   UNL A   1      29.375  30.892  23.912  1.00  0.00     0.009 A 
ATOM     23  C   UNL A   1      27.473  29.892  22.819  1.00  0.00     0.001 A 
ATOM     24  C   UNL A   1      28.032  30.941  23.543  1.00  0.00     0.001 A 
ENDBRANCH  13  15
ENDBRANCH  10  13
ENDBRANCH   4   7
ENDBRANCH   2   3
ENDBRANCH   1   2
BRANCH   1  25
ATOM     25  C   UNL A   1      33.538  28.617  27.217  1.00  0.00     0.118 C 
BRANCH  25  26
ATOM     26  N   UNL A   1      33.541  30.015  27.620  1.00  0.00    -0.352 N 
ATOM     27  C   UNL A   1      34.491  30.752  28.284  1.00  0.00     0.251 C 
ATOM     28  H   UNL A   1      32.729  30.515  27.377  1.00  0.00     0.163 HD
ATOM     29  O   UNL A   1      34.202  31.867  28.705  1.00  0.00    -0.269 OA
BRANCH  27  30
ATOM     30  C   UNL A   1      35.849  30.210  28.508  1.00  0.00     0.039 A 
ATOM     31  C   UNL A   1      36.769  30.255  27.456  1.00  0.00     0.014 A 
ATOM     32  C   UNL A   1      36.212  29.628  29.724  1.00  0.00     0.014 A 
ATOM     33  C   UNL A   1      38.065  29.770  27.647  1.00  0.00     0.010 A 
ATOM     34  C   UNL A   1      37.530  29.239  29.945  1.00  0.00     0.010 A 
ATOM     35  C   UNL A   1      38.467  29.294  28.905  1.00  0.00    -0.014 A 
BRANCH  35  36
ATOM     36  C   UNL A   1      39.863  28.846  29.140  1.00  0.00     0.031 A 
ATOM     37  C   UNL A   1      40.865  29.768  29.783  1.00  0.00     0.074 A 
ATOM     38  C   UNL A   1      40.242  27.620  28.732  1.00  0.00     0.049 A 
ATOM     39  N   UNL A   1      42.128  29.556  30.051  1.00  0.00    -0.248 NA
ATOM     40  C   UNL A   1      40.392  31.113  30.149  1.00  0.00     0.031 C 
ATOM     41  C   UNL A   1      39.382  26.647  28.053  1.00  0.00     0.029 A 
ATOM     42  N   UNL A   1      41.452  26.980  28.831  1.00  0.00    -0.354 N 
ATOM     43  C   UNL A   1      42.602  30.738  30.606  1.00  0.00     0.074 A 
ATOM     44  C   UNL A   1      41.508  31.684  30.578  1.00  0.00     0.031 C 
ATOM     45  C   UNL A   1      40.080  25.522  27.831  1.00  0.00     0.029 A 
ATOM     46  C   UNL A   1      41.445  25.708  28.312  1.00  0.00     0.049 A 
ATOM     47  H   UNL A   1      42.249  27.392  29.236  1.00  0.00     0.167 HD
ATOM     48  C   UNL A   1      43.826  31.007  31.117  1.00  0.00     0.031 A 
ATOM     49  C   UNL A   1      42.427  24.791  28.228  1.00  0.00     0.031 A 
ATOM     50  C   UNL A   1      44.915  30.067  31.144  1.00  0.00     0.049 A 
ATOM     51  C   UNL A   1      43.783  25.118  28.789  1.00  0.00     0.074 A 
ATOM     52  C   UNL A   1      46.181  30.228  31.679  1.00  0.00     0.029 A 
ATOM     53  N   UNL A   1      44.868  28.789  30.607  1.00  0.00    -0.354 N 
ATOM     54  N   UNL A   1      44.193  26.217  29.373  1.00  0.00    -0.248 NA
ATOM     55  C   UNL A   1      44.807  24.070  28.689  1.00  0.00     0.031 C 
ATOM     56  C   UNL A   1      46.918  29.069  31.414  1.00  0.00     0.029 A 
ATOM     57  C   UNL A   1      46.090  28.160  30.774  1.00  0.00     0.049 A 
ATOM     58  H   UNL A   1      44.081  28.389  30.171  1.00  0.00     0.167 HD
ATOM     59  C   UNL A   1      45.515  25.985  29.733  1.00  0.00     0.074 A 
ATOM     60  C   UNL A   1      45.827  24.632  29.323  1.00  0.00     0.031 C 
ATOM     61  C   UNL A   1      46.391  26.818  30.347  1.00  0.00     0.031 A 
BRANCH  48  62
ATOM     62  C   UNL A   1      44.053  32.385  31.683  1.00  0.00    -0.014 A 
ATOM     63  C   UNL A   1      43.775  32.673  33.029  1.00  0.00     0.009 A 
ATOM     64  C   UNL A   1      44.574  33.401  30.867  1.00  0.00     0.009 A 
ATOM     65  C   UNL A   1      43.975  33.959  33.535  1.00  0.00     0.001 A 
ATOM     66  C   UNL A   1      44.805  34.677  31.384  1.00  0.00     0.001 A 
ATOM     67  C   UNL A   1      44.495  34.959  32.713  1.00  0.00     0.000 A 
ENDBRANCH  48  62
BRANCH  49  68
ATOM     68  C   UNL A   1      42.160  23.471  27.600  1.00  0.00    -0.014 A 
ATOM     69  C   UNL A   1      42.506  23.231  26.261  1.00  0.00     0.009 A 
ATOM     70  C   UNL A   1      41.557  22.440  28.338  1.00  0.00     0.009 A 
ATOM     71  C   UNL A   1      42.226  21.997  25.668  1.00  0.00     0.001 A 
ATOM     72  C   UNL A   1      41.309  21.198  27.753  1.00  0.00     0.001 A 
ATOM     73  C   UNL A   1      41.634  20.981  26.415  1.00  0.00     0.000 A 
ENDBRANCH  49  68
BRANCH  61  74
ATOM     74  C   UNL A   1      47.764  26.274  30.633  1.00  0.00    -0.014 A 
ATOM     75  C   UNL A   1      48.093  25.740  31.889  1.00  0.00     0.009 A 
ATOM     76  C   UNL A   1      48.736  26.278  29.621  1.00  0.00     0.009 A 
ATOM     77  C   UNL A   1      49.382  25.262  32.139  1.00  0.00     0.001 A 
ATOM     78  C   UNL A   1      50.013  25.768  29.862  1.00  0.00     0.001 A 
ATOM     79  C   UNL A   1      50.338  25.272  31.124  1.00  0.00     0.000 A 
ENDBRANCH  61  74
ENDBRANCH  35  36
ENDBRANCH  27  30
ENDBRANCH  25  26
ENDBRANCH   1  25
TORSDOF 12
ENDMDL
