MODEL 1
REMARK VINA RESULT:     -12.2      0.000      0.000
REMARK SMILES Cc1cccc(NC(=O)[C@H]2C=C[C@@H]([NH3+])C2)c1C(=O)NCCCNC(=O)c1ccc(-c2c3nc(c(-c4ccccc4)c4ccc([nH]4)c(-c4ccccc4)c4nc(c(-c5ccccc5)c5ccc2[nH]5)C=C4)C=C3)cc1
REMARK SMILES IDX 20 1 19 2 17 3 18 4 16 6 1 7 2 8 3 9 4 10 6 11 5 12 7 13
REMARK SMILES IDX 8 14 9 16 10 17 11 18 15 19 12 20 13 21 14 22 21 26 22 27
REMARK SMILES IDX 23 28 24 29 25 31 26 32 27 33 73 34 28 35 72 36 29 37 30 38
REMARK SMILES IDX 31 39 66 40 32 41 71 42 65 43 67 44 33 45 70 46 64 47 63 48
REMARK SMILES IDX 34 50 56 51 41 52 55 53 42 54 45 55 54 56 68 57 43 58 44 59
REMARK SMILES IDX 53 61 69 62 46 63 35 64 36 65 40 66 37 67 39 68 38 69 57 70
REMARK SMILES IDX 58 71 62 72 59 73 61 74 60 75 47 76 48 77 52 78 49 79 51 80
REMARK SMILES IDX 50 81
REMARK H PARENT 19 5 7 15 14 23 14 24 14 25 23 30 67 49 45 60
REMARK Flexibility Score: inf
ROOT
ATOM      1  C   UNL A   1      37.850  23.502  25.778  1.00  0.00     0.118 C 
ENDROOT
BRANCH   1   2
ATOM      2  N   UNL A   1      37.508  23.370  24.372  1.00  0.00    -0.352 N 
ATOM      3  C   UNL A   1      36.462  22.958  23.588  1.00  0.00     0.253 C 
ATOM      4  O   UNL A   1      36.722  23.106  22.384  1.00  0.00    -0.269 OA
ATOM      5  H   UNL A   1      38.258  23.667  23.809  1.00  0.00     0.163 HD
BRANCH   3   6
ATOM      6  C   UNL A   1      35.094  22.383  23.947  1.00  0.00     0.066 A 
ATOM      7  C   UNL A   1      35.742  20.229  25.280  1.00  0.00     0.045 C 
ATOM      8  C   UNL A   1      34.799  21.254  24.761  1.00  0.00    -0.036 A 
ATOM      9  C   UNL A   1      33.464  20.882  25.028  1.00  0.00     0.004 A 
ATOM     10  C   UNL A   1      32.439  21.390  24.278  1.00  0.00     0.002 A 
ATOM     11  C   UNL A   1      33.962  23.001  23.303  1.00  0.00     0.054 A 
ATOM     12  C   UNL A   1      32.732  22.365  23.350  1.00  0.00     0.027 A 
BRANCH  11  13
ATOM     13  N   UNL A   1      34.050  24.232  22.608  1.00  0.00    -0.325 N 
ATOM     14  C   UNL A   1      33.733  25.536  22.842  1.00  0.00     0.231 C 
ATOM     15  H   UNL A   1      34.447  24.113  21.716  1.00  0.00     0.169 HD
ATOM     16  O   UNL A   1      33.994  26.306  21.897  1.00  0.00    -0.274 OA
BRANCH  14  17
ATOM     17  C   UNL A   1      33.048  26.183  24.071  1.00  0.00     0.107 C 
ATOM     18  C   UNL A   1      33.922  26.127  25.291  1.00  0.00    -0.012 C 
ATOM     19  C   UNL A   1      32.445  27.597  24.103  1.00  0.00     0.087 C 
ATOM     20  C   UNL A   1      33.804  27.222  26.048  1.00  0.00     0.033 C 
ATOM     21  C   UNL A   1      32.844  28.211  25.472  1.00  0.00     0.205 C 
BRANCH  21  22
ATOM     22  N   UNL A   1      33.456  29.532  25.383  1.00  0.00    -0.352 N 
ATOM     23  H   UNL A   1      32.971  30.084  24.676  1.00  0.00     0.345 HD
ATOM     24  H   UNL A   1      34.438  29.435  25.124  1.00  0.00     0.345 HD
ATOM     25  H   UNL A   1      33.387  29.999  26.287  1.00  0.00     0.345 HD
ENDBRANCH  21  22
ENDBRANCH  14  17
ENDBRANCH  11  13
ENDBRANCH   3   6
ENDBRANCH   1   2
BRANCH   1  26
ATOM     26  C   UNL A   1      38.674  22.316  26.272  1.00  0.00     0.042 C 
BRANCH  26  27
ATOM     27  C   UNL A   1      40.178  22.474  26.246  1.00  0.00     0.118 C 
BRANCH  27  28
ATOM     28  N   UNL A   1      40.864  21.332  25.630  1.00  0.00    -0.352 N 
ATOM     29  C   UNL A   1      42.196  20.969  25.763  1.00  0.00     0.251 C 
ATOM     30  H   UNL A   1      40.313  20.755  25.053  1.00  0.00     0.163 HD
ATOM     31  O   UNL A   1      42.640  19.950  25.265  1.00  0.00    -0.269 OA
BRANCH  29  32
ATOM     32  C   UNL A   1      43.022  21.808  26.656  1.00  0.00     0.039 A 
ATOM     33  C   UNL A   1      42.806  21.629  28.023  1.00  0.00     0.014 A 
ATOM     34  C   UNL A   1      43.546  22.994  26.148  1.00  0.00     0.014 A 
ATOM     35  C   UNL A   1      42.821  22.746  28.846  1.00  0.00     0.010 A 
ATOM     36  C   UNL A   1      43.471  24.120  26.948  1.00  0.00     0.010 A 
ATOM     37  C   UNL A   1      43.021  24.003  28.269  1.00  0.00    -0.014 A 
BRANCH  37  38
ATOM     38  C   UNL A   1      42.717  25.233  28.988  1.00  0.00     0.031 A 
ATOM     39  C   UNL A   1      41.557  26.025  28.556  1.00  0.00     0.074 A 
ATOM     40  C   UNL A   1      43.520  25.734  29.955  1.00  0.00     0.049 A 
ATOM     41  N   UNL A   1      41.548  27.314  28.484  1.00  0.00    -0.248 NA
ATOM     42  C   UNL A   1      40.324  25.399  28.099  1.00  0.00     0.031 C 
ATOM     43  C   UNL A   1      43.265  26.925  30.765  1.00  0.00     0.029 A 
ATOM     44  N   UNL A   1      44.851  25.422  30.230  1.00  0.00    -0.354 N 
ATOM     45  C   UNL A   1      40.241  27.688  28.292  1.00  0.00     0.074 A 
ATOM     46  C   UNL A   1      39.542  26.470  27.945  1.00  0.00     0.031 C 
ATOM     47  C   UNL A   1      44.444  27.432  31.159  1.00  0.00     0.029 A 
ATOM     48  C   UNL A   1      45.491  26.634  30.547  1.00  0.00     0.049 A 
ATOM     49  H   UNL A   1      45.262  24.527  30.209  1.00  0.00     0.167 HD
ATOM     50  C   UNL A   1      39.838  28.949  28.606  1.00  0.00     0.031 A 
ATOM     51  C   UNL A   1      46.581  27.111  29.882  1.00  0.00     0.031 A 
ATOM     52  C   UNL A   1      40.935  29.780  29.103  1.00  0.00     0.049 A 
ATOM     53  C   UNL A   1      46.366  28.475  29.253  1.00  0.00     0.074 A 
ATOM     54  C   UNL A   1      41.308  30.207  30.368  1.00  0.00     0.029 A 
ATOM     55  N   UNL A   1      42.012  30.061  28.273  1.00  0.00    -0.354 N 
ATOM     56  N   UNL A   1      45.245  29.138  29.288  1.00  0.00    -0.248 NA
ATOM     57  C   UNL A   1      47.368  29.132  28.419  1.00  0.00     0.031 C 
ATOM     58  C   UNL A   1      42.618  30.754  30.289  1.00  0.00     0.029 A 
ATOM     59  C   UNL A   1      43.037  30.671  28.976  1.00  0.00     0.049 A 
ATOM     60  H   UNL A   1      42.041  29.853  27.311  1.00  0.00     0.167 HD
ATOM     61  C   UNL A   1      45.328  30.243  28.472  1.00  0.00     0.074 A 
ATOM     62  C   UNL A   1      46.683  30.190  27.952  1.00  0.00     0.031 C 
ATOM     63  C   UNL A   1      44.252  31.066  28.269  1.00  0.00     0.031 A 
BRANCH  50  64
ATOM     64  C   UNL A   1      38.377  29.304  28.754  1.00  0.00    -0.014 A 
ATOM     65  C   UNL A   1      37.664  29.810  27.654  1.00  0.00     0.009 A 
ATOM     66  C   UNL A   1      37.664  29.217  29.962  1.00  0.00     0.009 A 
ATOM     67  C   UNL A   1      36.365  30.320  27.783  1.00  0.00     0.001 A 
ATOM     68  C   UNL A   1      36.386  29.771  30.113  1.00  0.00     0.001 A 
ATOM     69  C   UNL A   1      35.741  30.337  29.023  1.00  0.00     0.000 A 
ENDBRANCH  50  64
BRANCH  51  70
ATOM     70  C   UNL A   1      47.442  26.041  29.311  1.00  0.00    -0.014 A 
ATOM     71  C   UNL A   1      47.157  25.596  28.005  1.00  0.00     0.009 A 
ATOM     72  C   UNL A   1      48.712  25.791  29.847  1.00  0.00     0.009 A 
ATOM     73  C   UNL A   1      48.162  25.052  27.204  1.00  0.00     0.001 A 
ATOM     74  C   UNL A   1      49.712  25.235  29.042  1.00  0.00     0.001 A 
ATOM     75  C   UNL A   1      49.451  24.911  27.710  1.00  0.00     0.000 A 
ENDBRANCH  51  70
BRANCH  63  76
ATOM     76  C   UNL A   1      44.185  32.303  27.386  1.00  0.00    -0.014 A 
ATOM     77  C   UNL A   1      44.257  32.312  25.988  1.00  0.00     0.009 A 
ATOM     78  C   UNL A   1      44.094  33.577  28.000  1.00  0.00     0.009 A 
ATOM     79  C   UNL A   1      44.161  33.505  25.250  1.00  0.00     0.001 A 
ATOM     80  C   UNL A   1      44.008  34.769  27.274  1.00  0.00     0.001 A 
ATOM     81  C   UNL A   1      44.026  34.730  25.891  1.00  0.00     0.000 A 
ENDBRANCH  63  76
ENDBRANCH  37  38
ENDBRANCH  29  32
ENDBRANCH  27  28
ENDBRANCH  26  27
ENDBRANCH   1  26
TORSDOF 13
ENDMDL
MODEL 2
REMARK VINA RESULT:     -12.2      1.718      3.470
REMARK SMILES Cc1cccc(NC(=O)[C@H]2C=C[C@@H]([NH3+])C2)c1C(=O)NCCCNC(=O)c1ccc(-c2c3nc(c(-c4ccccc4)c4ccc([nH]4)c(-c4ccccc4)c4nc(c(-c5ccccc5)c5ccc2[nH]5)C=C4)C=C3)cc1
REMARK SMILES IDX 20 1 19 2 17 3 18 4 16 6 1 7 2 8 3 9 4 10 6 11 5 12 7 13
REMARK SMILES IDX 8 14 9 16 10 17 11 18 15 19 12 20 13 21 14 22 21 26 22 27
REMARK SMILES IDX 23 28 24 29 25 31 26 32 27 33 73 34 28 35 72 36 29 37 30 38
REMARK SMILES IDX 31 39 66 40 32 41 71 42 65 43 67 44 33 45 70 46 64 47 63 48
REMARK SMILES IDX 34 50 56 51 41 52 55 53 42 54 45 55 54 56 68 57 43 58 44 59
REMARK SMILES IDX 53 61 69 62 46 63 35 64 36 65 40 66 37 67 39 68 38 69 57 70
REMARK SMILES IDX 58 71 62 72 59 73 61 74 60 75 47 76 48 77 52 78 49 79 51 80
REMARK SMILES IDX 50 81
REMARK H PARENT 19 5 7 15 14 23 14 24 14 25 23 30 67 49 45 60
REMARK Flexibility Score: inf
ROOT
ATOM      1  C   UNL A   1      38.266  23.680  25.765  1.00  0.00     0.118 C 
ENDROOT
BRANCH   1   2
ATOM      2  N   UNL A   1      37.338  23.563  24.653  1.00  0.00    -0.352 N 
ATOM      3  C   UNL A   1      36.003  23.355  24.425  1.00  0.00     0.253 C 
ATOM      4  O   UNL A   1      35.747  23.389  23.212  1.00  0.00    -0.269 OA
ATOM      5  H   UNL A   1      37.816  23.665  23.799  1.00  0.00     0.163 HD
BRANCH   3   6
ATOM      6  C   UNL A   1      34.841  23.107  25.385  1.00  0.00     0.066 A 
ATOM      7  C   UNL A   1      33.819  25.500  25.634  1.00  0.00     0.045 C 
ATOM      8  C   UNL A   1      33.848  24.026  25.823  1.00  0.00    -0.036 A 
ATOM      9  C   UNL A   1      32.811  23.616  26.687  1.00  0.00     0.004 A 
ATOM     10  C   UNL A   1      32.901  22.431  27.365  1.00  0.00     0.002 A 
ATOM     11  C   UNL A   1      34.802  21.804  26.001  1.00  0.00     0.054 A 
ATOM     12  C   UNL A   1      33.962  21.599  27.084  1.00  0.00     0.027 A 
BRANCH  11  13
ATOM     13  N   UNL A   1      35.595  20.718  25.557  1.00  0.00    -0.325 N 
ATOM     14  C   UNL A   1      35.392  19.508  24.968  1.00  0.00     0.231 C 
ATOM     15  H   UNL A   1      36.551  20.883  25.718  1.00  0.00     0.169 HD
ATOM     16  O   UNL A   1      36.433  18.856  24.759  1.00  0.00    -0.274 OA
BRANCH  14  17
ATOM     17  C   UNL A   1      34.066  18.807  24.578  1.00  0.00     0.107 C 
ATOM     18  C   UNL A   1      34.308  17.576  23.753  1.00  0.00    -0.012 C 
ATOM     19  C   UNL A   1      32.965  18.390  25.566  1.00  0.00     0.087 C 
ATOM     20  C   UNL A   1      33.442  16.598  24.038  1.00  0.00     0.033 C 
ATOM     21  C   UNL A   1      32.476  16.988  25.109  1.00  0.00     0.205 C 
BRANCH  21  22
ATOM     22  N   UNL A   1      32.449  15.986  26.168  1.00  0.00    -0.352 N 
ATOM     23  H   UNL A   1      32.408  16.452  27.075  1.00  0.00     0.345 HD
ATOM     24  H   UNL A   1      33.291  15.414  26.117  1.00  0.00     0.345 HD
ATOM     25  H   UNL A   1      31.627  15.393  26.053  1.00  0.00     0.345 HD
ENDBRANCH  21  22
ENDBRANCH  14  17
ENDBRANCH  11  13
ENDBRANCH   3   6
ENDBRANCH   1   2
BRANCH   1  26
ATOM     26  C   UNL A   1      38.833  22.322  26.172  1.00  0.00     0.042 C 
BRANCH  26  27
ATOM     27  C   UNL A   1      40.307  22.276  26.512  1.00  0.00     0.118 C 
BRANCH  27  28
ATOM     28  N   UNL A   1      41.027  21.217  25.795  1.00  0.00    -0.352 N 
ATOM     29  C   UNL A   1      42.385  20.937  25.834  1.00  0.00     0.251 C 
ATOM     30  H   UNL A   1      40.481  20.638  25.215  1.00  0.00     0.163 HD
ATOM     31  O   UNL A   1      42.863  19.979  25.254  1.00  0.00    -0.269 OA
BRANCH  29  32
ATOM     32  C   UNL A   1      43.206  21.779  26.729  1.00  0.00     0.039 A 
ATOM     33  C   UNL A   1      42.983  21.604  28.096  1.00  0.00     0.014 A 
ATOM     34  C   UNL A   1      43.732  22.964  26.221  1.00  0.00     0.014 A 
ATOM     35  C   UNL A   1      42.993  22.723  28.915  1.00  0.00     0.010 A 
ATOM     36  C   UNL A   1      43.652  24.092  27.017  1.00  0.00     0.010 A 
ATOM     37  C   UNL A   1      43.196  23.979  28.335  1.00  0.00    -0.014 A 
BRANCH  37  38
ATOM     38  C   UNL A   1      42.888  25.211  29.050  1.00  0.00     0.031 A 
ATOM     39  C   UNL A   1      41.716  25.989  28.623  1.00  0.00     0.074 A 
ATOM     40  C   UNL A   1      43.695  25.726  30.005  1.00  0.00     0.049 A 
ATOM     41  N   UNL A   1      41.694  27.278  28.543  1.00  0.00    -0.248 NA
ATOM     42  C   UNL A   1      40.484  25.349  28.183  1.00  0.00     0.031 C 
ATOM     43  C   UNL A   1      43.437  26.920  30.810  1.00  0.00     0.029 A 
ATOM     44  N   UNL A   1      45.031  25.427  30.270  1.00  0.00    -0.354 N 
ATOM     45  C   UNL A   1      40.382  27.638  28.361  1.00  0.00     0.074 A 
ATOM     46  C   UNL A   1      39.691  26.412  28.029  1.00  0.00     0.031 C 
ATOM     47  C   UNL A   1      44.616  27.440  31.189  1.00  0.00     0.029 A 
ATOM     48  C   UNL A   1      45.663  26.647  30.571  1.00  0.00     0.049 A 
ATOM     49  H   UNL A   1      45.451  24.536  30.250  1.00  0.00     0.167 HD
ATOM     50  C   UNL A   1      39.971  28.898  28.671  1.00  0.00     0.031 A 
ATOM     51  C   UNL A   1      46.742  27.130  29.893  1.00  0.00     0.031 A 
ATOM     52  C   UNL A   1      41.065  29.742  29.151  1.00  0.00     0.049 A 
ATOM     53  C   UNL A   1      46.509  28.487  29.257  1.00  0.00     0.074 A 
ATOM     54  C   UNL A   1      41.447  30.181  30.410  1.00  0.00     0.029 A 
ATOM     55  N   UNL A   1      42.131  30.028  28.309  1.00  0.00    -0.354 N 
ATOM     56  N   UNL A   1      45.382  29.141  29.299  1.00  0.00    -0.248 NA
ATOM     57  C   UNL A   1      47.497  29.148  28.409  1.00  0.00     0.031 C 
ATOM     58  C   UNL A   1      42.751  30.740  30.314  1.00  0.00     0.029 A 
ATOM     59  C   UNL A   1      43.158  30.651  28.997  1.00  0.00     0.049 A 
ATOM     60  H   UNL A   1      42.153  29.813  27.348  1.00  0.00     0.167 HD
ATOM     61  C   UNL A   1      45.447  30.240  28.475  1.00  0.00     0.074 A 
ATOM     62  C   UNL A   1      46.798  30.197  27.942  1.00  0.00     0.031 C 
ATOM     63  C   UNL A   1      44.362  31.052  28.276  1.00  0.00     0.031 A 
BRANCH  50  64
ATOM     64  C   UNL A   1      38.508  29.241  28.830  1.00  0.00    -0.014 A 
ATOM     65  C   UNL A   1      37.786  29.755  27.740  1.00  0.00     0.009 A 
ATOM     66  C   UNL A   1      37.802  29.134  30.041  1.00  0.00     0.009 A 
ATOM     67  C   UNL A   1      36.484  30.254  27.882  1.00  0.00     0.001 A 
ATOM     68  C   UNL A   1      36.521  29.677  30.205  1.00  0.00     0.001 A 
ATOM     69  C   UNL A   1      35.866  30.251  29.125  1.00  0.00     0.000 A 
ENDBRANCH  50  64
BRANCH  51  70
ATOM     70  C   UNL A   1      47.607  26.064  29.321  1.00  0.00    -0.014 A 
ATOM     71  C   UNL A   1      47.299  25.591  28.030  1.00  0.00     0.009 A 
ATOM     72  C   UNL A   1      48.894  25.844  29.831  1.00  0.00     0.009 A 
ATOM     73  C   UNL A   1      48.295  25.048  27.216  1.00  0.00     0.001 A 
ATOM     74  C   UNL A   1      49.884  25.290  29.013  1.00  0.00     0.001 A 
ATOM     75  C   UNL A   1      49.597  24.938  27.694  1.00  0.00     0.000 A 
ENDBRANCH  51  70
BRANCH  63  76
ATOM     76  C   UNL A   1      44.275  32.282  27.386  1.00  0.00    -0.014 A 
ATOM     77  C   UNL A   1      44.385  32.289  25.991  1.00  0.00     0.009 A 
ATOM     78  C   UNL A   1      44.122  33.555  27.991  1.00  0.00     0.009 A 
ATOM     79  C   UNL A   1      44.267  33.474  25.244  1.00  0.00     0.001 A 
ATOM     80  C   UNL A   1      44.014  34.740  27.257  1.00  0.00     0.001 A 
ATOM     81  C   UNL A   1      44.071  34.697  25.876  1.00  0.00     0.000 A 
ENDBRANCH  63  76
ENDBRANCH  37  38
ENDBRANCH  29  32
ENDBRANCH  27  28
ENDBRANCH  26  27
ENDBRANCH   1  26
TORSDOF 13
ENDMDL
MODEL 3
REMARK VINA RESULT:     -12.0      3.165      8.231
REMARK SMILES Cc1cccc(NC(=O)[C@H]2C=C[C@@H]([NH3+])C2)c1C(=O)NCCCNC(=O)c1ccc(-c2c3nc(c(-c4ccccc4)c4ccc([nH]4)c(-c4ccccc4)c4nc(c(-c5ccccc5)c5ccc2[nH]5)C=C4)C=C3)cc1
REMARK SMILES IDX 20 1 19 2 17 3 18 4 16 6 1 7 2 8 3 9 4 10 6 11 5 12 7 13
REMARK SMILES IDX 8 14 9 16 10 17 11 18 15 19 12 20 13 21 14 22 21 26 22 27
REMARK SMILES IDX 23 28 24 29 25 31 26 32 27 33 73 34 28 35 72 36 29 37 30 38
REMARK SMILES IDX 31 39 66 40 32 41 71 42 65 43 67 44 33 45 70 46 64 47 63 48
REMARK SMILES IDX 34 50 56 51 41 52 55 53 42 54 45 55 54 56 68 57 43 58 44 59
REMARK SMILES IDX 53 61 69 62 46 63 35 64 36 65 40 66 37 67 39 68 38 69 57 70
REMARK SMILES IDX 58 71 62 72 59 73 61 74 60 75 47 76 48 77 52 78 49 79 51 80
REMARK SMILES IDX 50 81
REMARK H PARENT 19 5 7 15 14 23 14 24 14 25 23 30 67 49 45 60
REMARK Flexibility Score: inf
ROOT
ATOM      1  C   UNL A   1      33.914  29.658  27.167  1.00  0.00     0.118 C 
ENDROOT
BRANCH   1   2
ATOM      2  N   UNL A   1      32.771  28.922  27.678  1.00  0.00    -0.352 N 
ATOM      3  C   UNL A   1      31.701  28.202  27.214  1.00  0.00     0.253 C 
ATOM      4  O   UNL A   1      31.031  27.744  28.152  1.00  0.00    -0.269 OA
ATOM      5  H   UNL A   1      32.761  28.949  28.662  1.00  0.00     0.163 HD
BRANCH   3   6
ATOM      6  C   UNL A   1      31.236  27.886  25.795  1.00  0.00     0.066 A 
ATOM      7  C   UNL A   1      31.160  30.261  24.704  1.00  0.00     0.045 C 
ATOM      8  C   UNL A   1      31.097  28.775  24.694  1.00  0.00    -0.036 A 
ATOM      9  C   UNL A   1      30.691  28.304  23.427  1.00  0.00     0.004 A 
ATOM     10  C   UNL A   1      30.127  27.064  23.297  1.00  0.00     0.002 A 
ATOM     11  C   UNL A   1      30.785  26.535  25.567  1.00  0.00     0.054 A 
ATOM     12  C   UNL A   1      30.088  26.247  24.405  1.00  0.00     0.027 A 
BRANCH  11  13
ATOM     13  N   UNL A   1      31.012  25.482  26.486  1.00  0.00    -0.325 N 
ATOM     14  C   UNL A   1      31.870  24.433  26.611  1.00  0.00     0.231 C 
ATOM     15  H   UNL A   1      30.378  25.520  27.238  1.00  0.00     0.169 HD
ATOM     16  O   UNL A   1      31.685  23.734  27.626  1.00  0.00    -0.274 OA
BRANCH  14  17
ATOM     17  C   UNL A   1      32.991  23.951  25.655  1.00  0.00     0.107 C 
ATOM     18  C   UNL A   1      34.059  24.993  25.479  1.00  0.00    -0.012 C 
ATOM     19  C   UNL A   1      33.768  22.633  25.800  1.00  0.00     0.087 C 
ATOM     20  C   UNL A   1      35.278  24.454  25.379  1.00  0.00     0.033 C 
ATOM     21  C   UNL A   1      35.252  22.964  25.481  1.00  0.00     0.205 C 
BRANCH  21  22
ATOM     22  N   UNL A   1      36.200  22.499  26.487  1.00  0.00    -0.352 N 
ATOM     23  H   UNL A   1      35.863  22.753  27.415  1.00  0.00     0.345 HD
ATOM     24  H   UNL A   1      37.108  22.934  26.324  1.00  0.00     0.345 HD
ATOM     25  H   UNL A   1      36.292  21.485  26.423  1.00  0.00     0.345 HD
ENDBRANCH  21  22
ENDBRANCH  14  17
ENDBRANCH  11  13
ENDBRANCH   3   6
ENDBRANCH   1   2
BRANCH   1  26
ATOM     26  C   UNL A   1      33.986  31.067  27.751  1.00  0.00     0.042 C 
BRANCH  26  27
ATOM     27  C   UNL A   1      35.309  31.789  27.626  1.00  0.00     0.118 C 
BRANCH  27  28
ATOM     28  N   UNL A   1      35.925  32.085  28.925  1.00  0.00    -0.352 N 
ATOM     29  C   UNL A   1      36.792  31.286  29.656  1.00  0.00     0.251 C 
ATOM     30  H   UNL A   1      35.695  32.954  29.326  1.00  0.00     0.163 HD
ATOM     31  O   UNL A   1      37.306  31.670  30.691  1.00  0.00    -0.269 OA
BRANCH  29  32
ATOM     32  C   UNL A   1      37.172  29.995  29.045  1.00  0.00     0.039 A 
ATOM     33  C   UNL A   1      37.424  28.954  29.940  1.00  0.00     0.014 A 
ATOM     34  C   UNL A   1      37.721  30.007  27.765  1.00  0.00     0.014 A 
ATOM     35  C   UNL A   1      38.473  28.088  29.667  1.00  0.00     0.010 A 
ATOM     36  C   UNL A   1      38.823  29.203  27.535  1.00  0.00     0.010 A 
ATOM     37  C   UNL A   1      39.248  28.310  28.525  1.00  0.00    -0.014 A 
BRANCH  37  38
ATOM     38  C   UNL A   1      40.547  27.674  28.347  1.00  0.00     0.031 A 
ATOM     39  C   UNL A   1      40.592  26.212  28.198  1.00  0.00     0.074 A 
ATOM     40  C   UNL A   1      41.713  28.354  28.429  1.00  0.00     0.049 A 
ATOM     41  N   UNL A   1      41.482  25.457  28.751  1.00  0.00    -0.248 NA
ATOM     42  C   UNL A   1      39.576  25.481  27.455  1.00  0.00     0.031 C 
ATOM     43  C   UNL A   1      43.053  27.811  28.208  1.00  0.00     0.029 A 
ATOM     44  N   UNL A   1      41.950  29.613  28.981  1.00  0.00    -0.354 N 
ATOM     45  C   UNL A   1      41.348  24.213  28.185  1.00  0.00     0.074 A 
ATOM     46  C   UNL A   1      40.087  24.248  27.478  1.00  0.00     0.031 C 
ATOM     47  C   UNL A   1      43.931  28.545  28.910  1.00  0.00     0.029 A 
ATOM     48  C   UNL A   1      43.175  29.526  29.667  1.00  0.00     0.049 A 
ATOM     49  H   UNL A   1      41.374  30.407  28.904  1.00  0.00     0.167 HD
ATOM     50  C   UNL A   1      42.385  23.332  28.221  1.00  0.00     0.031 A 
ATOM     51  C   UNL A   1      43.322  29.806  30.993  1.00  0.00     0.031 A 
ATOM     52  C   UNL A   1      43.548  23.864  28.931  1.00  0.00     0.049 A 
ATOM     53  C   UNL A   1      43.859  28.644  31.808  1.00  0.00     0.074 A 
ATOM     54  C   UNL A   1      44.763  24.385  28.513  1.00  0.00     0.029 A 
ATOM     55  N   UNL A   1      43.442  24.180  30.279  1.00  0.00    -0.354 N 
ATOM     56  N   UNL A   1      44.124  27.462  31.327  1.00  0.00    -0.248 NA
ATOM     57  C   UNL A   1      44.008  28.694  33.259  1.00  0.00     0.031 C 
ATOM     58  C   UNL A   1      45.390  25.011  29.624  1.00  0.00     0.029 A 
ATOM     59  C   UNL A   1      44.563  24.863  30.721  1.00  0.00     0.049 A 
ATOM     60  H   UNL A   1      42.670  23.950  30.845  1.00  0.00     0.167 HD
ATOM     61  C   UNL A   1      44.414  26.593  32.354  1.00  0.00     0.074 A 
ATOM     62  C   UNL A   1      44.327  27.420  33.545  1.00  0.00     0.031 C 
ATOM     63  C   UNL A   1      44.650  25.264  32.122  1.00  0.00     0.031 A 
BRANCH  50  64
ATOM     64  C   UNL A   1      42.426  22.116  27.326  1.00  0.00    -0.014 A 
ATOM     65  C   UNL A   1      41.632  20.997  27.626  1.00  0.00     0.009 A 
ATOM     66  C   UNL A   1      43.269  21.990  26.207  1.00  0.00     0.009 A 
ATOM     67  C   UNL A   1      41.766  19.785  26.936  1.00  0.00     0.001 A 
ATOM     68  C   UNL A   1      43.448  20.769  25.545  1.00  0.00     0.001 A 
ATOM     69  C   UNL A   1      42.705  19.660  25.920  1.00  0.00     0.000 A 
ENDBRANCH  50  64
BRANCH  51  70
ATOM     70  C   UNL A   1      42.357  30.819  31.495  1.00  0.00    -0.014 A 
ATOM     71  C   UNL A   1      41.061  30.380  31.831  1.00  0.00     0.009 A 
ATOM     72  C   UNL A   1      42.812  32.037  32.016  1.00  0.00     0.009 A 
ATOM     73  C   UNL A   1      40.302  31.066  32.781  1.00  0.00     0.001 A 
ATOM     74  C   UNL A   1      42.042  32.725  32.959  1.00  0.00     0.001 A 
ATOM     75  C   UNL A   1      40.811  32.215  33.376  1.00  0.00     0.000 A 
ENDBRANCH  51  70
BRANCH  63  76
ATOM     76  C   UNL A   1      44.960  24.185  33.147  1.00  0.00    -0.014 A 
ATOM     77  C   UNL A   1      46.183  24.013  33.805  1.00  0.00     0.009 A 
ATOM     78  C   UNL A   1      43.966  23.220  33.447  1.00  0.00     0.009 A 
ATOM     79  C   UNL A   1      46.374  22.999  34.760  1.00  0.00     0.001 A 
ATOM     80  C   UNL A   1      44.150  22.202  34.387  1.00  0.00     0.001 A 
ATOM     81  C   UNL A   1      45.356  22.101  35.059  1.00  0.00     0.000 A 
ENDBRANCH  63  76
ENDBRANCH  37  38
ENDBRANCH  29  32
ENDBRANCH  27  28
ENDBRANCH  26  27
ENDBRANCH   1  26
TORSDOF 13
ENDMDL
