MODEL 1
REMARK VINA RESULT:     -13.1      0.000      0.000
REMARK SMILES C[N@@H+]1CCN(C(=O)c2ccc3[nH]c4c(c3c2)CSCC4)C[C@H]1C(=O)NCCCNC(=O)c1ccc(-c2c3nc(c(-c4ccccc4)c4ccc([nH]4)c(-c4ccccc4)c4nc(c(-c5ccccc5)c5ccc2[nH]5)C=C4)C=C3)cc1
REMARK SMILES IDX 27 1 26 2 25 3 23 4 24 5 22 7 1 8 2 9 3 10 4 12 21 13 5 14
REMARK SMILES IDX 6 15 7 16 8 17 9 18 16 19 10 20 15 21 11 22 14 23 12 24
REMARK SMILES IDX 13 25 17 26 20 28 18 29 19 30 28 31 29 32 30 33 31 35 32 36
REMARK SMILES IDX 33 37 79 38 34 39 78 40 35 41 36 42 37 43 72 44 38 45 77 46
REMARK SMILES IDX 71 47 73 48 39 49 76 50 70 51 69 52 40 54 62 55 47 56 61 57
REMARK SMILES IDX 48 58 51 59 60 60 74 61 49 62 50 63 59 65 75 66 52 67 41 68
REMARK SMILES IDX 42 69 46 70 43 71 45 72 44 73 63 74 64 75 68 76 65 77 67 78
REMARK SMILES IDX 66 79 53 80 54 81 58 82 55 83 57 84 56 85
REMARK H PARENT 25 6 2 11 12 27 29 34 73 53 51 64
REMARK Flexibility Score: inf
ROOT
ATOM      1  C   UNL A   1      33.520  29.753  26.438  1.00  0.00     0.042 C 
ENDROOT
BRANCH   1   2
ATOM      2  C   UNL A   1      32.614  30.059  25.250  1.00  0.00     0.118 C 
BRANCH   2   3
ATOM      3  N   UNL A   1      33.061  29.436  24.018  1.00  0.00    -0.351 N 
ATOM      4  C   UNL A   1      32.701  28.252  23.450  1.00  0.00     0.280 C 
ATOM      5  O   UNL A   1      33.230  27.954  22.372  1.00  0.00    -0.268 OA
ATOM      6  H   UNL A   1      33.730  29.953  23.512  1.00  0.00     0.163 HD
BRANCH   4   7
ATOM      7  C   UNL A   1      31.656  27.322  24.086  1.00  0.00     0.293 C 
ATOM      8  C   UNL A   1      29.787  28.262  22.826  1.00  0.00     0.333 C 
ATOM      9  N   UNL A   1      30.513  27.032  23.164  1.00  0.00    -0.324 N 
ATOM     10  C   UNL A   1      29.588  26.086  23.831  1.00  0.00     0.284 C 
ATOM     11  H   UNL A   1      30.881  26.627  22.302  1.00  0.00     0.348 HD
ATOM     12  C   UNL A   1      30.280  24.796  24.303  1.00  0.00     0.181 C 
ATOM     13  C   UNL A   1      32.373  26.061  24.615  1.00  0.00     0.195 C 
ATOM     14  N   UNL A   1      31.434  25.069  25.160  1.00  0.00    -0.326 N 
BRANCH  14  15
ATOM     15  C   UNL A   1      31.714  24.190  26.197  1.00  0.00     0.254 C 
ATOM     16  O   UNL A   1      31.064  24.152  27.251  1.00  0.00    -0.269 OA
BRANCH  15  17
ATOM     17  C   UNL A   1      32.813  23.216  26.044  1.00  0.00     0.040 A 
ATOM     18  C   UNL A   1      34.099  23.515  26.501  1.00  0.00     0.016 A 
ATOM     19  C   UNL A   1      32.521  21.979  25.454  1.00  0.00     0.024 A 
ATOM     20  C   UNL A   1      35.150  22.616  26.307  1.00  0.00     0.027 A 
ATOM     21  C   UNL A   1      33.563  21.048  25.270  1.00  0.00     0.004 A 
ATOM     22  C   UNL A   1      34.851  21.396  25.685  1.00  0.00     0.046 A 
ATOM     23  C   UNL A   1      33.626  19.723  24.739  1.00  0.00    -0.009 A 
ATOM     24  N   UNL A   1      35.677  20.339  25.376  1.00  0.00    -0.358 N 
ATOM     25  C   UNL A   1      34.944  19.316  24.843  1.00  0.00     0.021 A 
ATOM     26  C   UNL A   1      32.487  18.899  24.230  1.00  0.00     0.107 C 
ATOM     27  H   UNL A   1      36.651  20.321  25.519  1.00  0.00     0.166 HD
ATOM     28  C   UNL A   1      35.517  17.996  24.457  1.00  0.00     0.065 C 
ATOM     29  S   UNL A   1      33.012  17.342  23.417  1.00  0.00    -0.157 SA
ATOM     30  C   UNL A   1      34.434  16.912  24.489  1.00  0.00     0.076 C 
ENDBRANCH  15  17
ENDBRANCH  14  15
ENDBRANCH   4   7
ENDBRANCH   2   3
ENDBRANCH   1   2
BRANCH   1  31
ATOM     31  C   UNL A   1      33.281  30.622  27.674  1.00  0.00     0.118 C 
BRANCH  31  32
ATOM     32  N   UNL A   1      34.001  31.882  27.676  1.00  0.00    -0.352 N 
ATOM     33  C   UNL A   1      35.303  32.262  27.852  1.00  0.00     0.251 C 
ATOM     34  H   UNL A   1      33.407  32.650  27.512  1.00  0.00     0.163 HD
ATOM     35  O   UNL A   1      35.549  33.449  27.626  1.00  0.00    -0.269 OA
BRANCH  33  36
ATOM     36  C   UNL A   1      36.409  31.385  28.329  1.00  0.00     0.039 A 
ATOM     37  C   UNL A   1      37.478  31.787  29.124  1.00  0.00     0.014 A 
ATOM     38  C   UNL A   1      36.389  30.051  27.869  1.00  0.00     0.014 A 
ATOM     39  C   UNL A   1      38.535  30.914  29.383  1.00  0.00     0.010 A 
ATOM     40  C   UNL A   1      37.433  29.167  28.142  1.00  0.00     0.010 A 
ATOM     41  C   UNL A   1      38.532  29.612  28.870  1.00  0.00    -0.014 A 
BRANCH  41  42
ATOM     42  C   UNL A   1      39.684  28.763  29.175  1.00  0.00     0.031 A 
ATOM     43  C   UNL A   1      39.955  28.503  30.619  1.00  0.00     0.074 A 
ATOM     44  C   UNL A   1      40.472  28.157  28.266  1.00  0.00     0.049 A 
ATOM     45  N   UNL A   1      40.999  28.840  31.306  1.00  0.00    -0.248 NA
ATOM     46  C   UNL A   1      38.918  27.813  31.397  1.00  0.00     0.031 C 
ATOM     47  C   UNL A   1      40.263  27.995  26.827  1.00  0.00     0.029 A 
ATOM     48  N   UNL A   1      41.632  27.470  28.493  1.00  0.00    -0.354 N 
ATOM     49  C   UNL A   1      40.818  28.309  32.580  1.00  0.00     0.074 A 
ATOM     50  C   UNL A   1      39.491  27.744  32.601  1.00  0.00     0.031 C 
ATOM     51  C   UNL A   1      41.139  27.078  26.353  1.00  0.00     0.029 A 
ATOM     52  C   UNL A   1      42.062  26.715  27.417  1.00  0.00     0.049 A 
ATOM     53  H   UNL A   1      42.117  27.510  29.348  1.00  0.00     0.167 HD
ATOM     54  C   UNL A   1      41.814  28.261  33.509  1.00  0.00     0.031 A 
ATOM     55  C   UNL A   1      43.076  25.820  27.419  1.00  0.00     0.031 A 
ATOM     56  C   UNL A   1      42.913  29.127  33.184  1.00  0.00     0.049 A 
ATOM     57  C   UNL A   1      43.974  26.135  28.551  1.00  0.00     0.074 A 
ATOM     58  C   UNL A   1      43.057  30.490  33.018  1.00  0.00     0.029 A 
ATOM     59  N   UNL A   1      44.050  28.569  32.656  1.00  0.00    -0.354 N 
ATOM     60  N   UNL A   1      44.736  27.189  28.602  1.00  0.00    -0.248 NA
ATOM     61  C   UNL A   1      43.786  25.440  29.812  1.00  0.00     0.031 C 
ATOM     62  C   UNL A   1      44.015  30.635  31.974  1.00  0.00     0.029 A 
ATOM     63  C   UNL A   1      44.417  29.353  31.592  1.00  0.00     0.049 A 
ATOM     64  H   UNL A   1      44.513  27.761  32.978  1.00  0.00     0.167 HD
ATOM     65  C   UNL A   1      44.768  27.537  29.942  1.00  0.00     0.074 A 
ATOM     66  C   UNL A   1      44.285  26.353  30.648  1.00  0.00     0.031 C 
ATOM     67  C   UNL A   1      44.915  28.838  30.333  1.00  0.00     0.031 A 
BRANCH  54  68
ATOM     68  C   UNL A   1      41.901  27.238  34.609  1.00  0.00    -0.014 A 
ATOM     69  C   UNL A   1      42.265  25.898  34.376  1.00  0.00     0.009 A 
ATOM     70  C   UNL A   1      41.854  27.657  35.952  1.00  0.00     0.009 A 
ATOM     71  C   UNL A   1      42.548  25.015  35.422  1.00  0.00     0.001 A 
ATOM     72  C   UNL A   1      42.177  26.786  37.001  1.00  0.00     0.001 A 
ATOM     73  C   UNL A   1      42.522  25.465  36.736  1.00  0.00     0.000 A 
ENDBRANCH  54  68
BRANCH  55  74
ATOM     74  C   UNL A   1      43.171  24.539  26.690  1.00  0.00    -0.014 A 
ATOM     75  C   UNL A   1      42.085  23.646  26.697  1.00  0.00     0.009 A 
ATOM     76  C   UNL A   1      44.414  24.061  26.248  1.00  0.00     0.009 A 
ATOM     77  C   UNL A   1      42.246  22.309  26.323  1.00  0.00     0.001 A 
ATOM     78  C   UNL A   1      44.577  22.719  25.880  1.00  0.00     0.001 A 
ATOM     79  C   UNL A   1      43.496  21.841  25.933  1.00  0.00     0.000 A 
ENDBRANCH  55  74
BRANCH  67  80
ATOM     80  C   UNL A   1      45.308  29.863  29.290  1.00  0.00    -0.014 A 
ATOM     81  C   UNL A   1      44.324  30.351  28.415  1.00  0.00     0.009 A 
ATOM     82  C   UNL A   1      46.643  30.236  29.052  1.00  0.00     0.009 A 
ATOM     83  C   UNL A   1      44.660  31.187  27.346  1.00  0.00     0.001 A 
ATOM     84  C   UNL A   1      46.976  31.097  28.002  1.00  0.00     0.001 A 
ATOM     85  C   UNL A   1      45.985  31.566  27.145  1.00  0.00     0.000 A 
ENDBRANCH  67  80
ENDBRANCH  41  42
ENDBRANCH  33  36
ENDBRANCH  31  32
ENDBRANCH   1  31
TORSDOF 12
ENDMDL
MODEL 2
REMARK VINA RESULT:     -12.9      2.968      8.541
REMARK SMILES C[N@@H+]1CCN(C(=O)c2ccc3[nH]c4c(c3c2)CSCC4)C[C@H]1C(=O)NCCCNC(=O)c1ccc(-c2c3nc(c(-c4ccccc4)c4ccc([nH]4)c(-c4ccccc4)c4nc(c(-c5ccccc5)c5ccc2[nH]5)C=C4)C=C3)cc1
REMARK SMILES IDX 27 1 26 2 25 3 23 4 24 5 22 7 1 8 2 9 3 10 4 12 21 13 5 14
REMARK SMILES IDX 6 15 7 16 8 17 9 18 16 19 10 20 15 21 11 22 14 23 12 24
REMARK SMILES IDX 13 25 17 26 20 28 18 29 19 30 28 31 29 32 30 33 31 35 32 36
REMARK SMILES IDX 33 37 79 38 34 39 78 40 35 41 36 42 37 43 72 44 38 45 77 46
REMARK SMILES IDX 71 47 73 48 39 49 76 50 70 51 69 52 40 54 62 55 47 56 61 57
REMARK SMILES IDX 48 58 51 59 60 60 74 61 49 62 50 63 59 65 75 66 52 67 41 68
REMARK SMILES IDX 42 69 46 70 43 71 45 72 44 73 63 74 64 75 68 76 65 77 67 78
REMARK SMILES IDX 66 79 53 80 54 81 58 82 55 83 57 84 56 85
REMARK H PARENT 25 6 2 11 12 27 29 34 73 53 51 64
REMARK Flexibility Score: inf
ROOT
ATOM      1  C   UNL A   1      38.517  21.267  25.655  1.00  0.00     0.042 C 
ENDROOT
BRANCH   1   2
ATOM      2  C   UNL A   1      37.245  21.938  25.148  1.00  0.00     0.118 C 
BRANCH   2   3
ATOM      3  N   UNL A   1      36.293  22.226  26.205  1.00  0.00    -0.351 N 
ATOM      4  C   UNL A   1      34.939  22.367  26.155  1.00  0.00     0.280 C 
ATOM      5  O   UNL A   1      34.353  22.602  27.218  1.00  0.00    -0.268 OA
ATOM      6  H   UNL A   1      36.689  22.336  27.100  1.00  0.00     0.163 HD
BRANCH   4   7
ATOM      7  C   UNL A   1      34.146  22.211  24.848  1.00  0.00     0.293 C 
ATOM      8  C   UNL A   1      33.358  19.961  25.383  1.00  0.00     0.333 C 
ATOM      9  N   UNL A   1      32.953  21.321  25.007  1.00  0.00    -0.324 N 
ATOM     10  C   UNL A   1      32.216  21.273  23.722  1.00  0.00     0.284 C 
ATOM     11  H   UNL A   1      32.360  21.698  25.747  1.00  0.00     0.348 HD
ATOM     12  C   UNL A   1      31.824  22.666  23.199  1.00  0.00     0.181 C 
ATOM     13  C   UNL A   1      33.816  23.615  24.298  1.00  0.00     0.195 C 
ATOM     14  N   UNL A   1      32.975  23.562  23.092  1.00  0.00    -0.326 N 
BRANCH  14  15
ATOM     15  C   UNL A   1      33.005  24.486  22.058  1.00  0.00     0.254 C 
ATOM     16  O   UNL A   1      33.278  24.189  20.887  1.00  0.00    -0.269 OA
BRANCH  15  17
ATOM     17  C   UNL A   1      32.659  25.895  22.335  1.00  0.00     0.040 A 
ATOM     18  C   UNL A   1      33.654  26.874  22.396  1.00  0.00     0.016 A 
ATOM     19  C   UNL A   1      31.307  26.221  22.508  1.00  0.00     0.024 A 
ATOM     20  C   UNL A   1      33.332  28.196  22.712  1.00  0.00     0.027 A 
ATOM     21  C   UNL A   1      30.960  27.554  22.805  1.00  0.00     0.004 A 
ATOM     22  C   UNL A   1      31.980  28.502  22.916  1.00  0.00     0.046 A 
ATOM     23  C   UNL A   1      29.720  28.231  23.018  1.00  0.00    -0.009 A 
ATOM     24  N   UNL A   1      31.386  29.703  23.230  1.00  0.00    -0.358 N 
ATOM     25  C   UNL A   1      30.027  29.558  23.256  1.00  0.00     0.021 A 
ATOM     26  C   UNL A   1      28.345  27.647  22.935  1.00  0.00     0.107 C 
ATOM     27  H   UNL A   1      31.868  30.543  23.409  1.00  0.00     0.166 HD
ATOM     28  C   UNL A   1      29.076  30.678  23.501  1.00  0.00     0.065 C 
ATOM     29  S   UNL A   1      27.027  28.785  23.504  1.00  0.00    -0.157 SA
ATOM     30  C   UNL A   1      27.710  30.366  22.880  1.00  0.00     0.076 C 
ENDBRANCH  15  17
ENDBRANCH  14  15
ENDBRANCH   4   7
ENDBRANCH   2   3
ENDBRANCH   1   2
BRANCH   1  31
ATOM     31  C   UNL A   1      39.425  22.161  26.502  1.00  0.00     0.118 C 
BRANCH  31  32
ATOM     32  N   UNL A   1      40.826  22.134  26.124  1.00  0.00    -0.352 N 
ATOM     33  C   UNL A   1      41.900  22.962  26.298  1.00  0.00     0.251 C 
ATOM     34  H   UNL A   1      41.059  21.321  25.619  1.00  0.00     0.163 HD
ATOM     35  O   UNL A   1      42.991  22.505  25.949  1.00  0.00    -0.269 OA
BRANCH  33  36
ATOM     36  C   UNL A   1      41.848  24.357  26.820  1.00  0.00     0.039 A 
ATOM     37  C   UNL A   1      42.259  24.766  28.085  1.00  0.00     0.014 A 
ATOM     38  C   UNL A   1      41.268  25.319  25.968  1.00  0.00     0.014 A 
ATOM     39  C   UNL A   1      42.023  26.071  28.519  1.00  0.00     0.010 A 
ATOM     40  C   UNL A   1      41.048  26.632  26.388  1.00  0.00     0.010 A 
ATOM     41  C   UNL A   1      41.390  27.000  27.684  1.00  0.00    -0.014 A 
BRANCH  41  42
ATOM     42  C   UNL A   1      41.167  28.344  28.218  1.00  0.00     0.031 A 
ATOM     43  C   UNL A   1      42.239  29.349  27.962  1.00  0.00     0.074 A 
ATOM     44  C   UNL A   1      40.058  28.755  28.862  1.00  0.00     0.049 A 
ATOM     45  N   UNL A   1      42.976  29.966  28.829  1.00  0.00    -0.248 NA
ATOM     46  C   UNL A   1      42.548  29.679  26.565  1.00  0.00     0.031 C 
ATOM     47  C   UNL A   1      38.761  28.087  28.984  1.00  0.00     0.029 A 
ATOM     48  N   UNL A   1      39.854  29.950  29.494  1.00  0.00    -0.354 N 
ATOM     49  C   UNL A   1      43.770  30.854  28.109  1.00  0.00     0.074 A 
ATOM     50  C   UNL A   1      43.514  30.589  26.713  1.00  0.00     0.031 C 
ATOM     51  C   UNL A   1      37.850  28.973  29.452  1.00  0.00     0.029 A 
ATOM     52  C   UNL A   1      38.532  30.207  29.808  1.00  0.00     0.049 A 
ATOM     53  H   UNL A   1      40.586  30.573  29.707  1.00  0.00     0.167 HD
ATOM     54  C   UNL A   1      44.505  31.836  28.701  1.00  0.00     0.031 A 
ATOM     55  C   UNL A   1      38.030  31.371  30.281  1.00  0.00     0.031 A 
ATOM     56  C   UNL A   1      44.672  31.624  30.113  1.00  0.00     0.049 A 
ATOM     57  C   UNL A   1      39.134  32.137  30.899  1.00  0.00     0.074 A 
ATOM     58  C   UNL A   1      45.260  30.641  30.883  1.00  0.00     0.029 A 
ATOM     59  N   UNL A   1      43.901  32.360  30.978  1.00  0.00    -0.354 N 
ATOM     60  N   UNL A   1      39.726  31.795  32.006  1.00  0.00    -0.248 NA
ATOM     61  C   UNL A   1      39.829  33.133  30.102  1.00  0.00     0.031 C 
ATOM     62  C   UNL A   1      44.435  30.537  32.040  1.00  0.00     0.029 A 
ATOM     63  C   UNL A   1      43.416  31.483  31.916  1.00  0.00     0.049 A 
ATOM     64  H   UNL A   1      43.729  33.328  30.934  1.00  0.00     0.167 HD
ATOM     65  C   UNL A   1      41.042  32.192  31.840  1.00  0.00     0.074 A 
ATOM     66  C   UNL A   1      41.013  33.126  30.719  1.00  0.00     0.031 C 
ATOM     67  C   UNL A   1      42.067  31.517  32.441  1.00  0.00     0.031 A 
BRANCH  54  68
ATOM     68  C   UNL A   1      44.883  33.133  28.038  1.00  0.00    -0.014 A 
ATOM     69  C   UNL A   1      46.106  33.316  27.366  1.00  0.00     0.009 A 
ATOM     70  C   UNL A   1      43.908  34.133  27.864  1.00  0.00     0.009 A 
ATOM     71  C   UNL A   1      46.356  34.443  26.577  1.00  0.00     0.001 A 
ATOM     72  C   UNL A   1      44.140  35.244  27.042  1.00  0.00     0.001 A 
ATOM     73  C   UNL A   1      45.364  35.399  26.400  1.00  0.00     0.000 A 
ENDBRANCH  54  68
BRANCH  55  74
ATOM     74  C   UNL A   1      36.726  31.996  29.984  1.00  0.00    -0.014 A 
ATOM     75  C   UNL A   1      36.487  32.550  28.714  1.00  0.00     0.009 A 
ATOM     76  C   UNL A   1      35.837  32.318  31.021  1.00  0.00     0.009 A 
ATOM     77  C   UNL A   1      35.426  33.435  28.500  1.00  0.00     0.001 A 
ATOM     78  C   UNL A   1      34.778  33.209  30.808  1.00  0.00     0.001 A 
ATOM     79  C   UNL A   1      34.584  33.780  29.552  1.00  0.00     0.000 A 
ENDBRANCH  55  74
BRANCH  67  80
ATOM     80  C   UNL A   1      41.728  30.491  33.503  1.00  0.00    -0.014 A 
ATOM     81  C   UNL A   1      41.941  30.818  34.852  1.00  0.00     0.009 A 
ATOM     82  C   UNL A   1      41.357  29.170  33.198  1.00  0.00     0.009 A 
ATOM     83  C   UNL A   1      41.782  29.862  35.860  1.00  0.00     0.001 A 
ATOM     84  C   UNL A   1      41.166  28.221  34.207  1.00  0.00     0.001 A 
ATOM     85  C   UNL A   1      41.386  28.566  35.537  1.00  0.00     0.000 A 
ENDBRANCH  67  80
ENDBRANCH  41  42
ENDBRANCH  33  36
ENDBRANCH  31  32
ENDBRANCH   1  31
TORSDOF 12
ENDMDL
MODEL 3
REMARK VINA RESULT:     -12.7      2.230      5.871
REMARK SMILES C[N@@H+]1CCN(C(=O)c2ccc3[nH]c4c(c3c2)CSCC4)C[C@H]1C(=O)NCCCNC(=O)c1ccc(-c2c3nc(c(-c4ccccc4)c4ccc([nH]4)c(-c4ccccc4)c4nc(c(-c5ccccc5)c5ccc2[nH]5)C=C4)C=C3)cc1
REMARK SMILES IDX 27 1 26 2 25 3 23 4 24 5 22 7 1 8 2 9 3 10 4 12 21 13 5 14
REMARK SMILES IDX 6 15 7 16 8 17 9 18 16 19 10 20 15 21 11 22 14 23 12 24
REMARK SMILES IDX 13 25 17 26 20 28 18 29 19 30 28 31 29 32 30 33 31 35 32 36
REMARK SMILES IDX 33 37 79 38 34 39 78 40 35 41 36 42 37 43 72 44 38 45 77 46
REMARK SMILES IDX 71 47 73 48 39 49 76 50 70 51 69 52 40 54 62 55 47 56 61 57
REMARK SMILES IDX 48 58 51 59 60 60 74 61 49 62 50 63 59 65 75 66 52 67 41 68
REMARK SMILES IDX 42 69 46 70 43 71 45 72 44 73 63 74 64 75 68 76 65 77 67 78
REMARK SMILES IDX 66 79 53 80 54 81 58 82 55 83 57 84 56 85
REMARK H PARENT 25 6 2 11 12 27 29 34 73 53 51 64
REMARK Flexibility Score: inf
ROOT
ATOM      1  C   UNL A   1      33.772  30.184  26.973  1.00  0.00     0.042 C 
ENDROOT
BRANCH   1   2
ATOM      2  C   UNL A   1      32.454  29.416  27.017  1.00  0.00     0.118 C 
BRANCH   2   3
ATOM      3  N   UNL A   1      31.572  29.736  25.910  1.00  0.00    -0.351 N 
ATOM      4  C   UNL A   1      31.317  29.050  24.762  1.00  0.00     0.280 C 
ATOM      5  O   UNL A   1      30.500  29.542  23.975  1.00  0.00    -0.268 OA
ATOM      6  H   UNL A   1      31.079  30.583  26.006  1.00  0.00     0.163 HD
BRANCH   4   7
ATOM      7  C   UNL A   1      31.980  27.699  24.449  1.00  0.00     0.293 C 
ATOM      8  C   UNL A   1      33.862  28.697  23.253  1.00  0.00     0.333 C 
ATOM      9  N   UNL A   1      33.470  27.805  24.351  1.00  0.00    -0.324 N 
ATOM     10  C   UNL A   1      34.031  26.455  24.108  1.00  0.00     0.284 C 
ATOM     11  H   UNL A   1      33.830  28.191  25.225  1.00  0.00     0.348 HD
ATOM     12  C   UNL A   1      33.600  25.422  25.164  1.00  0.00     0.181 C 
ATOM     13  C   UNL A   1      31.489  26.656  25.475  1.00  0.00     0.195 C 
ATOM     14  N   UNL A   1      32.146  25.351  25.308  1.00  0.00    -0.326 N 
BRANCH  14  15
ATOM     15  C   UNL A   1      31.565  24.123  25.591  1.00  0.00     0.254 C 
ATOM     16  O   UNL A   1      30.858  23.918  26.587  1.00  0.00    -0.269 OA
BRANCH  15  17
ATOM     17  C   UNL A   1      31.754  22.999  24.652  1.00  0.00     0.040 A 
ATOM     18  C   UNL A   1      31.647  23.197  23.272  1.00  0.00     0.016 A 
ATOM     19  C   UNL A   1      32.069  21.741  25.182  1.00  0.00     0.024 A 
ATOM     20  C   UNL A   1      31.772  22.124  22.388  1.00  0.00     0.027 A 
ATOM     21  C   UNL A   1      32.222  20.650  24.304  1.00  0.00     0.004 A 
ATOM     22  C   UNL A   1      32.053  20.865  22.934  1.00  0.00     0.046 A 
ATOM     23  C   UNL A   1      32.553  19.271  24.485  1.00  0.00    -0.009 A 
ATOM     24  N   UNL A   1      32.230  19.652  22.308  1.00  0.00    -0.358 N 
ATOM     25  C   UNL A   1      32.568  18.698  23.227  1.00  0.00     0.021 A 
ATOM     26  C   UNL A   1      32.888  18.583  25.770  1.00  0.00     0.107 C 
ATOM     27  H   UNL A   1      32.130  19.494  21.341  1.00  0.00     0.166 HD
ATOM     28  C   UNL A   1      32.892  17.286  22.878  1.00  0.00     0.065 C 
ATOM     29  S   UNL A   1      33.025  16.762  25.615  1.00  0.00    -0.157 SA
ATOM     30  C   UNL A   1      33.789  16.662  23.953  1.00  0.00     0.076 C 
ENDBRANCH  15  17
ENDBRANCH  14  15
ENDBRANCH   4   7
ENDBRANCH   2   3
ENDBRANCH   1   2
BRANCH   1  31
ATOM     31  C   UNL A   1      34.970  29.445  27.572  1.00  0.00     0.118 C 
BRANCH  31  32
ATOM     32  N   UNL A   1      35.226  29.738  28.969  1.00  0.00    -0.352 N 
ATOM     33  C   UNL A   1      36.326  29.728  29.782  1.00  0.00     0.251 C 
ATOM     34  H   UNL A   1      34.410  30.010  29.448  1.00  0.00     0.163 HD
ATOM     35  O   UNL A   1      36.161  30.199  30.910  1.00  0.00    -0.269 OA
BRANCH  33  36
ATOM     36  C   UNL A   1      37.660  29.163  29.436  1.00  0.00     0.039 A 
ATOM     37  C   UNL A   1      38.330  28.170  30.144  1.00  0.00     0.014 A 
ATOM     38  C   UNL A   1      38.315  29.746  28.331  1.00  0.00     0.014 A 
ATOM     39  C   UNL A   1      39.641  27.827  29.815  1.00  0.00     0.010 A 
ATOM     40  C   UNL A   1      39.619  29.392  27.984  1.00  0.00     0.010 A 
ATOM     41  C   UNL A   1      40.301  28.456  28.753  1.00  0.00    -0.014 A 
BRANCH  41  42
ATOM     42  C   UNL A   1      41.680  28.050  28.480  1.00  0.00     0.031 A 
ATOM     43  C   UNL A   1      41.863  26.753  27.765  1.00  0.00     0.074 A 
ATOM     44  C   UNL A   1      42.780  28.772  28.766  1.00  0.00     0.049 A 
ATOM     45  N   UNL A   1      42.450  25.683  28.195  1.00  0.00    -0.248 NA
ATOM     46  C   UNL A   1      41.290  26.627  26.418  1.00  0.00     0.031 C 
ATOM     47  C   UNL A   1      42.881  30.172  29.180  1.00  0.00     0.029 A 
ATOM     48  N   UNL A   1      44.086  28.384  28.657  1.00  0.00    -0.354 N 
ATOM     49  C   UNL A   1      42.431  24.774  27.140  1.00  0.00     0.074 A 
ATOM     50  C   UNL A   1      41.646  25.383  26.093  1.00  0.00     0.031 C 
ATOM     51  C   UNL A   1      44.170  30.573  29.072  1.00  0.00     0.029 A 
ATOM     52  C   UNL A   1      44.995  29.423  28.739  1.00  0.00     0.049 A 
ATOM     53  H   UNL A   1      44.355  27.445  28.530  1.00  0.00     0.167 HD
ATOM     54  C   UNL A   1      43.159  23.623  27.143  1.00  0.00     0.031 A 
ATOM     55  C   UNL A   1      46.324  29.348  28.501  1.00  0.00     0.031 A 
ATOM     56  C   UNL A   1      43.628  23.270  28.455  1.00  0.00     0.049 A 
ATOM     57  C   UNL A   1      46.745  27.938  28.653  1.00  0.00     0.074 A 
ATOM     58  C   UNL A   1      43.016  22.953  29.650  1.00  0.00     0.029 A 
ATOM     59  N   UNL A   1      44.941  23.521  28.767  1.00  0.00    -0.354 N 
ATOM     60  N   UNL A   1      46.785  27.310  29.792  1.00  0.00    -0.248 NA
ATOM     61  C   UNL A   1      46.813  27.094  27.473  1.00  0.00     0.031 C 
ATOM     62  C   UNL A   1      43.859  23.509  30.655  1.00  0.00     0.029 A 
ATOM     63  C   UNL A   1      44.946  24.102  30.010  1.00  0.00     0.049 A 
ATOM     64  H   UNL A   1      45.727  23.323  28.207  1.00  0.00     0.167 HD
ATOM     65  C   UNL A   1      46.448  26.002  29.485  1.00  0.00     0.074 A 
ATOM     66  C   UNL A   1      46.614  25.902  28.038  1.00  0.00     0.031 C 
ATOM     67  C   UNL A   1      45.801  25.207  30.389  1.00  0.00     0.031 A 
BRANCH  54  68
ATOM     68  C   UNL A   1      43.655  22.927  25.904  1.00  0.00    -0.014 A 
ATOM     69  C   UNL A   1      44.421  23.580  24.920  1.00  0.00     0.009 A 
ATOM     70  C   UNL A   1      43.567  21.526  25.812  1.00  0.00     0.009 A 
ATOM     71  C   UNL A   1      45.052  22.879  23.888  1.00  0.00     0.001 A 
ATOM     72  C   UNL A   1      44.232  20.816  24.803  1.00  0.00     0.001 A 
ATOM     73  C   UNL A   1      44.972  21.494  23.840  1.00  0.00     0.000 A 
ENDBRANCH  54  68
BRANCH  55  74
ATOM     74  C   UNL A   1      47.202  30.354  27.871  1.00  0.00    -0.014 A 
ATOM     75  C   UNL A   1      48.430  30.687  28.469  1.00  0.00     0.009 A 
ATOM     76  C   UNL A   1      46.709  31.198  26.864  1.00  0.00     0.009 A 
ATOM     77  C   UNL A   1      49.117  31.851  28.110  1.00  0.00     0.001 A 
ATOM     78  C   UNL A   1      47.395  32.367  26.508  1.00  0.00     0.001 A 
ATOM     79  C   UNL A   1      48.589  32.700  27.143  1.00  0.00     0.000 A 
ENDBRANCH  55  74
BRANCH  67  80
ATOM     80  C   UNL A   1      45.693  25.687  31.822  1.00  0.00    -0.014 A 
ATOM     81  C   UNL A   1      46.622  25.217  32.765  1.00  0.00     0.009 A 
ATOM     82  C   UNL A   1      44.615  26.459  32.290  1.00  0.00     0.009 A 
ATOM     83  C   UNL A   1      46.481  25.514  34.124  1.00  0.00     0.001 A 
ATOM     84  C   UNL A   1      44.491  26.783  33.644  1.00  0.00     0.001 A 
ATOM     85  C   UNL A   1      45.421  26.303  34.562  1.00  0.00     0.000 A 
ENDBRANCH  67  80
ENDBRANCH  41  42
ENDBRANCH  33  36
ENDBRANCH  31  32
ENDBRANCH   1  31
TORSDOF 12
ENDMDL
