MODEL 1
REMARK VINA RESULT:     -10.9      0.000      0.000
REMARK SMILES O=C(Cc1ccc(S(=O)(=O)C[C@H]2CCCO2)cc1)NCCCNC(=O)c1ccc(-c2c3nc(c(-c4ccccc4)c4ccc([nH]4)c(-c4ccccc4)c4nc(c(-c5ccccc5)c5ccc2[nH]5)C=C4)C=C3)cc1
REMARK SMILES IDX 20 1 19 2 1 3 2 4 3 6 4 7 5 8 18 9 6 10 17 11 7 12 8 13 9 14
REMARK SMILES IDX 10 15 11 16 12 17 13 18 16 19 14 20 15 21 21 22 22 23 23 24
REMARK SMILES IDX 24 25 25 27 26 28 27 29 73 30 28 31 72 32 29 33 30 34 31 35
REMARK SMILES IDX 66 36 32 37 71 38 65 39 67 40 33 41 70 42 64 43 63 44 34 46
REMARK SMILES IDX 56 47 41 48 55 49 42 50 45 51 54 52 68 53 43 54 44 55 53 57
REMARK SMILES IDX 69 58 46 59 35 60 36 61 40 62 37 63 39 64 38 65 57 66 58 67
REMARK SMILES IDX 62 68 59 69 61 70 60 71 47 72 48 73 52 74 49 75 51 76 50 77
REMARK H PARENT 19 5 23 26 67 45 45 56
REMARK Flexibility Score: inf
ROOT
ATOM      1  C   UNL A   1      34.475  33.426  29.067  1.00  0.00     0.117 C 
ENDROOT
BRANCH   1   2
ATOM      2  N   UNL A   1      34.181  32.018  28.885  1.00  0.00    -0.356 N 
ATOM      3  O   UNL A   1      36.031  31.547  27.611  1.00  0.00    -0.275 OA
ATOM      4  C   UNL A   1      35.020  31.168  28.196  1.00  0.00     0.224 C 
ATOM      5  H   UNL A   1      33.351  31.656  29.269  1.00  0.00     0.163 HD
BRANCH   4   6
ATOM      6  C   UNL A   1      34.561  29.718  28.152  1.00  0.00     0.135 C 
BRANCH   6   7
ATOM      7  C   UNL A   1      33.692  29.337  26.970  1.00  0.00    -0.039 A 
ATOM      8  C   UNL A   1      32.357  29.752  26.869  1.00  0.00     0.005 A 
ATOM      9  C   UNL A   1      34.206  28.478  25.985  1.00  0.00     0.005 A 
ATOM     10  C   UNL A   1      31.582  29.381  25.771  1.00  0.00     0.020 A 
ATOM     11  C   UNL A   1      33.418  28.066  24.904  1.00  0.00     0.020 A 
ATOM     12  C   UNL A   1      32.117  28.546  24.782  1.00  0.00     0.067 A 
BRANCH  12  13
ATOM     13  S   UNL A   1      31.040  28.088  23.449  1.00  0.00     0.180 S 
ATOM     14  O   UNL A   1      31.904  27.416  22.490  1.00  0.00    -0.224 OA
ATOM     15  O   UNL A   1      29.926  27.367  24.034  1.00  0.00    -0.224 OA
BRANCH  13  16
ATOM     16  C   UNL A   1      30.409  29.515  22.621  1.00  0.00     0.174 C 
BRANCH  16  17
ATOM     17  C   UNL A   1      28.900  29.639  22.470  1.00  0.00     0.133 C 
ATOM     18  C   UNL A   1      28.355  30.775  23.336  1.00  0.00     0.035 C 
ATOM     19  O   UNL A   1      28.521  29.955  21.129  1.00  0.00    -0.377 OA
ATOM     20  C   UNL A   1      28.364  31.949  22.387  1.00  0.00     0.031 C 
ATOM     21  C   UNL A   1      28.006  31.291  21.074  1.00  0.00     0.160 C 
ENDBRANCH  16  17
ENDBRANCH  13  16
ENDBRANCH  12  13
ENDBRANCH   6   7
ENDBRANCH   4   6
ENDBRANCH   1   2
BRANCH   1  22
ATOM     22  C   UNL A   1      33.235  34.299  28.937  1.00  0.00     0.042 C 
BRANCH  22  23
ATOM     23  C   UNL A   1      33.441  35.746  29.370  1.00  0.00     0.118 C 
BRANCH  23  24
ATOM     24  N   UNL A   1      32.562  36.156  30.458  1.00  0.00    -0.352 N 
ATOM     25  C   UNL A   1      32.622  35.852  31.797  1.00  0.00     0.251 C 
ATOM     26  H   UNL A   1      31.812  36.738  30.195  1.00  0.00     0.163 HD
ATOM     27  O   UNL A   1      31.708  36.183  32.547  1.00  0.00    -0.269 OA
BRANCH  25  28
ATOM     28  C   UNL A   1      33.773  35.097  32.335  1.00  0.00     0.039 A 
ATOM     29  C   UNL A   1      33.566  33.812  32.843  1.00  0.00     0.014 A 
ATOM     30  C   UNL A   1      35.056  35.650  32.327  1.00  0.00     0.014 A 
ATOM     31  C   UNL A   1      34.657  33.045  33.261  1.00  0.00     0.010 A 
ATOM     32  C   UNL A   1      36.148  34.859  32.670  1.00  0.00     0.010 A 
ATOM     33  C   UNL A   1      35.962  33.546  33.133  1.00  0.00    -0.014 A 
BRANCH  33  34
ATOM     34  C   UNL A   1      37.156  32.727  33.466  1.00  0.00     0.031 A 
ATOM     35  C   UNL A   1      37.910  32.983  34.742  1.00  0.00     0.074 A 
ATOM     36  C   UNL A   1      37.622  31.825  32.579  1.00  0.00     0.049 A 
ATOM     37  N   UNL A   1      39.054  32.489  35.141  1.00  0.00    -0.248 NA
ATOM     38  C   UNL A   1      37.309  33.947  35.680  1.00  0.00     0.031 C 
ATOM     39  C   UNL A   1      36.998  31.493  31.297  1.00  0.00     0.029 A 
ATOM     40  N   UNL A   1      38.745  31.036  32.616  1.00  0.00    -0.354 N 
ATOM     41  C   UNL A   1      39.322  33.099  36.359  1.00  0.00     0.074 A 
ATOM     42  C   UNL A   1      38.246  34.031  36.613  1.00  0.00     0.031 C 
ATOM     43  C   UNL A   1      37.739  30.560  30.677  1.00  0.00     0.029 A 
ATOM     44  C   UNL A   1      38.916  30.268  31.489  1.00  0.00     0.049 A 
ATOM     45  H   UNL A   1      39.371  31.023  33.376  1.00  0.00     0.167 HD
ATOM     46  C   UNL A   1      40.364  32.892  37.199  1.00  0.00     0.031 A 
ATOM     47  C   UNL A   1      39.917  29.440  31.136  1.00  0.00     0.031 A 
ATOM     48  C   UNL A   1      41.431  31.960  36.950  1.00  0.00     0.049 A 
ATOM     49  C   UNL A   1      41.083  29.255  32.069  1.00  0.00     0.074 A 
ATOM     50  C   UNL A   1      42.507  31.645  37.761  1.00  0.00     0.029 A 
ATOM     51  N   UNL A   1      41.558  31.194  35.801  1.00  0.00    -0.354 N 
ATOM     52  N   UNL A   1      41.300  29.804  33.240  1.00  0.00    -0.248 NA
ATOM     53  C   UNL A   1      42.141  28.331  31.633  1.00  0.00     0.031 C 
ATOM     54  C   UNL A   1      43.317  30.733  37.079  1.00  0.00     0.029 A 
ATOM     55  C   UNL A   1      42.707  30.425  35.874  1.00  0.00     0.049 A 
ATOM     56  H   UNL A   1      40.926  31.196  35.047  1.00  0.00     0.167 HD
ATOM     57  C   UNL A   1      42.493  29.259  33.699  1.00  0.00     0.074 A 
ATOM     58  C   UNL A   1      42.952  28.334  32.682  1.00  0.00     0.031 C 
ATOM     59  C   UNL A   1      43.145  29.497  34.863  1.00  0.00     0.031 A 
BRANCH  46  60
ATOM     60  C   UNL A   1      40.409  33.705  38.465  1.00  0.00    -0.014 A 
ATOM     61  C   UNL A   1      39.808  33.248  39.648  1.00  0.00     0.009 A 
ATOM     62  C   UNL A   1      41.094  34.930  38.482  1.00  0.00     0.009 A 
ATOM     63  C   UNL A   1      39.857  34.019  40.811  1.00  0.00     0.001 A 
ATOM     64  C   UNL A   1      41.170  35.683  39.654  1.00  0.00     0.001 A 
ATOM     65  C   UNL A   1      40.543  35.233  40.815  1.00  0.00     0.000 A 
ENDBRANCH  46  60
BRANCH  47  66
ATOM     66  C   UNL A   1      39.866  28.715  29.838  1.00  0.00    -0.014 A 
ATOM     67  C   UNL A   1      39.368  27.404  29.774  1.00  0.00     0.009 A 
ATOM     68  C   UNL A   1      40.326  29.322  28.659  1.00  0.00     0.009 A 
ATOM     69  C   UNL A   1      39.360  26.707  28.564  1.00  0.00     0.001 A 
ATOM     70  C   UNL A   1      40.287  28.634  27.444  1.00  0.00     0.001 A 
ATOM     71  C   UNL A   1      39.814  27.323  27.400  1.00  0.00     0.000 A 
ENDBRANCH  47  66
BRANCH  59  72
ATOM     72  C   UNL A   1      44.391  28.703  35.139  1.00  0.00    -0.014 A 
ATOM     73  C   UNL A   1      45.666  29.196  34.821  1.00  0.00     0.009 A 
ATOM     74  C   UNL A   1      44.285  27.464  35.790  1.00  0.00     0.009 A 
ATOM     75  C   UNL A   1      46.807  28.450  35.128  1.00  0.00     0.001 A 
ATOM     76  C   UNL A   1      45.427  26.736  36.124  1.00  0.00     0.001 A 
ATOM     77  C   UNL A   1      46.687  27.226  35.785  1.00  0.00     0.000 A 
ENDBRANCH  59  72
ENDBRANCH  33  34
ENDBRANCH  25  28
ENDBRANCH  23  24
ENDBRANCH  22  23
ENDBRANCH   1  22
TORSDOF 14
ENDMDL
MODEL 2
REMARK VINA RESULT:     -10.4      5.133     10.115
REMARK SMILES O=C(Cc1ccc(S(=O)(=O)C[C@H]2CCCO2)cc1)NCCCNC(=O)c1ccc(-c2c3nc(c(-c4ccccc4)c4ccc([nH]4)c(-c4ccccc4)c4nc(c(-c5ccccc5)c5ccc2[nH]5)C=C4)C=C3)cc1
REMARK SMILES IDX 20 1 19 2 1 3 2 4 3 6 4 7 5 8 18 9 6 10 17 11 7 12 8 13 9 14
REMARK SMILES IDX 10 15 11 16 12 17 13 18 16 19 14 20 15 21 21 22 22 23 23 24
REMARK SMILES IDX 24 25 25 27 26 28 27 29 73 30 28 31 72 32 29 33 30 34 31 35
REMARK SMILES IDX 66 36 32 37 71 38 65 39 67 40 33 41 70 42 64 43 63 44 34 46
REMARK SMILES IDX 56 47 41 48 55 49 42 50 45 51 54 52 68 53 43 54 44 55 53 57
REMARK SMILES IDX 69 58 46 59 35 60 36 61 40 62 37 63 39 64 38 65 57 66 58 67
REMARK SMILES IDX 62 68 59 69 61 70 60 71 47 72 48 73 52 74 49 75 51 76 50 77
REMARK H PARENT 19 5 23 26 67 45 45 56
REMARK Flexibility Score: inf
ROOT
ATOM      1  C   UNL A   1      37.507  21.410  24.247  1.00  0.00     0.117 C 
ENDROOT
BRANCH   1   2
ATOM      2  N   UNL A   1      36.144  21.818  24.528  1.00  0.00    -0.356 N 
ATOM      3  O   UNL A   1      35.949  23.254  22.750  1.00  0.00    -0.275 OA
ATOM      4  C   UNL A   1      35.448  22.690  23.718  1.00  0.00     0.224 C 
ATOM      5  H   UNL A   1      35.699  21.458  25.329  1.00  0.00     0.163 HD
BRANCH   4   6
ATOM      6  C   UNL A   1      34.017  22.961  24.155  1.00  0.00     0.135 C 
BRANCH   6   7
ATOM      7  C   UNL A   1      33.557  24.401  24.054  1.00  0.00    -0.039 A 
ATOM      8  C   UNL A   1      32.802  24.863  22.968  1.00  0.00     0.005 A 
ATOM      9  C   UNL A   1      33.965  25.324  25.032  1.00  0.00     0.005 A 
ATOM     10  C   UNL A   1      32.398  26.196  22.903  1.00  0.00     0.020 A 
ATOM     11  C   UNL A   1      33.600  26.673  24.947  1.00  0.00     0.020 A 
ATOM     12  C   UNL A   1      32.789  27.099  23.899  1.00  0.00     0.067 A 
BRANCH  12  13
ATOM     13  S   UNL A   1      32.268  28.784  23.705  1.00  0.00     0.180 S 
ATOM     14  O   UNL A   1      32.839  29.481  24.847  1.00  0.00    -0.224 OA
ATOM     15  O   UNL A   1      32.639  29.189  22.363  1.00  0.00    -0.224 OA
BRANCH  13  16
ATOM     16  C   UNL A   1      30.515  28.932  23.868  1.00  0.00     0.174 C 
BRANCH  16  17
ATOM     17  C   UNL A   1      29.655  28.525  22.681  1.00  0.00     0.133 C 
ATOM     18  C   UNL A   1      28.214  28.256  23.117  1.00  0.00     0.035 C 
ATOM     19  O   UNL A   1      29.578  29.559  21.697  1.00  0.00    -0.377 OA
ATOM     20  C   UNL A   1      27.549  29.595  22.908  1.00  0.00     0.031 C 
ATOM     21  C   UNL A   1      28.252  30.104  21.671  1.00  0.00     0.160 C 
ENDBRANCH  16  17
ENDBRANCH  13  16
ENDBRANCH  12  13
ENDBRANCH   6   7
ENDBRANCH   4   6
ENDBRANCH   1   2
BRANCH   1  22
ATOM     22  C   UNL A   1      37.884  20.119  24.961  1.00  0.00     0.042 C 
BRANCH  22  23
ATOM     23  C   UNL A   1      38.938  20.293  26.049  1.00  0.00     0.118 C 
BRANCH  23  24
ATOM     24  N   UNL A   1      40.052  19.359  25.930  1.00  0.00    -0.352 N 
ATOM     25  C   UNL A   1      41.399  19.575  26.092  1.00  0.00     0.251 C 
ATOM     26  H   UNL A   1      39.801  18.435  25.699  1.00  0.00     0.163 HD
ATOM     27  O   UNL A   1      42.204  18.689  25.818  1.00  0.00    -0.269 OA
BRANCH  25  28
ATOM     28  C   UNL A   1      41.887  20.886  26.568  1.00  0.00     0.039 A 
ATOM     29  C   UNL A   1      42.342  21.822  25.634  1.00  0.00     0.014 A 
ATOM     30  C   UNL A   1      41.886  21.198  27.929  1.00  0.00     0.014 A 
ATOM     31  C   UNL A   1      42.711  23.102  26.056  1.00  0.00     0.010 A 
ATOM     32  C   UNL A   1      42.178  22.495  28.339  1.00  0.00     0.010 A 
ATOM     33  C   UNL A   1      42.587  23.463  27.407  1.00  0.00    -0.014 A 
BRANCH  33  34
ATOM     34  C   UNL A   1      42.867  24.842  27.882  1.00  0.00     0.031 A 
ATOM     35  C   UNL A   1      44.257  25.217  28.320  1.00  0.00     0.074 A 
ATOM     36  C   UNL A   1      41.859  25.727  28.016  1.00  0.00     0.049 A 
ATOM     37  N   UNL A   1      44.673  26.311  28.906  1.00  0.00    -0.248 NA
ATOM     38  C   UNL A   1      45.312  24.215  28.096  1.00  0.00     0.031 C 
ATOM     39  C   UNL A   1      40.463  25.485  27.646  1.00  0.00     0.029 A 
ATOM     40  N   UNL A   1      41.853  27.003  28.521  1.00  0.00    -0.354 N 
ATOM     41  C   UNL A   1      46.027  26.118  29.143  1.00  0.00     0.074 A 
ATOM     42  C   UNL A   1      46.354  24.788  28.679  1.00  0.00     0.031 C 
ATOM     43  C   UNL A   1      39.739  26.583  27.924  1.00  0.00     0.029 A 
ATOM     44  C   UNL A   1      40.606  27.582  28.540  1.00  0.00     0.049 A 
ATOM     45  H   UNL A   1      42.664  27.461  28.841  1.00  0.00     0.167 HD
ATOM     46  C   UNL A   1      46.923  26.977  29.685  1.00  0.00     0.031 A 
ATOM     47  C   UNL A   1      40.199  28.773  29.020  1.00  0.00     0.031 A 
ATOM     48  C   UNL A   1      46.601  28.303  30.141  1.00  0.00     0.049 A 
ATOM     49  C   UNL A   1      41.207  29.694  29.653  1.00  0.00     0.074 A 
ATOM     50  C   UNL A   1      47.447  29.264  30.662  1.00  0.00     0.029 A 
ATOM     51  N   UNL A   1      45.327  28.852  30.130  1.00  0.00    -0.354 N 
ATOM     52  N   UNL A   1      42.494  29.517  29.828  1.00  0.00    -0.248 NA
ATOM     53  C   UNL A   1      40.705  30.984  30.151  1.00  0.00     0.031 C 
ATOM     54  C   UNL A   1      46.679  30.374  31.022  1.00  0.00     0.029 A 
ATOM     55  C   UNL A   1      45.364  30.131  30.658  1.00  0.00     0.049 A 
ATOM     56  H   UNL A   1      44.519  28.401  29.797  1.00  0.00     0.167 HD
ATOM     57  C   UNL A   1      42.962  30.687  30.413  1.00  0.00     0.074 A 
ATOM     58  C   UNL A   1      41.822  31.568  30.560  1.00  0.00     0.031 C 
ATOM     59  C   UNL A   1      44.226  31.005  30.786  1.00  0.00     0.031 A 
BRANCH  46  60
ATOM     60  C   UNL A   1      48.343  26.498  29.832  1.00  0.00    -0.014 A 
ATOM     61  C   UNL A   1      49.294  26.715  28.823  1.00  0.00     0.009 A 
ATOM     62  C   UNL A   1      48.742  25.855  31.014  1.00  0.00     0.009 A 
ATOM     63  C   UNL A   1      50.606  26.260  28.977  1.00  0.00     0.001 A 
ATOM     64  C   UNL A   1      50.062  25.431  31.179  1.00  0.00     0.001 A 
ATOM     65  C   UNL A   1      50.990  25.624  30.157  1.00  0.00     0.000 A 
ENDBRANCH  46  60
BRANCH  47  66
ATOM     66  C   UNL A   1      38.770  29.170  28.922  1.00  0.00    -0.014 A 
ATOM     67  C   UNL A   1      37.905  28.995  30.014  1.00  0.00     0.009 A 
ATOM     68  C   UNL A   1      38.256  29.714  27.733  1.00  0.00     0.009 A 
ATOM     69  C   UNL A   1      36.553  29.327  29.908  1.00  0.00     0.001 A 
ATOM     70  C   UNL A   1      36.911  30.076  27.641  1.00  0.00     0.001 A 
ATOM     71  C   UNL A   1      36.058  29.871  28.725  1.00  0.00     0.000 A 
ENDBRANCH  47  66
BRANCH  59  72
ATOM     72  C   UNL A   1      44.465  32.385  31.331  1.00  0.00    -0.014 A 
ATOM     73  C   UNL A   1      44.409  32.656  32.707  1.00  0.00     0.009 A 
ATOM     74  C   UNL A   1      44.816  33.420  30.448  1.00  0.00     0.009 A 
ATOM     75  C   UNL A   1      44.676  33.942  33.184  1.00  0.00     0.001 A 
ATOM     76  C   UNL A   1      45.113  34.695  30.930  1.00  0.00     0.001 A 
ATOM     77  C   UNL A   1      45.035  34.957  32.297  1.00  0.00     0.000 A 
ENDBRANCH  59  72
ENDBRANCH  33  34
ENDBRANCH  25  28
ENDBRANCH  23  24
ENDBRANCH  22  23
ENDBRANCH   1  22
TORSDOF 14
ENDMDL
MODEL 3
REMARK VINA RESULT:     -10.4      7.841     12.832
REMARK SMILES O=C(Cc1ccc(S(=O)(=O)C[C@H]2CCCO2)cc1)NCCCNC(=O)c1ccc(-c2c3nc(c(-c4ccccc4)c4ccc([nH]4)c(-c4ccccc4)c4nc(c(-c5ccccc5)c5ccc2[nH]5)C=C4)C=C3)cc1
REMARK SMILES IDX 20 1 19 2 1 3 2 4 3 6 4 7 5 8 18 9 6 10 17 11 7 12 8 13 9 14
REMARK SMILES IDX 10 15 11 16 12 17 13 18 16 19 14 20 15 21 21 22 22 23 23 24
REMARK SMILES IDX 24 25 25 27 26 28 27 29 73 30 28 31 72 32 29 33 30 34 31 35
REMARK SMILES IDX 66 36 32 37 71 38 65 39 67 40 33 41 70 42 64 43 63 44 34 46
REMARK SMILES IDX 56 47 41 48 55 49 42 50 45 51 54 52 68 53 43 54 44 55 53 57
REMARK SMILES IDX 69 58 46 59 35 60 36 61 40 62 37 63 39 64 38 65 57 66 58 67
REMARK SMILES IDX 62 68 59 69 61 70 60 71 47 72 48 73 52 74 49 75 51 76 50 77
REMARK H PARENT 19 5 23 26 67 45 45 56
REMARK Flexibility Score: inf
ROOT
ATOM      1  C   UNL A   1      41.747  20.489  27.650  1.00  0.00     0.117 C 
ENDROOT
BRANCH   1   2
ATOM      2  N   UNL A   1      40.918  21.334  26.813  1.00  0.00    -0.356 N 
ATOM      3  O   UNL A   1      40.631  23.002  28.361  1.00  0.00    -0.275 OA
ATOM      4  C   UNL A   1      40.454  22.564  27.228  1.00  0.00     0.224 C 
ATOM      5  H   UNL A   1      40.678  21.016  25.913  1.00  0.00     0.163 HD
BRANCH   4   6
ATOM      6  C   UNL A   1      39.638  23.320  26.191  1.00  0.00     0.135 C 
BRANCH   6   7
ATOM      7  C   UNL A   1      38.239  22.793  25.941  1.00  0.00    -0.039 A 
ATOM      8  C   UNL A   1      38.014  21.519  25.403  1.00  0.00     0.005 A 
ATOM      9  C   UNL A   1      37.136  23.630  26.175  1.00  0.00     0.005 A 
ATOM     10  C   UNL A   1      36.714  21.065  25.181  1.00  0.00     0.020 A 
ATOM     11  C   UNL A   1      35.831  23.195  25.911  1.00  0.00     0.020 A 
ATOM     12  C   UNL A   1      35.622  21.900  25.445  1.00  0.00     0.067 A 
BRANCH  12  13
ATOM     13  S   UNL A   1      34.010  21.252  25.084  1.00  0.00     0.180 S 
ATOM     14  O   UNL A   1      33.293  21.321  26.349  1.00  0.00    -0.224 OA
ATOM     15  O   UNL A   1      33.507  21.986  23.938  1.00  0.00    -0.224 OA
BRANCH  13  16
ATOM     16  C   UNL A   1      34.091  19.540  24.659  1.00  0.00     0.174 C 
BRANCH  16  17
ATOM     17  C   UNL A   1      32.780  18.791  24.477  1.00  0.00     0.133 C 
ATOM     18  C   UNL A   1      32.893  17.755  23.358  1.00  0.00     0.035 C 
ATOM     19  O   UNL A   1      32.414  18.060  25.649  1.00  0.00    -0.377 OA
ATOM     20  C   UNL A   1      33.294  16.505  24.103  1.00  0.00     0.031 C 
ATOM     21  C   UNL A   1      32.528  16.653  25.397  1.00  0.00     0.160 C 
ENDBRANCH  16  17
ENDBRANCH  13  16
ENDBRANCH  12  13
ENDBRANCH   6   7
ENDBRANCH   4   6
ENDBRANCH   1   2
BRANCH   1  22
ATOM     22  C   UNL A   1      42.386  19.348  26.869  1.00  0.00     0.042 C 
BRANCH  22  23
ATOM     23  C   UNL A   1      42.470  19.589  25.367  1.00  0.00     0.118 C 
BRANCH  23  24
ATOM     24  N   UNL A   1      43.645  18.988  24.748  1.00  0.00    -0.352 N 
ATOM     25  C   UNL A   1      44.835  19.566  24.377  1.00  0.00     0.251 C 
ATOM     26  H   UNL A   1      43.576  18.022  24.569  1.00  0.00     0.163 HD
ATOM     27  O   UNL A   1      45.664  18.920  23.742  1.00  0.00    -0.269 OA
BRANCH  25  28
ATOM     28  C   UNL A   1      45.108  20.979  24.714  1.00  0.00     0.039 A 
ATOM     29  C   UNL A   1      44.866  21.965  23.754  1.00  0.00     0.014 A 
ATOM     30  C   UNL A   1      45.591  21.331  25.976  1.00  0.00     0.014 A 
ATOM     31  C   UNL A   1      45.022  23.313  24.089  1.00  0.00     0.010 A 
ATOM     32  C   UNL A   1      45.671  22.674  26.332  1.00  0.00     0.010 A 
ATOM     33  C   UNL A   1      45.381  23.679  25.395  1.00  0.00    -0.014 A 
BRANCH  33  34
ATOM     34  C   UNL A   1      45.455  25.101  25.822  1.00  0.00     0.031 A 
ATOM     35  C   UNL A   1      46.777  25.818  25.814  1.00  0.00     0.074 A 
ATOM     36  C   UNL A   1      44.360  25.715  26.312  1.00  0.00     0.049 A 
ATOM     37  N   UNL A   1      47.081  26.999  26.290  1.00  0.00    -0.248 NA
ATOM     38  C   UNL A   1      47.915  25.098  25.218  1.00  0.00     0.031 C 
ATOM     39  C   UNL A   1      43.021  25.128  26.394  1.00  0.00     0.029 A 
ATOM     40  N   UNL A   1      44.207  26.968  26.854  1.00  0.00    -0.354 N 
ATOM     41  C   UNL A   1      48.444  27.152  26.074  1.00  0.00     0.074 A 
ATOM     42  C   UNL A   1      48.917  25.927  25.467  1.00  0.00     0.031 C 
ATOM     43  C   UNL A   1      42.181  26.023  26.940  1.00  0.00     0.029 A 
ATOM     44  C   UNL A   1      42.930  27.224  27.296  1.00  0.00     0.049 A 
ATOM     45  H   UNL A   1      44.941  27.620  26.921  1.00  0.00     0.167 HD
ATOM     46  C   UNL A   1      49.230  28.221  26.344  1.00  0.00     0.031 A 
ATOM     47  C   UNL A   1      42.423  28.294  27.937  1.00  0.00     0.031 A 
ATOM     48  C   UNL A   1      48.759  29.442  26.942  1.00  0.00     0.049 A 
ATOM     49  C   UNL A   1      43.325  29.454  28.260  1.00  0.00     0.074 A 
ATOM     50  C   UNL A   1      49.468  30.598  27.212  1.00  0.00     0.029 A 
ATOM     51  N   UNL A   1      47.456  29.663  27.363  1.00  0.00    -0.354 N 
ATOM     52  N   UNL A   1      44.603  29.603  28.008  1.00  0.00    -0.248 NA
ATOM     53  C   UNL A   1      42.712  30.598  28.952  1.00  0.00     0.031 C 
ATOM     54  C   UNL A   1      48.611  31.497  27.851  1.00  0.00     0.029 A 
ATOM     55  C   UNL A   1      47.348  30.928  27.912  1.00  0.00     0.049 A 
ATOM     56  H   UNL A   1      46.718  29.017  27.282  1.00  0.00     0.167 HD
ATOM     57  C   UNL A   1      44.936  30.871  28.469  1.00  0.00     0.074 A 
ATOM     58  C   UNL A   1      43.725  31.451  29.014  1.00  0.00     0.031 C 
ATOM     59  C   UNL A   1      46.135  31.501  28.437  1.00  0.00     0.031 A 
BRANCH  46  60
ATOM     60  C   UNL A   1      50.694  28.110  26.009  1.00  0.00    -0.014 A 
ATOM     61  C   UNL A   1      51.622  27.630  26.946  1.00  0.00     0.009 A 
ATOM     62  C   UNL A   1      51.143  28.455  24.725  1.00  0.00     0.009 A 
ATOM     63  C   UNL A   1      52.976  27.538  26.618  1.00  0.00     0.001 A 
ATOM     64  C   UNL A   1      52.491  28.331  24.389  1.00  0.00     0.001 A 
ATOM     65  C   UNL A   1      53.409  27.883  25.337  1.00  0.00     0.000 A 
ENDBRANCH  46  60
BRANCH  47  66
ATOM     66  C   UNL A   1      40.986  28.326  28.316  1.00  0.00    -0.014 A 
ATOM     67  C   UNL A   1      40.041  28.934  27.475  1.00  0.00     0.009 A 
ATOM     68  C   UNL A   1      40.550  27.763  29.526  1.00  0.00     0.009 A 
ATOM     69  C   UNL A   1      38.697  29.004  27.850  1.00  0.00     0.001 A 
ATOM     70  C   UNL A   1      39.201  27.805  29.884  1.00  0.00     0.001 A 
ATOM     71  C   UNL A   1      38.278  28.435  29.051  1.00  0.00     0.000 A 
ENDBRANCH  47  66
BRANCH  59  72
ATOM     72  C   UNL A   1      46.194  32.915  28.943  1.00  0.00    -0.014 A 
ATOM     73  C   UNL A   1      46.477  33.207  30.286  1.00  0.00     0.009 A 
ATOM     74  C   UNL A   1      46.026  33.975  28.037  1.00  0.00     0.009 A 
ATOM     75  C   UNL A   1      46.564  34.534  30.716  1.00  0.00     0.001 A 
ATOM     76  C   UNL A   1      46.145  35.298  28.463  1.00  0.00     0.001 A 
ATOM     77  C   UNL A   1      46.406  35.577  29.803  1.00  0.00     0.000 A 
ENDBRANCH  59  72
ENDBRANCH  33  34
ENDBRANCH  25  28
ENDBRANCH  23  24
ENDBRANCH  22  23
ENDBRANCH   1  22
TORSDOF 14
ENDMDL
