MODEL 1
REMARK VINA RESULT:      -9.5      0.000      0.000
REMARK SMILES C#CCN(CC(=O)NCCCNC(=O)c1ccc(-c2c3nc(c(-c4ccccc4)c4ccc([nH]4)c(-c4ccccc4)c4nc(c(-c5ccccc5)c5ccc2[nH]5)C=C4)C=C3)cc1)C(=O)N1CCO[C@@H](C#N)C1
REMARK SMILES IDX 9 1 8 2 6 3 7 4 5 6 4 7 3 8 2 9 1 10 63 11 64 12 65 13 66 14
REMARK SMILES IDX 72 15 67 16 69 17 68 18 70 19 71 20 10 21 11 22 12 23 13 24
REMARK SMILES IDX 14 26 15 27 16 28 62 29 17 30 61 31 18 32 19 33 20 34 55 35
REMARK SMILES IDX 21 36 60 37 54 38 56 39 22 40 59 41 53 42 52 43 23 45 45 46
REMARK SMILES IDX 30 47 44 48 31 49 34 50 43 51 57 52 32 53 33 54 42 56 58 57
REMARK SMILES IDX 35 58 24 59 25 60 29 61 26 62 28 63 27 64 46 65 47 66 51 67
REMARK SMILES IDX 48 68 50 69 49 70 36 71 37 72 41 73 38 74 40 75 39 76
REMARK H PARENT 8 5 12 25 56 44 34 55
REMARK Flexibility Score: inf
ROOT
ATOM      1  C   UNL A   1      31.831  27.075  26.492  1.00  0.00     0.117 C 
ENDROOT
BRANCH   1   2
ATOM      2  N   UNL A   1      32.305  26.998  25.128  1.00  0.00    -0.354 N 
ATOM      3  C   UNL A   1      33.388  26.339  24.629  1.00  0.00     0.239 C 
ATOM      4  O   UNL A   1      33.534  26.338  23.404  1.00  0.00    -0.273 OA
ATOM      5  H   UNL A   1      31.769  27.491  24.466  1.00  0.00     0.163 HD
BRANCH   3   6
ATOM      6  C   UNL A   1      34.345  25.608  25.569  1.00  0.00     0.222 C 
BRANCH   6   7
ATOM      7  N   UNL A   1      34.873  24.285  25.209  1.00  0.00    -0.304 N 
BRANCH   7   8
ATOM      8  C   UNL A   1      35.680  23.736  26.261  1.00  0.00     0.211 C 
BRANCH   8   9
ATOM      9  C   UNL A   1      37.058  23.171  25.962  1.00  0.00    -0.085 C 
ATOM     10  C   UNL A   1      38.241  22.686  25.706  1.00  0.00     0.006 C 
ENDBRANCH   8   9
ENDBRANCH   7   8
BRANCH   7  11
ATOM     11  C   UNL A   1      34.616  23.420  24.159  1.00  0.00     0.321 C 
ATOM     12  O   UNL A   1      35.293  23.465  23.126  1.00  0.00    -0.248 OA
BRANCH  11  13
ATOM     13  N   UNL A   1      33.669  22.439  24.247  1.00  0.00    -0.319 N 
ATOM     14  C   UNL A   1      34.109  21.040  24.339  1.00  0.00     0.150 C 
ATOM     15  C   UNL A   1      32.235  22.536  23.989  1.00  0.00     0.169 C 
ATOM     16  C   UNL A   1      33.249  20.263  25.356  1.00  0.00     0.183 C 
ATOM     17  C   UNL A   1      31.475  21.887  25.153  1.00  0.00     0.240 C 
ATOM     18  O   UNL A   1      31.829  20.476  25.192  1.00  0.00    -0.360 OA
BRANCH  17  19
ATOM     19  C   UNL A   1      31.906  22.601  26.424  1.00  0.00     0.096 C 
ATOM     20  N   UNL A   1      32.263  23.193  27.478  1.00  0.00    -0.195 NA
ENDBRANCH  17  19
ENDBRANCH  11  13
ENDBRANCH   7  11
ENDBRANCH   6   7
ENDBRANCH   3   6
ENDBRANCH   1   2
BRANCH   1  21
ATOM     21  C   UNL A   1      32.021  28.458  27.102  1.00  0.00     0.042 C 
BRANCH  21  22
ATOM     22  C   UNL A   1      33.481  28.859  27.289  1.00  0.00     0.118 C 
BRANCH  22  23
ATOM     23  N   UNL A   1      33.631  30.253  27.686  1.00  0.00    -0.352 N 
ATOM     24  C   UNL A   1      34.640  30.886  28.363  1.00  0.00     0.251 C 
ATOM     25  H   UNL A   1      32.883  30.837  27.425  1.00  0.00     0.163 HD
ATOM     26  O   UNL A   1      34.446  32.008  28.829  1.00  0.00    -0.269 OA
BRANCH  24  27
ATOM     27  C   UNL A   1      35.948  30.231  28.548  1.00  0.00     0.039 A 
ATOM     28  C   UNL A   1      36.849  30.202  27.480  1.00  0.00     0.014 A 
ATOM     29  C   UNL A   1      36.275  29.615  29.759  1.00  0.00     0.014 A 
ATOM     30  C   UNL A   1      38.111  29.633  27.653  1.00  0.00     0.010 A 
ATOM     31  C   UNL A   1      37.557  29.111  29.953  1.00  0.00     0.010 A 
ATOM     32  C   UNL A   1      38.491  29.127  28.907  1.00  0.00    -0.014 A 
BRANCH  32  33
ATOM     33  C   UNL A   1      39.873  28.657  29.167  1.00  0.00     0.031 A 
ATOM     34  C   UNL A   1      40.904  29.593  29.728  1.00  0.00     0.074 A 
ATOM     35  C   UNL A   1      40.219  27.408  28.800  1.00  0.00     0.049 A 
ATOM     36  N   UNL A   1      42.185  29.396  29.906  1.00  0.00    -0.248 NA
ATOM     37  C   UNL A   1      40.440  30.934  30.119  1.00  0.00     0.031 C 
ATOM     38  C   UNL A   1      39.315  26.415  28.215  1.00  0.00     0.029 A 
ATOM     39  N   UNL A   1      41.431  26.767  28.847  1.00  0.00    -0.354 N 
ATOM     40  C   UNL A   1      42.683  30.590  30.413  1.00  0.00     0.074 A 
ATOM     41  C   UNL A   1      41.575  31.517  30.478  1.00  0.00     0.031 C 
ATOM     42  C   UNL A   1      40.000  25.287  27.970  1.00  0.00     0.029 A 
ATOM     43  C   UNL A   1      41.399  25.493  28.331  1.00  0.00     0.049 A 
ATOM     44  H   UNL A   1      42.247  27.179  29.214  1.00  0.00     0.167 HD
ATOM     45  C   UNL A   1      43.948  30.880  30.801  1.00  0.00     0.031 A 
ATOM     46  C   UNL A   1      42.387  24.600  28.144  1.00  0.00     0.031 A 
ATOM     47  C   UNL A   1      45.048  29.956  30.735  1.00  0.00     0.049 A 
ATOM     48  C   UNL A   1      43.791  24.967  28.536  1.00  0.00     0.074 A 
ATOM     49  C   UNL A   1      46.353  30.135  31.164  1.00  0.00     0.029 A 
ATOM     50  N   UNL A   1      44.976  28.681  30.196  1.00  0.00    -0.354 N 
ATOM     51  N   UNL A   1      44.232  26.074  29.080  1.00  0.00    -0.248 NA
ATOM     52  C   UNL A   1      44.831  23.960  28.283  1.00  0.00     0.031 C 
ATOM     53  C   UNL A   1      47.083  28.990  30.830  1.00  0.00     0.029 A 
ATOM     54  C   UNL A   1      46.221  28.077  30.243  1.00  0.00     0.049 A 
ATOM     55  H   UNL A   1      44.160  28.266  29.834  1.00  0.00     0.167 HD
ATOM     56  C   UNL A   1      45.599  25.894  29.248  1.00  0.00     0.074 A 
ATOM     57  C   UNL A   1      45.908  24.562  28.770  1.00  0.00     0.031 C 
ATOM     58  C   UNL A   1      46.515  26.756  29.750  1.00  0.00     0.031 A 
BRANCH  45  59
ATOM     59  C   UNL A   1      44.213  32.267  31.319  1.00  0.00    -0.014 A 
ATOM     60  C   UNL A   1      44.580  33.310  30.454  1.00  0.00     0.009 A 
ATOM     61  C   UNL A   1      44.050  32.543  32.686  1.00  0.00     0.009 A 
ATOM     62  C   UNL A   1      44.812  34.593  30.953  1.00  0.00     0.001 A 
ATOM     63  C   UNL A   1      44.255  33.833  33.177  1.00  0.00     0.001 A 
ATOM     64  C   UNL A   1      44.645  34.855  32.313  1.00  0.00     0.000 A 
ENDBRANCH  45  59
BRANCH  46  65
ATOM     65  C   UNL A   1      42.088  23.275  27.543  1.00  0.00    -0.014 A 
ATOM     66  C   UNL A   1      41.531  22.250  28.322  1.00  0.00     0.009 A 
ATOM     67  C   UNL A   1      42.356  23.029  26.186  1.00  0.00     0.009 A 
ATOM     68  C   UNL A   1      41.269  20.999  27.761  1.00  0.00     0.001 A 
ATOM     69  C   UNL A   1      42.066  21.785  25.622  1.00  0.00     0.001 A 
ATOM     70  C   UNL A   1      41.531  20.768  26.411  1.00  0.00     0.000 A 
ENDBRANCH  46  65
BRANCH  58  71
ATOM     71  C   UNL A   1      47.939  26.282  29.812  1.00  0.00    -0.014 A 
ATOM     72  C   UNL A   1      48.791  26.403  28.704  1.00  0.00     0.009 A 
ATOM     73  C   UNL A   1      48.446  25.747  31.007  1.00  0.00     0.009 A 
ATOM     74  C   UNL A   1      50.116  25.975  28.783  1.00  0.00     0.001 A 
ATOM     75  C   UNL A   1      49.779  25.345  31.091  1.00  0.00     0.001 A 
ATOM     76  C   UNL A   1      50.612  25.453  29.978  1.00  0.00     0.000 A 
ENDBRANCH  58  71
ENDBRANCH  32  33
ENDBRANCH  24  27
ENDBRANCH  22  23
ENDBRANCH  21  22
ENDBRANCH   1  21
TORSDOF 16
ENDMDL
MODEL 2
REMARK VINA RESULT:      -9.4      4.078      8.234
REMARK SMILES C#CCN(CC(=O)NCCCNC(=O)c1ccc(-c2c3nc(c(-c4ccccc4)c4ccc([nH]4)c(-c4ccccc4)c4nc(c(-c5ccccc5)c5ccc2[nH]5)C=C4)C=C3)cc1)C(=O)N1CCO[C@@H](C#N)C1
REMARK SMILES IDX 9 1 8 2 6 3 7 4 5 6 4 7 3 8 2 9 1 10 63 11 64 12 65 13 66 14
REMARK SMILES IDX 72 15 67 16 69 17 68 18 70 19 71 20 10 21 11 22 12 23 13 24
REMARK SMILES IDX 14 26 15 27 16 28 62 29 17 30 61 31 18 32 19 33 20 34 55 35
REMARK SMILES IDX 21 36 60 37 54 38 56 39 22 40 59 41 53 42 52 43 23 45 45 46
REMARK SMILES IDX 30 47 44 48 31 49 34 50 43 51 57 52 32 53 33 54 42 56 58 57
REMARK SMILES IDX 35 58 24 59 25 60 29 61 26 62 28 63 27 64 46 65 47 66 51 67
REMARK SMILES IDX 48 68 50 69 49 70 36 71 37 72 41 73 38 74 40 75 39 76
REMARK H PARENT 8 5 12 25 56 44 34 55
REMARK Flexibility Score: inf
ROOT
ATOM      1  C   UNL A   1      31.786  30.485  26.892  1.00  0.00     0.117 C 
ENDROOT
BRANCH   1   2
ATOM      2  N   UNL A   1      32.983  30.092  27.604  1.00  0.00    -0.354 N 
ATOM      3  C   UNL A   1      33.999  29.280  27.197  1.00  0.00     0.239 C 
ATOM      4  O   UNL A   1      34.971  29.172  27.948  1.00  0.00    -0.273 OA
ATOM      5  H   UNL A   1      33.077  30.464  28.510  1.00  0.00     0.163 HD
BRANCH   3   6
ATOM      6  C   UNL A   1      33.927  28.575  25.843  1.00  0.00     0.222 C 
BRANCH   6   7
ATOM      7  N   UNL A   1      33.185  27.316  25.700  1.00  0.00    -0.304 N 
BRANCH   7   8
ATOM      8  C   UNL A   1      34.028  26.179  25.938  1.00  0.00     0.211 C 
BRANCH   8   9
ATOM      9  C   UNL A   1      34.234  25.131  24.857  1.00  0.00    -0.085 C 
ATOM     10  C   UNL A   1      34.411  24.232  23.930  1.00  0.00     0.006 C 
ENDBRANCH   8   9
ENDBRANCH   7   8
BRANCH   7  11
ATOM     11  C   UNL A   1      31.840  27.024  25.554  1.00  0.00     0.321 C 
ATOM     12  O   UNL A   1      31.156  26.699  26.532  1.00  0.00    -0.248 OA
BRANCH  11  13
ATOM     13  N   UNL A   1      31.198  27.156  24.355  1.00  0.00    -0.319 N 
ATOM     14  C   UNL A   1      30.404  28.367  24.109  1.00  0.00     0.150 C 
ATOM     15  C   UNL A   1      30.947  26.134  23.342  1.00  0.00     0.169 C 
ATOM     16  C   UNL A   1      30.607  28.871  22.667  1.00  0.00     0.183 C 
ATOM     17  C   UNL A   1      31.353  26.684  21.969  1.00  0.00     0.240 C 
ATOM     18  O   UNL A   1      30.503  27.828  21.671  1.00  0.00    -0.360 OA
BRANCH  17  19
ATOM     19  C   UNL A   1      32.815  27.090  22.062  1.00  0.00     0.096 C 
ATOM     20  N   UNL A   1      34.028  27.427  22.140  1.00  0.00    -0.195 NA
ENDBRANCH  17  19
ENDBRANCH  11  13
ENDBRANCH   7  11
ENDBRANCH   6   7
ENDBRANCH   3   6
ENDBRANCH   1   2
BRANCH   1  21
ATOM     21  C   UNL A   1      31.582  31.994  26.876  1.00  0.00     0.042 C 
BRANCH  21  22
ATOM     22  C   UNL A   1      32.841  32.794  27.198  1.00  0.00     0.118 C 
BRANCH  22  23
ATOM     23  N   UNL A   1      32.543  34.155  27.626  1.00  0.00    -0.352 N 
ATOM     24  C   UNL A   1      33.026  34.887  28.678  1.00  0.00     0.251 C 
ATOM     25  H   UNL A   1      31.885  34.627  27.065  1.00  0.00     0.163 HD
ATOM     26  O   UNL A   1      32.446  35.918  29.015  1.00  0.00    -0.269 OA
BRANCH  24  27
ATOM     27  C   UNL A   1      34.224  34.445  29.415  1.00  0.00     0.039 A 
ATOM     28  C   UNL A   1      34.068  33.857  30.673  1.00  0.00     0.014 A 
ATOM     29  C   UNL A   1      35.502  34.638  28.885  1.00  0.00     0.014 A 
ATOM     30  C   UNL A   1      35.186  33.385  31.362  1.00  0.00     0.010 A 
ATOM     31  C   UNL A   1      36.608  34.105  29.538  1.00  0.00     0.010 A 
ATOM     32  C   UNL A   1      36.459  33.462  30.775  1.00  0.00    -0.014 A 
BRANCH  32  33
ATOM     33  C   UNL A   1      37.644  32.834  31.408  1.00  0.00     0.031 A 
ATOM     34  C   UNL A   1      38.304  31.641  30.778  1.00  0.00     0.074 A 
ATOM     35  C   UNL A   1      38.060  33.282  32.608  1.00  0.00     0.049 A 
ATOM     36  N   UNL A   1      39.266  30.889  31.245  1.00  0.00    -0.248 NA
ATOM     37  C   UNL A   1      37.800  31.225  29.459  1.00  0.00     0.031 C 
ATOM     38  C   UNL A   1      37.480  34.412  33.338  1.00  0.00     0.029 A 
ATOM     39  N   UNL A   1      39.056  32.828  33.436  1.00  0.00    -0.354 N 
ATOM     40  C   UNL A   1      39.474  29.903  30.289  1.00  0.00     0.074 A 
ATOM     41  C   UNL A   1      38.511  30.129  29.233  1.00  0.00     0.031 C 
ATOM     42  C   UNL A   1      38.139  34.572  34.497  1.00  0.00     0.029 A 
ATOM     43  C   UNL A   1      39.149  33.527  34.616  1.00  0.00     0.049 A 
ATOM     44  H   UNL A   1      39.646  32.075  33.207  1.00  0.00     0.167 HD
ATOM     45  C   UNL A   1      40.392  28.908  30.287  1.00  0.00     0.031 A 
ATOM     46  C   UNL A   1      39.941  33.333  35.686  1.00  0.00     0.031 A 
ATOM     47  C   UNL A   1      41.349  28.686  31.338  1.00  0.00     0.049 A 
ATOM     48  C   UNL A   1      40.917  32.190  35.679  1.00  0.00     0.074 A 
ATOM     49  C   UNL A   1      42.362  27.745  31.398  1.00  0.00     0.029 A 
ATOM     50  N   UNL A   1      41.403  29.408  32.520  1.00  0.00    -0.354 N 
ATOM     51  N   UNL A   1      41.149  31.310  34.736  1.00  0.00    -0.248 NA
ATOM     52  C   UNL A   1      41.736  32.014  36.886  1.00  0.00     0.031 C 
ATOM     53  C   UNL A   1      42.991  27.858  32.642  1.00  0.00     0.029 A 
ATOM     54  C   UNL A   1      42.405  28.907  33.334  1.00  0.00     0.049 A 
ATOM     55  H   UNL A   1      40.816  30.165  32.748  1.00  0.00     0.167 HD
ATOM     56  C   UNL A   1      42.150  30.483  35.229  1.00  0.00     0.074 A 
ATOM     57  C   UNL A   1      42.496  30.983  36.544  1.00  0.00     0.031 C 
ATOM     58  C   UNL A   1      42.727  29.406  34.645  1.00  0.00     0.031 A 
BRANCH  45  59
ATOM     59  C   UNL A   1      40.396  27.971  29.111  1.00  0.00    -0.014 A 
ATOM     60  C   UNL A   1      39.654  26.780  29.127  1.00  0.00     0.009 A 
ATOM     61  C   UNL A   1      41.117  28.306  27.954  1.00  0.00     0.009 A 
ATOM     62  C   UNL A   1      39.661  25.927  28.022  1.00  0.00     0.001 A 
ATOM     63  C   UNL A   1      41.101  27.465  26.840  1.00  0.00     0.001 A 
ATOM     64  C   UNL A   1      40.381  26.272  26.878  1.00  0.00     0.000 A 
ENDBRANCH  45  59
BRANCH  46  65
ATOM     65  C   UNL A   1      39.835  34.234  36.862  1.00  0.00    -0.014 A 
ATOM     66  C   UNL A   1      40.562  35.433  36.908  1.00  0.00     0.009 A 
ATOM     67  C   UNL A   1      39.005  33.901  37.945  1.00  0.00     0.009 A 
ATOM     68  C   UNL A   1      40.478  36.269  38.022  1.00  0.00     0.001 A 
ATOM     69  C   UNL A   1      38.901  34.754  39.046  1.00  0.00     0.001 A 
ATOM     70  C   UNL A   1      39.644  35.933  39.088  1.00  0.00     0.000 A 
ENDBRANCH  46  65
BRANCH  58  71
ATOM     71  C   UNL A   1      43.797  28.697  35.426  1.00  0.00    -0.014 A 
ATOM     72  C   UNL A   1      45.140  29.096  35.338  1.00  0.00     0.009 A 
ATOM     73  C   UNL A   1      43.453  27.648  36.292  1.00  0.00     0.009 A 
ATOM     74  C   UNL A   1      46.121  28.440  36.084  1.00  0.00     0.001 A 
ATOM     75  C   UNL A   1      44.431  27.012  37.057  1.00  0.00     0.001 A 
ATOM     76  C   UNL A   1      45.765  27.403  36.947  1.00  0.00     0.000 A 
ENDBRANCH  58  71
ENDBRANCH  32  33
ENDBRANCH  24  27
ENDBRANCH  22  23
ENDBRANCH  21  22
ENDBRANCH   1  21
TORSDOF 16
ENDMDL
MODEL 3
REMARK VINA RESULT:      -9.3      1.853      7.342
REMARK SMILES C#CCN(CC(=O)NCCCNC(=O)c1ccc(-c2c3nc(c(-c4ccccc4)c4ccc([nH]4)c(-c4ccccc4)c4nc(c(-c5ccccc5)c5ccc2[nH]5)C=C4)C=C3)cc1)C(=O)N1CCO[C@@H](C#N)C1
REMARK SMILES IDX 9 1 8 2 6 3 7 4 5 6 4 7 3 8 2 9 1 10 63 11 64 12 65 13 66 14
REMARK SMILES IDX 72 15 67 16 69 17 68 18 70 19 71 20 10 21 11 22 12 23 13 24
REMARK SMILES IDX 14 26 15 27 16 28 62 29 17 30 61 31 18 32 19 33 20 34 55 35
REMARK SMILES IDX 21 36 60 37 54 38 56 39 22 40 59 41 53 42 52 43 23 45 45 46
REMARK SMILES IDX 30 47 44 48 31 49 34 50 43 51 57 52 32 53 33 54 42 56 58 57
REMARK SMILES IDX 35 58 24 59 25 60 29 61 26 62 28 63 27 64 46 65 47 66 51 67
REMARK SMILES IDX 48 68 50 69 49 70 36 71 37 72 41 73 38 74 40 75 39 76
REMARK H PARENT 8 5 12 25 56 44 34 55
REMARK Flexibility Score: inf
ROOT
ATOM      1  C   UNL A   1      36.393  20.419  25.012  1.00  0.00     0.117 C 
ENDROOT
BRANCH   1   2
ATOM      2  N   UNL A   1      36.430  21.796  25.455  1.00  0.00    -0.354 N 
ATOM      3  C   UNL A   1      35.419  22.572  25.936  1.00  0.00     0.239 C 
ATOM      4  O   UNL A   1      35.716  23.696  26.347  1.00  0.00    -0.273 OA
ATOM      5  H   UNL A   1      37.310  22.234  25.402  1.00  0.00     0.163 HD
BRANCH   3   6
ATOM      6  C   UNL A   1      33.990  22.033  25.987  1.00  0.00     0.222 C 
BRANCH   6   7
ATOM      7  N   UNL A   1      33.151  22.036  24.781  1.00  0.00    -0.304 N 
BRANCH   7   8
ATOM      8  C   UNL A   1      32.208  20.955  24.794  1.00  0.00     0.211 C 
BRANCH   8   9
ATOM      9  C   UNL A   1      32.644  19.544  24.435  1.00  0.00    -0.085 C 
ATOM     10  C   UNL A   1      33.018  18.335  24.127  1.00  0.00     0.006 C 
ENDBRANCH   8   9
ENDBRANCH   7   8
BRANCH   7  11
ATOM     11  C   UNL A   1      32.983  22.945  23.751  1.00  0.00     0.321 C 
ATOM     12  O   UNL A   1      33.261  22.636  22.587  1.00  0.00    -0.248 OA
BRANCH  11  13
ATOM     13  N   UNL A   1      32.437  24.180  23.959  1.00  0.00    -0.319 N 
ATOM     14  C   UNL A   1      31.305  24.601  23.121  1.00  0.00     0.150 C 
ATOM     15  C   UNL A   1      32.980  25.296  24.728  1.00  0.00     0.169 C 
ATOM     16  C   UNL A   1      30.246  25.338  23.963  1.00  0.00     0.183 C 
ATOM     17  C   UNL A   1      31.889  25.837  25.660  1.00  0.00     0.240 C 
ATOM     18  O   UNL A   1      30.803  26.347  24.836  1.00  0.00    -0.360 OA
BRANCH  17  19
ATOM     19  C   UNL A   1      31.426  24.679  26.529  1.00  0.00     0.096 C 
ATOM     20  N   UNL A   1      31.043  23.717  27.249  1.00  0.00    -0.195 NA
ENDBRANCH  17  19
ENDBRANCH  11  13
ENDBRANCH   7  11
ENDBRANCH   6   7
ENDBRANCH   3   6
ENDBRANCH   1   2
BRANCH   1  21
ATOM     21  C   UNL A   1      37.781  19.854  24.738  1.00  0.00     0.042 C 
BRANCH  21  22
ATOM     22  C   UNL A   1      38.856  20.359  25.695  1.00  0.00     0.118 C 
BRANCH  22  23
ATOM     23  N   UNL A   1      39.948  19.408  25.861  1.00  0.00    -0.352 N 
ATOM     24  C   UNL A   1      41.280  19.610  26.109  1.00  0.00     0.251 C 
ATOM     25  H   UNL A   1      39.684  18.462  25.781  1.00  0.00     0.163 HD
ATOM     26  O   UNL A   1      42.073  18.684  25.947  1.00  0.00    -0.269 OA
BRANCH  24  27
ATOM     27  C   UNL A   1      41.770  20.926  26.556  1.00  0.00     0.039 A 
ATOM     28  C   UNL A   1      42.324  21.799  25.615  1.00  0.00     0.014 A 
ATOM     29  C   UNL A   1      41.717  21.290  27.904  1.00  0.00     0.014 A 
ATOM     30  C   UNL A   1      42.745  23.070  26.011  1.00  0.00     0.010 A 
ATOM     31  C   UNL A   1      42.070  22.581  28.285  1.00  0.00     0.010 A 
ATOM     32  C   UNL A   1      42.575  23.486  27.341  1.00  0.00    -0.014 A 
BRANCH  32  33
ATOM     33  C   UNL A   1      42.867  24.878  27.761  1.00  0.00     0.031 A 
ATOM     34  C   UNL A   1      44.266  25.288  28.120  1.00  0.00     0.074 A 
ATOM     35  C   UNL A   1      41.847  25.743  27.914  1.00  0.00     0.049 A 
ATOM     36  N   UNL A   1      44.690  26.419  28.623  1.00  0.00    -0.248 NA
ATOM     37  C   UNL A   1      45.325  24.288  27.908  1.00  0.00     0.031 C 
ATOM     38  C   UNL A   1      40.439  25.454  27.628  1.00  0.00     0.029 A 
ATOM     39  N   UNL A   1      41.834  27.038  28.368  1.00  0.00    -0.354 N 
ATOM     40  C   UNL A   1      46.058  26.263  28.803  1.00  0.00     0.074 A 
ATOM     41  C   UNL A   1      46.388  24.916  28.392  1.00  0.00     0.031 C 
ATOM     42  C   UNL A   1      39.702  26.543  27.900  1.00  0.00     0.029 A 
ATOM     43  C   UNL A   1      40.575  27.586  28.427  1.00  0.00     0.049 A 
ATOM     44  H   UNL A   1      42.648  27.528  28.626  1.00  0.00     0.167 HD
ATOM     45  C   UNL A   1      46.958  27.167  29.258  1.00  0.00     0.031 A 
ATOM     46  C   UNL A   1      40.163  28.785  28.879  1.00  0.00     0.031 A 
ATOM     47  C   UNL A   1      46.627  28.506  29.665  1.00  0.00     0.049 A 
ATOM     48  C   UNL A   1      41.177  29.750  29.426  1.00  0.00     0.074 A 
ATOM     49  C   UNL A   1      47.477  29.517  30.080  1.00  0.00     0.029 A 
ATOM     50  N   UNL A   1      45.340  29.018  29.721  1.00  0.00    -0.354 N 
ATOM     51  N   UNL A   1      42.477  29.613  29.523  1.00  0.00    -0.248 NA
ATOM     52  C   UNL A   1      40.664  31.032  29.928  1.00  0.00     0.031 C 
ATOM     53  C   UNL A   1      46.700  30.621  30.442  1.00  0.00     0.029 A 
ATOM     54  C   UNL A   1      45.369  30.316  30.201  1.00  0.00     0.049 A 
ATOM     55  H   UNL A   1      44.526  28.531  29.458  1.00  0.00     0.167 HD
ATOM     56  C   UNL A   1      42.940  30.796  30.084  1.00  0.00     0.074 A 
ATOM     57  C   UNL A   1      41.785  31.646  30.283  1.00  0.00     0.031 C 
ATOM     58  C   UNL A   1      44.209  31.144  30.408  1.00  0.00     0.031 A 
BRANCH  45  59
ATOM     59  C   UNL A   1      48.394  26.728  29.352  1.00  0.00    -0.014 A 
ATOM     60  C   UNL A   1      49.299  26.971  28.308  1.00  0.00     0.009 A 
ATOM     61  C   UNL A   1      48.857  26.105  30.522  1.00  0.00     0.009 A 
ATOM     62  C   UNL A   1      50.631  26.565  28.418  1.00  0.00     0.001 A 
ATOM     63  C   UNL A   1      50.194  25.725  30.641  1.00  0.00     0.001 A 
ATOM     64  C   UNL A   1      51.079  25.947  29.586  1.00  0.00     0.000 A 
ENDBRANCH  45  59
BRANCH  46  65
ATOM     65  C   UNL A   1      38.720  29.136  28.848  1.00  0.00    -0.014 A 
ATOM     66  C   UNL A   1      38.127  29.603  27.666  1.00  0.00     0.009 A 
ATOM     67  C   UNL A   1      37.927  29.004  29.999  1.00  0.00     0.009 A 
ATOM     68  C   UNL A   1      36.776  29.952  27.642  1.00  0.00     0.001 A 
ATOM     69  C   UNL A   1      36.569  29.326  29.965  1.00  0.00     0.001 A 
ATOM     70  C   UNL A   1      35.996  29.808  28.789  1.00  0.00     0.000 A 
ENDBRANCH  46  65
BRANCH  58  71
ATOM     71  C   UNL A   1      44.412  32.506  31.008  1.00  0.00    -0.014 A 
ATOM     72  C   UNL A   1      44.613  33.632  30.194  1.00  0.00     0.009 A 
ATOM     73  C   UNL A   1      44.358  32.672  32.401  1.00  0.00     0.009 A 
ATOM     74  C   UNL A   1      44.781  34.894  30.766  1.00  0.00     0.001 A 
ATOM     75  C   UNL A   1      44.500  33.938  32.967  1.00  0.00     0.001 A 
ATOM     76  C   UNL A   1      44.718  35.047  32.151  1.00  0.00     0.000 A 
ENDBRANCH  58  71
ENDBRANCH  32  33
ENDBRANCH  24  27
ENDBRANCH  22  23
ENDBRANCH  21  22
ENDBRANCH   1  21
TORSDOF 16
ENDMDL
