MODEL 1
REMARK VINA RESULT:     -11.3      0.000      0.000
REMARK SMILES CC[C@]1(C(=O)NCCCNC(=O)c2ccc(-c3c4nc(c(-c5ccccc5)c5ccc([nH]5)c(-c5ccccc5)c5nc(c(-c6ccccc6)c6ccc3[nH]6)C=C5)C=C4)cc2)CC[N@@H+](Cc2ccc(CC(C)C)cc2)C1
REMARK SMILES IDX 7 1 6 2 4 3 5 4 3 6 61 7 75 8 62 9 63 10 2 12 1 13 64 14
REMARK SMILES IDX 65 15 66 16 74 17 67 18 73 19 68 20 69 21 70 22 71 23 72 24
REMARK SMILES IDX 8 25 9 26 10 27 11 28 12 30 13 31 14 32 60 33 15 34 59 35
REMARK SMILES IDX 16 36 17 37 18 38 53 39 19 40 58 41 52 42 54 43 20 44 57 45
REMARK SMILES IDX 51 46 50 47 21 49 43 50 28 51 42 52 29 53 32 54 41 55 55 56
REMARK SMILES IDX 30 57 31 58 40 60 56 61 33 62 22 63 23 64 27 65 24 66 26 67
REMARK SMILES IDX 25 68 44 69 45 70 49 71 46 72 48 73 47 74 34 75 35 76 39 77
REMARK SMILES IDX 36 78 38 79 37 80
REMARK H PARENT 6 5 63 11 10 29 54 48 32 59
REMARK Flexibility Score: inf
ROOT
ATOM      1  C   UNL A   1      34.007  26.110  25.944  1.00  0.00     0.117 C 
ENDROOT
BRANCH   1   2
ATOM      2  N   UNL A   1      34.234  25.541  24.606  1.00  0.00    -0.355 N 
ATOM      3  C   UNL A   1      33.719  24.615  23.749  1.00  0.00     0.232 C 
ATOM      4  O   UNL A   1      34.341  24.602  22.672  1.00  0.00    -0.274 OA
ATOM      5  H   UNL A   1      35.017  25.973  24.193  1.00  0.00     0.163 HD
BRANCH   3   6
ATOM      6  C   UNL A   1      32.536  23.595  23.925  1.00  0.00     0.103 C 
ATOM      7  C   UNL A   1      32.449  23.135  25.411  1.00  0.00     0.084 C 
ATOM      8  C   UNL A   1      31.097  24.094  23.656  1.00  0.00     0.279 C 
ATOM      9  C   UNL A   1      30.965  23.017  25.740  1.00  0.00     0.263 C 
ATOM     10  N   UNL A   1      30.288  23.976  24.878  1.00  0.00    -0.330 N 
ATOM     11  H   UNL A   1      29.364  23.627  24.626  1.00  0.00     0.348 HD
BRANCH   6  12
ATOM     12  C   UNL A   1      32.833  22.346  23.016  1.00  0.00     0.020 C 
ATOM     13  C   UNL A   1      32.772  20.955  23.664  1.00  0.00     0.005 C 
ENDBRANCH   6  12
BRANCH  10  14
ATOM     14  C   UNL A   1      29.851  25.231  25.523  1.00  0.00     0.299 C 
BRANCH  14  15
ATOM     15  C   UNL A   1      29.720  26.460  24.647  1.00  0.00     0.006 A 
ATOM     16  C   UNL A   1      28.607  26.730  23.853  1.00  0.00     0.010 A 
ATOM     17  C   UNL A   1      30.750  27.390  24.625  1.00  0.00     0.010 A 
ATOM     18  C   UNL A   1      28.527  27.935  23.135  1.00  0.00     0.004 A 
ATOM     19  C   UNL A   1      30.674  28.605  23.974  1.00  0.00     0.004 A 
ATOM     20  C   UNL A   1      29.551  28.890  23.215  1.00  0.00    -0.048 A 
BRANCH  20  21
ATOM     21  C   UNL A   1      29.533  30.173  22.430  1.00  0.00     0.038 C 
BRANCH  21  22
ATOM     22  C   UNL A   1      28.094  30.673  22.222  1.00  0.00    -0.013 C 
ATOM     23  C   UNL A   1      27.633  31.492  23.425  1.00  0.00     0.008 C 
ATOM     24  C   UNL A   1      27.999  31.475  20.926  1.00  0.00     0.008 C 
ENDBRANCH  21  22
ENDBRANCH  20  21
ENDBRANCH  14  15
ENDBRANCH  10  14
ENDBRANCH   3   6
ENDBRANCH   1   2
BRANCH   1  25
ATOM     25  C   UNL A   1      33.958  27.660  26.056  1.00  0.00     0.042 C 
BRANCH  25  26
ATOM     26  C   UNL A   1      33.249  28.275  27.286  1.00  0.00     0.118 C 
BRANCH  26  27
ATOM     27  N   UNL A   1      33.417  29.730  27.290  1.00  0.00    -0.352 N 
ATOM     28  C   UNL A   1      34.320  30.599  27.853  1.00  0.00     0.251 C 
ATOM     29  H   UNL A   1      32.724  30.192  26.766  1.00  0.00     0.163 HD
ATOM     30  O   UNL A   1      33.961  31.773  27.967  1.00  0.00    -0.269 OA
BRANCH  28  31
ATOM     31  C   UNL A   1      35.705  30.254  28.283  1.00  0.00     0.039 A 
ATOM     32  C   UNL A   1      36.724  30.298  27.312  1.00  0.00     0.014 A 
ATOM     33  C   UNL A   1      36.006  29.690  29.520  1.00  0.00     0.014 A 
ATOM     34  C   UNL A   1      38.017  29.803  27.571  1.00  0.00     0.010 A 
ATOM     35  C   UNL A   1      37.312  29.218  29.785  1.00  0.00     0.010 A 
ATOM     36  C   UNL A   1      38.346  29.267  28.822  1.00  0.00    -0.014 A 
BRANCH  36  37
ATOM     37  C   UNL A   1      39.740  28.779  29.137  1.00  0.00     0.031 A 
ATOM     38  C   UNL A   1      40.772  29.704  29.749  1.00  0.00     0.074 A 
ATOM     39  C   UNL A   1      40.149  27.527  28.820  1.00  0.00     0.049 A 
ATOM     40  N   UNL A   1      42.042  29.480  30.003  1.00  0.00    -0.248 NA
ATOM     41  C   UNL A   1      40.322  31.054  30.115  1.00  0.00     0.031 C 
ATOM     42  C   UNL A   1      39.324  26.475  28.230  1.00  0.00     0.029 A 
ATOM     43  N   UNL A   1      41.395  26.940  28.916  1.00  0.00    -0.354 N 
ATOM     44  C   UNL A   1      42.542  30.662  30.539  1.00  0.00     0.074 A 
ATOM     45  C   UNL A   1      41.452  31.616  30.523  1.00  0.00     0.031 C 
ATOM     46  C   UNL A   1      40.089  25.407  27.953  1.00  0.00     0.029 A 
ATOM     47  C   UNL A   1      41.459  25.676  28.374  1.00  0.00     0.049 A 
ATOM     48  H   UNL A   1      42.167  27.384  29.335  1.00  0.00     0.167 HD
ATOM     49  C   UNL A   1      43.774  30.934  31.037  1.00  0.00     0.031 A 
ATOM     50  C   UNL A   1      42.484  24.814  28.227  1.00  0.00     0.031 A 
ATOM     51  C   UNL A   1      44.869  30.003  31.123  1.00  0.00     0.049 A 
ATOM     52  C   UNL A   1      43.845  25.134  28.771  1.00  0.00     0.074 A 
ATOM     53  C   UNL A   1      46.108  30.183  31.719  1.00  0.00     0.029 A 
ATOM     54  N   UNL A   1      44.865  28.723  30.600  1.00  0.00    -0.354 N 
ATOM     55  N   UNL A   1      44.261  26.223  29.362  1.00  0.00    -0.248 NA
ATOM     56  C   UNL A   1      44.867  24.078  28.665  1.00  0.00     0.031 C 
ATOM     57  C   UNL A   1      46.866  29.021  31.532  1.00  0.00     0.029 A 
ATOM     58  C   UNL A   1      46.084  28.107  30.848  1.00  0.00     0.049 A 
ATOM     59  H   UNL A   1      44.110  28.309  30.124  1.00  0.00     0.167 HD
ATOM     60  C   UNL A   1      45.568  25.964  29.753  1.00  0.00     0.074 A 
ATOM     61  C   UNL A   1      45.887  24.622  29.316  1.00  0.00     0.031 C 
ATOM     62  C   UNL A   1      46.414  26.770  30.437  1.00  0.00     0.031 A 
BRANCH  49  63
ATOM     63  C   UNL A   1      44.006  32.323  31.566  1.00  0.00    -0.014 A 
ATOM     64  C   UNL A   1      44.481  33.343  30.728  1.00  0.00     0.009 A 
ATOM     65  C   UNL A   1      43.708  32.622  32.904  1.00  0.00     0.009 A 
ATOM     66  C   UNL A   1      44.695  34.627  31.231  1.00  0.00     0.001 A 
ATOM     67  C   UNL A   1      43.898  33.914  33.397  1.00  0.00     0.001 A 
ATOM     68  C   UNL A   1      44.402  34.912  32.564  1.00  0.00     0.000 A 
ENDBRANCH  49  63
BRANCH  50  69
ATOM     69  C   UNL A   1      42.254  23.501  27.570  1.00  0.00    -0.014 A 
ATOM     70  C   UNL A   1      41.844  22.393  28.329  1.00  0.00     0.009 A 
ATOM     71  C   UNL A   1      42.475  23.343  26.195  1.00  0.00     0.009 A 
ATOM     72  C   UNL A   1      41.684  21.145  27.726  1.00  0.00     0.001 A 
ATOM     73  C   UNL A   1      42.298  22.096  25.591  1.00  0.00     0.001 A 
ATOM     74  C   UNL A   1      41.910  20.997  26.357  1.00  0.00     0.000 A 
ENDBRANCH  50  69
BRANCH  62  75
ATOM     75  C   UNL A   1      47.750  26.205  30.827  1.00  0.00    -0.014 A 
ATOM     76  C   UNL A   1      48.830  26.183  29.930  1.00  0.00     0.009 A 
ATOM     77  C   UNL A   1      47.936  25.707  32.126  1.00  0.00     0.009 A 
ATOM     78  C   UNL A   1      50.061  25.648  30.321  1.00  0.00     0.001 A 
ATOM     79  C   UNL A   1      49.173  25.191  32.519  1.00  0.00     0.001 A 
ATOM     80  C   UNL A   1      50.233  25.156  31.615  1.00  0.00     0.000 A 
ENDBRANCH  62  75
ENDBRANCH  36  37
ENDBRANCH  28  31
ENDBRANCH  26  27
ENDBRANCH  25  26
ENDBRANCH   1  25
TORSDOF 15
ENDMDL
MODEL 2
REMARK VINA RESULT:     -11.1      2.630      8.294
REMARK SMILES CC[C@]1(C(=O)NCCCNC(=O)c2ccc(-c3c4nc(c(-c5ccccc5)c5ccc([nH]5)c(-c5ccccc5)c5nc(c(-c6ccccc6)c6ccc3[nH]6)C=C5)C=C4)cc2)CC[N@@H+](Cc2ccc(CC(C)C)cc2)C1
REMARK SMILES IDX 7 1 6 2 4 3 5 4 3 6 61 7 75 8 62 9 63 10 2 12 1 13 64 14
REMARK SMILES IDX 65 15 66 16 74 17 67 18 73 19 68 20 69 21 70 22 71 23 72 24
REMARK SMILES IDX 8 25 9 26 10 27 11 28 12 30 13 31 14 32 60 33 15 34 59 35
REMARK SMILES IDX 16 36 17 37 18 38 53 39 19 40 58 41 52 42 54 43 20 44 57 45
REMARK SMILES IDX 51 46 50 47 21 49 43 50 28 51 42 52 29 53 32 54 41 55 55 56
REMARK SMILES IDX 30 57 31 58 40 60 56 61 33 62 22 63 23 64 27 65 24 66 26 67
REMARK SMILES IDX 25 68 44 69 45 70 49 71 46 72 48 73 47 74 34 75 35 76 39 77
REMARK SMILES IDX 36 78 38 79 37 80
REMARK H PARENT 6 5 63 11 10 29 54 48 32 59
REMARK Flexibility Score: inf
ROOT
ATOM      1  C   UNL A   1      34.722  25.044  25.411  1.00  0.00     0.117 C 
ENDROOT
BRANCH   1   2
ATOM      2  N   UNL A   1      33.457  25.048  26.161  1.00  0.00    -0.355 N 
ATOM      3  C   UNL A   1      32.111  25.118  25.963  1.00  0.00     0.232 C 
ATOM      4  O   UNL A   1      31.491  25.023  27.037  1.00  0.00    -0.274 OA
ATOM      5  H   UNL A   1      33.645  24.975  27.125  1.00  0.00     0.163 HD
BRANCH   3   6
ATOM      6  C   UNL A   1      31.272  25.322  24.648  1.00  0.00     0.103 C 
ATOM      7  C   UNL A   1      32.043  26.253  23.667  1.00  0.00     0.084 C 
ATOM      8  C   UNL A   1      30.989  24.084  23.765  1.00  0.00     0.279 C 
ATOM      9  C   UNL A   1      31.798  25.703  22.267  1.00  0.00     0.263 C 
ATOM     10  N   UNL A   1      31.582  24.273  22.433  1.00  0.00    -0.330 N 
ATOM     11  H   UNL A   1      30.924  23.935  21.731  1.00  0.00     0.348 HD
BRANCH   6  12
ATOM     12  C   UNL A   1      29.910  26.003  25.043  1.00  0.00     0.020 C 
ATOM     13  C   UNL A   1      28.954  26.407  23.911  1.00  0.00     0.005 C 
ENDBRANCH   6  12
BRANCH  10  14
ATOM     14  C   UNL A   1      32.716  23.400  22.069  1.00  0.00     0.299 C 
BRANCH  14  15
ATOM     15  C   UNL A   1      32.841  22.074  22.790  1.00  0.00     0.006 A 
ATOM     16  C   UNL A   1      33.628  21.880  23.924  1.00  0.00     0.010 A 
ATOM     17  C   UNL A   1      32.132  20.977  22.320  1.00  0.00     0.010 A 
ATOM     18  C   UNL A   1      33.623  20.640  24.584  1.00  0.00     0.004 A 
ATOM     19  C   UNL A   1      32.066  19.766  22.980  1.00  0.00     0.004 A 
ATOM     20  C   UNL A   1      32.818  19.585  24.128  1.00  0.00    -0.048 A 
BRANCH  20  21
ATOM     21  C   UNL A   1      32.813  18.226  24.772  1.00  0.00     0.038 C 
BRANCH  21  22
ATOM     22  C   UNL A   1      34.080  17.436  24.405  1.00  0.00    -0.013 C 
ATOM     23  C   UNL A   1      34.279  16.266  25.363  1.00  0.00     0.008 C 
ATOM     24  C   UNL A   1      34.005  16.969  22.953  1.00  0.00     0.008 C 
ENDBRANCH  21  22
ENDBRANCH  20  21
ENDBRANCH  14  15
ENDBRANCH  10  14
ENDBRANCH   3   6
ENDBRANCH   1   2
BRANCH   1  25
ATOM     25  C   UNL A   1      35.798  24.005  25.839  1.00  0.00     0.042 C 
BRANCH  25  26
ATOM     26  C   UNL A   1      36.920  23.667  24.830  1.00  0.00     0.118 C 
BRANCH  26  27
ATOM     27  N   UNL A   1      37.864  22.718  25.426  1.00  0.00    -0.352 N 
ATOM     28  C   UNL A   1      39.079  22.830  26.058  1.00  0.00     0.251 C 
ATOM     29  H   UNL A   1      37.557  21.786  25.359  1.00  0.00     0.163 HD
ATOM     30  O   UNL A   1      39.774  21.812  26.104  1.00  0.00    -0.269 OA
BRANCH  28  31
ATOM     31  C   UNL A   1      39.597  24.052  26.735  1.00  0.00     0.039 A 
ATOM     32  C   UNL A   1      39.143  24.322  28.040  1.00  0.00     0.014 A 
ATOM     33  C   UNL A   1      40.325  25.041  26.080  1.00  0.00     0.014 A 
ATOM     34  C   UNL A   1      39.418  25.545  28.683  1.00  0.00     0.010 A 
ATOM     35  C   UNL A   1      40.622  26.257  26.738  1.00  0.00     0.010 A 
ATOM     36  C   UNL A   1      40.181  26.535  28.051  1.00  0.00    -0.014 A 
BRANCH  36  37
ATOM     37  C   UNL A   1      40.530  27.832  28.742  1.00  0.00     0.031 A 
ATOM     38  C   UNL A   1      41.853  28.001  29.463  1.00  0.00     0.074 A 
ATOM     39  C   UNL A   1      39.657  28.864  28.813  1.00  0.00     0.049 A 
ATOM     40  N   UNL A   1      42.282  29.011  30.185  1.00  0.00    -0.248 NA
ATOM     41  C   UNL A   1      42.810  26.891  29.366  1.00  0.00     0.031 C 
ATOM     42  C   UNL A   1      38.336  28.918  28.191  1.00  0.00     0.029 A 
ATOM     43  N   UNL A   1      39.742  30.066  29.487  1.00  0.00    -0.354 N 
ATOM     44  C   UNL A   1      43.546  28.651  30.640  1.00  0.00     0.074 A 
ATOM     45  C   UNL A   1      43.790  27.307  30.157  1.00  0.00     0.031 C 
ATOM     46  C   UNL A   1      37.709  30.046  28.564  1.00  0.00     0.029 A 
ATOM     47  C   UNL A   1      38.592  30.821  29.428  1.00  0.00     0.049 A 
ATOM     48  H   UNL A   1      40.550  30.357  29.967  1.00  0.00     0.167 HD
ATOM     49  C   UNL A   1      44.446  29.369  31.357  1.00  0.00     0.031 A 
ATOM     50  C   UNL A   1      38.264  32.002  29.988  1.00  0.00     0.031 A 
ATOM     51  C   UNL A   1      44.268  30.724  31.811  1.00  0.00     0.049 A 
ATOM     52  C   UNL A   1      39.265  32.779  30.791  1.00  0.00     0.074 A 
ATOM     53  C   UNL A   1      45.186  31.547  32.446  1.00  0.00     0.029 A 
ATOM     54  N   UNL A   1      43.103  31.457  31.685  1.00  0.00    -0.354 N 
ATOM     55  N   UNL A   1      40.488  32.454  31.120  1.00  0.00    -0.248 NA
ATOM     56  C   UNL A   1      38.849  34.112  31.261  1.00  0.00     0.031 C 
ATOM     57  C   UNL A   1      44.566  32.769  32.731  1.00  0.00     0.029 A 
ATOM     58  C   UNL A   1      43.273  32.716  32.242  1.00  0.00     0.049 A 
ATOM     59  H   UNL A   1      42.275  31.134  31.262  1.00  0.00     0.167 HD
ATOM     60  C   UNL A   1      41.007  33.561  31.779  1.00  0.00     0.074 A 
ATOM     61  C   UNL A   1      39.963  34.562  31.822  1.00  0.00     0.031 C 
ATOM     62  C   UNL A   1      42.254  33.730  32.280  1.00  0.00     0.031 A 
BRANCH  49  63
ATOM     63  C   UNL A   1      45.751  28.697  31.685  1.00  0.00    -0.014 A 
ATOM     64  C   UNL A   1      45.866  27.855  32.803  1.00  0.00     0.009 A 
ATOM     65  C   UNL A   1      46.861  28.874  30.847  1.00  0.00     0.009 A 
ATOM     66  C   UNL A   1      47.083  27.240  33.099  1.00  0.00     0.001 A 
ATOM     67  C   UNL A   1      48.069  28.235  31.131  1.00  0.00     0.001 A 
ATOM     68  C   UNL A   1      48.183  27.429  32.263  1.00  0.00     0.000 A 
ENDBRANCH  49  63
BRANCH  50  69
ATOM     69  C   UNL A   1      36.912  32.576  29.760  1.00  0.00    -0.014 A 
ATOM     70  C   UNL A   1      36.664  33.374  28.633  1.00  0.00     0.009 A 
ATOM     71  C   UNL A   1      35.880  32.356  30.683  1.00  0.00     0.009 A 
ATOM     72  C   UNL A   1      35.413  33.963  28.447  1.00  0.00     0.001 A 
ATOM     73  C   UNL A   1      34.624  32.933  30.485  1.00  0.00     0.001 A 
ATOM     74  C   UNL A   1      34.393  33.741  29.372  1.00  0.00     0.000 A 
ENDBRANCH  50  69
BRANCH  62  75
ATOM     75  C   UNL A   1      42.595  35.074  32.859  1.00  0.00    -0.014 A 
ATOM     76  C   UNL A   1      43.314  36.030  32.125  1.00  0.00     0.009 A 
ATOM     77  C   UNL A   1      42.167  35.394  34.156  1.00  0.00     0.009 A 
ATOM     78  C   UNL A   1      43.619  37.270  32.692  1.00  0.00     0.001 A 
ATOM     79  C   UNL A   1      42.456  36.642  34.712  1.00  0.00     0.001 A 
ATOM     80  C   UNL A   1      43.189  37.577  33.982  1.00  0.00     0.000 A 
ENDBRANCH  62  75
ENDBRANCH  36  37
ENDBRANCH  28  31
ENDBRANCH  26  27
ENDBRANCH  25  26
ENDBRANCH   1  25
TORSDOF 15
ENDMDL
MODEL 3
REMARK VINA RESULT:     -11.0      2.139      4.926
REMARK SMILES CC[C@]1(C(=O)NCCCNC(=O)c2ccc(-c3c4nc(c(-c5ccccc5)c5ccc([nH]5)c(-c5ccccc5)c5nc(c(-c6ccccc6)c6ccc3[nH]6)C=C5)C=C4)cc2)CC[N@@H+](Cc2ccc(CC(C)C)cc2)C1
REMARK SMILES IDX 7 1 6 2 4 3 5 4 3 6 61 7 75 8 62 9 63 10 2 12 1 13 64 14
REMARK SMILES IDX 65 15 66 16 74 17 67 18 73 19 68 20 69 21 70 22 71 23 72 24
REMARK SMILES IDX 8 25 9 26 10 27 11 28 12 30 13 31 14 32 60 33 15 34 59 35
REMARK SMILES IDX 16 36 17 37 18 38 53 39 19 40 58 41 52 42 54 43 20 44 57 45
REMARK SMILES IDX 51 46 50 47 21 49 43 50 28 51 42 52 29 53 32 54 41 55 55 56
REMARK SMILES IDX 30 57 31 58 40 60 56 61 33 62 22 63 23 64 27 65 24 66 26 67
REMARK SMILES IDX 25 68 44 69 45 70 49 71 46 72 48 73 47 74 34 75 35 76 39 77
REMARK SMILES IDX 36 78 38 79 37 80
REMARK H PARENT 6 5 63 11 10 29 54 48 32 59
REMARK Flexibility Score: inf
ROOT
ATOM      1  C   UNL A   1      31.440  28.036  27.007  1.00  0.00     0.117 C 
ENDROOT
BRANCH   1   2
ATOM      2  N   UNL A   1      30.977  26.645  26.893  1.00  0.00    -0.355 N 
ATOM      3  C   UNL A   1      30.706  25.694  25.955  1.00  0.00     0.232 C 
ATOM      4  O   UNL A   1      30.370  24.620  26.484  1.00  0.00    -0.274 OA
ATOM      5  H   UNL A   1      30.809  26.278  27.791  1.00  0.00     0.163 HD
BRANCH   3   6
ATOM      6  C   UNL A   1      30.725  25.763  24.384  1.00  0.00     0.103 C 
ATOM      7  C   UNL A   1      31.931  26.625  23.906  1.00  0.00     0.084 C 
ATOM      8  C   UNL A   1      30.937  24.447  23.600  1.00  0.00     0.279 C 
ATOM      9  C   UNL A   1      32.474  25.949  22.652  1.00  0.00     0.263 C 
ATOM     10  N   UNL A   1      32.165  24.534  22.796  1.00  0.00    -0.330 N 
ATOM     11  H   UNL A   1      31.986  24.120  21.881  1.00  0.00     0.348 HD
BRANCH   6  12
ATOM     12  C   UNL A   1      29.387  26.441  23.912  1.00  0.00     0.020 C 
ATOM     13  C   UNL A   1      29.408  27.951  23.628  1.00  0.00     0.005 C 
ENDBRANCH   6  12
BRANCH  10  14
ATOM     14  C   UNL A   1      33.290  23.661  23.186  1.00  0.00     0.299 C 
BRANCH  14  15
ATOM     15  C   UNL A   1      32.986  22.202  23.454  1.00  0.00     0.006 A 
ATOM     16  C   UNL A   1      32.247  21.394  22.592  1.00  0.00     0.010 A 
ATOM     17  C   UNL A   1      33.468  21.611  24.614  1.00  0.00     0.010 A 
ATOM     18  C   UNL A   1      32.081  20.027  22.873  1.00  0.00     0.004 A 
ATOM     19  C   UNL A   1      33.367  20.261  24.887  1.00  0.00     0.004 A 
ATOM     20  C   UNL A   1      32.665  19.450  24.011  1.00  0.00    -0.048 A 
BRANCH  20  21
ATOM     21  C   UNL A   1      32.477  18.004  24.380  1.00  0.00     0.038 C 
BRANCH  21  22
ATOM     22  C   UNL A   1      33.821  17.255  24.382  1.00  0.00    -0.013 C 
ATOM     23  C   UNL A   1      33.795  16.113  25.393  1.00  0.00     0.008 C 
ATOM     24  C   UNL A   1      34.146  16.757  22.975  1.00  0.00     0.008 C 
ENDBRANCH  21  22
ENDBRANCH  20  21
ENDBRANCH  14  15
ENDBRANCH  10  14
ENDBRANCH   3   6
ENDBRANCH   1   2
BRANCH   1  25
ATOM     25  C   UNL A   1      32.968  28.263  27.184  1.00  0.00     0.042 C 
BRANCH  25  26
ATOM     26  C   UNL A   1      33.687  29.181  26.168  1.00  0.00     0.118 C 
BRANCH  26  27
ATOM     27  N   UNL A   1      33.740  30.554  26.677  1.00  0.00    -0.352 N 
ATOM     28  C   UNL A   1      34.385  31.175  27.720  1.00  0.00     0.251 C 
ATOM     29  H   UNL A   1      33.187  31.175  26.151  1.00  0.00     0.163 HD
ATOM     30  O   UNL A   1      33.923  32.257  28.089  1.00  0.00    -0.269 OA
BRANCH  28  31
ATOM     31  C   UNL A   1      35.618  30.682  28.396  1.00  0.00     0.039 A 
ATOM     32  C   UNL A   1      36.851  30.899  27.752  1.00  0.00     0.014 A 
ATOM     33  C   UNL A   1      35.600  29.841  29.505  1.00  0.00     0.014 A 
ATOM     34  C   UNL A   1      38.042  30.301  28.210  1.00  0.00     0.010 A 
ATOM     35  C   UNL A   1      36.801  29.264  29.978  1.00  0.00     0.010 A 
ATOM     36  C   UNL A   1      38.046  29.483  29.347  1.00  0.00    -0.014 A 
BRANCH  36  37
ATOM     37  C   UNL A   1      39.320  28.876  29.884  1.00  0.00     0.031 A 
ATOM     38  C   UNL A   1      40.026  29.476  31.083  1.00  0.00     0.074 A 
ATOM     39  C   UNL A   1      39.923  27.824  29.279  1.00  0.00     0.049 A 
ATOM     40  N   UNL A   1      41.176  29.139  31.624  1.00  0.00    -0.248 NA
ATOM     41  C   UNL A   1      39.361  30.601  31.754  1.00  0.00     0.031 C 
ATOM     42  C   UNL A   1      39.418  27.093  28.119  1.00  0.00     0.029 A 
ATOM     43  N   UNL A   1      41.131  27.211  29.543  1.00  0.00    -0.354 N 
ATOM     44  C   UNL A   1      41.376  30.019  32.682  1.00  0.00     0.074 A 
ATOM     45  C   UNL A   1      40.256  30.939  32.672  1.00  0.00     0.031 C 
ATOM     46  C   UNL A   1      40.329  26.187  27.728  1.00  0.00     0.029 A 
ATOM     47  C   UNL A   1      41.476  26.242  28.628  1.00  0.00     0.049 A 
ATOM     48  H   UNL A   1      41.696  27.445  30.315  1.00  0.00     0.167 HD
ATOM     49  C   UNL A   1      42.369  30.051  33.606  1.00  0.00     0.031 A 
ATOM     50  C   UNL A   1      42.575  25.471  28.508  1.00  0.00     0.031 A 
ATOM     51  C   UNL A   1      43.470  29.128  33.688  1.00  0.00     0.049 A 
ATOM     52  C   UNL A   1      43.671  25.527  29.530  1.00  0.00     0.074 A 
ATOM     53  C   UNL A   1      44.448  29.037  34.667  1.00  0.00     0.029 A 
ATOM     54  N   UNL A   1      43.746  28.138  32.763  1.00  0.00    -0.354 N 
ATOM     55  N   UNL A   1      43.783  26.303  30.576  1.00  0.00    -0.248 NA
ATOM     56  C   UNL A   1      44.773  24.561  29.375  1.00  0.00     0.031 C 
ATOM     57  C   UNL A   1      45.334  28.011  34.318  1.00  0.00     0.029 A 
ATOM     58  C   UNL A   1      44.885  27.442  33.140  1.00  0.00     0.049 A 
ATOM     59  H   UNL A   1      43.213  27.953  31.956  1.00  0.00     0.167 HD
ATOM     60  C   UNL A   1      44.930  25.881  31.236  1.00  0.00     0.074 A 
ATOM     61  C   UNL A   1      45.492  24.793  30.465  1.00  0.00     0.031 C 
ATOM     62  C   UNL A   1      45.450  26.348  32.396  1.00  0.00     0.031 A 
BRANCH  49  63
ATOM     63  C   UNL A   1      42.297  31.133  34.649  1.00  0.00    -0.014 A 
ATOM     64  C   UNL A   1      41.618  30.922  35.860  1.00  0.00     0.009 A 
ATOM     65  C   UNL A   1      42.947  32.357  34.436  1.00  0.00     0.009 A 
ATOM     66  C   UNL A   1      41.555  31.935  36.818  1.00  0.00     0.001 A 
ATOM     67  C   UNL A   1      42.905  33.358  35.409  1.00  0.00     0.001 A 
ATOM     68  C   UNL A   1      42.199  33.150  36.593  1.00  0.00     0.000 A 
ENDBRANCH  49  63
BRANCH  50  69
ATOM     69  C   UNL A   1      42.680  24.507  27.381  1.00  0.00    -0.014 A 
ATOM     70  C   UNL A   1      42.192  23.199  27.523  1.00  0.00     0.009 A 
ATOM     71  C   UNL A   1      43.296  24.881  26.179  1.00  0.00     0.009 A 
ATOM     72  C   UNL A   1      42.342  22.274  26.489  1.00  0.00     0.001 A 
ATOM     73  C   UNL A   1      43.429  23.957  25.139  1.00  0.00     0.001 A 
ATOM     74  C   UNL A   1      42.959  22.654  25.297  1.00  0.00     0.000 A 
ENDBRANCH  50  69
BRANCH  62  75
ATOM     75  C   UNL A   1      46.653  25.643  32.954  1.00  0.00    -0.014 A 
ATOM     76  C   UNL A   1      47.958  26.030  32.609  1.00  0.00     0.009 A 
ATOM     77  C   UNL A   1      46.476  24.586  33.860  1.00  0.00     0.009 A 
ATOM     78  C   UNL A   1      49.058  25.352  33.142  1.00  0.00     0.001 A 
ATOM     79  C   UNL A   1      47.577  23.925  34.406  1.00  0.00     0.001 A 
ATOM     80  C   UNL A   1      48.868  24.303  34.041  1.00  0.00     0.000 A 
ENDBRANCH  62  75
ENDBRANCH  36  37
ENDBRANCH  28  31
ENDBRANCH  26  27
ENDBRANCH  25  26
ENDBRANCH   1  25
TORSDOF 15
ENDMDL
