MODEL 1
REMARK VINA RESULT:     -11.1      0.000      0.000
REMARK SMILES C[C@@H](C(=O)NCCCNC(=O)c1ccc(-c2c3nc(c(-c4ccccc4)c4ccc([nH]4)c(-c4ccccc4)c4nc(c(-c5ccccc5)c5ccc2[nH]5)C=C4)C=C3)cc1)c1ccc(C[C@H]2CCCC2=O)cc1
REMARK SMILES IDX 6 1 5 2 3 3 4 4 2 6 1 7 60 8 61 9 72 10 62 11 71 12 63 13
REMARK SMILES IDX 64 14 65 15 66 16 69 17 67 18 68 19 70 20 7 21 8 22 9 23
REMARK SMILES IDX 10 24 11 26 12 27 13 28 59 29 14 30 58 31 15 32 16 33 17 34
REMARK SMILES IDX 52 35 18 36 57 37 51 38 53 39 19 40 56 41 50 42 49 43 20 45
REMARK SMILES IDX 42 46 27 47 41 48 28 49 31 50 40 51 54 52 29 53 30 54 39 56
REMARK SMILES IDX 55 57 32 58 21 59 22 60 26 61 23 62 25 63 24 64 43 65 44 66
REMARK SMILES IDX 48 67 45 68 47 69 46 70 33 71 34 72 38 73 35 74 37 75 36 76
REMARK H PARENT 5 5 9 25 53 44 31 55
REMARK Flexibility Score: inf
ROOT
ATOM      1  C   UNL A   1      31.904  29.842  26.403  1.00  0.00     0.117 C 
ENDROOT
BRANCH   1   2
ATOM      2  N   UNL A   1      31.255  29.318  25.216  1.00  0.00    -0.356 N 
ATOM      3  C   UNL A   1      31.788  28.886  24.035  1.00  0.00     0.227 C 
ATOM      4  O   UNL A   1      30.999  28.778  23.093  1.00  0.00    -0.274 OA
ATOM      5  H   UNL A   1      30.273  29.265  25.271  1.00  0.00     0.163 HD
BRANCH   3   6
ATOM      6  C   UNL A   1      33.288  28.543  23.939  1.00  0.00     0.105 C 
ATOM      7  C   UNL A   1      33.791  28.919  22.540  1.00  0.00     0.023 C 
BRANCH   6   8
ATOM      8  C   UNL A   1      33.618  27.092  24.322  1.00  0.00    -0.036 A 
ATOM      9  C   UNL A   1      33.674  26.089  23.342  1.00  0.00     0.005 A 
ATOM     10  C   UNL A   1      33.828  26.701  25.655  1.00  0.00     0.005 A 
ATOM     11  C   UNL A   1      34.006  24.771  23.670  1.00  0.00     0.004 A 
ATOM     12  C   UNL A   1      34.123  25.377  25.990  1.00  0.00     0.004 A 
ATOM     13  C   UNL A   1      34.217  24.397  24.999  1.00  0.00    -0.047 A 
BRANCH  13  14
ATOM     14  C   UNL A   1      34.535  22.968  25.366  1.00  0.00     0.047 C 
BRANCH  14  15
ATOM     15  C   UNL A   1      35.380  22.180  24.359  1.00  0.00     0.060 C 
ATOM     16  C   UNL A   1      36.834  22.628  24.188  1.00  0.00     0.012 C 
ATOM     17  C   UNL A   1      35.537  20.731  24.751  1.00  0.00     0.136 C 
ATOM     18  C   UNL A   1      37.674  21.708  25.066  1.00  0.00     0.009 C 
ATOM     19  C   UNL A   1      36.965  20.362  25.056  1.00  0.00     0.076 C 
ATOM     20  O   UNL A   1      34.606  19.936  24.807  1.00  0.00    -0.299 OA
ENDBRANCH  14  15
ENDBRANCH  13  14
ENDBRANCH   6   8
ENDBRANCH   3   6
ENDBRANCH   1   2
BRANCH   1  21
ATOM     21  C   UNL A   1      31.706  31.355  26.515  1.00  0.00     0.042 C 
BRANCH  21  22
ATOM     22  C   UNL A   1      32.880  32.095  27.151  1.00  0.00     0.118 C 
BRANCH  22  23
ATOM     23  N   UNL A   1      32.539  33.455  27.541  1.00  0.00    -0.352 N 
ATOM     24  C   UNL A   1      33.143  34.287  28.449  1.00  0.00     0.251 C 
ATOM     25  H   UNL A   1      31.755  33.835  27.082  1.00  0.00     0.163 HD
ATOM     26  O   UNL A   1      32.584  35.330  28.786  1.00  0.00    -0.269 OA
BRANCH  24  27
ATOM     27  C   UNL A   1      34.445  33.926  29.051  1.00  0.00     0.039 A 
ATOM     28  C   UNL A   1      34.454  33.177  30.230  1.00  0.00     0.014 A 
ATOM     29  C   UNL A   1      35.649  34.320  28.463  1.00  0.00     0.014 A 
ATOM     30  C   UNL A   1      35.669  32.744  30.768  1.00  0.00     0.010 A 
ATOM     31  C   UNL A   1      36.856  33.832  28.962  1.00  0.00     0.010 A 
ATOM     32  C   UNL A   1      36.876  33.022  30.108  1.00  0.00    -0.014 A 
BRANCH  32  33
ATOM     33  C   UNL A   1      38.157  32.412  30.553  1.00  0.00     0.031 A 
ATOM     34  C   UNL A   1      38.654  31.134  29.937  1.00  0.00     0.074 A 
ATOM     35  C   UNL A   1      38.826  32.972  31.582  1.00  0.00     0.049 A 
ATOM     36  N   UNL A   1      39.697  30.414  30.270  1.00  0.00    -0.248 NA
ATOM     37  C   UNL A   1      37.875  30.582  28.818  1.00  0.00     0.031 C 
ATOM     38  C   UNL A   1      38.429  34.193  32.288  1.00  0.00     0.029 A 
ATOM     39  N   UNL A   1      39.972  32.576  32.228  1.00  0.00    -0.354 N 
ATOM     40  C   UNL A   1      39.687  29.316  29.418  1.00  0.00     0.074 A 
ATOM     41  C   UNL A   1      38.522  29.450  28.569  1.00  0.00     0.031 C 
ATOM     42  C   UNL A   1      39.319  34.451  33.259  1.00  0.00     0.029 A 
ATOM     43  C   UNL A   1      40.318  33.389  33.283  1.00  0.00     0.049 A 
ATOM     44  H   UNL A   1      40.494  31.786  31.963  1.00  0.00     0.167 HD
ATOM     45  C   UNL A   1      40.572  28.296  29.346  1.00  0.00     0.031 A 
ATOM     46  C   UNL A   1      41.309  33.279  34.187  1.00  0.00     0.031 A 
ATOM     47  C   UNL A   1      41.739  28.172  30.182  1.00  0.00     0.049 A 
ATOM     48  C   UNL A   1      42.251  32.108  34.105  1.00  0.00     0.074 A 
ATOM     49  C   UNL A   1      42.739  27.216  30.121  1.00  0.00     0.029 A 
ATOM     50  N   UNL A   1      42.053  29.015  31.234  1.00  0.00    -0.354 N 
ATOM     51  N   UNL A   1      42.285  31.137  33.225  1.00  0.00    -0.248 NA
ATOM     52  C   UNL A   1      43.289  32.019  35.141  1.00  0.00     0.031 C 
ATOM     53  C   UNL A   1      43.618  27.438  31.183  1.00  0.00     0.029 A 
ATOM     54  C   UNL A   1      43.202  28.569  31.865  1.00  0.00     0.049 A 
ATOM     55  H   UNL A   1      41.536  29.811  31.495  1.00  0.00     0.167 HD
ATOM     56  C   UNL A   1      43.358  30.335  33.592  1.00  0.00     0.074 A 
ATOM     57  C   UNL A   1      43.966  30.947  34.753  1.00  0.00     0.031 C 
ATOM     58  C   UNL A   1      43.797  29.187  33.020  1.00  0.00     0.031 A 
BRANCH  45  59
ATOM     59  C   UNL A   1      40.323  27.207  28.341  1.00  0.00    -0.014 A 
ATOM     60  C   UNL A   1      40.885  27.255  27.057  1.00  0.00     0.009 A 
ATOM     61  C   UNL A   1      39.601  26.064  28.725  1.00  0.00     0.009 A 
ATOM     62  C   UNL A   1      40.717  26.186  26.173  1.00  0.00     0.001 A 
ATOM     63  C   UNL A   1      39.457  24.988  27.849  1.00  0.00     0.001 A 
ATOM     64  C   UNL A   1      40.012  25.051  26.573  1.00  0.00     0.000 A 
ENDBRANCH  45  59
BRANCH  46  65
ATOM     65  C   UNL A   1      41.447  34.276  35.284  1.00  0.00    -0.014 A 
ATOM     66  C   UNL A   1      40.708  34.144  36.470  1.00  0.00     0.009 A 
ATOM     67  C   UNL A   1      42.283  35.394  35.128  1.00  0.00     0.009 A 
ATOM     68  C   UNL A   1      40.770  35.132  37.455  1.00  0.00     0.001 A 
ATOM     69  C   UNL A   1      42.371  36.360  36.132  1.00  0.00     0.001 A 
ATOM     70  C   UNL A   1      41.602  36.237  37.287  1.00  0.00     0.000 A 
ENDBRANCH  46  65
BRANCH  58  71
ATOM     71  C   UNL A   1      45.000  28.527  33.630  1.00  0.00    -0.014 A 
ATOM     72  C   UNL A   1      44.861  27.530  34.607  1.00  0.00     0.009 A 
ATOM     73  C   UNL A   1      46.286  28.867  33.181  1.00  0.00     0.009 A 
ATOM     74  C   UNL A   1      45.989  26.904  35.142  1.00  0.00     0.001 A 
ATOM     75  C   UNL A   1      47.409  28.218  33.695  1.00  0.00     0.001 A 
ATOM     76  C   UNL A   1      47.261  27.243  34.680  1.00  0.00     0.000 A 
ENDBRANCH  58  71
ENDBRANCH  32  33
ENDBRANCH  24  27
ENDBRANCH  22  23
ENDBRANCH  21  22
ENDBRANCH   1  21
TORSDOF 13
ENDMDL
MODEL 2
REMARK VINA RESULT:     -11.0      3.943      9.328
REMARK SMILES C[C@@H](C(=O)NCCCNC(=O)c1ccc(-c2c3nc(c(-c4ccccc4)c4ccc([nH]4)c(-c4ccccc4)c4nc(c(-c5ccccc5)c5ccc2[nH]5)C=C4)C=C3)cc1)c1ccc(C[C@H]2CCCC2=O)cc1
REMARK SMILES IDX 6 1 5 2 3 3 4 4 2 6 1 7 60 8 61 9 72 10 62 11 71 12 63 13
REMARK SMILES IDX 64 14 65 15 66 16 69 17 67 18 68 19 70 20 7 21 8 22 9 23
REMARK SMILES IDX 10 24 11 26 12 27 13 28 59 29 14 30 58 31 15 32 16 33 17 34
REMARK SMILES IDX 52 35 18 36 57 37 51 38 53 39 19 40 56 41 50 42 49 43 20 45
REMARK SMILES IDX 42 46 27 47 41 48 28 49 31 50 40 51 54 52 29 53 30 54 39 56
REMARK SMILES IDX 55 57 32 58 21 59 22 60 26 61 23 62 25 63 24 64 43 65 44 66
REMARK SMILES IDX 48 67 45 68 47 69 46 70 33 71 34 72 38 73 35 74 37 75 36 76
REMARK H PARENT 5 5 9 25 53 44 31 55
REMARK Flexibility Score: inf
ROOT
ATOM      1  C   UNL A   1      36.777  21.629  24.503  1.00  0.00     0.117 C 
ENDROOT
BRANCH   1   2
ATOM      2  N   UNL A   1      35.376  21.263  24.402  1.00  0.00    -0.356 N 
ATOM      3  C   UNL A   1      34.327  21.542  25.231  1.00  0.00     0.227 C 
ATOM      4  O   UNL A   1      33.313  20.860  25.069  1.00  0.00    -0.274 OA
ATOM      5  H   UNL A   1      35.145  20.727  23.609  1.00  0.00     0.163 HD
BRANCH   3   6
ATOM      6  C   UNL A   1      34.442  22.670  26.276  1.00  0.00     0.105 C 
ATOM      7  C   UNL A   1      34.157  22.085  27.665  1.00  0.00     0.023 C 
BRANCH   6   8
ATOM      8  C   UNL A   1      33.580  23.901  25.958  1.00  0.00    -0.036 A 
ATOM      9  C   UNL A   1      32.338  24.086  26.587  1.00  0.00     0.005 A 
ATOM     10  C   UNL A   1      33.967  24.857  25.004  1.00  0.00     0.005 A 
ATOM     11  C   UNL A   1      31.558  25.218  26.334  1.00  0.00     0.004 A 
ATOM     12  C   UNL A   1      33.170  25.971  24.722  1.00  0.00     0.004 A 
ATOM     13  C   UNL A   1      31.956  26.163  25.386  1.00  0.00    -0.047 A 
BRANCH  13  14
ATOM     14  C   UNL A   1      31.099  27.366  25.076  1.00  0.00     0.047 C 
BRANCH  14  15
ATOM     15  C   UNL A   1      31.567  28.702  25.665  1.00  0.00     0.060 C 
ATOM     16  C   UNL A   1      31.753  28.752  27.184  1.00  0.00     0.012 C 
ATOM     17  C   UNL A   1      32.933  29.103  25.163  1.00  0.00     0.136 C 
ATOM     18  C   UNL A   1      33.239  28.529  27.442  1.00  0.00     0.009 C 
ATOM     19  C   UNL A   1      33.966  29.149  26.258  1.00  0.00     0.076 C 
ATOM     20  O   UNL A   1      33.177  29.371  23.992  1.00  0.00    -0.299 OA
ENDBRANCH  14  15
ENDBRANCH  13  14
ENDBRANCH   6   8
ENDBRANCH   3   6
ENDBRANCH   1   2
BRANCH   1  21
ATOM     21  C   UNL A   1      37.638  20.414  24.852  1.00  0.00     0.042 C 
BRANCH  21  22
ATOM     22  C   UNL A   1      38.836  20.731  25.744  1.00  0.00     0.118 C 
BRANCH  22  23
ATOM     23  N   UNL A   1      39.818  19.658  25.764  1.00  0.00    -0.352 N 
ATOM     24  C   UNL A   1      41.159  19.697  26.048  1.00  0.00     0.251 C 
ATOM     25  H   UNL A   1      39.465  18.766  25.539  1.00  0.00     0.163 HD
ATOM     26  O   UNL A   1      41.862  18.716  25.815  1.00  0.00    -0.269 OA
BRANCH  24  27
ATOM     27  C   UNL A   1      41.774  20.923  26.603  1.00  0.00     0.039 A 
ATOM     28  C   UNL A   1      42.285  21.877  25.718  1.00  0.00     0.014 A 
ATOM     29  C   UNL A   1      41.851  21.136  27.981  1.00  0.00     0.014 A 
ATOM     30  C   UNL A   1      42.787  23.084  26.213  1.00  0.00     0.010 A 
ATOM     31  C   UNL A   1      42.289  22.366  28.469  1.00  0.00     0.010 A 
ATOM     32  C   UNL A   1      42.742  23.360  27.588  1.00  0.00    -0.014 A 
BRANCH  32  33
ATOM     33  C   UNL A   1      43.089  24.706  28.116  1.00  0.00     0.031 A 
ATOM     34  C   UNL A   1      42.020  25.731  28.370  1.00  0.00     0.074 A 
ATOM     35  C   UNL A   1      44.389  25.029  28.281  1.00  0.00     0.049 A 
ATOM     36  N   UNL A   1      42.152  26.982  28.736  1.00  0.00    -0.248 NA
ATOM     37  C   UNL A   1      40.625  25.307  28.172  1.00  0.00     0.031 C 
ATOM     38  C   UNL A   1      45.524  24.135  28.036  1.00  0.00     0.029 A 
ATOM     39  N   UNL A   1      44.977  26.206  28.674  1.00  0.00    -0.354 N 
ATOM     40  C   UNL A   1      40.863  27.499  28.791  1.00  0.00     0.074 A 
ATOM     41  C   UNL A   1      39.964  26.436  28.398  1.00  0.00     0.031 C 
ATOM     42  C   UNL A   1      46.666  24.790  28.292  1.00  0.00     0.029 A 
ATOM     43  C   UNL A   1      46.353  26.164  28.668  1.00  0.00     0.049 A 
ATOM     44  H   UNL A   1      44.464  27.004  28.935  1.00  0.00     0.167 HD
ATOM     45  C   UNL A   1      40.469  28.744  29.145  1.00  0.00     0.031 A 
ATOM     46  C   UNL A   1      47.261  27.128  28.907  1.00  0.00     0.031 A 
ATOM     47  C   UNL A   1      41.364  29.796  29.551  1.00  0.00     0.049 A 
ATOM     48  C   UNL A   1      46.788  28.513  29.256  1.00  0.00     0.074 A 
ATOM     49  C   UNL A   1      41.046  31.063  30.010  1.00  0.00     0.029 A 
ATOM     50  N   UNL A   1      42.746  29.712  29.531  1.00  0.00    -0.354 N 
ATOM     51  N   UNL A   1      45.562  28.953  29.405  1.00  0.00    -0.248 NA
ATOM     52  C   UNL A   1      47.824  29.534  29.469  1.00  0.00     0.031 C 
ATOM     53  C   UNL A   1      42.236  31.770  30.197  1.00  0.00     0.029 A 
ATOM     54  C   UNL A   1      43.295  30.922  29.918  1.00  0.00     0.049 A 
ATOM     55  H   UNL A   1      43.260  28.911  29.279  1.00  0.00     0.167 HD
ATOM     56  C   UNL A   1      45.682  30.293  29.747  1.00  0.00     0.074 A 
ATOM     57  C   UNL A   1      47.097  30.588  29.812  1.00  0.00     0.031 C 
ATOM     58  C   UNL A   1      44.705  31.203  29.979  1.00  0.00     0.031 A 
BRANCH  45  59
ATOM     59  C   UNL A   1      39.001  29.064  29.101  1.00  0.00    -0.014 A 
ATOM     60  C   UNL A   1      38.184  28.903  30.230  1.00  0.00     0.009 A 
ATOM     61  C   UNL A   1      38.453  29.636  27.941  1.00  0.00     0.009 A 
ATOM     62  C   UNL A   1      36.843  29.295  30.192  1.00  0.00     0.001 A 
ATOM     63  C   UNL A   1      37.121  30.051  27.915  1.00  0.00     0.001 A 
ATOM     64  C   UNL A   1      36.317  29.877  29.039  1.00  0.00     0.000 A 
ENDBRANCH  45  59
BRANCH  46  65
ATOM     65  C   UNL A   1      48.717  26.843  28.784  1.00  0.00    -0.014 A 
ATOM     66  C   UNL A   1      49.376  26.993  27.554  1.00  0.00     0.009 A 
ATOM     67  C   UNL A   1      49.445  26.369  29.887  1.00  0.00     0.009 A 
ATOM     68  C   UNL A   1      50.719  26.634  27.422  1.00  0.00     0.001 A 
ATOM     69  C   UNL A   1      50.798  26.046  29.761  1.00  0.00     0.001 A 
ATOM     70  C   UNL A   1      51.429  26.163  28.525  1.00  0.00     0.000 A 
ENDBRANCH  46  65
BRANCH  58  71
ATOM     71  C   UNL A   1      45.130  32.597  30.342  1.00  0.00    -0.014 A 
ATOM     72  C   UNL A   1      45.390  32.951  31.675  1.00  0.00     0.009 A 
ATOM     73  C   UNL A   1      45.328  33.552  29.332  1.00  0.00     0.009 A 
ATOM     74  C   UNL A   1      45.814  34.242  31.992  1.00  0.00     0.001 A 
ATOM     75  C   UNL A   1      45.783  34.832  29.650  1.00  0.00     0.001 A 
ATOM     76  C   UNL A   1      46.018  35.179  30.979  1.00  0.00     0.000 A 
ENDBRANCH  58  71
ENDBRANCH  32  33
ENDBRANCH  24  27
ENDBRANCH  22  23
ENDBRANCH  21  22
ENDBRANCH   1  21
TORSDOF 13
ENDMDL
MODEL 3
REMARK VINA RESULT:     -11.0      2.819      7.161
REMARK SMILES C[C@@H](C(=O)NCCCNC(=O)c1ccc(-c2c3nc(c(-c4ccccc4)c4ccc([nH]4)c(-c4ccccc4)c4nc(c(-c5ccccc5)c5ccc2[nH]5)C=C4)C=C3)cc1)c1ccc(C[C@H]2CCCC2=O)cc1
REMARK SMILES IDX 6 1 5 2 3 3 4 4 2 6 1 7 60 8 61 9 72 10 62 11 71 12 63 13
REMARK SMILES IDX 64 14 65 15 66 16 69 17 67 18 68 19 70 20 7 21 8 22 9 23
REMARK SMILES IDX 10 24 11 26 12 27 13 28 59 29 14 30 58 31 15 32 16 33 17 34
REMARK SMILES IDX 52 35 18 36 57 37 51 38 53 39 19 40 56 41 50 42 49 43 20 45
REMARK SMILES IDX 42 46 27 47 41 48 28 49 31 50 40 51 54 52 29 53 30 54 39 56
REMARK SMILES IDX 55 57 32 58 21 59 22 60 26 61 23 62 25 63 24 64 43 65 44 66
REMARK SMILES IDX 48 67 45 68 47 69 46 70 33 71 34 72 38 73 35 74 37 75 36 76
REMARK H PARENT 5 5 9 25 53 44 31 55
REMARK Flexibility Score: inf
ROOT
ATOM      1  C   UNL A   1      32.703  29.459  24.836  1.00  0.00     0.117 C 
ENDROOT
BRANCH   1   2
ATOM      2  N   UNL A   1      31.552  28.576  24.878  1.00  0.00    -0.356 N 
ATOM      3  C   UNL A   1      31.234  27.500  24.099  1.00  0.00     0.227 C 
ATOM      4  O   UNL A   1      30.062  27.119  24.154  1.00  0.00    -0.274 OA
ATOM      5  H   UNL A   1      30.895  28.786  25.580  1.00  0.00     0.163 HD
BRANCH   3   6
ATOM      6  C   UNL A   1      32.315  26.819  23.236  1.00  0.00     0.105 C 
ATOM      7  C   UNL A   1      31.646  26.211  21.997  1.00  0.00     0.023 C 
BRANCH   6   8
ATOM      8  C   UNL A   1      33.177  25.807  24.007  1.00  0.00    -0.036 A 
ATOM      9  C   UNL A   1      34.056  24.951  23.325  1.00  0.00     0.005 A 
ATOM     10  C   UNL A   1      33.092  25.663  25.402  1.00  0.00     0.005 A 
ATOM     11  C   UNL A   1      34.872  24.049  24.014  1.00  0.00     0.004 A 
ATOM     12  C   UNL A   1      33.880  24.735  26.089  1.00  0.00     0.004 A 
ATOM     13  C   UNL A   1      34.780  23.918  25.402  1.00  0.00    -0.047 A 
BRANCH  13  14
ATOM     14  C   UNL A   1      35.627  22.918  26.149  1.00  0.00     0.047 C 
BRANCH  14  15
ATOM     15  C   UNL A   1      34.988  21.550  26.413  1.00  0.00     0.060 C 
ATOM     16  C   UNL A   1      33.468  21.531  26.598  1.00  0.00     0.012 C 
ATOM     17  C   UNL A   1      35.180  20.595  25.260  1.00  0.00     0.136 C 
ATOM     18  C   UNL A   1      32.874  21.145  25.248  1.00  0.00     0.009 C 
ATOM     19  C   UNL A   1      33.882  20.205  24.603  1.00  0.00     0.076 C 
ATOM     20  O   UNL A   1      36.273  20.172  24.900  1.00  0.00    -0.299 OA
ENDBRANCH  14  15
ENDBRANCH  13  14
ENDBRANCH   6   8
ENDBRANCH   3   6
ENDBRANCH   1   2
BRANCH   1  21
ATOM     21  C   UNL A   1      33.813  28.959  25.762  1.00  0.00     0.042 C 
BRANCH  21  22
ATOM     22  C   UNL A   1      33.498  29.098  27.249  1.00  0.00     0.118 C 
BRANCH  22  23
ATOM     23  N   UNL A   1      33.650  30.464  27.728  1.00  0.00    -0.352 N 
ATOM     24  C   UNL A   1      34.687  31.047  28.411  1.00  0.00     0.251 C 
ATOM     25  H   UNL A   1      32.893  31.061  27.529  1.00  0.00     0.163 HD
ATOM     26  O   UNL A   1      34.542  32.164  28.904  1.00  0.00    -0.269 OA
BRANCH  24  27
ATOM     27  C   UNL A   1      35.968  30.329  28.588  1.00  0.00     0.039 A 
ATOM     28  C   UNL A   1      36.885  30.321  27.533  1.00  0.00     0.014 A 
ATOM     29  C   UNL A   1      36.269  29.667  29.780  1.00  0.00     0.014 A 
ATOM     30  C   UNL A   1      38.139  29.730  27.707  1.00  0.00     0.010 A 
ATOM     31  C   UNL A   1      37.544  29.137  29.976  1.00  0.00     0.010 A 
ATOM     32  C   UNL A   1      38.498  29.182  28.948  1.00  0.00    -0.014 A 
BRANCH  32  33
ATOM     33  C   UNL A   1      39.887  28.723  29.216  1.00  0.00     0.031 A 
ATOM     34  C   UNL A   1      40.913  29.666  29.779  1.00  0.00     0.074 A 
ATOM     35  C   UNL A   1      40.243  27.471  28.862  1.00  0.00     0.049 A 
ATOM     36  N   UNL A   1      42.191  29.464  29.984  1.00  0.00    -0.248 NA
ATOM     37  C   UNL A   1      40.453  31.016  30.145  1.00  0.00     0.031 C 
ATOM     38  C   UNL A   1      39.349  26.469  28.273  1.00  0.00     0.029 A 
ATOM     39  N   UNL A   1      41.456  26.831  28.927  1.00  0.00    -0.354 N 
ATOM     40  C   UNL A   1      42.690  30.662  30.479  1.00  0.00     0.074 A 
ATOM     41  C   UNL A   1      41.586  31.595  30.523  1.00  0.00     0.031 C 
ATOM     42  C   UNL A   1      40.040  25.343  28.040  1.00  0.00     0.029 A 
ATOM     43  C   UNL A   1      41.434  25.555  28.411  1.00  0.00     0.049 A 
ATOM     44  H   UNL A   1      42.264  27.245  29.305  1.00  0.00     0.167 HD
ATOM     45  C   UNL A   1      43.953  30.952  30.869  1.00  0.00     0.031 A 
ATOM     46  C   UNL A   1      42.428  24.666  28.228  1.00  0.00     0.031 A 
ATOM     47  C   UNL A   1      45.048  30.016  30.839  1.00  0.00     0.049 A 
ATOM     48  C   UNL A   1      43.829  25.037  28.634  1.00  0.00     0.074 A 
ATOM     49  C   UNL A   1      46.343  30.198  31.296  1.00  0.00     0.029 A 
ATOM     50  N   UNL A   1      44.984  28.738  30.312  1.00  0.00    -0.354 N 
ATOM     51  N   UNL A   1      44.261  26.139  29.198  1.00  0.00    -0.248 NA
ATOM     52  C   UNL A   1      44.880  24.042  28.375  1.00  0.00     0.031 C 
ATOM     53  C   UNL A   1      47.080  29.055  30.978  1.00  0.00     0.029 A 
ATOM     54  C   UNL A   1      46.230  28.139  30.383  1.00  0.00     0.049 A 
ATOM     55  H   UNL A   1      44.174  28.319  29.942  1.00  0.00     0.167 HD
ATOM     56  C   UNL A   1      45.626  25.959  29.379  1.00  0.00     0.074 A 
ATOM     57  C   UNL A   1      45.947  24.635  28.892  1.00  0.00     0.031 C 
ATOM     58  C   UNL A   1      46.536  26.820  29.895  1.00  0.00     0.031 A 
BRANCH  45  59
ATOM     59  C   UNL A   1      44.246  32.344  31.353  1.00  0.00    -0.014 A 
ATOM     60  C   UNL A   1      44.600  33.368  30.461  1.00  0.00     0.009 A 
ATOM     61  C   UNL A   1      44.059  32.658  32.709  1.00  0.00     0.009 A 
ATOM     62  C   UNL A   1      44.776  34.675  30.922  1.00  0.00     0.001 A 
ATOM     63  C   UNL A   1      44.209  33.969  33.161  1.00  0.00     0.001 A 
ATOM     64  C   UNL A   1      44.570  34.976  32.269  1.00  0.00     0.000 A 
ENDBRANCH  45  59
BRANCH  46  65
ATOM     65  C   UNL A   1      42.157  23.348  27.591  1.00  0.00    -0.014 A 
ATOM     66  C   UNL A   1      42.354  23.163  26.214  1.00  0.00     0.009 A 
ATOM     67  C   UNL A   1      41.649  22.282  28.351  1.00  0.00     0.009 A 
ATOM     68  C   UNL A   1      42.008  21.954  25.606  1.00  0.00     0.001 A 
ATOM     69  C   UNL A   1      41.339  21.062  27.747  1.00  0.00     0.001 A 
ATOM     70  C   UNL A   1      41.503  20.905  26.372  1.00  0.00     0.000 A 
ENDBRANCH  46  65
BRANCH  58  71
ATOM     71  C   UNL A   1      47.961  26.352  29.977  1.00  0.00    -0.014 A 
ATOM     72  C   UNL A   1      48.844  26.527  28.900  1.00  0.00     0.009 A 
ATOM     73  C   UNL A   1      48.441  25.781  31.166  1.00  0.00     0.009 A 
ATOM     74  C   UNL A   1      50.173  26.114  29.004  1.00  0.00     0.001 A 
ATOM     75  C   UNL A   1      49.778  25.399  31.277  1.00  0.00     0.001 A 
ATOM     76  C   UNL A   1      50.641  25.559  30.195  1.00  0.00     0.000 A 
ENDBRANCH  58  71
ENDBRANCH  32  33
ENDBRANCH  24  27
ENDBRANCH  22  23
ENDBRANCH  21  22
ENDBRANCH   1  21
TORSDOF 13
ENDMDL
