MODEL 1
REMARK VINA RESULT:     -11.4      0.000      0.000
REMARK SMILES O=C(NCCCNC(=O)[C@H](NC(=O)c1cccs1)[C@]12C[C@H]3C[C@H](C[C@H](C3)C1)C2)c1ccc(-c2c3nc(c(-c4ccccc4)c4ccc([nH]4)c(-c4ccccc4)c4nc(c(-c5ccccc5)c5ccc2[nH]5)C=C4)C=C3)cc1
REMARK SMILES IDX 5 1 4 2 3 3 1 4 2 5 29 7 30 8 76 9 31 10 75 11 32 12 33 13
REMARK SMILES IDX 34 14 69 15 35 16 74 17 68 18 70 19 36 20 73 21 67 22 66 23
REMARK SMILES IDX 37 25 59 26 44 27 58 28 45 29 48 30 57 31 71 32 46 33 47 34
REMARK SMILES IDX 56 36 72 37 49 38 38 39 39 40 43 41 40 42 42 43 41 44 60 45
REMARK SMILES IDX 61 46 65 47 62 48 64 49 63 50 50 51 51 52 55 53 52 54 54 55
REMARK SMILES IDX 53 56 6 57 7 58 8 59 9 61 10 62 11 63 12 64 13 66 14 67
REMARK SMILES IDX 15 68 18 69 16 70 17 71 19 72 20 73 27 74 28 75 21 76 25 77
REMARK SMILES IDX 23 78 22 79 26 80 24 81
REMARK H PARENT 3 6 70 24 48 35 7 60 11 65
REMARK Flexibility Score: inf
ROOT
ATOM      1  C   UNL A   1      32.613  28.284  27.222  1.00  0.00     0.042 C 
ENDROOT
BRANCH   1   2
ATOM      2  C   UNL A   1      33.187  29.558  26.562  1.00  0.00     0.118 C 
BRANCH   2   3
ATOM      3  N   UNL A   1      33.445  30.632  27.511  1.00  0.00    -0.352 N 
ATOM      4  O   UNL A   1      34.340  31.888  29.114  1.00  0.00    -0.269 OA
ATOM      5  C   UNL A   1      34.500  30.947  28.357  1.00  0.00     0.251 C 
ATOM      6  H   UNL A   1      32.705  31.280  27.566  1.00  0.00     0.163 HD
BRANCH   5   7
ATOM      7  C   UNL A   1      35.817  30.233  28.404  1.00  0.00     0.039 A 
ATOM      8  C   UNL A   1      36.760  30.259  27.379  1.00  0.00     0.014 A 
ATOM      9  C   UNL A   1      36.210  29.701  29.646  1.00  0.00     0.014 A 
ATOM     10  C   UNL A   1      38.059  29.733  27.583  1.00  0.00     0.010 A 
ATOM     11  C   UNL A   1      37.510  29.202  29.858  1.00  0.00     0.010 A 
ATOM     12  C   UNL A   1      38.460  29.209  28.828  1.00  0.00    -0.014 A 
BRANCH  12  13
ATOM     13  C   UNL A   1      39.868  28.752  29.091  1.00  0.00     0.031 A 
ATOM     14  C   UNL A   1      40.893  29.666  29.726  1.00  0.00     0.074 A 
ATOM     15  C   UNL A   1      40.271  27.526  28.694  1.00  0.00     0.049 A 
ATOM     16  N   UNL A   1      42.162  29.443  29.982  1.00  0.00    -0.248 NA
ATOM     17  C   UNL A   1      40.434  31.007  30.114  1.00  0.00     0.031 C 
ATOM     18  C   UNL A   1      39.426  26.532  28.035  1.00  0.00     0.029 A 
ATOM     19  N   UNL A   1      41.500  26.909  28.779  1.00  0.00    -0.354 N 
ATOM     20  C   UNL A   1      42.657  30.615  30.544  1.00  0.00     0.074 A 
ATOM     21  C   UNL A   1      41.554  31.558  30.564  1.00  0.00     0.031 C 
ATOM     22  C   UNL A   1      40.148  25.424  27.801  1.00  0.00     0.029 A 
ATOM     23  C   UNL A   1      41.522  25.639  28.250  1.00  0.00     0.049 A 
ATOM     24  H   UNL A   1      42.291  27.337  29.181  1.00  0.00     0.167 HD
ATOM     25  C   UNL A   1      43.903  30.891  31.009  1.00  0.00     0.031 A 
ATOM     26  C   UNL A   1      42.524  24.746  28.123  1.00  0.00     0.031 A 
ATOM     27  C   UNL A   1      45.015  29.971  30.993  1.00  0.00     0.049 A 
ATOM     28  C   UNL A   1      43.906  25.086  28.609  1.00  0.00     0.074 A 
ATOM     29  C   UNL A   1      46.293  30.155  31.498  1.00  0.00     0.029 A 
ATOM     30  N   UNL A   1      44.990  28.704  30.434  1.00  0.00    -0.354 N 
ATOM     31  N   UNL A   1      44.331  26.175  29.201  1.00  0.00    -0.248 NA
ATOM     32  C   UNL A   1      44.948  24.065  28.412  1.00  0.00     0.031 C 
ATOM     33  C   UNL A   1      47.058  29.022  31.191  1.00  0.00     0.029 A 
ATOM     34  C   UNL A   1      46.238  28.108  30.553  1.00  0.00     0.049 A 
ATOM     35  H   UNL A   1      44.204  28.288  30.013  1.00  0.00     0.167 HD
ATOM     36  C   UNL A   1      45.676  25.957  29.477  1.00  0.00     0.074 A 
ATOM     37  C   UNL A   1      45.995  24.628  29.000  1.00  0.00     0.031 C 
ATOM     38  C   UNL A   1      46.563  26.788  30.077  1.00  0.00     0.031 A 
BRANCH  25  39
ATOM     39  C   UNL A   1      44.149  32.269  31.567  1.00  0.00    -0.014 A 
ATOM     40  C   UNL A   1      44.567  33.327  30.745  1.00  0.00     0.009 A 
ATOM     41  C   UNL A   1      43.909  32.527  32.928  1.00  0.00     0.009 A 
ATOM     42  C   UNL A   1      44.780  34.601  31.280  1.00  0.00     0.001 A 
ATOM     43  C   UNL A   1      44.093  33.807  33.454  1.00  0.00     0.001 A 
ATOM     44  C   UNL A   1      44.540  34.841  32.632  1.00  0.00     0.000 A 
ENDBRANCH  25  39
BRANCH  26  45
ATOM     45  C   UNL A   1      42.261  23.413  27.513  1.00  0.00    -0.014 A 
ATOM     46  C   UNL A   1      41.652  22.396  28.265  1.00  0.00     0.009 A 
ATOM     47  C   UNL A   1      42.633  23.146  26.185  1.00  0.00     0.009 A 
ATOM     48  C   UNL A   1      41.438  21.133  27.707  1.00  0.00     0.001 A 
ATOM     49  C   UNL A   1      42.389  21.891  25.621  1.00  0.00     0.001 A 
ATOM     50  C   UNL A   1      41.801  20.884  26.384  1.00  0.00     0.000 A 
ENDBRANCH  26  45
BRANCH  38  51
ATOM     51  C   UNL A   1      47.959  26.269  30.295  1.00  0.00    -0.014 A 
ATOM     52  C   UNL A   1      48.928  26.316  29.281  1.00  0.00     0.009 A 
ATOM     53  C   UNL A   1      48.315  25.738  31.546  1.00  0.00     0.009 A 
ATOM     54  C   UNL A   1      50.211  25.808  29.502  1.00  0.00     0.001 A 
ATOM     55  C   UNL A   1      49.606  25.257  31.774  1.00  0.00     0.001 A 
ATOM     56  C   UNL A   1      50.550  25.282  30.749  1.00  0.00     0.000 A 
ENDBRANCH  38  51
ENDBRANCH  12  13
ENDBRANCH   5   7
ENDBRANCH   2   3
ENDBRANCH   1   2
BRANCH   1  57
ATOM     57  C   UNL A   1      31.404  27.477  26.628  1.00  0.00     0.117 C 
BRANCH  57  58
ATOM     58  N   UNL A   1      31.109  26.055  26.902  1.00  0.00    -0.354 N 
ATOM     59  C   UNL A   1      31.712  24.836  26.582  1.00  0.00     0.243 C 
ATOM     60  H   UNL A   1      30.292  25.938  27.439  1.00  0.00     0.163 HD
ATOM     61  O   UNL A   1      31.442  23.875  27.308  1.00  0.00    -0.273 OA
BRANCH  59  62
ATOM     62  C   UNL A   1      32.753  24.714  25.437  1.00  0.00     0.177 C 
BRANCH  62  63
ATOM     63  N   UNL A   1      31.978  24.607  24.195  1.00  0.00    -0.339 N 
ATOM     64  C   UNL A   1      31.593  25.558  23.276  1.00  0.00     0.262 C 
ATOM     65  H   UNL A   1      31.681  23.692  23.981  1.00  0.00     0.164 HD
ATOM     66  O   UNL A   1      30.620  25.225  22.590  1.00  0.00    -0.268 OA
BRANCH  64  67
ATOM     67  C   UNL A   1      32.282  26.834  23.085  1.00  0.00     0.092 A 
ATOM     68  C   UNL A   1      33.621  27.187  22.971  1.00  0.00     0.025 A 
ATOM     69  S   UNL A   1      31.295  28.233  22.853  1.00  0.00    -0.139 S 
ATOM     70  C   UNL A   1      33.832  28.572  22.719  1.00  0.00     0.012 A 
ATOM     71  C   UNL A   1      32.647  29.255  22.639  1.00  0.00     0.065 A 
ENDBRANCH  64  67
ENDBRANCH  62  63
BRANCH  62  72
ATOM     72  C   UNL A   1      33.989  23.683  25.423  1.00  0.00     0.000 C 
ATOM     73  C   UNL A   1      33.785  22.480  24.470  1.00  0.00     0.013 C 
ATOM     74  C   UNL A   1      34.399  22.985  26.770  1.00  0.00     0.013 C 
ATOM     75  C   UNL A   1      35.259  24.538  25.051  1.00  0.00     0.013 C 
ATOM     76  C   UNL A   1      35.084  21.713  24.198  1.00  0.00    -0.010 C 
ATOM     77  C   UNL A   1      35.716  22.133  26.582  1.00  0.00    -0.010 C 
ATOM     78  C   UNL A   1      36.501  23.703  24.802  1.00  0.00    -0.010 C 
ATOM     79  C   UNL A   1      36.166  22.686  23.705  1.00  0.00     0.007 C 
ATOM     80  C   UNL A   1      35.535  21.051  25.500  1.00  0.00     0.007 C 
ATOM     81  C   UNL A   1      36.880  23.023  26.115  1.00  0.00     0.007 C 
ENDBRANCH  62  72
ENDBRANCH  59  62
ENDBRANCH  57  58
ENDBRANCH   1  57
TORSDOF 13
ENDMDL
MODEL 2
REMARK VINA RESULT:     -11.4      1.347      1.709
REMARK SMILES O=C(NCCCNC(=O)[C@H](NC(=O)c1cccs1)[C@]12C[C@H]3C[C@H](C[C@H](C3)C1)C2)c1ccc(-c2c3nc(c(-c4ccccc4)c4ccc([nH]4)c(-c4ccccc4)c4nc(c(-c5ccccc5)c5ccc2[nH]5)C=C4)C=C3)cc1
REMARK SMILES IDX 5 1 4 2 3 3 1 4 2 5 29 7 30 8 76 9 31 10 75 11 32 12 33 13
REMARK SMILES IDX 34 14 69 15 35 16 74 17 68 18 70 19 36 20 73 21 67 22 66 23
REMARK SMILES IDX 37 25 59 26 44 27 58 28 45 29 48 30 57 31 71 32 46 33 47 34
REMARK SMILES IDX 56 36 72 37 49 38 38 39 39 40 43 41 40 42 42 43 41 44 60 45
REMARK SMILES IDX 61 46 65 47 62 48 64 49 63 50 50 51 51 52 55 53 52 54 54 55
REMARK SMILES IDX 53 56 6 57 7 58 8 59 9 61 10 62 11 63 12 64 13 66 14 67
REMARK SMILES IDX 15 68 18 69 16 70 17 71 19 72 20 73 27 74 28 75 21 76 25 77
REMARK SMILES IDX 23 78 22 79 26 80 24 81
REMARK H PARENT 3 6 70 24 48 35 7 60 11 65
REMARK Flexibility Score: inf
ROOT
ATOM      1  C   UNL A   1      33.623  27.688  26.540  1.00  0.00     0.042 C 
ENDROOT
BRANCH   1   2
ATOM      2  C   UNL A   1      34.135  28.931  25.777  1.00  0.00     0.118 C 
BRANCH   2   3
ATOM      3  N   UNL A   1      33.788  30.188  26.426  1.00  0.00    -0.352 N 
ATOM      4  O   UNL A   1      33.695  31.896  27.849  1.00  0.00    -0.269 OA
ATOM      5  C   UNL A   1      34.309  30.904  27.495  1.00  0.00     0.251 C 
ATOM      6  H   UNL A   1      33.009  30.629  26.015  1.00  0.00     0.163 HD
BRANCH   5   7
ATOM      7  C   UNL A   1      35.566  30.564  28.237  1.00  0.00     0.039 A 
ATOM      8  C   UNL A   1      35.608  29.787  29.393  1.00  0.00     0.014 A 
ATOM      9  C   UNL A   1      36.784  30.855  27.597  1.00  0.00     0.014 A 
ATOM     10  C   UNL A   1      36.846  29.339  29.915  1.00  0.00     0.010 A 
ATOM     11  C   UNL A   1      38.014  30.388  28.100  1.00  0.00     0.010 A 
ATOM     12  C   UNL A   1      38.067  29.620  29.271  1.00  0.00    -0.014 A 
BRANCH  12  13
ATOM     13  C   UNL A   1      39.375  29.057  29.750  1.00  0.00     0.031 A 
ATOM     14  C   UNL A   1      40.218  29.776  30.781  1.00  0.00     0.074 A 
ATOM     15  C   UNL A   1      39.866  27.920  29.211  1.00  0.00     0.049 A 
ATOM     16  N   UNL A   1      41.394  29.449  31.270  1.00  0.00    -0.248 NA
ATOM     17  C   UNL A   1      39.675  31.029  31.323  1.00  0.00     0.031 C 
ATOM     18  C   UNL A   1      39.204  27.120  28.183  1.00  0.00     0.029 A 
ATOM     19  N   UNL A   1      41.044  27.245  29.447  1.00  0.00    -0.354 N 
ATOM     20  C   UNL A   1      41.737  30.459  32.163  1.00  0.00     0.074 A 
ATOM     21  C   UNL A   1      40.656  31.426  32.124  1.00  0.00     0.031 C 
ATOM     22  C   UNL A   1      39.966  26.051  27.896  1.00  0.00     0.029 A 
ATOM     23  C   UNL A   1      41.195  26.109  28.684  1.00  0.00     0.049 A 
ATOM     24  H   UNL A   1      41.716  27.546  30.101  1.00  0.00     0.167 HD
ATOM     25  C   UNL A   1      42.838  30.578  32.950  1.00  0.00     0.031 A 
ATOM     26  C   UNL A   1      42.203  25.217  28.609  1.00  0.00     0.031 A 
ATOM     27  C   UNL A   1      43.926  29.632  32.999  1.00  0.00     0.049 A 
ATOM     28  C   UNL A   1      43.431  25.389  29.461  1.00  0.00     0.074 A 
ATOM     29  C   UNL A   1      45.050  29.652  33.812  1.00  0.00     0.029 A 
ATOM     30  N   UNL A   1      44.040  28.508  32.198  1.00  0.00    -0.354 N 
ATOM     31  N   UNL A   1      43.700  26.314  30.348  1.00  0.00    -0.248 NA
ATOM     32  C   UNL A   1      44.494  24.384  29.301  1.00  0.00     0.031 C 
ATOM     33  C   UNL A   1      45.870  28.573  33.461  1.00  0.00     0.029 A 
ATOM     34  C   UNL A   1      45.227  27.845  32.475  1.00  0.00     0.049 A 
ATOM     35  H   UNL A   1      43.376  28.222  31.530  1.00  0.00     0.167 HD
ATOM     36  C   UNL A   1      44.943  25.985  30.875  1.00  0.00     0.074 A 
ATOM     37  C   UNL A   1      45.371  24.768  30.218  1.00  0.00     0.031 C 
ATOM     38  C   UNL A   1      45.661  26.636  31.822  1.00  0.00     0.031 A 
BRANCH  25  39
ATOM     39  C   UNL A   1      42.940  31.802  33.824  1.00  0.00    -0.014 A 
ATOM     40  C   UNL A   1      43.547  32.981  33.364  1.00  0.00     0.009 A 
ATOM     41  C   UNL A   1      42.373  31.793  35.110  1.00  0.00     0.009 A 
ATOM     42  C   UNL A   1      43.623  34.109  34.187  1.00  0.00     0.001 A 
ATOM     43  C   UNL A   1      42.423  32.930  35.919  1.00  0.00     0.001 A 
ATOM     44  C   UNL A   1      43.058  34.083  35.462  1.00  0.00     0.000 A 
ENDBRANCH  25  39
BRANCH  26  45
ATOM     45  C   UNL A   1      42.096  24.049  27.690  1.00  0.00    -0.014 A 
ATOM     46  C   UNL A   1      41.489  22.860  28.123  1.00  0.00     0.009 A 
ATOM     47  C   UNL A   1      42.616  24.112  26.388  1.00  0.00     0.009 A 
ATOM     48  C   UNL A   1      41.422  21.750  27.276  1.00  0.00     0.001 A 
ATOM     49  C   UNL A   1      42.519  23.010  25.533  1.00  0.00     0.001 A 
ATOM     50  C   UNL A   1      41.930  21.829  25.981  1.00  0.00     0.000 A 
ENDBRANCH  26  45
BRANCH  38  51
ATOM     51  C   UNL A   1      46.969  26.022  32.244  1.00  0.00    -0.014 A 
ATOM     52  C   UNL A   1      48.166  26.302  31.565  1.00  0.00     0.009 A 
ATOM     53  C   UNL A   1      47.006  25.159  33.352  1.00  0.00     0.009 A 
ATOM     54  C   UNL A   1      49.363  25.701  31.963  1.00  0.00     0.001 A 
ATOM     55  C   UNL A   1      48.209  24.583  33.766  1.00  0.00     0.001 A 
ATOM     56  C   UNL A   1      49.385  24.846  33.065  1.00  0.00     0.000 A 
ENDBRANCH  38  51
ENDBRANCH  12  13
ENDBRANCH   5   7
ENDBRANCH   2   3
ENDBRANCH   1   2
BRANCH   1  57
ATOM     57  C   UNL A   1      32.113  27.467  26.911  1.00  0.00     0.117 C 
BRANCH  57  58
ATOM     58  N   UNL A   1      31.451  26.153  27.047  1.00  0.00    -0.354 N 
ATOM     59  C   UNL A   1      31.688  24.866  26.558  1.00  0.00     0.243 C 
ATOM     60  H   UNL A   1      30.652  26.194  27.621  1.00  0.00     0.163 HD
ATOM     61  O   UNL A   1      31.190  23.931  27.191  1.00  0.00    -0.273 OA
BRANCH  59  62
ATOM     62  C   UNL A   1      32.618  24.611  25.342  1.00  0.00     0.177 C 
BRANCH  62  63
ATOM     63  N   UNL A   1      31.734  24.259  24.223  1.00  0.00    -0.339 N 
ATOM     64  C   UNL A   1      30.820  25.006  23.513  1.00  0.00     0.262 C 
ATOM     65  H   UNL A   1      31.808  23.321  23.929  1.00  0.00     0.164 HD
ATOM     66  O   UNL A   1      29.961  24.329  22.937  1.00  0.00    -0.268 OA
BRANCH  64  67
ATOM     67  C   UNL A   1      30.867  26.464  23.404  1.00  0.00     0.092 A 
ATOM     68  C   UNL A   1      30.055  27.482  23.887  1.00  0.00     0.025 A 
ATOM     69  S   UNL A   1      32.235  27.149  22.603  1.00  0.00    -0.139 S 
ATOM     70  C   UNL A   1      30.532  28.790  23.589  1.00  0.00     0.012 A 
ATOM     71  C   UNL A   1      31.708  28.749  22.888  1.00  0.00     0.065 A 
ENDBRANCH  64  67
ENDBRANCH  62  63
BRANCH  62  72
ATOM     72  C   UNL A   1      33.916  23.659  25.358  1.00  0.00     0.000 C 
ATOM     73  C   UNL A   1      33.754  22.373  24.511  1.00  0.00     0.013 C 
ATOM     74  C   UNL A   1      34.417  23.098  26.737  1.00  0.00     0.013 C 
ATOM     75  C   UNL A   1      35.114  24.557  24.869  1.00  0.00     0.013 C 
ATOM     76  C   UNL A   1      35.089  21.666  24.247  1.00  0.00    -0.010 C 
ATOM     77  C   UNL A   1      35.777  22.314  26.564  1.00  0.00    -0.010 C 
ATOM     78  C   UNL A   1      36.398  23.781  24.636  1.00  0.00    -0.010 C 
ATOM     79  C   UNL A   1      36.089  22.660  23.636  1.00  0.00     0.007 C 
ATOM     80  C   UNL A   1      35.627  21.140  25.578  1.00  0.00     0.007 C 
ATOM     81  C   UNL A   1      36.866  23.233  25.982  1.00  0.00     0.007 C 
ENDBRANCH  62  72
ENDBRANCH  59  62
ENDBRANCH  57  58
ENDBRANCH   1  57
TORSDOF 13
ENDMDL
MODEL 3
REMARK VINA RESULT:     -11.4      2.520      7.707
REMARK SMILES O=C(NCCCNC(=O)[C@H](NC(=O)c1cccs1)[C@]12C[C@H]3C[C@H](C[C@H](C3)C1)C2)c1ccc(-c2c3nc(c(-c4ccccc4)c4ccc([nH]4)c(-c4ccccc4)c4nc(c(-c5ccccc5)c5ccc2[nH]5)C=C4)C=C3)cc1
REMARK SMILES IDX 5 1 4 2 3 3 1 4 2 5 29 7 30 8 76 9 31 10 75 11 32 12 33 13
REMARK SMILES IDX 34 14 69 15 35 16 74 17 68 18 70 19 36 20 73 21 67 22 66 23
REMARK SMILES IDX 37 25 59 26 44 27 58 28 45 29 48 30 57 31 71 32 46 33 47 34
REMARK SMILES IDX 56 36 72 37 49 38 38 39 39 40 43 41 40 42 42 43 41 44 60 45
REMARK SMILES IDX 61 46 65 47 62 48 64 49 63 50 50 51 51 52 55 53 52 54 54 55
REMARK SMILES IDX 53 56 6 57 7 58 8 59 9 61 10 62 11 63 12 64 13 66 14 67
REMARK SMILES IDX 15 68 18 69 16 70 17 71 19 72 20 73 27 74 28 75 21 76 25 77
REMARK SMILES IDX 23 78 22 79 26 80 24 81
REMARK H PARENT 3 6 70 24 48 35 7 60 11 65
REMARK Flexibility Score: inf
ROOT
ATOM      1  C   UNL A   1      35.245  23.441  24.023  1.00  0.00     0.042 C 
ENDROOT
BRANCH   1   2
ATOM      2  C   UNL A   1      36.328  23.879  25.036  1.00  0.00     0.118 C 
BRANCH   2   3
ATOM      3  N   UNL A   1      37.238  22.803  25.406  1.00  0.00    -0.352 N 
ATOM      4  O   UNL A   1      39.023  21.665  26.088  1.00  0.00    -0.269 OA
ATOM      5  C   UNL A   1      38.480  22.754  26.024  1.00  0.00     0.251 C 
ATOM      6  H   UNL A   1      36.897  21.912  25.163  1.00  0.00     0.163 HD
BRANCH   5   7
ATOM      7  C   UNL A   1      39.197  23.924  26.627  1.00  0.00     0.039 A 
ATOM      8  C   UNL A   1      39.921  24.862  25.893  1.00  0.00     0.014 A 
ATOM      9  C   UNL A   1      38.927  24.213  27.977  1.00  0.00     0.014 A 
ATOM     10  C   UNL A   1      40.393  26.048  26.508  1.00  0.00     0.010 A 
ATOM     11  C   UNL A   1      39.373  25.404  28.582  1.00  0.00     0.010 A 
ATOM     12  C   UNL A   1      40.115  26.344  27.857  1.00  0.00    -0.014 A 
BRANCH  12  13
ATOM     13  C   UNL A   1      40.513  27.649  28.490  1.00  0.00     0.031 A 
ATOM     14  C   UNL A   1      41.898  27.866  29.057  1.00  0.00     0.074 A 
ATOM     15  C   UNL A   1      39.607  28.640  28.631  1.00  0.00     0.049 A 
ATOM     16  N   UNL A   1      42.389  28.916  29.676  1.00  0.00    -0.248 NA
ATOM     17  C   UNL A   1      42.851  26.756  28.920  1.00  0.00     0.031 C 
ATOM     18  C   UNL A   1      38.219  28.587  28.176  1.00  0.00     0.029 A 
ATOM     19  N   UNL A   1      39.716  29.886  29.210  1.00  0.00    -0.354 N 
ATOM     20  C   UNL A   1      43.698  28.589  30.016  1.00  0.00     0.074 A 
ATOM     21  C   UNL A   1      43.914  27.230  29.558  1.00  0.00     0.031 C 
ATOM     22  C   UNL A   1      37.614  29.751  28.464  1.00  0.00     0.029 A 
ATOM     23  C   UNL A   1      38.553  30.622  29.167  1.00  0.00     0.049 A 
ATOM     24  H   UNL A   1      40.548  30.220  29.617  1.00  0.00     0.167 HD
ATOM     25  C   UNL A   1      44.641  29.341  30.641  1.00  0.00     0.031 A 
ATOM     26  C   UNL A   1      38.261  31.849  29.644  1.00  0.00     0.031 A 
ATOM     27  C   UNL A   1      44.445  30.692  31.109  1.00  0.00     0.049 A 
ATOM     28  C   UNL A   1      39.309  32.650  30.367  1.00  0.00     0.074 A 
ATOM     29  C   UNL A   1      45.369  31.542  31.700  1.00  0.00     0.029 A 
ATOM     30  N   UNL A   1      43.249  31.387  31.056  1.00  0.00    -0.354 N 
ATOM     31  N   UNL A   1      40.559  32.347  30.613  1.00  0.00    -0.248 NA
ATOM     32  C   UNL A   1      38.901  33.970  30.875  1.00  0.00     0.031 C 
ATOM     33  C   UNL A   1      44.715  32.728  32.057  1.00  0.00     0.029 A 
ATOM     34  C   UNL A   1      43.401  32.641  31.631  1.00  0.00     0.049 A 
ATOM     35  H   UNL A   1      42.412  31.042  30.668  1.00  0.00     0.167 HD
ATOM     36  C   UNL A   1      41.094  33.447  31.271  1.00  0.00     0.074 A 
ATOM     37  C   UNL A   1      40.038  34.431  31.377  1.00  0.00     0.031 C 
ATOM     38  C   UNL A   1      42.353  33.623  31.742  1.00  0.00     0.031 A 
BRANCH  25  39
ATOM     39  C   UNL A   1      45.989  28.710  30.881  1.00  0.00    -0.014 A 
ATOM     40  C   UNL A   1      46.256  27.978  32.049  1.00  0.00     0.009 A 
ATOM     41  C   UNL A   1      46.990  28.804  29.900  1.00  0.00     0.009 A 
ATOM     42  C   UNL A   1      47.510  27.392  32.248  1.00  0.00     0.001 A 
ATOM     43  C   UNL A   1      48.231  28.193  30.088  1.00  0.00     0.001 A 
ATOM     44  C   UNL A   1      48.494  27.497  31.267  1.00  0.00     0.000 A 
ENDBRANCH  25  39
BRANCH  26  45
ATOM     45  C   UNL A   1      36.901  32.421  29.441  1.00  0.00    -0.014 A 
ATOM     46  C   UNL A   1      35.893  32.212  30.396  1.00  0.00     0.009 A 
ATOM     47  C   UNL A   1      36.598  33.160  28.286  1.00  0.00     0.009 A 
ATOM     48  C   UNL A   1      34.606  32.714  30.189  1.00  0.00     0.001 A 
ATOM     49  C   UNL A   1      35.318  33.687  28.098  1.00  0.00     0.001 A 
ATOM     50  C   UNL A   1      34.322  33.457  29.045  1.00  0.00     0.000 A 
ENDBRANCH  26  45
BRANCH  38  51
ATOM     51  C   UNL A   1      42.676  34.950  32.376  1.00  0.00    -0.014 A 
ATOM     52  C   UNL A   1      43.361  35.954  31.673  1.00  0.00     0.009 A 
ATOM     53  C   UNL A   1      42.272  35.205  33.697  1.00  0.00     0.009 A 
ATOM     54  C   UNL A   1      43.667  37.169  32.292  1.00  0.00     0.001 A 
ATOM     55  C   UNL A   1      42.554  36.430  34.304  1.00  0.00     0.001 A 
ATOM     56  C   UNL A   1      43.261  37.407  33.604  1.00  0.00     0.000 A 
ENDBRANCH  38  51
ENDBRANCH  12  13
ENDBRANCH   5   7
ENDBRANCH   2   3
ENDBRANCH   1   2
BRANCH   1  57
ATOM     57  C   UNL A   1      34.300  24.453  23.283  1.00  0.00     0.117 C 
BRANCH  57  58
ATOM     58  N   UNL A   1      32.824  24.452  23.355  1.00  0.00    -0.354 N 
ATOM     59  C   UNL A   1      31.870  25.029  24.197  1.00  0.00     0.243 C 
ATOM     60  H   UNL A   1      32.414  23.915  22.638  1.00  0.00     0.163 HD
ATOM     61  O   UNL A   1      30.733  25.165  23.737  1.00  0.00    -0.273 OA
BRANCH  59  62
ATOM     62  C   UNL A   1      32.241  25.573  25.602  1.00  0.00     0.177 C 
BRANCH  62  63
ATOM     63  N   UNL A   1      31.285  24.965  26.537  1.00  0.00    -0.339 N 
ATOM     64  C   UNL A   1      30.984  23.648  26.805  1.00  0.00     0.262 C 
ATOM     65  H   UNL A   1      30.766  25.615  27.065  1.00  0.00     0.164 HD
ATOM     66  O   UNL A   1      29.871  23.484  27.316  1.00  0.00    -0.268 OA
BRANCH  64  67
ATOM     67  C   UNL A   1      31.899  22.535  26.553  1.00  0.00     0.092 A 
ATOM     68  C   UNL A   1      31.965  21.560  25.566  1.00  0.00     0.025 A 
ATOM     69  S   UNL A   1      33.263  22.385  27.604  1.00  0.00    -0.139 S 
ATOM     70  C   UNL A   1      33.094  20.700  25.680  1.00  0.00     0.012 A 
ATOM     71  C   UNL A   1      33.877  21.038  26.752  1.00  0.00     0.065 A 
ENDBRANCH  64  67
ENDBRANCH  62  63
BRANCH  62  72
ATOM     72  C   UNL A   1      32.469  27.126  25.958  1.00  0.00     0.000 C 
ATOM     73  C   UNL A   1      33.938  27.477  26.301  1.00  0.00     0.013 C 
ATOM     74  C   UNL A   1      31.680  27.741  27.169  1.00  0.00     0.013 C 
ATOM     75  C   UNL A   1      31.929  27.935  24.719  1.00  0.00     0.013 C 
ATOM     76  C   UNL A   1      34.204  28.986  26.287  1.00  0.00    -0.010 C 
ATOM     77  C   UNL A   1      31.923  29.299  27.264  1.00  0.00    -0.010 C 
ATOM     78  C   UNL A   1      32.231  29.421  24.786  1.00  0.00    -0.010 C 
ATOM     79  C   UNL A   1      33.748  29.580  24.945  1.00  0.00     0.007 C 
ATOM     80  C   UNL A   1      33.419  29.625  27.432  1.00  0.00     0.007 C 
ATOM     81  C   UNL A   1      31.468  30.002  25.974  1.00  0.00     0.007 C 
ENDBRANCH  62  72
ENDBRANCH  59  62
ENDBRANCH  57  58
ENDBRANCH   1  57
TORSDOF 13
ENDMDL
