MODEL 1
REMARK VINA RESULT:     -11.6      0.000      0.000
REMARK SMILES Cc1ccc(C(=O)NCCCNC(=O)c2ccc(-c3c4nc(c(-c5ccccc5)c5ccc([nH]5)c(-c5ccccc5)c5nc(c(-c6ccccc6)c6ccc3[nH]6)C=C5)C=C4)cc2)cc1N1CC(C)C1
REMARK SMILES IDX 10 1 9 2 8 3 6 4 7 5 5 7 1 8 2 9 3 10 64 11 4 12 63 13 65 14
REMARK SMILES IDX 66 15 69 16 67 17 68 18 11 19 12 20 13 21 14 23 15 24 16 25
REMARK SMILES IDX 62 26 17 27 61 28 18 29 19 30 20 31 55 32 21 33 60 34 54 35
REMARK SMILES IDX 56 36 22 37 59 38 53 39 52 40 23 42 45 43 30 44 44 45 31 46
REMARK SMILES IDX 34 47 43 48 57 49 32 50 33 51 42 53 58 54 35 55 24 56 25 57
REMARK SMILES IDX 29 58 26 59 28 60 27 61 46 62 47 63 51 64 48 65 50 66 49 67
REMARK SMILES IDX 36 68 37 69 41 70 38 71 40 72 39 73
REMARK H PARENT 8 6 12 22 56 41 34 52
REMARK Flexibility Score: inf
ROOT
ATOM      1  C   UNL A   1      39.501  22.394  26.240  1.00  0.00     0.042 C 
ENDROOT
BRANCH   1   2
ATOM      2  C   UNL A   1      38.032  22.159  25.873  1.00  0.00     0.118 C 
BRANCH   2   3
ATOM      3  N   UNL A   1      37.747  22.503  24.489  1.00  0.00    -0.352 N 
ATOM      4  C   UNL A   1      36.583  22.719  23.787  1.00  0.00     0.251 C 
ATOM      5  O   UNL A   1      36.709  23.099  22.621  1.00  0.00    -0.269 OA
ATOM      6  H   UNL A   1      38.557  22.603  23.938  1.00  0.00     0.163 HD
BRANCH   4   7
ATOM      7  C   UNL A   1      35.199  22.520  24.326  1.00  0.00     0.041 A 
ATOM      8  C   UNL A   1      31.107  22.280  25.767  1.00  0.00     0.046 C 
ATOM      9  C   UNL A   1      32.522  22.318  25.265  1.00  0.00    -0.028 A 
ATOM     10  C   UNL A   1      33.147  23.568  25.126  1.00  0.00     0.006 A 
ATOM     11  C   UNL A   1      33.242  21.160  24.939  1.00  0.00     0.040 A 
ATOM     12  C   UNL A   1      34.465  23.664  24.667  1.00  0.00     0.014 A 
ATOM     13  C   UNL A   1      34.561  21.289  24.469  1.00  0.00     0.040 A 
BRANCH  11  14
ATOM     14  N   UNL A   1      32.666  19.876  25.065  1.00  0.00    -0.371 N 
ATOM     15  C   UNL A   1      32.923  18.899  26.086  1.00  0.00     0.121 C 
ATOM     16  C   UNL A   1      32.628  18.903  24.005  1.00  0.00     0.121 C 
ATOM     17  C   UNL A   1      33.155  17.855  24.993  1.00  0.00     0.025 C 
ATOM     18  C   UNL A   1      32.369  16.567  25.128  1.00  0.00     0.011 C 
ENDBRANCH  11  14
ENDBRANCH   4   7
ENDBRANCH   2   3
ENDBRANCH   1   2
BRANCH   1  19
ATOM     19  C   UNL A   1      40.148  21.191  26.902  1.00  0.00     0.118 C 
BRANCH  19  20
ATOM     20  N   UNL A   1      41.088  20.473  26.042  1.00  0.00    -0.352 N 
ATOM     21  C   UNL A   1      42.440  20.724  25.856  1.00  0.00     0.251 C 
ATOM     22  H   UNL A   1      40.716  19.717  25.534  1.00  0.00     0.163 HD
ATOM     23  O   UNL A   1      43.114  20.040  25.116  1.00  0.00    -0.269 OA
BRANCH  21  24
ATOM     24  C   UNL A   1      43.061  21.781  26.692  1.00  0.00     0.039 A 
ATOM     25  C   UNL A   1      42.976  21.635  28.078  1.00  0.00     0.014 A 
ATOM     26  C   UNL A   1      43.439  22.992  26.117  1.00  0.00     0.014 A 
ATOM     27  C   UNL A   1      43.016  22.776  28.874  1.00  0.00     0.010 A 
ATOM     28  C   UNL A   1      43.392  24.133  26.895  1.00  0.00     0.010 A 
ATOM     29  C   UNL A   1      43.106  24.028  28.259  1.00  0.00    -0.014 A 
BRANCH  29  30
ATOM     30  C   UNL A   1      42.807  25.263  28.973  1.00  0.00     0.031 A 
ATOM     31  C   UNL A   1      41.617  26.048  28.607  1.00  0.00     0.074 A 
ATOM     32  C   UNL A   1      43.648  25.747  29.914  1.00  0.00     0.049 A 
ATOM     33  N   UNL A   1      41.593  27.338  28.541  1.00  0.00    -0.248 NA
ATOM     34  C   UNL A   1      40.361  25.412  28.233  1.00  0.00     0.031 C 
ATOM     35  C   UNL A   1      43.424  26.909  30.772  1.00  0.00     0.029 A 
ATOM     36  N   UNL A   1      44.989  25.427  30.117  1.00  0.00    -0.354 N 
ATOM     37  C   UNL A   1      40.275  27.706  28.412  1.00  0.00     0.074 A 
ATOM     38  C   UNL A   1      39.563  26.478  28.123  1.00  0.00     0.031 C 
ATOM     39  C   UNL A   1      44.619  27.395  31.147  1.00  0.00     0.029 A 
ATOM     40  C   UNL A   1      45.642  26.620  30.466  1.00  0.00     0.049 A 
ATOM     41  H   UNL A   1      45.400  24.536  30.032  1.00  0.00     0.167 HD
ATOM     42  C   UNL A   1      39.881  28.972  28.724  1.00  0.00     0.031 A 
ATOM     43  C   UNL A   1      46.715  27.125  29.794  1.00  0.00     0.031 A 
ATOM     44  C   UNL A   1      40.995  29.805  29.170  1.00  0.00     0.049 A 
ATOM     45  C   UNL A   1      46.480  28.519  29.258  1.00  0.00     0.074 A 
ATOM     46  C   UNL A   1      41.431  30.173  30.433  1.00  0.00     0.029 A 
ATOM     47  N   UNL A   1      42.009  30.150  28.286  1.00  0.00    -0.354 N 
ATOM     48  N   UNL A   1      45.307  29.084  29.200  1.00  0.00    -0.248 NA
ATOM     49  C   UNL A   1      47.527  29.345  28.657  1.00  0.00     0.031 C 
ATOM     50  C   UNL A   1      42.743  30.692  30.312  1.00  0.00     0.029 A 
ATOM     51  C   UNL A   1      43.096  30.656  28.976  1.00  0.00     0.049 A 
ATOM     52  H   UNL A   1      41.962  30.047  27.308  1.00  0.00     0.167 HD
ATOM     53  C   UNL A   1      45.409  30.281  28.541  1.00  0.00     0.074 A 
ATOM     54  C   UNL A   1      46.822  30.413  28.243  1.00  0.00     0.031 C 
ATOM     55  C   UNL A   1      44.310  31.043  28.271  1.00  0.00     0.031 A 
BRANCH  42  56
ATOM     56  C   UNL A   1      38.432  29.337  28.946  1.00  0.00    -0.014 A 
ATOM     57  C   UNL A   1      37.662  29.827  27.874  1.00  0.00     0.009 A 
ATOM     58  C   UNL A   1      37.784  29.273  30.191  1.00  0.00     0.009 A 
ATOM     59  C   UNL A   1      36.371  30.335  28.058  1.00  0.00     0.001 A 
ATOM     60  C   UNL A   1      36.510  29.822  30.393  1.00  0.00     0.001 A 
ATOM     61  C   UNL A   1      35.808  30.367  29.327  1.00  0.00     0.000 A 
ENDBRANCH  42  56
BRANCH  43  62
ATOM     62  C   UNL A   1      47.532  26.096  29.099  1.00  0.00    -0.014 A 
ATOM     63  C   UNL A   1      47.248  25.829  27.746  1.00  0.00     0.009 A 
ATOM     64  C   UNL A   1      48.775  25.708  29.619  1.00  0.00     0.009 A 
ATOM     65  C   UNL A   1      48.230  25.301  26.904  1.00  0.00     0.001 A 
ATOM     66  C   UNL A   1      49.752  25.176  28.772  1.00  0.00     0.001 A 
ATOM     67  C   UNL A   1      49.494  25.010  27.410  1.00  0.00     0.000 A 
ENDBRANCH  43  62
BRANCH  55  68
ATOM     68  C   UNL A   1      44.278  32.264  27.388  1.00  0.00    -0.014 A 
ATOM     69  C   UNL A   1      44.334  32.227  25.988  1.00  0.00     0.009 A 
ATOM     70  C   UNL A   1      44.058  33.527  27.981  1.00  0.00     0.009 A 
ATOM     71  C   UNL A   1      44.232  33.397  25.223  1.00  0.00     0.001 A 
ATOM     72  C   UNL A   1      43.912  34.690  27.220  1.00  0.00     0.001 A 
ATOM     73  C   UNL A   1      44.014  34.626  25.838  1.00  0.00     0.000 A 
ENDBRANCH  55  68
ENDBRANCH  29  30
ENDBRANCH  21  24
ENDBRANCH  19  20
ENDBRANCH   1  19
TORSDOF 11
ENDMDL
MODEL 2
REMARK VINA RESULT:     -11.6      2.929      5.056
REMARK SMILES Cc1ccc(C(=O)NCCCNC(=O)c2ccc(-c3c4nc(c(-c5ccccc5)c5ccc([nH]5)c(-c5ccccc5)c5nc(c(-c6ccccc6)c6ccc3[nH]6)C=C5)C=C4)cc2)cc1N1CC(C)C1
REMARK SMILES IDX 10 1 9 2 8 3 6 4 7 5 5 7 1 8 2 9 3 10 64 11 4 12 63 13 65 14
REMARK SMILES IDX 66 15 69 16 67 17 68 18 11 19 12 20 13 21 14 23 15 24 16 25
REMARK SMILES IDX 62 26 17 27 61 28 18 29 19 30 20 31 55 32 21 33 60 34 54 35
REMARK SMILES IDX 56 36 22 37 59 38 53 39 52 40 23 42 45 43 30 44 44 45 31 46
REMARK SMILES IDX 34 47 43 48 57 49 32 50 33 51 42 53 58 54 35 55 24 56 25 57
REMARK SMILES IDX 29 58 26 59 28 60 27 61 46 62 47 63 51 64 48 65 50 66 49 67
REMARK SMILES IDX 36 68 37 69 41 70 38 71 40 72 39 73
REMARK H PARENT 8 6 12 22 56 41 34 52
REMARK Flexibility Score: inf
ROOT
ATOM      1  C   UNL A   1      38.734  21.606  25.888  1.00  0.00     0.042 C 
ENDROOT
BRANCH   1   2
ATOM      2  C   UNL A   1      37.432  21.573  25.081  1.00  0.00     0.118 C 
BRANCH   2   3
ATOM      3  N   UNL A   1      36.267  21.342  25.921  1.00  0.00    -0.352 N 
ATOM      4  C   UNL A   1      34.980  21.829  25.909  1.00  0.00     0.251 C 
ATOM      5  O   UNL A   1      34.201  21.336  26.728  1.00  0.00    -0.269 OA
ATOM      6  H   UNL A   1      36.435  20.703  26.651  1.00  0.00     0.163 HD
BRANCH   4   7
ATOM      7  C   UNL A   1      34.469  22.902  24.997  1.00  0.00     0.041 A 
ATOM      8  C   UNL A   1      32.881  25.746  22.121  1.00  0.00     0.046 C 
ATOM      9  C   UNL A   1      33.424  24.792  23.148  1.00  0.00    -0.028 A 
ATOM     10  C   UNL A   1      33.854  23.526  22.721  1.00  0.00     0.006 A 
ATOM     11  C   UNL A   1      33.522  25.119  24.508  1.00  0.00     0.040 A 
ATOM     12  C   UNL A   1      34.371  22.599  23.632  1.00  0.00     0.014 A 
ATOM     13  C   UNL A   1      34.035  24.163  25.401  1.00  0.00     0.040 A 
BRANCH  11  14
ATOM     14  N   UNL A   1      33.109  26.380  24.993  1.00  0.00    -0.371 N 
ATOM     15  C   UNL A   1      33.910  27.361  25.674  1.00  0.00     0.121 C 
ATOM     16  C   UNL A   1      31.966  26.581  25.843  1.00  0.00     0.121 C 
ATOM     17  C   UNL A   1      32.842  27.438  26.765  1.00  0.00     0.025 C 
ATOM     18  C   UNL A   1      32.343  28.827  27.107  1.00  0.00     0.011 C 
ENDBRANCH  11  14
ENDBRANCH   4   7
ENDBRANCH   2   3
ENDBRANCH   1   2
BRANCH   1  19
ATOM     19  C   UNL A   1      39.064  22.985  26.428  1.00  0.00     0.118 C 
BRANCH  19  20
ATOM     20  N   UNL A   1      40.496  23.240  26.573  1.00  0.00    -0.352 N 
ATOM     21  C   UNL A   1      41.126  24.438  26.881  1.00  0.00     0.251 C 
ATOM     22  H   UNL A   1      41.088  22.465  26.437  1.00  0.00     0.163 HD
ATOM     23  O   UNL A   1      42.332  24.511  26.983  1.00  0.00    -0.269 OA
BRANCH  21  24
ATOM     24  C   UNL A   1      40.263  25.600  27.206  1.00  0.00     0.039 A 
ATOM     25  C   UNL A   1      40.558  26.813  26.580  1.00  0.00     0.014 A 
ATOM     26  C   UNL A   1      39.401  25.544  28.299  1.00  0.00     0.014 A 
ATOM     27  C   UNL A   1      40.195  27.998  27.214  1.00  0.00     0.010 A 
ATOM     28  C   UNL A   1      39.116  26.716  28.973  1.00  0.00     0.010 A 
ATOM     29  C   UNL A   1      39.578  27.934  28.467  1.00  0.00    -0.014 A 
BRANCH  29  30
ATOM     30  C   UNL A   1      39.484  29.096  29.341  1.00  0.00     0.031 A 
ATOM     31  C   UNL A   1      38.469  30.129  29.076  1.00  0.00     0.074 A 
ATOM     32  C   UNL A   1      40.365  29.286  30.349  1.00  0.00     0.049 A 
ATOM     33  N   UNL A   1      38.683  31.398  29.188  1.00  0.00    -0.248 NA
ATOM     34  C   UNL A   1      37.133  29.792  28.605  1.00  0.00     0.031 C 
ATOM     35  C   UNL A   1      40.326  30.343  31.357  1.00  0.00     0.029 A 
ATOM     36  N   UNL A   1      41.617  28.699  30.518  1.00  0.00    -0.354 N 
ATOM     37  C   UNL A   1      37.458  32.017  29.099  1.00  0.00     0.074 A 
ATOM     38  C   UNL A   1      36.546  30.992  28.636  1.00  0.00     0.031 C 
ATOM     39  C   UNL A   1      41.575  30.546  31.808  1.00  0.00     0.029 A 
ATOM     40  C   UNL A   1      42.464  29.694  31.035  1.00  0.00     0.049 A 
ATOM     41  H   UNL A   1      41.862  27.767  30.316  1.00  0.00     0.167 HD
ATOM     42  C   UNL A   1      37.290  33.281  29.579  1.00  0.00     0.031 A 
ATOM     43  C   UNL A   1      43.633  30.077  30.450  1.00  0.00     0.031 A 
ATOM     44  C   UNL A   1      38.520  33.827  30.148  1.00  0.00     0.049 A 
ATOM     45  C   UNL A   1      43.674  31.550  30.111  1.00  0.00     0.074 A 
ATOM     46  C   UNL A   1      38.971  33.935  31.453  1.00  0.00     0.029 A 
ATOM     47  N   UNL A   1      39.611  34.093  29.330  1.00  0.00    -0.354 N 
ATOM     48  N   UNL A   1      42.626  32.324  30.119  1.00  0.00    -0.248 NA
ATOM     49  C   UNL A   1      44.874  32.241  29.640  1.00  0.00     0.031 C 
ATOM     50  C   UNL A   1      40.359  34.214  31.418  1.00  0.00     0.029 A 
ATOM     51  C   UNL A   1      40.746  34.293  30.093  1.00  0.00     0.049 A 
ATOM     52  H   UNL A   1      39.580  34.133  28.346  1.00  0.00     0.167 HD
ATOM     53  C   UNL A   1      42.967  33.559  29.634  1.00  0.00     0.074 A 
ATOM     54  C   UNL A   1      44.390  33.466  29.371  1.00  0.00     0.031 C 
ATOM     55  C   UNL A   1      42.034  34.540  29.461  1.00  0.00     0.031 A 
BRANCH  42  56
ATOM     56  C   UNL A   1      35.925  33.874  29.836  1.00  0.00    -0.014 A 
ATOM     57  C   UNL A   1      35.197  34.440  28.772  1.00  0.00     0.009 A 
ATOM     58  C   UNL A   1      35.324  33.954  31.104  1.00  0.00     0.009 A 
ATOM     59  C   UNL A   1      34.007  35.148  28.978  1.00  0.00     0.001 A 
ATOM     60  C   UNL A   1      34.159  34.701  31.326  1.00  0.00     0.001 A 
ATOM     61  C   UNL A   1      33.508  35.311  30.263  1.00  0.00     0.000 A 
ENDBRANCH  42  56
BRANCH  43  62
ATOM     62  C   UNL A   1      44.274  29.018  29.628  1.00  0.00    -0.014 A 
ATOM     63  C   UNL A   1      44.990  28.005  30.293  1.00  0.00     0.009 A 
ATOM     64  C   UNL A   1      43.854  28.795  28.309  1.00  0.00     0.009 A 
ATOM     65  C   UNL A   1      45.172  26.754  29.700  1.00  0.00     0.001 A 
ATOM     66  C   UNL A   1      44.043  27.541  27.717  1.00  0.00     0.001 A 
ATOM     67  C   UNL A   1      44.665  26.512  28.426  1.00  0.00     0.000 A 
ENDBRANCH  43  62
BRANCH  55  68
ATOM     68  C   UNL A   1      42.256  35.854  28.755  1.00  0.00    -0.014 A 
ATOM     69  C   UNL A   1      42.815  36.989  29.358  1.00  0.00     0.009 A 
ATOM     70  C   UNL A   1      42.003  35.931  27.368  1.00  0.00     0.009 A 
ATOM     71  C   UNL A   1      43.057  38.159  28.624  1.00  0.00     0.001 A 
ATOM     72  C   UNL A   1      42.282  37.081  26.624  1.00  0.00     0.001 A 
ATOM     73  C   UNL A   1      42.796  38.203  27.258  1.00  0.00     0.000 A 
ENDBRANCH  55  68
ENDBRANCH  29  30
ENDBRANCH  21  24
ENDBRANCH  19  20
ENDBRANCH   1  19
TORSDOF 11
ENDMDL
MODEL 3
REMARK VINA RESULT:     -11.5      3.425      8.298
REMARK SMILES Cc1ccc(C(=O)NCCCNC(=O)c2ccc(-c3c4nc(c(-c5ccccc5)c5ccc([nH]5)c(-c5ccccc5)c5nc(c(-c6ccccc6)c6ccc3[nH]6)C=C5)C=C4)cc2)cc1N1CC(C)C1
REMARK SMILES IDX 10 1 9 2 8 3 6 4 7 5 5 7 1 8 2 9 3 10 64 11 4 12 63 13 65 14
REMARK SMILES IDX 66 15 69 16 67 17 68 18 11 19 12 20 13 21 14 23 15 24 16 25
REMARK SMILES IDX 62 26 17 27 61 28 18 29 19 30 20 31 55 32 21 33 60 34 54 35
REMARK SMILES IDX 56 36 22 37 59 38 53 39 52 40 23 42 45 43 30 44 44 45 31 46
REMARK SMILES IDX 34 47 43 48 57 49 32 50 33 51 42 53 58 54 35 55 24 56 25 57
REMARK SMILES IDX 29 58 26 59 28 60 27 61 46 62 47 63 51 64 48 65 50 66 49 67
REMARK SMILES IDX 36 68 37 69 41 70 38 71 40 72 39 73
REMARK H PARENT 8 6 12 22 56 41 34 52
REMARK Flexibility Score: inf
ROOT
ATOM      1  C   UNL A   1      33.473  31.109  27.001  1.00  0.00     0.042 C 
ENDROOT
BRANCH   1   2
ATOM      2  C   UNL A   1      32.502  30.185  26.261  1.00  0.00     0.118 C 
BRANCH   2   3
ATOM      3  N   UNL A   1      32.995  29.804  24.946  1.00  0.00    -0.352 N 
ATOM      4  C   UNL A   1      33.160  28.594  24.310  1.00  0.00     0.251 C 
ATOM      5  O   UNL A   1      33.520  28.639  23.132  1.00  0.00    -0.269 OA
ATOM      6  H   UNL A   1      33.268  30.573  24.395  1.00  0.00     0.163 HD
BRANCH   4   7
ATOM      7  C   UNL A   1      32.947  27.251  24.939  1.00  0.00     0.041 A 
ATOM      8  C   UNL A   1      31.968  23.408  26.715  1.00  0.00     0.046 C 
ATOM      9  C   UNL A   1      32.347  24.720  26.089  1.00  0.00    -0.028 A 
ATOM     10  C   UNL A   1      31.414  25.769  26.122  1.00  0.00     0.006 A 
ATOM     11  C   UNL A   1      33.592  24.940  25.482  1.00  0.00     0.040 A 
ATOM     12  C   UNL A   1      31.713  27.014  25.559  1.00  0.00     0.014 A 
ATOM     13  C   UNL A   1      33.859  26.198  24.915  1.00  0.00     0.040 A 
BRANCH  11  14
ATOM     14  N   UNL A   1      34.571  23.922  25.425  1.00  0.00    -0.371 N 
ATOM     15  C   UNL A   1      35.974  24.042  25.712  1.00  0.00     0.121 C 
ATOM     16  C   UNL A   1      34.776  23.066  24.288  1.00  0.00     0.121 C 
ATOM     17  C   UNL A   1      36.279  23.360  24.378  1.00  0.00     0.025 C 
ATOM     18  C   UNL A   1      37.219  22.174  24.439  1.00  0.00     0.011 C 
ENDBRANCH  11  14
ENDBRANCH   4   7
ENDBRANCH   2   3
ENDBRANCH   1   2
BRANCH   1  19
ATOM     19  C   UNL A   1      34.372  30.370  27.975  1.00  0.00     0.118 C 
BRANCH  19  20
ATOM     20  N   UNL A   1      35.103  31.244  28.891  1.00  0.00    -0.352 N 
ATOM     21  C   UNL A   1      36.330  31.014  29.497  1.00  0.00     0.251 C 
ATOM     22  H   UNL A   1      34.671  32.102  29.103  1.00  0.00     0.163 HD
ATOM     23  O   UNL A   1      36.834  31.834  30.235  1.00  0.00    -0.269 OA
BRANCH  21  24
ATOM     24  C   UNL A   1      37.063  29.784  29.112  1.00  0.00     0.039 A 
ATOM     25  C   UNL A   1      37.448  28.918  30.138  1.00  0.00     0.014 A 
ATOM     26  C   UNL A   1      37.592  29.661  27.829  1.00  0.00     0.014 A 
ATOM     27  C   UNL A   1      38.556  28.099  29.941  1.00  0.00     0.010 A 
ATOM     28  C   UNL A   1      38.743  28.914  27.661  1.00  0.00     0.010 A 
ATOM     29  C   UNL A   1      39.264  28.195  28.740  1.00  0.00    -0.014 A 
BRANCH  29  30
ATOM     30  C   UNL A   1      40.606  27.647  28.588  1.00  0.00     0.031 A 
ATOM     31  C   UNL A   1      40.782  26.222  28.264  1.00  0.00     0.074 A 
ATOM     32  C   UNL A   1      41.701  28.407  28.818  1.00  0.00     0.049 A 
ATOM     33  N   UNL A   1      41.690  25.468  28.788  1.00  0.00    -0.248 NA
ATOM     34  C   UNL A   1      39.890  25.526  27.348  1.00  0.00     0.031 C 
ATOM     35  C   UNL A   1      43.094  28.020  28.606  1.00  0.00     0.029 A 
ATOM     36  N   UNL A   1      41.783  29.605  29.525  1.00  0.00    -0.354 N 
ATOM     37  C   UNL A   1      41.695  24.294  28.073  1.00  0.00     0.074 A 
ATOM     38  C   UNL A   1      40.496  24.338  27.261  1.00  0.00     0.031 C 
ATOM     39  C   UNL A   1      43.867  28.757  29.421  1.00  0.00     0.029 A 
ATOM     40  C   UNL A   1      42.988  29.568  30.246  1.00  0.00     0.049 A 
ATOM     41  H   UNL A   1      41.125  30.338  29.519  1.00  0.00     0.167 HD
ATOM     42  C   UNL A   1      42.783  23.475  28.103  1.00  0.00     0.031 A 
ATOM     43  C   UNL A   1      43.069  29.717  31.598  1.00  0.00     0.031 A 
ATOM     44  C   UNL A   1      43.849  23.999  28.953  1.00  0.00     0.049 A 
ATOM     45  C   UNL A   1      43.718  28.538  32.289  1.00  0.00     0.074 A 
ATOM     46  C   UNL A   1      45.012  24.694  28.662  1.00  0.00     0.029 A 
ATOM     47  N   UNL A   1      43.664  24.096  30.326  1.00  0.00    -0.354 N 
ATOM     48  N   UNL A   1      43.935  27.390  31.711  1.00  0.00    -0.248 NA
ATOM     49  C   UNL A   1      44.081  28.527  33.706  1.00  0.00     0.031 C 
ATOM     50  C   UNL A   1      45.500  25.260  29.864  1.00  0.00     0.029 A 
ATOM     51  C   UNL A   1      44.644  24.895  30.887  1.00  0.00     0.049 A 
ATOM     52  H   UNL A   1      42.939  23.659  30.828  1.00  0.00     0.167 HD
ATOM     53  C   UNL A   1      44.403  26.495  32.637  1.00  0.00     0.074 A 
ATOM     54  C   UNL A   1      44.501  27.260  33.865  1.00  0.00     0.031 C 
ATOM     55  C   UNL A   1      44.637  25.191  32.313  1.00  0.00     0.031 A 
BRANCH  42  56
ATOM     56  C   UNL A   1      42.998  22.378  27.087  1.00  0.00    -0.014 A 
ATOM     57  C   UNL A   1      42.207  21.215  27.136  1.00  0.00     0.009 A 
ATOM     58  C   UNL A   1      43.992  22.405  26.094  1.00  0.00     0.009 A 
ATOM     59  C   UNL A   1      42.471  20.101  26.330  1.00  0.00     0.001 A 
ATOM     60  C   UNL A   1      44.294  21.278  25.316  1.00  0.00     0.001 A 
ATOM     61  C   UNL A   1      43.540  20.120  25.445  1.00  0.00     0.000 A 
ENDBRANCH  42  56
BRANCH  43  62
ATOM     62  C   UNL A   1      41.964  30.518  32.186  1.00  0.00    -0.014 A 
ATOM     63  C   UNL A   1      42.139  31.911  32.290  1.00  0.00     0.009 A 
ATOM     64  C   UNL A   1      40.666  29.992  32.255  1.00  0.00     0.009 A 
ATOM     65  C   UNL A   1      41.035  32.765  32.333  1.00  0.00     0.001 A 
ATOM     66  C   UNL A   1      39.564  30.852  32.303  1.00  0.00     0.001 A 
ATOM     67  C   UNL A   1      39.748  32.236  32.302  1.00  0.00     0.000 A 
ENDBRANCH  43  62
BRANCH  55  68
ATOM     68  C   UNL A   1      44.957  24.084  33.285  1.00  0.00    -0.014 A 
ATOM     69  C   UNL A   1      46.189  23.940  33.939  1.00  0.00     0.009 A 
ATOM     70  C   UNL A   1      43.928  23.195  33.667  1.00  0.00     0.009 A 
ATOM     71  C   UNL A   1      46.398  22.926  34.884  1.00  0.00     0.001 A 
ATOM     72  C   UNL A   1      44.119  22.211  34.640  1.00  0.00     0.001 A 
ATOM     73  C   UNL A   1      45.362  22.067  35.239  1.00  0.00     0.000 A 
ENDBRANCH  55  68
ENDBRANCH  29  30
ENDBRANCH  21  24
ENDBRANCH  19  20
ENDBRANCH   1  19
TORSDOF 11
ENDMDL
