MODEL 1
REMARK VINA RESULT:     -12.3      0.000      0.000
REMARK SMILES O=C1NC(=O)/C(=C/c2ccc(OCc3cn(-c4ccc(C(=O)NCCCNC(=O)c5ccc(-c6c7nc(c(-c8ccccc8)c8ccc([nH]8)c(-c8ccccc8)c8nc(c(-c9ccccc9)c9ccc6[nH]9)C=C8)C=C7)cc5)cc4)nn3)cc2)S1
REMARK SMILES IDX 21 1 22 2 23 3 20 5 17 6 18 7 79 8 19 9 78 10 16 11 14 12
REMARK SMILES IDX 15 13 81 14 80 15 13 16 12 17 11 18 8 19 9 20 83 21 10 22
REMARK SMILES IDX 82 23 7 24 1 25 2 26 3 27 84 28 4 29 6 31 5 32 24 33 25 34
REMARK SMILES IDX 26 35 27 36 28 37 29 39 30 40 31 41 77 42 32 43 76 44 33 45
REMARK SMILES IDX 34 46 35 47 70 48 36 49 75 50 69 51 71 52 37 53 74 54 68 55
REMARK SMILES IDX 67 56 38 58 60 59 45 60 59 61 46 62 49 63 58 64 72 65 47 66
REMARK SMILES IDX 48 67 57 69 73 70 50 71 39 72 40 73 44 74 41 75 43 76 42 77
REMARK SMILES IDX 61 78 62 79 66 80 63 81 65 82 64 83 51 84 52 85 56 86 53 87
REMARK SMILES IDX 55 88 54 89
REMARK H PARENT 23 4 3 30 27 38 71 57 49 68
REMARK Flexibility Score: inf
ROOT
ATOM      1  C   UNL A   1      47.584  25.941  24.967  1.00  0.00     0.251 C 
ATOM      2  O   UNL A   1      47.911  26.452  23.896  1.00  0.00    -0.269 OA
ATOM      3  N   UNL A   1      48.323  26.257  26.082  1.00  0.00    -0.352 N 
ATOM      4  H   UNL A   1      49.089  26.850  25.904  1.00  0.00     0.163 HD
ENDROOT
BRANCH   1   5
ATOM      5  C   UNL A   1      46.381  25.063  25.023  1.00  0.00     0.039 A 
ATOM      6  C   UNL A   1      44.103  23.479  25.376  1.00  0.00     0.066 A 
ATOM      7  C   UNL A   1      44.001  24.872  25.472  1.00  0.00     0.029 A 
ATOM      8  C   UNL A   1      45.308  22.881  25.028  1.00  0.00     0.029 A 
ATOM      9  C   UNL A   1      45.148  25.657  25.328  1.00  0.00     0.016 A 
ATOM     10  C   UNL A   1      46.415  23.686  24.792  1.00  0.00     0.016 A 
BRANCH   6  11
ATOM     11  N   UNL A   1      42.981  22.668  25.604  1.00  0.00    -0.220 N 
ATOM     12  C   UNL A   1      41.034  21.869  26.156  1.00  0.00     0.120 A 
ATOM     13  C   UNL A   1      41.732  23.050  26.040  1.00  0.00     0.144 A 
ATOM     14  N   UNL A   1      41.851  20.843  25.754  1.00  0.00    -0.131 NA
ATOM     15  N   UNL A   1      43.014  21.343  25.384  1.00  0.00    -0.062 NA
BRANCH  12  16
ATOM     16  C   UNL A   1      39.605  21.611  26.507  1.00  0.00     0.289 C 
BRANCH  16  17
ATOM     17  O   UNL A   1      38.775  21.129  25.436  1.00  0.00    -0.487 OA
BRANCH  17  18
ATOM     18  C   UNL A   1      37.524  21.660  25.289  1.00  0.00     0.119 A 
ATOM     19  C   UNL A   1      34.944  22.541  24.603  1.00  0.00    -0.024 A 
ATOM     20  C   UNL A   1      35.224  21.174  24.670  1.00  0.00     0.012 A 
ATOM     21  C   UNL A   1      35.930  23.455  24.980  1.00  0.00     0.012 A 
ATOM     22  C   UNL A   1      36.513  20.740  25.003  1.00  0.00     0.047 A 
ATOM     23  C   UNL A   1      37.197  23.012  25.359  1.00  0.00     0.047 A 
BRANCH  19  24
ATOM     24  C   UNL A   1      33.630  23.022  24.172  1.00  0.00     0.029 C 
ATOM     25  O   UNL A   1      29.955  23.067  27.624  1.00  0.00    -0.261 OA
ATOM     26  C   UNL A   1      30.679  23.133  26.634  1.00  0.00     0.290 C 
ATOM     27  N   UNL A   1      30.282  23.488  25.391  1.00  0.00    -0.282 N 
ATOM     28  S   UNL A   1      32.392  22.780  26.637  1.00  0.00    -0.022 SA
ATOM     29  C   UNL A   1      31.221  23.520  24.401  1.00  0.00     0.265 C 
ATOM     30  H   UNL A   1      29.343  23.716  25.204  1.00  0.00     0.174 HD
ATOM     31  C   UNL A   1      32.541  23.112  24.950  1.00  0.00     0.083 C 
ATOM     32  O   UNL A   1      30.999  23.823  23.243  1.00  0.00    -0.268 OA
ENDBRANCH  19  24
ENDBRANCH  17  18
ENDBRANCH  16  17
ENDBRANCH  12  16
ENDBRANCH   6  11
ENDBRANCH   1   5
BRANCH   3  33
ATOM     33  C   UNL A   1      48.178  25.876  27.481  1.00  0.00     0.118 C 
BRANCH  33  34
ATOM     34  C   UNL A   1      47.163  26.771  28.212  1.00  0.00     0.042 C 
BRANCH  34  35
ATOM     35  C   UNL A   1      47.266  26.621  29.712  1.00  0.00     0.118 C 
BRANCH  35  36
ATOM     36  N   UNL A   1      46.511  25.464  30.219  1.00  0.00    -0.352 N 
ATOM     37  C   UNL A   1      45.209  25.421  30.699  1.00  0.00     0.251 C 
ATOM     38  H   UNL A   1      46.993  24.606  30.218  1.00  0.00     0.163 HD
ATOM     39  O   UNL A   1      44.815  24.492  31.391  1.00  0.00    -0.269 OA
BRANCH  37  40
ATOM     40  C   UNL A   1      44.305  26.520  30.330  1.00  0.00     0.039 A 
ATOM     41  C   UNL A   1      43.441  26.505  29.233  1.00  0.00     0.014 A 
ATOM     42  C   UNL A   1      44.275  27.568  31.227  1.00  0.00     0.014 A 
ATOM     43  C   UNL A   1      42.555  27.572  29.092  1.00  0.00     0.010 A 
ATOM     44  C   UNL A   1      43.120  28.263  31.333  1.00  0.00     0.010 A 
ATOM     45  C   UNL A   1      42.429  28.465  30.164  1.00  0.00    -0.014 A 
BRANCH  45  46
ATOM     46  C   UNL A   1      41.569  29.629  30.187  1.00  0.00     0.031 A 
ATOM     47  C   UNL A   1      42.263  30.885  29.849  1.00  0.00     0.074 A 
ATOM     48  C   UNL A   1      40.218  29.519  30.204  1.00  0.00     0.049 A 
ATOM     49  N   UNL A   1      42.575  31.836  30.658  1.00  0.00    -0.248 NA
ATOM     50  C   UNL A   1      42.832  31.026  28.498  1.00  0.00     0.031 C 
ATOM     51  C   UNL A   1      39.366  28.317  30.156  1.00  0.00     0.029 A 
ATOM     52  N   UNL A   1      39.300  30.510  30.139  1.00  0.00    -0.354 N 
ATOM     53  C   UNL A   1      43.186  32.805  29.876  1.00  0.00     0.074 A 
ATOM     54  C   UNL A   1      43.512  32.167  28.625  1.00  0.00     0.031 C 
ATOM     55  C   UNL A   1      38.104  28.664  29.811  1.00  0.00     0.029 A 
ATOM     56  C   UNL A   1      38.018  30.112  29.784  1.00  0.00     0.049 A 
ATOM     57  H   UNL A   1      39.526  31.449  30.329  1.00  0.00     0.167 HD
ATOM     58  C   UNL A   1      43.118  34.122  30.212  1.00  0.00     0.031 A 
ATOM     59  C   UNL A   1      36.991  30.935  29.448  1.00  0.00     0.031 A 
ATOM     60  C   UNL A   1      42.602  34.301  31.549  1.00  0.00     0.049 A 
ATOM     61  C   UNL A   1      37.336  32.283  29.976  1.00  0.00     0.074 A 
ATOM     62  C   UNL A   1      42.987  33.862  32.800  1.00  0.00     0.029 A 
ATOM     63  N   UNL A   1      41.270  34.635  31.664  1.00  0.00    -0.354 N 
ATOM     64  N   UNL A   1      37.433  32.540  31.251  1.00  0.00    -0.248 NA
ATOM     65  C   UNL A   1      38.085  33.177  29.101  1.00  0.00     0.031 C 
ATOM     66  C   UNL A   1      41.771  33.456  33.429  1.00  0.00     0.029 A 
ATOM     67  C   UNL A   1      40.714  33.767  32.572  1.00  0.00     0.049 A 
ATOM     68  H   UNL A   1      40.805  35.358  31.185  1.00  0.00     0.167 HD
ATOM     69  C   UNL A   1      38.576  33.320  31.373  1.00  0.00     0.074 A 
ATOM     70  C   UNL A   1      38.892  33.744  30.005  1.00  0.00     0.031 C 
ATOM     71  C   UNL A   1      39.347  33.294  32.502  1.00  0.00     0.031 A 
BRANCH  58  72
ATOM     72  C   UNL A   1      43.098  35.237  29.204  1.00  0.00    -0.014 A 
ATOM     73  C   UNL A   1      42.050  35.274  28.268  1.00  0.00     0.009 A 
ATOM     74  C   UNL A   1      44.201  36.077  28.958  1.00  0.00     0.009 A 
ATOM     75  C   UNL A   1      42.139  36.055  27.111  1.00  0.00     0.001 A 
ATOM     76  C   UNL A   1      44.275  36.889  27.825  1.00  0.00     0.001 A 
ATOM     77  C   UNL A   1      43.255  36.855  26.886  1.00  0.00     0.000 A 
ENDBRANCH  58  72
BRANCH  59  78
ATOM     78  C   UNL A   1      35.946  30.715  28.419  1.00  0.00    -0.014 A 
ATOM     79  C   UNL A   1      35.898  29.530  27.666  1.00  0.00     0.009 A 
ATOM     80  C   UNL A   1      34.822  31.563  28.360  1.00  0.00     0.009 A 
ATOM     81  C   UNL A   1      34.760  29.195  26.914  1.00  0.00     0.001 A 
ATOM     82  C   UNL A   1      33.688  31.229  27.612  1.00  0.00     0.001 A 
ATOM     83  C   UNL A   1      33.650  30.037  26.899  1.00  0.00     0.000 A 
ENDBRANCH  59  78
BRANCH  71  84
ATOM     84  C   UNL A   1      38.852  32.505  33.694  1.00  0.00    -0.014 A 
ATOM     85  C   UNL A   1      39.034  31.115  33.834  1.00  0.00     0.009 A 
ATOM     86  C   UNL A   1      38.348  33.214  34.794  1.00  0.00     0.009 A 
ATOM     87  C   UNL A   1      38.698  30.458  35.025  1.00  0.00     0.001 A 
ATOM     88  C   UNL A   1      38.029  32.562  35.988  1.00  0.00     0.001 A 
ATOM     89  C   UNL A   1      38.199  31.184  36.103  1.00  0.00     0.000 A 
ENDBRANCH  71  84
ENDBRANCH  45  46
ENDBRANCH  37  40
ENDBRANCH  35  36
ENDBRANCH  34  35
ENDBRANCH  33  34
ENDBRANCH   3  33
TORSDOF 15
ENDMDL
MODEL 2
REMARK VINA RESULT:     -12.1      3.212      9.915
REMARK SMILES O=C1NC(=O)/C(=C/c2ccc(OCc3cn(-c4ccc(C(=O)NCCCNC(=O)c5ccc(-c6c7nc(c(-c8ccccc8)c8ccc([nH]8)c(-c8ccccc8)c8nc(c(-c9ccccc9)c9ccc6[nH]9)C=C8)C=C7)cc5)cc4)nn3)cc2)S1
REMARK SMILES IDX 21 1 22 2 23 3 20 5 17 6 18 7 79 8 19 9 78 10 16 11 14 12
REMARK SMILES IDX 15 13 81 14 80 15 13 16 12 17 11 18 8 19 9 20 83 21 10 22
REMARK SMILES IDX 82 23 7 24 1 25 2 26 3 27 84 28 4 29 6 31 5 32 24 33 25 34
REMARK SMILES IDX 26 35 27 36 28 37 29 39 30 40 31 41 77 42 32 43 76 44 33 45
REMARK SMILES IDX 34 46 35 47 70 48 36 49 75 50 69 51 71 52 37 53 74 54 68 55
REMARK SMILES IDX 67 56 38 58 60 59 45 60 59 61 46 62 49 63 58 64 72 65 47 66
REMARK SMILES IDX 48 67 57 69 73 70 50 71 39 72 40 73 44 74 41 75 43 76 42 77
REMARK SMILES IDX 61 78 62 79 66 80 63 81 65 82 64 83 51 84 52 85 56 86 53 87
REMARK SMILES IDX 55 88 54 89
REMARK H PARENT 23 4 3 30 27 38 71 57 49 68
REMARK Flexibility Score: inf
ROOT
ATOM      1  C   UNL A   1      38.742  30.850  35.548  1.00  0.00     0.251 C 
ATOM      2  O   UNL A   1      38.214  30.365  36.548  1.00  0.00    -0.269 OA
ATOM      3  N   UNL A   1      40.042  31.286  35.655  1.00  0.00    -0.352 N 
ATOM      4  H   UNL A   1      40.422  31.199  36.560  1.00  0.00     0.163 HD
ENDROOT
BRANCH   1   5
ATOM      5  C   UNL A   1      37.986  30.889  34.264  1.00  0.00     0.039 A 
ATOM      6  C   UNL A   1      36.793  30.932  31.735  1.00  0.00     0.066 A 
ATOM      7  C   UNL A   1      37.396  29.756  32.197  1.00  0.00     0.029 A 
ATOM      8  C   UNL A   1      36.711  32.052  32.553  1.00  0.00     0.029 A 
ATOM      9  C   UNL A   1      38.020  29.749  33.448  1.00  0.00     0.016 A 
ATOM     10  C   UNL A   1      37.251  31.994  33.830  1.00  0.00     0.016 A 
BRANCH   6  11
ATOM     11  N   UNL A   1      36.238  30.986  30.447  1.00  0.00    -0.220 N 
ATOM     12  C   UNL A   1      35.022  31.398  28.690  1.00  0.00     0.120 A 
ATOM     13  C   UNL A   1      35.214  31.787  29.997  1.00  0.00     0.144 A 
ATOM     14  N   UNL A   1      35.944  30.429  28.390  1.00  0.00    -0.131 NA
ATOM     15  N   UNL A   1      36.701  30.215  29.449  1.00  0.00    -0.062 NA
BRANCH  12  16
ATOM     16  C   UNL A   1      34.113  31.938  27.635  1.00  0.00     0.289 C 
BRANCH  16  17
ATOM     17  O   UNL A   1      32.794  31.367  27.594  1.00  0.00    -0.487 OA
BRANCH  17  18
ATOM     18  C   UNL A   1      32.609  30.195  26.915  1.00  0.00     0.119 A 
ATOM     19  C   UNL A   1      31.808  27.893  25.514  1.00  0.00    -0.024 A 
ATOM     20  C   UNL A   1      31.519  29.162  25.005  1.00  0.00     0.012 A 
ATOM     21  C   UNL A   1      32.585  27.787  26.669  1.00  0.00     0.012 A 
ATOM     22  C   UNL A   1      31.912  30.306  25.710  1.00  0.00     0.047 A 
ATOM     23  C   UNL A   1      33.016  28.933  27.340  1.00  0.00     0.047 A 
BRANCH  19  24
ATOM     24  C   UNL A   1      31.331  26.683  24.842  1.00  0.00     0.029 C 
ATOM     25  O   UNL A   1      33.218  25.703  20.269  1.00  0.00    -0.261 OA
ATOM     26  C   UNL A   1      32.626  25.745  21.345  1.00  0.00     0.290 C 
ATOM     27  N   UNL A   1      31.664  24.885  21.749  1.00  0.00    -0.282 N 
ATOM     28  S   UNL A   1      32.919  26.941  22.588  1.00  0.00    -0.022 SA
ATOM     29  C   UNL A   1      31.114  25.069  22.984  1.00  0.00     0.265 C 
ATOM     30  H   UNL A   1      31.367  24.147  21.168  1.00  0.00     0.174 HD
ATOM     31  C   UNL A   1      31.725  26.260  23.632  1.00  0.00     0.083 C 
ATOM     32  O   UNL A   1      30.244  24.369  23.469  1.00  0.00    -0.268 OA
ENDBRANCH  19  24
ENDBRANCH  17  18
ENDBRANCH  16  17
ENDBRANCH  12  16
ENDBRANCH   6  11
ENDBRANCH   1   5
BRANCH   3  33
ATOM     33  C   UNL A   1      40.959  31.851  34.674  1.00  0.00     0.118 C 
BRANCH  33  34
ATOM     34  C   UNL A   1      40.634  33.324  34.375  1.00  0.00     0.042 C 
BRANCH  34  35
ATOM     35  C   UNL A   1      41.205  33.762  33.046  1.00  0.00     0.118 C 
BRANCH  35  36
ATOM     36  N   UNL A   1      40.161  34.096  32.064  1.00  0.00    -0.352 N 
ATOM     37  C   UNL A   1      40.042  33.676  30.746  1.00  0.00     0.251 C 
ATOM     38  H   UNL A   1      39.451  34.699  32.384  1.00  0.00     0.163 HD
ATOM     39  O   UNL A   1      39.336  34.275  29.947  1.00  0.00    -0.269 OA
BRANCH  37  40
ATOM     40  C   UNL A   1      40.779  32.470  30.342  1.00  0.00     0.039 A 
ATOM     41  C   UNL A   1      42.150  32.427  30.078  1.00  0.00     0.014 A 
ATOM     42  C   UNL A   1      40.032  31.309  30.344  1.00  0.00     0.014 A 
ATOM     43  C   UNL A   1      42.723  31.181  29.830  1.00  0.00     0.010 A 
ATOM     44  C   UNL A   1      40.682  30.153  30.605  1.00  0.00     0.010 A 
ATOM     45  C   UNL A   1      41.947  30.042  30.083  1.00  0.00    -0.014 A 
BRANCH  45  46
ATOM     46  C   UNL A   1      42.375  28.674  29.874  1.00  0.00     0.031 A 
ATOM     47  C   UNL A   1      42.983  28.056  31.066  1.00  0.00     0.074 A 
ATOM     48  C   UNL A   1      41.968  27.955  28.801  1.00  0.00     0.049 A 
ATOM     49  N   UNL A   1      44.230  27.791  31.248  1.00  0.00    -0.248 NA
ATOM     50  C   UNL A   1      42.143  27.872  32.261  1.00  0.00     0.031 C 
ATOM     51  C   UNL A   1      41.042  28.319  27.713  1.00  0.00     0.029 A 
ATOM     52  N   UNL A   1      42.216  26.652  28.528  1.00  0.00    -0.354 N 
ATOM     53  C   UNL A   1      44.305  27.197  32.500  1.00  0.00     0.074 A 
ATOM     54  C   UNL A   1      43.052  27.474  33.154  1.00  0.00     0.031 C 
ATOM     55  C   UNL A   1      40.623  27.200  27.076  1.00  0.00     0.029 A 
ATOM     56  C   UNL A   1      41.374  26.070  27.590  1.00  0.00     0.049 A 
ATOM     57  H   UNL A   1      42.943  26.153  28.965  1.00  0.00     0.167 HD
ATOM     58  C   UNL A   1      45.277  26.288  32.785  1.00  0.00     0.031 A 
ATOM     59  C   UNL A   1      41.286  24.744  27.310  1.00  0.00     0.031 A 
ATOM     60  C   UNL A   1      46.296  26.263  31.762  1.00  0.00     0.049 A 
ATOM     61  C   UNL A   1      42.536  24.117  27.820  1.00  0.00     0.074 A 
ATOM     62  C   UNL A   1      47.149  27.207  31.225  1.00  0.00     0.029 A 
ATOM     63  N   UNL A   1      46.215  25.256  30.825  1.00  0.00    -0.354 N 
ATOM     64  N   UNL A   1      43.713  24.383  27.323  1.00  0.00    -0.248 NA
ATOM     65  C   UNL A   1      42.535  23.633  29.195  1.00  0.00     0.031 C 
ATOM     66  C   UNL A   1      47.100  26.976  29.816  1.00  0.00     0.029 A 
ATOM     67  C   UNL A   1      46.309  25.847  29.589  1.00  0.00     0.049 A 
ATOM     68  H   UNL A   1      46.109  24.295  31.007  1.00  0.00     0.167 HD
ATOM     69  C   UNL A   1      44.543  24.528  28.428  1.00  0.00     0.074 A 
ATOM     70  C   UNL A   1      43.777  23.978  29.551  1.00  0.00     0.031 C 
ATOM     71  C   UNL A   1      45.629  25.359  28.408  1.00  0.00     0.031 A 
BRANCH  58  72
ATOM     72  C   UNL A   1      45.086  25.138  33.734  1.00  0.00    -0.014 A 
ATOM     73  C   UNL A   1      44.322  24.038  33.308  1.00  0.00     0.009 A 
ATOM     74  C   UNL A   1      45.382  25.213  35.109  1.00  0.00     0.009 A 
ATOM     75  C   UNL A   1      43.819  23.107  34.223  1.00  0.00     0.001 A 
ATOM     76  C   UNL A   1      44.916  24.263  36.019  1.00  0.00     0.001 A 
ATOM     77  C   UNL A   1      44.109  23.225  35.579  1.00  0.00     0.000 A 
ENDBRANCH  58  72
BRANCH  59  78
ATOM     78  C   UNL A   1      40.071  23.962  26.975  1.00  0.00    -0.014 A 
ATOM     79  C   UNL A   1      38.846  24.593  26.702  1.00  0.00     0.009 A 
ATOM     80  C   UNL A   1      40.177  22.593  26.658  1.00  0.00     0.009 A 
ATOM     81  C   UNL A   1      37.787  23.890  26.105  1.00  0.00     0.001 A 
ATOM     82  C   UNL A   1      39.121  21.893  26.062  1.00  0.00     0.001 A 
ATOM     83  C   UNL A   1      37.929  22.545  25.772  1.00  0.00     0.000 A 
ENDBRANCH  59  78
BRANCH  71  84
ATOM     84  C   UNL A   1      46.008  26.017  27.099  1.00  0.00    -0.014 A 
ATOM     85  C   UNL A   1      46.967  25.487  26.214  1.00  0.00     0.009 A 
ATOM     86  C   UNL A   1      45.243  27.107  26.661  1.00  0.00     0.009 A 
ATOM     87  C   UNL A   1      47.168  26.048  24.945  1.00  0.00     0.001 A 
ATOM     88  C   UNL A   1      45.431  27.655  25.389  1.00  0.00     0.001 A 
ATOM     89  C   UNL A   1      46.396  27.129  24.533  1.00  0.00     0.000 A 
ENDBRANCH  71  84
ENDBRANCH  45  46
ENDBRANCH  37  40
ENDBRANCH  35  36
ENDBRANCH  34  35
ENDBRANCH  33  34
ENDBRANCH   3  33
TORSDOF 15
ENDMDL
MODEL 3
REMARK VINA RESULT:     -12.0      3.462     10.000
REMARK SMILES O=C1NC(=O)/C(=C/c2ccc(OCc3cn(-c4ccc(C(=O)NCCCNC(=O)c5ccc(-c6c7nc(c(-c8ccccc8)c8ccc([nH]8)c(-c8ccccc8)c8nc(c(-c9ccccc9)c9ccc6[nH]9)C=C8)C=C7)cc5)cc4)nn3)cc2)S1
REMARK SMILES IDX 21 1 22 2 23 3 20 5 17 6 18 7 79 8 19 9 78 10 16 11 14 12
REMARK SMILES IDX 15 13 81 14 80 15 13 16 12 17 11 18 8 19 9 20 83 21 10 22
REMARK SMILES IDX 82 23 7 24 1 25 2 26 3 27 84 28 4 29 6 31 5 32 24 33 25 34
REMARK SMILES IDX 26 35 27 36 28 37 29 39 30 40 31 41 77 42 32 43 76 44 33 45
REMARK SMILES IDX 34 46 35 47 70 48 36 49 75 50 69 51 71 52 37 53 74 54 68 55
REMARK SMILES IDX 67 56 38 58 60 59 45 60 59 61 46 62 49 63 58 64 72 65 47 66
REMARK SMILES IDX 48 67 57 69 73 70 50 71 39 72 40 73 44 74 41 75 43 76 42 77
REMARK SMILES IDX 61 78 62 79 66 80 63 81 65 82 64 83 51 84 52 85 56 86 53 87
REMARK SMILES IDX 55 88 54 89
REMARK H PARENT 23 4 3 30 27 38 71 57 49 68
REMARK Flexibility Score: inf
ROOT
ATOM      1  C   UNL A   1      34.125  34.875  29.066  1.00  0.00     0.251 C 
ATOM      2  O   UNL A   1      34.093  35.922  28.420  1.00  0.00    -0.269 OA
ATOM      3  N   UNL A   1      34.350  34.962  30.419  1.00  0.00    -0.352 N 
ATOM      4  H   UNL A   1      34.506  35.879  30.743  1.00  0.00     0.163 HD
ENDROOT
BRANCH   1   5
ATOM      5  C   UNL A   1      33.862  33.579  28.378  1.00  0.00     0.039 A 
ATOM      6  C   UNL A   1      33.175  31.112  27.253  1.00  0.00     0.066 A 
ATOM      7  C   UNL A   1      32.289  32.191  27.153  1.00  0.00     0.029 A 
ATOM      8  C   UNL A   1      34.426  31.278  27.835  1.00  0.00     0.029 A 
ATOM      9  C   UNL A   1      32.622  33.412  27.746  1.00  0.00     0.016 A 
ATOM     10  C   UNL A   1      34.778  32.526  28.331  1.00  0.00     0.016 A 
BRANCH   6  11
ATOM     11  N   UNL A   1      32.822  29.854  26.742  1.00  0.00    -0.220 N 
ATOM     12  C   UNL A   1      31.854  28.177  25.750  1.00  0.00     0.120 A 
ATOM     13  C   UNL A   1      31.800  29.547  25.874  1.00  0.00     0.144 A 
ATOM     14  N   UNL A   1      32.909  27.718  26.496  1.00  0.00    -0.131 NA
ATOM     15  N   UNL A   1      33.513  28.746  27.061  1.00  0.00    -0.062 NA
BRANCH  12  16
ATOM     16  C   UNL A   1      31.066  27.242  24.892  1.00  0.00     0.289 C 
BRANCH  16  17
ATOM     17  O   UNL A   1      30.332  26.220  25.589  1.00  0.00    -0.487 OA
BRANCH  17  18
ATOM     18  C   UNL A   1      30.645  24.912  25.348  1.00  0.00     0.119 A 
ATOM     19  C   UNL A   1      31.578  22.265  25.177  1.00  0.00    -0.024 A 
ATOM     20  C   UNL A   1      31.060  22.751  26.381  1.00  0.00     0.012 A 
ATOM     21  C   UNL A   1      31.531  23.077  24.042  1.00  0.00     0.012 A 
ATOM     22  C   UNL A   1      30.604  24.073  26.464  1.00  0.00     0.047 A 
ATOM     23  C   UNL A   1      31.029  24.376  24.121  1.00  0.00     0.047 A 
BRANCH  19  24
ATOM     24  C   UNL A   1      32.142  20.917  25.087  1.00  0.00     0.029 C 
ATOM     25  O   UNL A   1      37.169  20.531  25.007  1.00  0.00    -0.261 OA
ATOM     26  C   UNL A   1      35.949  20.387  25.001  1.00  0.00     0.290 C 
ATOM     27  N   UNL A   1      35.296  19.213  24.841  1.00  0.00    -0.282 N 
ATOM     28  S   UNL A   1      34.799  21.689  25.206  1.00  0.00    -0.022 SA
ATOM     29  C   UNL A   1      33.932  19.228  24.870  1.00  0.00     0.265 C 
ATOM     30  H   UNL A   1      35.790  18.372  24.707  1.00  0.00     0.174 HD
ATOM     31  C   UNL A   1      33.450  20.621  25.062  1.00  0.00     0.083 C 
ATOM     32  O   UNL A   1      33.223  18.246  24.741  1.00  0.00    -0.268 OA
ENDBRANCH  19  24
ENDBRANCH  17  18
ENDBRANCH  16  17
ENDBRANCH  12  16
ENDBRANCH   6  11
ENDBRANCH   1   5
BRANCH   3  33
ATOM     33  C   UNL A   1      34.399  33.945  31.462  1.00  0.00     0.118 C 
BRANCH  33  34
ATOM     34  C   UNL A   1      35.646  34.100  32.349  1.00  0.00     0.042 C 
BRANCH  34  35
ATOM     35  C   UNL A   1      36.850  33.418  31.741  1.00  0.00     0.118 C 
BRANCH  35  36
ATOM     36  N   UNL A   1      37.356  34.118  30.549  1.00  0.00    -0.352 N 
ATOM     37  C   UNL A   1      38.465  33.817  29.771  1.00  0.00     0.251 C 
ATOM     38  H   UNL A   1      36.838  34.906  30.266  1.00  0.00     0.163 HD
ATOM     39  O   UNL A   1      38.967  34.649  29.028  1.00  0.00    -0.269 OA
BRANCH  37  40
ATOM     40  C   UNL A   1      39.010  32.454  29.852  1.00  0.00     0.039 A 
ATOM     41  C   UNL A   1      38.363  31.310  29.378  1.00  0.00     0.014 A 
ATOM     42  C   UNL A   1      40.297  32.375  30.345  1.00  0.00     0.014 A 
ATOM     43  C   UNL A   1      39.067  30.108  29.414  1.00  0.00     0.010 A 
ATOM     44  C   UNL A   1      41.071  31.361  29.899  1.00  0.00     0.010 A 
ATOM     45  C   UNL A   1      40.437  30.158  29.705  1.00  0.00    -0.014 A 
BRANCH  45  46
ATOM     46  C   UNL A   1      41.317  29.012  29.793  1.00  0.00     0.031 A 
ATOM     47  C   UNL A   1      41.676  28.647  31.176  1.00  0.00     0.074 A 
ATOM     48  C   UNL A   1      41.521  28.186  28.740  1.00  0.00     0.049 A 
ATOM     49  N   UNL A   1      42.816  28.818  31.748  1.00  0.00    -0.248 NA
ATOM     50  C   UNL A   1      40.602  28.204  32.081  1.00  0.00     0.031 C 
ATOM     51  C   UNL A   1      40.924  28.205  27.392  1.00  0.00     0.029 A 
ATOM     52  N   UNL A   1      42.240  27.039  28.706  1.00  0.00    -0.354 N 
ATOM     53  C   UNL A   1      42.673  28.298  33.026  1.00  0.00     0.074 A 
ATOM     54  C   UNL A   1      41.256  28.144  33.243  1.00  0.00     0.031 C 
ATOM     55  C   UNL A   1      41.105  27.004  26.794  1.00  0.00     0.029 A 
ATOM     56  C   UNL A   1      41.969  26.198  27.635  1.00  0.00     0.049 A 
ATOM     57  H   UNL A   1      42.908  26.818  29.393  1.00  0.00     0.167 HD
ATOM     58  C   UNL A   1      43.737  27.771  33.691  1.00  0.00     0.031 A 
ATOM     59  C   UNL A   1      42.397  24.916  27.499  1.00  0.00     0.031 A 
ATOM     60  C   UNL A   1      44.982  28.079  33.026  1.00  0.00     0.049 A 
ATOM     61  C   UNL A   1      43.550  24.752  28.425  1.00  0.00     0.074 A 
ATOM     62  C   UNL A   1      45.617  29.249  32.658  1.00  0.00     0.029 A 
ATOM     63  N   UNL A   1      45.525  27.093  32.230  1.00  0.00    -0.354 N 
ATOM     64  N   UNL A   1      44.677  25.392  28.272  1.00  0.00    -0.248 NA
ATOM     65  C   UNL A   1      43.264  24.310  29.785  1.00  0.00     0.031 C 
ATOM     66  C   UNL A   1      46.094  28.999  31.336  1.00  0.00     0.029 A 
ATOM     67  C   UNL A   1      45.815  27.668  31.018  1.00  0.00     0.049 A 
ATOM     68  H   UNL A   1      45.675  26.154  32.484  1.00  0.00     0.167 HD
ATOM     69  C   UNL A   1      45.022  25.819  29.548  1.00  0.00     0.074 A 
ATOM     70  C   UNL A   1      44.153  25.056  30.450  1.00  0.00     0.031 C 
ATOM     71  C   UNL A   1      45.738  26.966  29.753  1.00  0.00     0.031 A 
BRANCH  58  72
ATOM     72  C   UNL A   1      43.627  26.634  34.668  1.00  0.00    -0.014 A 
ATOM     73  C   UNL A   1      43.453  25.333  34.165  1.00  0.00     0.009 A 
ATOM     74  C   UNL A   1      43.405  26.819  36.046  1.00  0.00     0.009 A 
ATOM     75  C   UNL A   1      43.008  24.292  34.986  1.00  0.00     0.001 A 
ATOM     76  C   UNL A   1      42.999  25.772  36.877  1.00  0.00     0.001 A 
ATOM     77  C   UNL A   1      42.772  24.515  36.339  1.00  0.00     0.000 A 
ENDBRANCH  58  72
BRANCH  59  78
ATOM     78  C   UNL A   1      41.664  23.768  26.913  1.00  0.00    -0.014 A 
ATOM     79  C   UNL A   1      42.344  22.647  26.406  1.00  0.00     0.009 A 
ATOM     80  C   UNL A   1      40.272  23.650  27.095  1.00  0.00     0.009 A 
ATOM     81  C   UNL A   1      41.661  21.452  26.127  1.00  0.00     0.001 A 
ATOM     82  C   UNL A   1      39.592  22.459  26.818  1.00  0.00     0.001 A 
ATOM     83  C   UNL A   1      40.289  21.353  26.346  1.00  0.00     0.000 A 
ENDBRANCH  59  78
BRANCH  71  84
ATOM     84  C   UNL A   1      46.285  27.699  28.548  1.00  0.00    -0.014 A 
ATOM     85  C   UNL A   1      47.573  27.475  28.024  1.00  0.00     0.009 A 
ATOM     86  C   UNL A   1      45.409  28.507  27.811  1.00  0.00     0.009 A 
ATOM     87  C   UNL A   1      47.974  28.062  26.816  1.00  0.00     0.001 A 
ATOM     88  C   UNL A   1      45.802  29.078  26.597  1.00  0.00     0.001 A 
ATOM     89  C   UNL A   1      47.085  28.860  26.102  1.00  0.00     0.000 A 
ENDBRANCH  71  84
ENDBRANCH  45  46
ENDBRANCH  37  40
ENDBRANCH  35  36
ENDBRANCH  34  35
ENDBRANCH  33  34
ENDBRANCH   3  33
TORSDOF 15
ENDMDL
