MODEL 1
REMARK VINA RESULT:     -12.2      0.000      0.000
REMARK SMILES CC(C)Cc1ccc(-c2cc(Cl)cc3c2O[C@H](C(F)(F)F)C(C(=O)NCCCNC(=O)c2ccc(-c4c5nc(c(-c6ccccc6)c6ccc([nH]6)c(-c6ccccc6)c6nc(c(-c7ccccc7)c7ccc4[nH]7)C=C6)C=C5)cc2)=C3)cc1
REMARK SMILES IDX 26 1 25 2 23 3 24 4 22 6 9 7 10 8 15 9 11 10 14 11 16 12
REMARK SMILES IDX 12 13 13 14 80 15 17 16 8 17 5 18 6 19 82 20 7 21 81 22 4 23
REMARK SMILES IDX 2 24 1 25 3 26 18 27 19 28 20 29 21 30 27 31 28 32 29 33
REMARK SMILES IDX 30 34 31 36 32 37 33 38 79 39 34 40 78 41 35 42 36 43 37 44
REMARK SMILES IDX 72 45 38 46 77 47 71 48 73 49 39 50 76 51 70 52 69 53 40 55
REMARK SMILES IDX 62 56 47 57 61 58 48 59 51 60 60 61 74 62 49 63 50 64 59 66
REMARK SMILES IDX 75 67 52 68 41 69 42 70 46 71 43 72 45 73 44 74 63 75 64 76
REMARK SMILES IDX 68 77 65 78 67 79 66 80 53 81 54 82 58 83 55 84 57 85 56 86
REMARK H PARENT 25 5 29 35 73 54 51 65
REMARK Flexibility Score: inf
ROOT
ATOM      1  C   UNL A   1      36.276  20.735  24.985  1.00  0.00     0.118 C 
ENDROOT
BRANCH   1   2
ATOM      2  N   UNL A   1      36.125  22.177  24.985  1.00  0.00    -0.352 N 
ATOM      3  C   UNL A   1      35.123  22.870  24.388  1.00  0.00     0.251 C 
ATOM      4  O   UNL A   1      35.375  23.886  23.751  1.00  0.00    -0.270 OA
ATOM      5  H   UNL A   1      36.811  22.699  25.462  1.00  0.00     0.163 HD
BRANCH   3   6
ATOM      6  C   UNL A   1      33.735  22.416  24.681  1.00  0.00     0.067 C 
ATOM      7  C   UNL A   1      31.779  25.933  24.135  1.00  0.00     0.026 A 
ATOM      8  C   UNL A   1      32.575  26.913  24.794  1.00  0.00     0.033 A 
ATOM      9  C   UNL A   1      32.088  24.593  24.436  1.00  0.00     0.135 A 
ATOM     10  C   UNL A   1      33.487  26.608  25.800  1.00  0.00     0.042 A 
ATOM     11  C   UNL A   1      32.925  24.315  25.554  1.00  0.00     0.019 A 
ATOM     12  O   UNL A   1      31.693  23.505  23.662  1.00  0.00    -0.475 OA
ATOM     13  Cl  UNL A   1      34.443  27.855  26.495  1.00  0.00    -0.084 Cl
ATOM     14  C   UNL A   1      33.608  25.311  26.244  1.00  0.00     0.032 A 
ATOM     15  C   UNL A   1      33.257  22.904  25.842  1.00  0.00     0.025 C 
ATOM     16  C   UNL A   1      32.762  22.461  23.514  1.00  0.00     0.314 C 
BRANCH   7  17
ATOM     17  C   UNL A   1      30.628  26.515  23.377  1.00  0.00    -0.015 A 
ATOM     18  C   UNL A   1      28.618  28.536  22.893  1.00  0.00    -0.048 A 
ATOM     19  C   UNL A   1      29.881  28.612  22.312  1.00  0.00     0.004 A 
ATOM     20  C   UNL A   1      28.330  27.349  23.598  1.00  0.00     0.004 A 
ATOM     21  C   UNL A   1      30.848  27.607  22.513  1.00  0.00     0.009 A 
ATOM     22  C   UNL A   1      29.314  26.358  23.841  1.00  0.00     0.009 A 
BRANCH  18  23
ATOM     23  C   UNL A   1      27.544  29.615  22.771  1.00  0.00     0.038 C 
BRANCH  23  24
ATOM     24  C   UNL A   1      27.833  31.115  23.089  1.00  0.00    -0.013 C 
ATOM     25  C   UNL A   1      29.046  31.367  23.992  1.00  0.00     0.008 C 
ATOM     26  C   UNL A   1      28.114  31.875  21.774  1.00  0.00     0.008 C 
ENDBRANCH  23  24
ENDBRANCH  18  23
ENDBRANCH   7  17
BRANCH  16  27
ATOM     27  C   UNL A   1      32.194  21.030  23.342  1.00  0.00     0.429 C 
ATOM     28  F   UNL A   1      33.154  20.089  23.229  1.00  0.00    -0.167 F 
ATOM     29  F   UNL A   1      31.403  20.690  24.391  1.00  0.00    -0.167 F 
ATOM     30  F   UNL A   1      31.409  20.910  22.236  1.00  0.00    -0.167 F 
ENDBRANCH  16  27
ENDBRANCH   3   6
ENDBRANCH   1   2
BRANCH   1  31
ATOM     31  C   UNL A   1      37.736  20.359  24.719  1.00  0.00     0.042 C 
BRANCH  31  32
ATOM     32  C   UNL A   1      38.639  20.413  25.948  1.00  0.00     0.118 C 
BRANCH  32  33
ATOM     33  N   UNL A   1      39.774  19.507  25.863  1.00  0.00    -0.352 N 
ATOM     34  C   UNL A   1      41.105  19.765  26.064  1.00  0.00     0.251 C 
ATOM     35  H   UNL A   1      39.556  18.577  25.627  1.00  0.00     0.163 HD
ATOM     36  O   UNL A   1      41.945  18.906  25.791  1.00  0.00    -0.269 OA
BRANCH  34  37
ATOM     37  C   UNL A   1      41.538  21.076  26.590  1.00  0.00     0.039 A 
ATOM     38  C   UNL A   1      41.471  21.307  27.966  1.00  0.00     0.014 A 
ATOM     39  C   UNL A   1      41.988  22.083  25.732  1.00  0.00     0.014 A 
ATOM     40  C   UNL A   1      41.887  22.535  28.483  1.00  0.00     0.010 A 
ATOM     41  C   UNL A   1      42.495  23.266  26.257  1.00  0.00     0.010 A 
ATOM     42  C   UNL A   1      42.420  23.520  27.634  1.00  0.00    -0.014 A 
BRANCH  42  43
ATOM     43  C   UNL A   1      42.836  24.844  28.160  1.00  0.00     0.031 A 
ATOM     44  C   UNL A   1      41.801  25.911  28.406  1.00  0.00     0.074 A 
ATOM     45  C   UNL A   1      44.139  25.103  28.387  1.00  0.00     0.049 A 
ATOM     46  N   UNL A   1      41.961  27.136  28.839  1.00  0.00    -0.248 NA
ATOM     47  C   UNL A   1      40.403  25.567  28.093  1.00  0.00     0.031 C 
ATOM     48  C   UNL A   1      45.244  24.171  28.153  1.00  0.00     0.029 A 
ATOM     49  N   UNL A   1      44.753  26.230  28.871  1.00  0.00    -0.354 N 
ATOM     50  C   UNL A   1      40.694  27.707  28.830  1.00  0.00     0.074 A 
ATOM     51  C   UNL A   1      39.788  26.723  28.284  1.00  0.00     0.031 C 
ATOM     52  C   UNL A   1      46.395  24.750  28.531  1.00  0.00     0.029 A 
ATOM     53  C   UNL A   1      46.115  26.105  28.996  1.00  0.00     0.049 A 
ATOM     54  H   UNL A   1      44.264  27.051  29.105  1.00  0.00     0.167 HD
ATOM     55  C   UNL A   1      40.309  28.930  29.265  1.00  0.00     0.031 A 
ATOM     56  C   UNL A   1      47.035  26.983  29.440  1.00  0.00     0.031 A 
ATOM     57  C   UNL A   1      41.207  29.904  29.823  1.00  0.00     0.049 A 
ATOM     58  C   UNL A   1      46.583  28.338  29.913  1.00  0.00     0.074 A 
ATOM     59  C   UNL A   1      40.912  31.153  30.340  1.00  0.00     0.029 A 
ATOM     60  N   UNL A   1      42.577  29.733  29.940  1.00  0.00    -0.354 N 
ATOM     61  N   UNL A   1      45.372  28.839  29.960  1.00  0.00    -0.248 NA
ATOM     62  C   UNL A   1      47.628  29.241  30.416  1.00  0.00     0.031 C 
ATOM     63  C   UNL A   1      42.113  31.761  30.720  1.00  0.00     0.029 A 
ATOM     64  C   UNL A   1      43.147  30.862  30.505  1.00  0.00     0.049 A 
ATOM     65  H   UNL A   1      43.073  28.929  29.663  1.00  0.00     0.167 HD
ATOM     66  C   UNL A   1      45.504  30.097  30.535  1.00  0.00     0.074 A 
ATOM     67  C   UNL A   1      46.911  30.275  30.831  1.00  0.00     0.031 C 
ATOM     68  C   UNL A   1      44.547  31.020  30.799  1.00  0.00     0.031 A 
BRANCH  55  69
ATOM     69  C   UNL A   1      38.850  29.280  29.144  1.00  0.00    -0.014 A 
ATOM     70  C   UNL A   1      38.320  29.804  27.951  1.00  0.00     0.009 A 
ATOM     71  C   UNL A   1      37.986  29.065  30.228  1.00  0.00     0.009 A 
ATOM     72  C   UNL A   1      36.970  30.149  27.866  1.00  0.00     0.001 A 
ATOM     73  C   UNL A   1      36.629  29.376  30.129  1.00  0.00     0.001 A 
ATOM     74  C   UNL A   1      36.124  29.930  28.953  1.00  0.00     0.000 A 
ENDBRANCH  55  69
BRANCH  56  75
ATOM     75  C   UNL A   1      48.472  26.602  29.489  1.00  0.00    -0.014 A 
ATOM     76  C   UNL A   1      49.320  26.872  28.403  1.00  0.00     0.009 A 
ATOM     77  C   UNL A   1      49.001  25.951  30.614  1.00  0.00     0.009 A 
ATOM     78  C   UNL A   1      50.657  26.467  28.428  1.00  0.00     0.001 A 
ATOM     79  C   UNL A   1      50.347  25.576  30.650  1.00  0.00     0.001 A 
ATOM     80  C   UNL A   1      51.169  25.823  29.552  1.00  0.00     0.000 A 
ENDBRANCH  56  75
BRANCH  68  81
ATOM     81  C   UNL A   1      44.980  32.280  31.497  1.00  0.00    -0.014 A 
ATOM     82  C   UNL A   1      45.366  33.425  30.784  1.00  0.00     0.009 A 
ATOM     83  C   UNL A   1      44.970  32.325  32.900  1.00  0.00     0.009 A 
ATOM     84  C   UNL A   1      45.777  34.574  31.463  1.00  0.00     0.001 A 
ATOM     85  C   UNL A   1      45.347  33.486  33.577  1.00  0.00     0.001 A 
ATOM     86  C   UNL A   1      45.763  34.605  32.857  1.00  0.00     0.000 A 
ENDBRANCH  68  81
ENDBRANCH  42  43
ENDBRANCH  34  37
ENDBRANCH  32  33
ENDBRANCH  31  32
ENDBRANCH   1  31
TORSDOF 14
ENDMDL
MODEL 2
REMARK VINA RESULT:     -12.1      3.733      8.942
REMARK SMILES CC(C)Cc1ccc(-c2cc(Cl)cc3c2O[C@H](C(F)(F)F)C(C(=O)NCCCNC(=O)c2ccc(-c4c5nc(c(-c6ccccc6)c6ccc([nH]6)c(-c6ccccc6)c6nc(c(-c7ccccc7)c7ccc4[nH]7)C=C6)C=C5)cc2)=C3)cc1
REMARK SMILES IDX 26 1 25 2 23 3 24 4 22 6 9 7 10 8 15 9 11 10 14 11 16 12
REMARK SMILES IDX 12 13 13 14 80 15 17 16 8 17 5 18 6 19 82 20 7 21 81 22 4 23
REMARK SMILES IDX 2 24 1 25 3 26 18 27 19 28 20 29 21 30 27 31 28 32 29 33
REMARK SMILES IDX 30 34 31 36 32 37 33 38 79 39 34 40 78 41 35 42 36 43 37 44
REMARK SMILES IDX 72 45 38 46 77 47 71 48 73 49 39 50 76 51 70 52 69 53 40 55
REMARK SMILES IDX 62 56 47 57 61 58 48 59 51 60 60 61 74 62 49 63 50 64 59 66
REMARK SMILES IDX 75 67 52 68 41 69 42 70 46 71 43 72 45 73 44 74 63 75 64 76
REMARK SMILES IDX 68 77 65 78 67 79 66 80 53 81 54 82 58 83 55 84 57 85 56 86
REMARK H PARENT 25 5 29 35 73 54 51 65
REMARK Flexibility Score: inf
ROOT
ATOM      1  C   UNL A   1      31.715  30.297  25.907  1.00  0.00     0.118 C 
ENDROOT
BRANCH   1   2
ATOM      2  N   UNL A   1      32.354  29.068  26.331  1.00  0.00    -0.352 N 
ATOM      3  C   UNL A   1      31.924  27.812  26.052  1.00  0.00     0.251 C 
ATOM      4  O   UNL A   1      31.925  26.953  26.927  1.00  0.00    -0.270 OA
ATOM      5  H   UNL A   1      33.175  29.152  26.870  1.00  0.00     0.163 HD
BRANCH   3   6
ATOM      6  C   UNL A   1      31.611  27.518  24.626  1.00  0.00     0.067 C 
ATOM      7  C   UNL A   1      32.638  23.589  24.536  1.00  0.00     0.026 A 
ATOM      8  C   UNL A   1      33.877  23.508  25.232  1.00  0.00     0.033 A 
ATOM      9  C   UNL A   1      32.226  24.887  24.172  1.00  0.00     0.135 A 
ATOM     10  C   UNL A   1      34.731  24.594  25.405  1.00  0.00     0.042 A 
ATOM     11  C   UNL A   1      33.168  25.951  24.243  1.00  0.00     0.019 A 
ATOM     12  O   UNL A   1      30.923  25.224  23.817  1.00  0.00    -0.475 OA
ATOM     13  Cl  UNL A   1      36.179  24.409  26.310  1.00  0.00    -0.084 Cl
ATOM     14  C   UNL A   1      34.417  25.808  24.838  1.00  0.00     0.032 A 
ATOM     15  C   UNL A   1      32.713  27.310  23.879  1.00  0.00     0.025 C 
ATOM     16  C   UNL A   1      30.473  26.540  24.384  1.00  0.00     0.314 C 
BRANCH   7  17
ATOM     17  C   UNL A   1      32.084  22.255  24.153  1.00  0.00    -0.015 A 
ATOM     18  C   UNL A   1      32.342  19.470  23.420  1.00  0.00    -0.048 A 
ATOM     19  C   UNL A   1      32.221  19.863  24.750  1.00  0.00     0.004 A 
ATOM     20  C   UNL A   1      32.176  20.484  22.455  1.00  0.00     0.004 A 
ATOM     21  C   UNL A   1      32.054  21.217  25.107  1.00  0.00     0.009 A 
ATOM     22  C   UNL A   1      32.053  21.851  22.810  1.00  0.00     0.009 A 
BRANCH  18  23
ATOM     23  C   UNL A   1      32.589  18.033  22.963  1.00  0.00     0.038 C 
BRANCH  23  24
ATOM     24  C   UNL A   1      33.775  17.179  23.510  1.00  0.00    -0.013 C 
ATOM     25  C   UNL A   1      34.852  17.968  24.264  1.00  0.00     0.008 C 
ATOM     26  C   UNL A   1      33.235  16.131  24.508  1.00  0.00     0.008 C 
ENDBRANCH  23  24
ENDBRANCH  18  23
ENDBRANCH   7  17
BRANCH  16  27
ATOM     27  C   UNL A   1      29.436  27.263  23.489  1.00  0.00     0.429 C 
ATOM     28  F   UNL A   1      29.812  27.336  22.195  1.00  0.00    -0.167 F 
ATOM     29  F   UNL A   1      28.233  26.640  23.535  1.00  0.00    -0.167 F 
ATOM     30  F   UNL A   1      29.202  28.543  23.892  1.00  0.00    -0.167 F 
ENDBRANCH  16  27
ENDBRANCH   3   6
ENDBRANCH   1   2
BRANCH   1  31
ATOM     31  C   UNL A   1      31.783  31.340  27.026  1.00  0.00     0.042 C 
BRANCH  31  32
ATOM     32  C   UNL A   1      32.844  32.419  26.823  1.00  0.00     0.118 C 
BRANCH  32  33
ATOM     33  N   UNL A   1      32.537  33.658  27.519  1.00  0.00    -0.352 N 
ATOM     34  C   UNL A   1      33.191  34.245  28.572  1.00  0.00     0.251 C 
ATOM     35  H   UNL A   1      31.748  34.145  27.188  1.00  0.00     0.163 HD
ATOM     36  O   UNL A   1      32.692  35.219  29.138  1.00  0.00    -0.269 OA
BRANCH  34  37
ATOM     37  C   UNL A   1      34.482  33.703  29.041  1.00  0.00     0.039 A 
ATOM     38  C   UNL A   1      34.486  32.785  30.094  1.00  0.00     0.014 A 
ATOM     39  C   UNL A   1      35.687  34.110  28.463  1.00  0.00     0.014 A 
ATOM     40  C   UNL A   1      35.696  32.253  30.543  1.00  0.00     0.010 A 
ATOM     41  C   UNL A   1      36.879  33.505  28.843  1.00  0.00     0.010 A 
ATOM     42  C   UNL A   1      36.902  32.595  29.909  1.00  0.00    -0.014 A 
BRANCH  42  43
ATOM     43  C   UNL A   1      38.202  32.065  30.394  1.00  0.00     0.031 A 
ATOM     44  C   UNL A   1      38.751  30.787  29.814  1.00  0.00     0.074 A 
ATOM     45  C   UNL A   1      38.872  32.706  31.371  1.00  0.00     0.049 A 
ATOM     46  N   UNL A   1      39.854  30.148  30.116  1.00  0.00    -0.248 NA
ATOM     47  C   UNL A   1      37.939  30.121  28.781  1.00  0.00     0.031 C 
ATOM     48  C   UNL A   1      38.431  33.930  32.043  1.00  0.00     0.029 A 
ATOM     49  N   UNL A   1      40.075  32.417  31.965  1.00  0.00    -0.354 N 
ATOM     50  C   UNL A   1      39.853  29.003  29.327  1.00  0.00     0.074 A 
ATOM     51  C   UNL A   1      38.612  28.998  28.586  1.00  0.00     0.031 C 
ATOM     52  C   UNL A   1      39.368  34.307  32.928  1.00  0.00     0.029 A 
ATOM     53  C   UNL A   1      40.455  33.334  32.914  1.00  0.00     0.049 A 
ATOM     54  H   UNL A   1      40.613  31.626  31.734  1.00  0.00     0.167 HD
ATOM     55  C   UNL A   1      40.810  28.054  29.204  1.00  0.00     0.031 A 
ATOM     56  C   UNL A   1      41.558  33.385  33.684  1.00  0.00     0.031 A 
ATOM     57  C   UNL A   1      42.052  28.067  29.928  1.00  0.00     0.049 A 
ATOM     58  C   UNL A   1      42.607  32.317  33.533  1.00  0.00     0.074 A 
ATOM     59  C   UNL A   1      43.111  27.182  29.840  1.00  0.00     0.029 A 
ATOM     60  N   UNL A   1      42.401  29.019  30.872  1.00  0.00    -0.354 N 
ATOM     61  N   UNL A   1      42.621  31.277  32.734  1.00  0.00    -0.248 NA
ATOM     62  C   UNL A   1      43.802  32.444  34.377  1.00  0.00     0.031 C 
ATOM     63  C   UNL A   1      44.079  27.567  30.772  1.00  0.00     0.029 A 
ATOM     64  C   UNL A   1      43.653  28.733  31.390  1.00  0.00     0.049 A 
ATOM     65  H   UNL A   1      41.842  29.785  31.137  1.00  0.00     0.167 HD
ATOM     66  C   UNL A   1      43.842  30.650  32.949  1.00  0.00     0.074 A 
ATOM     67  C   UNL A   1      44.545  31.436  33.944  1.00  0.00     0.031 C 
ATOM     68  C   UNL A   1      44.341  29.529  32.373  1.00  0.00     0.031 A 
BRANCH  55  69
ATOM     69  C   UNL A   1      40.541  26.919  28.252  1.00  0.00    -0.014 A 
ATOM     70  C   UNL A   1      41.046  26.932  26.939  1.00  0.00     0.009 A 
ATOM     71  C   UNL A   1      39.791  25.813  28.676  1.00  0.00     0.009 A 
ATOM     72  C   UNL A   1      40.764  25.884  26.061  1.00  0.00     0.001 A 
ATOM     73  C   UNL A   1      39.541  24.749  27.807  1.00  0.00     0.001 A 
ATOM     74  C   UNL A   1      40.016  24.791  26.497  1.00  0.00     0.000 A 
ENDBRANCH  55  69
BRANCH  56  75
ATOM     75  C   UNL A   1      41.748  34.504  34.647  1.00  0.00    -0.014 A 
ATOM     76  C   UNL A   1      42.398  35.684  34.251  1.00  0.00     0.009 A 
ATOM     77  C   UNL A   1      41.296  34.393  35.971  1.00  0.00     0.009 A 
ATOM     78  C   UNL A   1      42.623  36.713  35.169  1.00  0.00     0.001 A 
ATOM     79  C   UNL A   1      41.492  35.437  36.878  1.00  0.00     0.001 A 
ATOM     80  C   UNL A   1      42.167  36.589  36.480  1.00  0.00     0.000 A 
ENDBRANCH  56  75
BRANCH  68  81
ATOM     81  C   UNL A   1      45.736  29.120  32.757  1.00  0.00    -0.014 A 
ATOM     82  C   UNL A   1      45.980  28.220  33.805  1.00  0.00     0.009 A 
ATOM     83  C   UNL A   1      46.825  29.627  32.029  1.00  0.00     0.009 A 
ATOM     84  C   UNL A   1      47.289  27.872  34.145  1.00  0.00     0.001 A 
ATOM     85  C   UNL A   1      48.130  29.250  32.348  1.00  0.00     0.001 A 
ATOM     86  C   UNL A   1      48.362  28.383  33.415  1.00  0.00     0.000 A 
ENDBRANCH  68  81
ENDBRANCH  42  43
ENDBRANCH  34  37
ENDBRANCH  32  33
ENDBRANCH  31  32
ENDBRANCH   1  31
TORSDOF 14
ENDMDL
MODEL 3
REMARK VINA RESULT:     -12.0      2.884      8.064
REMARK SMILES CC(C)Cc1ccc(-c2cc(Cl)cc3c2O[C@H](C(F)(F)F)C(C(=O)NCCCNC(=O)c2ccc(-c4c5nc(c(-c6ccccc6)c6ccc([nH]6)c(-c6ccccc6)c6nc(c(-c7ccccc7)c7ccc4[nH]7)C=C6)C=C5)cc2)=C3)cc1
REMARK SMILES IDX 26 1 25 2 23 3 24 4 22 6 9 7 10 8 15 9 11 10 14 11 16 12
REMARK SMILES IDX 12 13 13 14 80 15 17 16 8 17 5 18 6 19 82 20 7 21 81 22 4 23
REMARK SMILES IDX 2 24 1 25 3 26 18 27 19 28 20 29 21 30 27 31 28 32 29 33
REMARK SMILES IDX 30 34 31 36 32 37 33 38 79 39 34 40 78 41 35 42 36 43 37 44
REMARK SMILES IDX 72 45 38 46 77 47 71 48 73 49 39 50 76 51 70 52 69 53 40 55
REMARK SMILES IDX 62 56 47 57 61 58 48 59 51 60 60 61 74 62 49 63 50 64 59 66
REMARK SMILES IDX 75 67 52 68 41 69 42 70 46 71 43 72 45 73 44 74 63 75 64 76
REMARK SMILES IDX 68 77 65 78 67 79 66 80 53 81 54 82 58 83 55 84 57 85 56 86
REMARK H PARENT 25 5 29 35 73 54 51 65
REMARK Flexibility Score: inf
ROOT
ATOM      1  C   UNL A   1      33.131  29.718  25.788  1.00  0.00     0.118 C 
ENDROOT
BRANCH   1   2
ATOM      2  N   UNL A   1      33.169  28.389  26.365  1.00  0.00    -0.352 N 
ATOM      3  C   UNL A   1      32.260  27.405  26.151  1.00  0.00     0.251 C 
ATOM      4  O   UNL A   1      31.857  26.727  27.090  1.00  0.00    -0.270 OA
ATOM      5  H   UNL A   1      33.922  28.183  26.964  1.00  0.00     0.163 HD
BRANCH   3   6
ATOM      6  C   UNL A   1      31.917  27.113  24.731  1.00  0.00     0.067 C 
ATOM      7  C   UNL A   1      32.874  23.167  24.635  1.00  0.00     0.026 A 
ATOM      8  C   UNL A   1      34.124  23.066  25.310  1.00  0.00     0.033 A 
ATOM      9  C   UNL A   1      32.478  24.470  24.275  1.00  0.00     0.135 A 
ATOM     10  C   UNL A   1      34.998  24.137  25.466  1.00  0.00     0.042 A 
ATOM     11  C   UNL A   1      33.440  25.518  24.326  1.00  0.00     0.019 A 
ATOM     12  O   UNL A   1      31.175  24.829  23.942  1.00  0.00    -0.475 OA
ATOM     13  Cl  UNL A   1      36.458  23.928  26.346  1.00  0.00    -0.084 Cl
ATOM     14  C   UNL A   1      34.696  25.355  24.901  1.00  0.00     0.032 A 
ATOM     15  C   UNL A   1      33.003  26.884  23.966  1.00  0.00     0.025 C 
ATOM     16  C   UNL A   1      30.759  26.154  24.512  1.00  0.00     0.314 C 
BRANCH   7  17
ATOM     17  C   UNL A   1      32.290  21.841  24.266  1.00  0.00    -0.015 A 
ATOM     18  C   UNL A   1      32.488  19.066  23.479  1.00  0.00    -0.048 A 
ATOM     19  C   UNL A   1      32.446  19.441  24.820  1.00  0.00     0.004 A 
ATOM     20  C   UNL A   1      32.274  20.095  22.540  1.00  0.00     0.004 A 
ATOM     21  C   UNL A   1      32.308  20.789  25.205  1.00  0.00     0.009 A 
ATOM     22  C   UNL A   1      32.180  21.457  22.921  1.00  0.00     0.009 A 
BRANCH  18  23
ATOM     23  C   UNL A   1      32.699  17.635  22.988  1.00  0.00     0.038 C 
BRANCH  23  24
ATOM     24  C   UNL A   1      33.728  16.670  23.657  1.00  0.00    -0.013 C 
ATOM     25  C   UNL A   1      34.951  17.352  24.278  1.00  0.00     0.008 C 
ATOM     26  C   UNL A   1      33.039  15.899  24.804  1.00  0.00     0.008 C 
ENDBRANCH  23  24
ENDBRANCH  18  23
ENDBRANCH   7  17
BRANCH  16  27
ATOM     27  C   UNL A   1      29.719  26.893  23.633  1.00  0.00     0.429 C 
ATOM     28  F   UNL A   1      30.088  26.983  22.338  1.00  0.00    -0.167 F 
ATOM     29  F   UNL A   1      28.514  26.273  23.677  1.00  0.00    -0.167 F 
ATOM     30  F   UNL A   1      29.492  28.168  24.054  1.00  0.00    -0.167 F 
ENDBRANCH  16  27
ENDBRANCH   3   6
ENDBRANCH   1   2
BRANCH   1  31
ATOM     31  C   UNL A   1      33.420  30.768  26.864  1.00  0.00     0.042 C 
BRANCH  31  32
ATOM     32  C   UNL A   1      34.460  30.346  27.898  1.00  0.00     0.118 C 
BRANCH  32  33
ATOM     33  N   UNL A   1      34.447  31.176  29.092  1.00  0.00    -0.352 N 
ATOM     34  C   UNL A   1      35.435  31.371  30.023  1.00  0.00     0.251 C 
ATOM     35  H   UNL A   1      33.610  31.667  29.256  1.00  0.00     0.163 HD
ATOM     36  O   UNL A   1      35.187  31.988  31.060  1.00  0.00    -0.269 OA
BRANCH  34  37
ATOM     37  C   UNL A   1      36.789  30.828  29.794  1.00  0.00     0.039 A 
ATOM     38  C   UNL A   1      37.447  30.188  30.847  1.00  0.00     0.014 A 
ATOM     39  C   UNL A   1      37.420  30.965  28.555  1.00  0.00     0.014 A 
ATOM     40  C   UNL A   1      38.723  29.659  30.647  1.00  0.00     0.010 A 
ATOM     41  C   UNL A   1      38.646  30.350  28.329  1.00  0.00     0.010 A 
ATOM     42  C   UNL A   1      39.327  29.719  29.379  1.00  0.00    -0.014 A 
BRANCH  42  43
ATOM     43  C   UNL A   1      40.696  29.191  29.155  1.00  0.00     0.031 A 
ATOM     44  C   UNL A   1      40.883  27.761  28.719  1.00  0.00     0.074 A 
ATOM     45  C   UNL A   1      41.768  29.977  29.371  1.00  0.00     0.049 A 
ATOM     46  N   UNL A   1      41.993  27.103  28.492  1.00  0.00    -0.248 NA
ATOM     47  C   UNL A   1      39.664  26.951  28.546  1.00  0.00     0.031 C 
ATOM     48  C   UNL A   1      41.725  31.366  29.832  1.00  0.00     0.029 A 
ATOM     49  N   UNL A   1      43.108  29.717  29.226  1.00  0.00    -0.354 N 
ATOM     50  C   UNL A   1      41.603  25.808  28.171  1.00  0.00     0.074 A 
ATOM     51  C   UNL A   1      40.165  25.751  28.300  1.00  0.00     0.031 C 
ATOM     52  C   UNL A   1      42.977  31.847  29.893  1.00  0.00     0.029 A 
ATOM     53  C   UNL A   1      43.912  30.793  29.515  1.00  0.00     0.049 A 
ATOM     54  H   UNL A   1      43.459  28.843  28.943  1.00  0.00     0.167 HD
ATOM     55  C   UNL A   1      42.368  24.763  27.775  1.00  0.00     0.031 A 
ATOM     56  C   UNL A   1      45.252  30.915  29.475  1.00  0.00     0.031 A 
ATOM     57  C   UNL A   1      43.797  24.822  27.631  1.00  0.00     0.049 A 
ATOM     58  C   UNL A   1      46.081  29.739  29.036  1.00  0.00     0.074 A 
ATOM     59  C   UNL A   1      44.661  23.837  27.188  1.00  0.00     0.029 A 
ATOM     60  N   UNL A   1      44.571  25.934  27.925  1.00  0.00    -0.354 N 
ATOM     61  N   UNL A   1      45.693  28.541  28.672  1.00  0.00    -0.248 NA
ATOM     62  C   UNL A   1      47.535  29.943  28.982  1.00  0.00     0.031 C 
ATOM     63  C   UNL A   1      45.966  24.335  27.266  1.00  0.00     0.029 A 
ATOM     64  C   UNL A   1      45.907  25.654  27.690  1.00  0.00     0.049 A 
ATOM     65  H   UNL A   1      44.224  26.795  28.252  1.00  0.00     0.167 HD
ATOM     66  C   UNL A   1      46.849  27.862  28.307  1.00  0.00     0.074 A 
ATOM     67  C   UNL A   1      47.949  28.788  28.481  1.00  0.00     0.031 C 
ATOM     68  C   UNL A   1      46.988  26.589  27.861  1.00  0.00     0.031 A 
BRANCH  55  69
ATOM     69  C   UNL A   1      41.666  23.465  27.477  1.00  0.00    -0.014 A 
ATOM     70  C   UNL A   1      41.742  22.373  28.359  1.00  0.00     0.009 A 
ATOM     71  C   UNL A   1      40.901  23.336  26.309  1.00  0.00     0.009 A 
ATOM     72  C   UNL A   1      41.107  21.168  28.054  1.00  0.00     0.001 A 
ATOM     73  C   UNL A   1      40.237  22.142  26.022  1.00  0.00     0.001 A 
ATOM     74  C   UNL A   1      40.351  21.055  26.888  1.00  0.00     0.000 A 
ENDBRANCH  55  69
BRANCH  56  75
ATOM     75  C   UNL A   1      45.897  32.208  29.831  1.00  0.00    -0.014 A 
ATOM     76  C   UNL A   1      46.132  33.183  28.848  1.00  0.00     0.009 A 
ATOM     77  C   UNL A   1      46.296  32.469  31.151  1.00  0.00     0.009 A 
ATOM     78  C   UNL A   1      46.785  34.374  29.171  1.00  0.00     0.001 A 
ATOM     79  C   UNL A   1      46.919  33.676  31.478  1.00  0.00     0.001 A 
ATOM     80  C   UNL A   1      47.175  34.621  30.487  1.00  0.00     0.000 A 
ENDBRANCH  56  75
BRANCH  68  81
ATOM     81  C   UNL A   1      48.370  26.143  27.473  1.00  0.00    -0.014 A 
ATOM     82  C   UNL A   1      49.230  25.518  28.389  1.00  0.00     0.009 A 
ATOM     83  C   UNL A   1      48.805  26.327  26.150  1.00  0.00     0.009 A 
ATOM     84  C   UNL A   1      50.514  25.129  27.999  1.00  0.00     0.001 A 
ATOM     85  C   UNL A   1      50.074  25.906  25.754  1.00  0.00     0.001 A 
ATOM     86  C   UNL A   1      50.933  25.319  26.683  1.00  0.00     0.000 A 
ENDBRANCH  68  81
ENDBRANCH  42  43
ENDBRANCH  34  37
ENDBRANCH  32  33
ENDBRANCH  31  32
ENDBRANCH   1  31
TORSDOF 14
ENDMDL
