MODEL 1
REMARK VINA RESULT:     -11.9      0.000      0.000
REMARK SMILES Cc1cc(OCC(=O)NCCCNC(=O)c2ccc(-c3c4nc(c(-c5ccccc5)c5ccc([nH]5)c(-c5ccccc5)c5nc(c(-c6ccccc6)c6ccc3[nH]6)C=C5)C=C4)cc2)ccc1NC(=O)c1ccc(N2C(=O)[C@@H]3[C@H](C2=O)[C@H]2C=C[C@@H]3C2)cc1
REMARK SMILES IDX 7 1 8 2 9 3 6 5 5 6 4 7 1 8 2 9 3 10 66 11 65 12 64 13 67 14
REMARK SMILES IDX 68 15 69 17 70 18 71 19 87 20 72 21 86 22 73 23 74 24 75 25
REMARK SMILES IDX 79 26 76 27 77 28 78 29 80 30 84 31 81 32 83 33 85 34 82 35
REMARK SMILES IDX 10 36 11 37 12 38 13 39 14 40 15 42 16 43 17 44 63 45 18 46
REMARK SMILES IDX 62 47 19 48 20 49 21 50 56 51 22 52 61 53 55 54 57 55 23 56
REMARK SMILES IDX 60 57 54 58 53 59 24 61 46 62 31 63 45 64 32 65 35 66 44 67
REMARK SMILES IDX 58 68 33 69 34 70 43 72 59 73 36 74 25 75 26 76 30 77 27 78
REMARK SMILES IDX 29 79 28 80 47 81 48 82 52 83 49 84 51 85 50 86 37 87 38 88
REMARK SMILES IDX 42 89 39 90 41 91 40 92
REMARK H PARENT 9 4 67 16 13 41 57 60 35 71
REMARK Flexibility Score: inf
ROOT
ATOM      1  C   UNL A   1      32.758  30.990  26.876  1.00  0.00     0.257 C 
ATOM      2  O   UNL A   1      31.560  31.243  26.740  1.00  0.00    -0.271 OA
ATOM      3  N   UNL A   1      33.534  31.854  27.602  1.00  0.00    -0.353 N 
ATOM      4  H   UNL A   1      33.083  32.663  27.933  1.00  0.00     0.163 HD
ENDROOT
BRANCH   1   5
ATOM      5  C   UNL A   1      33.384  29.723  26.277  1.00  0.00     0.329 C 
BRANCH   5   6
ATOM      6  O   UNL A   1      33.125  28.514  26.979  1.00  0.00    -0.484 OA
BRANCH   6   7
ATOM      7  C   UNL A   1      33.025  27.364  26.245  1.00  0.00     0.120 A 
ATOM      8  C   UNL A   1      33.676  26.660  22.572  1.00  0.00     0.047 C 
ATOM      9  C   UNL A   1      33.285  26.399  24.003  1.00  0.00    -0.024 A 
ATOM     10  C   UNL A   1      33.384  27.484  24.900  1.00  0.00     0.052 A 
ATOM     11  C   UNL A   1      32.804  25.167  24.481  1.00  0.00     0.044 A 
ATOM     12  C   UNL A   1      32.511  25.040  25.844  1.00  0.00     0.030 A 
ATOM     13  C   UNL A   1      32.611  26.126  26.717  1.00  0.00     0.048 A 
BRANCH  11  14
ATOM     14  N   UNL A   1      32.679  24.067  23.609  1.00  0.00    -0.322 N 
ATOM     15  C   UNL A   1      33.616  23.158  23.170  1.00  0.00     0.255 C 
ATOM     16  H   UNL A   1      31.771  23.925  23.256  1.00  0.00     0.170 HD
ATOM     17  O   UNL A   1      33.393  22.485  22.164  1.00  0.00    -0.269 OA
BRANCH  15  18
ATOM     18  C   UNL A   1      34.854  22.892  23.941  1.00  0.00     0.040 A 
ATOM     19  C   UNL A   1      36.052  23.460  23.506  1.00  0.00     0.016 A 
ATOM     20  C   UNL A   1      34.853  22.041  25.051  1.00  0.00     0.016 A 
ATOM     21  C   UNL A   1      37.234  23.232  24.220  1.00  0.00     0.027 A 
ATOM     22  C   UNL A   1      36.044  21.789  25.742  1.00  0.00     0.027 A 
ATOM     23  C   UNL A   1      37.248  22.391  25.344  1.00  0.00     0.052 A 
BRANCH  23  24
ATOM     24  N   UNL A   1      38.455  22.154  26.050  1.00  0.00    -0.250 N 
ATOM     25  C   UNL A   1      39.162  20.973  25.972  1.00  0.00     0.238 C 
ATOM     26  C   UNL A   1      39.070  23.099  26.855  1.00  0.00     0.238 C 
ATOM     27  O   UNL A   1      38.910  19.976  25.306  1.00  0.00    -0.274 OA
ATOM     28  C   UNL A   1      40.410  21.090  26.794  1.00  0.00     0.099 C 
ATOM     29  C   UNL A   1      40.292  22.464  27.475  1.00  0.00     0.099 C 
ATOM     30  O   UNL A   1      38.731  24.238  27.082  1.00  0.00    -0.274 OA
ATOM     31  C   UNL A   1      41.712  21.223  25.965  1.00  0.00     0.025 C 
ATOM     32  C   UNL A   1      41.583  23.168  27.043  1.00  0.00     0.025 C 
ATOM     33  C   UNL A   1      42.848  21.253  26.965  1.00  0.00    -0.027 C 
ATOM     34  C   UNL A   1      41.728  22.712  25.587  1.00  0.00     0.017 C 
ATOM     35  C   UNL A   1      42.754  22.416  27.629  1.00  0.00    -0.027 C 
ENDBRANCH  23  24
ENDBRANCH  15  18
ENDBRANCH  11  14
ENDBRANCH   6   7
ENDBRANCH   5   6
ENDBRANCH   1   5
BRANCH   3  36
ATOM     36  C   UNL A   1      34.941  31.725  27.945  1.00  0.00     0.117 C 
BRANCH  36  37
ATOM     37  C   UNL A   1      35.366  32.679  29.051  1.00  0.00     0.042 C 
BRANCH  37  38
ATOM     38  C   UNL A   1      34.845  32.290  30.425  1.00  0.00     0.118 C 
BRANCH  38  39
ATOM     39  N   UNL A   1      34.219  33.385  31.160  1.00  0.00    -0.352 N 
ATOM     40  C   UNL A   1      34.658  34.081  32.270  1.00  0.00     0.251 C 
ATOM     41  H   UNL A   1      33.346  33.673  30.808  1.00  0.00     0.163 HD
ATOM     42  O   UNL A   1      33.937  34.946  32.760  1.00  0.00    -0.269 OA
BRANCH  40  43
ATOM     43  C   UNL A   1      36.051  33.923  32.760  1.00  0.00     0.039 A 
ATOM     44  C   UNL A   1      37.048  34.648  32.092  1.00  0.00     0.014 A 
ATOM     45  C   UNL A   1      36.403  32.899  33.628  1.00  0.00     0.014 A 
ATOM     46  C   UNL A   1      38.340  34.142  32.046  1.00  0.00     0.010 A 
ATOM     47  C   UNL A   1      37.641  32.321  33.490  1.00  0.00     0.010 A 
ATOM     48  C   UNL A   1      38.575  32.904  32.636  1.00  0.00    -0.014 A 
BRANCH  48  49
ATOM     49  C   UNL A   1      39.739  32.095  32.354  1.00  0.00     0.031 A 
ATOM     50  C   UNL A   1      39.643  31.042  31.322  1.00  0.00     0.074 A 
ATOM     51  C   UNL A   1      40.915  32.424  32.936  1.00  0.00     0.049 A 
ATOM     52  N   UNL A   1      40.347  29.963  31.302  1.00  0.00    -0.248 NA
ATOM     53  C   UNL A   1      38.692  31.129  30.215  1.00  0.00     0.031 C 
ATOM     54  C   UNL A   1      42.216  31.870  32.603  1.00  0.00     0.029 A 
ATOM     55  N   UNL A   1      41.194  33.236  34.038  1.00  0.00    -0.354 N 
ATOM     56  C   UNL A   1      40.206  29.419  30.043  1.00  0.00     0.074 A 
ATOM     57  C   UNL A   1      39.078  30.101  29.455  1.00  0.00     0.031 C 
ATOM     58  C   UNL A   1      43.070  32.104  33.615  1.00  0.00     0.029 A 
ATOM     59  C   UNL A   1      42.273  32.635  34.706  1.00  0.00     0.049 A 
ATOM     60  H   UNL A   1      40.727  34.064  34.295  1.00  0.00     0.167 HD
ATOM     61  C   UNL A   1      41.174  28.593  29.553  1.00  0.00     0.031 A 
ATOM     62  C   UNL A   1      42.175  32.033  35.933  1.00  0.00     0.031 A 
ATOM     63  C   UNL A   1      42.252  28.414  30.524  1.00  0.00     0.049 A 
ATOM     64  C   UNL A   1      42.525  30.552  35.864  1.00  0.00     0.074 A 
ATOM     65  C   UNL A   1      43.496  29.014  30.626  1.00  0.00     0.029 A 
ATOM     66  N   UNL A   1      41.996  27.815  31.755  1.00  0.00    -0.354 N 
ATOM     67  N   UNL A   1      42.388  29.828  34.785  1.00  0.00    -0.248 NA
ATOM     68  C   UNL A   1      43.061  29.779  36.984  1.00  0.00     0.031 C 
ATOM     69  C   UNL A   1      43.940  28.865  31.963  1.00  0.00     0.029 A 
ATOM     70  C   UNL A   1      42.991  28.139  32.658  1.00  0.00     0.049 A 
ATOM     71  H   UNL A   1      41.218  27.245  31.953  1.00  0.00     0.167 HD
ATOM     72  C   UNL A   1      42.876  28.568  35.011  1.00  0.00     0.074 A 
ATOM     73  C   UNL A   1      43.247  28.572  36.415  1.00  0.00     0.031 C 
ATOM     74  C   UNL A   1      42.984  27.632  34.022  1.00  0.00     0.031 A 
BRANCH  61  75
ATOM     75  C   UNL A   1      41.313  28.259  28.082  1.00  0.00    -0.014 A 
ATOM     76  C   UNL A   1      41.110  26.935  27.646  1.00  0.00     0.009 A 
ATOM     77  C   UNL A   1      41.686  29.179  27.087  1.00  0.00     0.009 A 
ATOM     78  C   UNL A   1      41.366  26.535  26.327  1.00  0.00     0.001 A 
ATOM     79  C   UNL A   1      41.981  28.780  25.774  1.00  0.00     0.001 A 
ATOM     80  C   UNL A   1      41.832  27.453  25.397  1.00  0.00     0.000 A 
ENDBRANCH  61  75
BRANCH  62  81
ATOM     81  C   UNL A   1      41.109  32.610  36.796  1.00  0.00    -0.014 A 
ATOM     82  C   UNL A   1      41.354  33.860  37.403  1.00  0.00     0.009 A 
ATOM     83  C   UNL A   1      39.784  32.173  36.672  1.00  0.00     0.009 A 
ATOM     84  C   UNL A   1      40.296  34.720  37.715  1.00  0.00     0.001 A 
ATOM     85  C   UNL A   1      38.729  33.031  37.007  1.00  0.00     0.001 A 
ATOM     86  C   UNL A   1      38.985  34.319  37.478  1.00  0.00     0.000 A 
ENDBRANCH  62  81
BRANCH  74  87
ATOM     87  C   UNL A   1      43.263  26.165  34.222  1.00  0.00    -0.014 A 
ATOM     88  C   UNL A   1      42.509  25.335  35.059  1.00  0.00     0.009 A 
ATOM     89  C   UNL A   1      44.243  25.536  33.418  1.00  0.00     0.009 A 
ATOM     90  C   UNL A   1      42.755  23.957  35.126  1.00  0.00     0.001 A 
ATOM     91  C   UNL A   1      44.458  24.159  33.444  1.00  0.00     0.001 A 
ATOM     92  C   UNL A   1      43.720  23.369  34.312  1.00  0.00     0.000 A 
ENDBRANCH  74  87
ENDBRANCH  48  49
ENDBRANCH  40  43
ENDBRANCH  38  39
ENDBRANCH  37  38
ENDBRANCH  36  37
ENDBRANCH   3  36
TORSDOF 15
ENDMDL
MODEL 2
REMARK VINA RESULT:     -11.7      4.300      8.834
REMARK SMILES Cc1cc(OCC(=O)NCCCNC(=O)c2ccc(-c3c4nc(c(-c5ccccc5)c5ccc([nH]5)c(-c5ccccc5)c5nc(c(-c6ccccc6)c6ccc3[nH]6)C=C5)C=C4)cc2)ccc1NC(=O)c1ccc(N2C(=O)[C@@H]3[C@H](C2=O)[C@H]2C=C[C@@H]3C2)cc1
REMARK SMILES IDX 7 1 8 2 9 3 6 5 5 6 4 7 1 8 2 9 3 10 66 11 65 12 64 13 67 14
REMARK SMILES IDX 68 15 69 17 70 18 71 19 87 20 72 21 86 22 73 23 74 24 75 25
REMARK SMILES IDX 79 26 76 27 77 28 78 29 80 30 84 31 81 32 83 33 85 34 82 35
REMARK SMILES IDX 10 36 11 37 12 38 13 39 14 40 15 42 16 43 17 44 63 45 18 46
REMARK SMILES IDX 62 47 19 48 20 49 21 50 56 51 22 52 61 53 55 54 57 55 23 56
REMARK SMILES IDX 60 57 54 58 53 59 24 61 46 62 31 63 45 64 32 65 35 66 44 67
REMARK SMILES IDX 58 68 33 69 34 70 43 72 59 73 36 74 25 75 26 76 30 77 27 78
REMARK SMILES IDX 29 79 28 80 47 81 48 82 52 83 49 84 51 85 50 86 37 87 38 88
REMARK SMILES IDX 42 89 39 90 41 91 40 92
REMARK H PARENT 9 4 67 16 13 41 57 60 35 71
REMARK Flexibility Score: inf
ROOT
ATOM      1  C   UNL A   1      37.969  29.794  33.427  1.00  0.00     0.257 C 
ATOM      2  O   UNL A   1      38.877  29.862  34.258  1.00  0.00    -0.271 OA
ATOM      3  N   UNL A   1      37.092  30.841  33.327  1.00  0.00    -0.353 N 
ATOM      4  H   UNL A   1      37.219  31.572  33.973  1.00  0.00     0.163 HD
ENDROOT
BRANCH   1   5
ATOM      5  C   UNL A   1      37.822  28.584  32.494  1.00  0.00     0.329 C 
BRANCH   5   6
ATOM      6  O   UNL A   1      39.037  28.016  32.023  1.00  0.00    -0.484 OA
BRANCH   6   7
ATOM      7  C   UNL A   1      39.364  28.217  30.711  1.00  0.00     0.120 A 
ATOM      8  C   UNL A   1      42.441  29.739  29.090  1.00  0.00     0.047 C 
ATOM      9  C   UNL A   1      41.079  29.103  29.195  1.00  0.00    -0.024 A 
ATOM     10  C   UNL A   1      40.620  28.787  30.491  1.00  0.00     0.052 A 
ATOM     11  C   UNL A   1      40.241  28.840  28.097  1.00  0.00     0.044 A 
ATOM     12  C   UNL A   1      39.012  28.209  28.322  1.00  0.00     0.030 A 
ATOM     13  C   UNL A   1      38.572  27.906  29.613  1.00  0.00     0.048 A 
BRANCH  11  14
ATOM     14  N   UNL A   1      40.662  29.157  26.790  1.00  0.00    -0.322 N 
ATOM     15  C   UNL A   1      41.565  28.530  25.961  1.00  0.00     0.255 C 
ATOM     16  H   UNL A   1      40.241  29.960  26.406  1.00  0.00     0.170 HD
ATOM     17  O   UNL A   1      42.043  29.136  25.003  1.00  0.00    -0.269 OA
BRANCH  15  18
ATOM     18  C   UNL A   1      41.903  27.095  26.131  1.00  0.00     0.040 A 
ATOM     19  C   UNL A   1      40.910  26.140  25.904  1.00  0.00     0.016 A 
ATOM     20  C   UNL A   1      43.168  26.690  26.567  1.00  0.00     0.016 A 
ATOM     21  C   UNL A   1      41.203  24.780  26.050  1.00  0.00     0.027 A 
ATOM     22  C   UNL A   1      43.446  25.330  26.743  1.00  0.00     0.027 A 
ATOM     23  C   UNL A   1      42.472  24.356  26.474  1.00  0.00     0.052 A 
BRANCH  23  24
ATOM     24  N   UNL A   1      42.752  22.974  26.633  1.00  0.00    -0.250 N 
ATOM     25  C   UNL A   1      42.649  22.311  27.837  1.00  0.00     0.238 C 
ATOM     26  C   UNL A   1      43.117  22.141  25.588  1.00  0.00     0.238 C 
ATOM     27  O   UNL A   1      42.297  22.755  28.924  1.00  0.00    -0.274 OA
ATOM     28  C   UNL A   1      42.960  20.859  27.630  1.00  0.00     0.099 C 
ATOM     29  C   UNL A   1      43.384  20.767  26.155  1.00  0.00     0.099 C 
ATOM     30  O   UNL A   1      43.241  22.407  24.414  1.00  0.00    -0.274 OA
ATOM     31  C   UNL A   1      41.725  19.925  27.696  1.00  0.00     0.025 C 
ATOM     32  C   UNL A   1      42.419  19.719  25.590  1.00  0.00     0.025 C 
ATOM     33  C   UNL A   1      42.254  18.515  27.538  1.00  0.00    -0.027 C 
ATOM     34  C   UNL A   1      41.107  20.073  26.298  1.00  0.00     0.017 C 
ATOM     35  C   UNL A   1      42.693  18.401  26.275  1.00  0.00    -0.027 C 
ENDBRANCH  23  24
ENDBRANCH  15  18
ENDBRANCH  11  14
ENDBRANCH   6   7
ENDBRANCH   5   6
ENDBRANCH   1   5
BRANCH   3  36
ATOM     36  C   UNL A   1      35.996  31.007  32.386  1.00  0.00     0.117 C 
BRANCH  36  37
ATOM     37  C   UNL A   1      35.201  32.280  32.627  1.00  0.00     0.042 C 
BRANCH  37  38
ATOM     38  C   UNL A   1      35.135  33.197  31.416  1.00  0.00     0.118 C 
BRANCH  38  39
ATOM     39  N   UNL A   1      34.932  32.501  30.150  1.00  0.00    -0.352 N 
ATOM     40  C   UNL A   1      35.811  32.266  29.109  1.00  0.00     0.251 C 
ATOM     41  H   UNL A   1      34.025  32.142  30.015  1.00  0.00     0.163 HD
ATOM     42  O   UNL A   1      35.409  31.693  28.100  1.00  0.00    -0.269 OA
BRANCH  40  43
ATOM     43  C   UNL A   1      37.263  32.534  29.271  1.00  0.00     0.039 A 
ATOM     44  C   UNL A   1      38.038  31.520  29.850  1.00  0.00     0.014 A 
ATOM     45  C   UNL A   1      37.784  33.815  29.140  1.00  0.00     0.014 A 
ATOM     46  C   UNL A   1      39.175  31.861  30.571  1.00  0.00     0.010 A 
ATOM     47  C   UNL A   1      38.830  34.181  29.950  1.00  0.00     0.010 A 
ATOM     48  C   UNL A   1      39.467  33.212  30.722  1.00  0.00    -0.014 A 
BRANCH  48  49
ATOM     49  C   UNL A   1      40.371  33.724  31.728  1.00  0.00     0.031 A 
ATOM     50  C   UNL A   1      39.806  34.326  32.953  1.00  0.00     0.074 A 
ATOM     51  C   UNL A   1      41.697  33.502  31.582  1.00  0.00     0.049 A 
ATOM     52  N   UNL A   1      40.384  35.236  33.661  1.00  0.00    -0.248 NA
ATOM     53  C   UNL A   1      38.492  33.945  33.468  1.00  0.00     0.031 C 
ATOM     54  C   UNL A   1      42.717  33.745  32.588  1.00  0.00     0.029 A 
ATOM     55  N   UNL A   1      42.444  33.128  30.463  1.00  0.00    -0.354 N 
ATOM     56  C   UNL A   1      39.712  35.290  34.864  1.00  0.00     0.074 A 
ATOM     57  C   UNL A   1      38.479  34.571  34.648  1.00  0.00     0.031 C 
ATOM     58  C   UNL A   1      43.921  33.805  31.991  1.00  0.00     0.029 A 
ATOM     59  C   UNL A   1      43.669  33.807  30.562  1.00  0.00     0.049 A 
ATOM     60  H   UNL A   1      42.167  32.511  29.747  1.00  0.00     0.167 HD
ATOM     61  C   UNL A   1      40.351  35.763  35.972  1.00  0.00     0.031 A 
ATOM     62  C   UNL A   1      44.049  34.824  29.728  1.00  0.00     0.031 A 
ATOM     63  C   UNL A   1      41.721  36.164  35.656  1.00  0.00     0.049 A 
ATOM     64  C   UNL A   1      44.263  36.127  30.490  1.00  0.00     0.074 A 
ATOM     65  C   UNL A   1      42.928  35.508  35.835  1.00  0.00     0.029 A 
ATOM     66  N   UNL A   1      41.959  37.199  34.756  1.00  0.00    -0.354 N 
ATOM     67  N   UNL A   1      43.660  36.413  31.613  1.00  0.00    -0.248 NA
ATOM     68  C   UNL A   1      45.169  37.192  30.062  1.00  0.00     0.031 C 
ATOM     69  C   UNL A   1      43.870  36.088  34.952  1.00  0.00     0.029 A 
ATOM     70  C   UNL A   1      43.252  37.121  34.272  1.00  0.00     0.049 A 
ATOM     71  H   UNL A   1      41.302  37.886  34.499  1.00  0.00     0.167 HD
ATOM     72  C   UNL A   1      44.131  37.604  32.098  1.00  0.00     0.074 A 
ATOM     73  C   UNL A   1      45.044  38.075  31.072  1.00  0.00     0.031 C 
ATOM     74  C   UNL A   1      43.778  38.092  33.324  1.00  0.00     0.031 A 
BRANCH  61  75
ATOM     75  C   UNL A   1      39.859  35.513  37.383  1.00  0.00    -0.014 A 
ATOM     76  C   UNL A   1      39.463  34.216  37.763  1.00  0.00     0.009 A 
ATOM     77  C   UNL A   1      39.715  36.507  38.365  1.00  0.00     0.009 A 
ATOM     78  C   UNL A   1      38.865  33.950  39.002  1.00  0.00     0.001 A 
ATOM     79  C   UNL A   1      39.083  36.258  39.593  1.00  0.00     0.001 A 
ATOM     80  C   UNL A   1      38.646  34.979  39.907  1.00  0.00     0.000 A 
ENDBRANCH  61  75
BRANCH  62  81
ATOM     81  C   UNL A   1      43.461  34.730  28.365  1.00  0.00    -0.014 A 
ATOM     82  C   UNL A   1      42.551  35.731  27.967  1.00  0.00     0.009 A 
ATOM     83  C   UNL A   1      44.089  33.962  27.375  1.00  0.00     0.009 A 
ATOM     84  C   UNL A   1      42.407  36.069  26.617  1.00  0.00     0.001 A 
ATOM     85  C   UNL A   1      43.924  34.291  26.024  1.00  0.00     0.001 A 
ATOM     86  C   UNL A   1      43.127  35.374  25.650  1.00  0.00     0.000 A 
ENDBRANCH  62  81
BRANCH  74  87
ATOM     87  C   UNL A   1      44.037  39.488  33.827  1.00  0.00    -0.014 A 
ATOM     88  C   UNL A   1      45.050  39.814  34.735  1.00  0.00     0.009 A 
ATOM     89  C   UNL A   1      43.324  40.568  33.254  1.00  0.00     0.009 A 
ATOM     90  C   UNL A   1      45.305  41.146  35.088  1.00  0.00     0.001 A 
ATOM     91  C   UNL A   1      43.607  41.898  33.566  1.00  0.00     0.001 A 
ATOM     92  C   UNL A   1      44.593  42.185  34.497  1.00  0.00     0.000 A 
ENDBRANCH  74  87
ENDBRANCH  48  49
ENDBRANCH  40  43
ENDBRANCH  38  39
ENDBRANCH  37  38
ENDBRANCH  36  37
ENDBRANCH   3  36
TORSDOF 15
ENDMDL
MODEL 3
REMARK VINA RESULT:     -11.6      3.202      9.671
REMARK SMILES Cc1cc(OCC(=O)NCCCNC(=O)c2ccc(-c3c4nc(c(-c5ccccc5)c5ccc([nH]5)c(-c5ccccc5)c5nc(c(-c6ccccc6)c6ccc3[nH]6)C=C5)C=C4)cc2)ccc1NC(=O)c1ccc(N2C(=O)[C@@H]3[C@H](C2=O)[C@H]2C=C[C@@H]3C2)cc1
REMARK SMILES IDX 7 1 8 2 9 3 6 5 5 6 4 7 1 8 2 9 3 10 66 11 65 12 64 13 67 14
REMARK SMILES IDX 68 15 69 17 70 18 71 19 87 20 72 21 86 22 73 23 74 24 75 25
REMARK SMILES IDX 79 26 76 27 77 28 78 29 80 30 84 31 81 32 83 33 85 34 82 35
REMARK SMILES IDX 10 36 11 37 12 38 13 39 14 40 15 42 16 43 17 44 63 45 18 46
REMARK SMILES IDX 62 47 19 48 20 49 21 50 56 51 22 52 61 53 55 54 57 55 23 56
REMARK SMILES IDX 60 57 54 58 53 59 24 61 46 62 31 63 45 64 32 65 35 66 44 67
REMARK SMILES IDX 58 68 33 69 34 70 43 72 59 73 36 74 25 75 26 76 30 77 27 78
REMARK SMILES IDX 29 79 28 80 47 81 48 82 52 83 49 84 51 85 50 86 37 87 38 88
REMARK SMILES IDX 42 89 39 90 41 91 40 92
REMARK H PARENT 9 4 67 16 13 41 57 60 35 71
REMARK Flexibility Score: inf
ROOT
ATOM      1  C   UNL A   1      38.939  23.579  26.567  1.00  0.00     0.257 C 
ATOM      2  O   UNL A   1      38.849  24.807  26.612  1.00  0.00    -0.271 OA
ATOM      3  N   UNL A   1      40.065  22.984  27.070  1.00  0.00    -0.353 N 
ATOM      4  H   UNL A   1      40.765  23.594  27.396  1.00  0.00     0.163 HD
ENDROOT
BRANCH   1   5
ATOM      5  C   UNL A   1      37.812  22.712  25.990  1.00  0.00     0.329 C 
BRANCH   5   6
ATOM      6  O   UNL A   1      37.163  23.229  24.836  1.00  0.00    -0.484 OA
BRANCH   6   7
ATOM      7  C   UNL A   1      35.846  23.579  24.953  1.00  0.00     0.120 A 
ATOM      8  C   UNL A   1      33.256  24.535  22.347  1.00  0.00     0.047 C 
ATOM      9  C   UNL A   1      33.844  24.260  23.707  1.00  0.00    -0.024 A 
ATOM     10  C   UNL A   1      35.190  23.839  23.747  1.00  0.00     0.052 A 
ATOM     11  C   UNL A   1      33.150  24.428  24.919  1.00  0.00     0.044 A 
ATOM     12  C   UNL A   1      33.796  24.101  26.116  1.00  0.00     0.030 A 
ATOM     13  C   UNL A   1      35.130  23.688  26.138  1.00  0.00     0.048 A 
BRANCH  11  14
ATOM     14  N   UNL A   1      31.810  24.862  24.915  1.00  0.00    -0.322 N 
ATOM     15  C   UNL A   1      31.203  25.909  25.572  1.00  0.00     0.255 C 
ATOM     16  H   UNL A   1      31.207  24.328  24.348  1.00  0.00     0.170 HD
ATOM     17  O   UNL A   1      29.980  25.924  25.706  1.00  0.00    -0.269 OA
BRANCH  15  18
ATOM     18  C   UNL A   1      31.980  27.084  26.036  1.00  0.00     0.040 A 
ATOM     19  C   UNL A   1      32.860  27.702  25.146  1.00  0.00     0.016 A 
ATOM     20  C   UNL A   1      31.892  27.542  27.354  1.00  0.00     0.016 A 
ATOM     21  C   UNL A   1      33.600  28.817  25.555  1.00  0.00     0.027 A 
ATOM     22  C   UNL A   1      32.660  28.637  27.768  1.00  0.00     0.027 A 
ATOM     23  C   UNL A   1      33.513  29.297  26.871  1.00  0.00     0.052 A 
BRANCH  23  24
ATOM     24  N   UNL A   1      34.281  30.419  27.278  1.00  0.00    -0.250 N 
ATOM     25  C   UNL A   1      33.750  31.679  27.456  1.00  0.00     0.238 C 
ATOM     26  C   UNL A   1      35.631  30.355  27.581  1.00  0.00     0.238 C 
ATOM     27  O   UNL A   1      32.587  32.042  27.324  1.00  0.00    -0.274 OA
ATOM     28  C   UNL A   1      34.825  32.603  27.943  1.00  0.00     0.099 C 
ATOM     29  C   UNL A   1      36.104  31.749  27.916  1.00  0.00     0.099 C 
ATOM     30  O   UNL A   1      36.364  29.392  27.575  1.00  0.00    -0.274 OA
ATOM     31  C   UNL A   1      34.701  32.997  29.437  1.00  0.00     0.025 C 
ATOM     32  C   UNL A   1      36.608  31.849  29.360  1.00  0.00     0.025 C 
ATOM     33  C   UNL A   1      35.822  33.979  29.709  1.00  0.00    -0.027 C 
ATOM     34  C   UNL A   1      35.304  31.786  30.163  1.00  0.00     0.017 C 
ATOM     35  C   UNL A   1      36.971  33.289  29.639  1.00  0.00    -0.027 C 
ENDBRANCH  23  24
ENDBRANCH  15  18
ENDBRANCH  11  14
ENDBRANCH   6   7
ENDBRANCH   5   6
ENDBRANCH   1   5
BRANCH   3  36
ATOM     36  C   UNL A   1      40.357  21.564  27.180  1.00  0.00     0.117 C 
BRANCH  36  37
ATOM     37  C   UNL A   1      41.478  21.120  26.253  1.00  0.00     0.042 C 
BRANCH  37  38
ATOM     38  C   UNL A   1      42.219  22.273  25.596  1.00  0.00     0.118 C 
BRANCH  38  39
ATOM     39  N   UNL A   1      43.570  22.484  26.106  1.00  0.00    -0.352 N 
ATOM     40  C   UNL A   1      44.097  23.536  26.832  1.00  0.00     0.251 C 
ATOM     41  H   UNL A   1      44.207  21.763  25.899  1.00  0.00     0.163 HD
ATOM     42  O   UNL A   1      45.290  23.530  27.119  1.00  0.00    -0.269 OA
BRANCH  40  43
ATOM     43  C   UNL A   1      43.206  24.570  27.418  1.00  0.00     0.039 A 
ATOM     44  C   UNL A   1      42.836  25.638  26.589  1.00  0.00     0.014 A 
ATOM     45  C   UNL A   1      42.986  24.648  28.787  1.00  0.00     0.014 A 
ATOM     46  C   UNL A   1      42.558  26.874  27.156  1.00  0.00     0.010 A 
ATOM     47  C   UNL A   1      42.837  25.889  29.356  1.00  0.00     0.010 A 
ATOM     48  C   UNL A   1      42.705  27.005  28.533  1.00  0.00    -0.014 A 
BRANCH  48  49
ATOM     49  C   UNL A   1      42.817  28.280  29.205  1.00  0.00     0.031 A 
ATOM     50  C   UNL A   1      41.582  29.007  29.565  1.00  0.00     0.074 A 
ATOM     51  C   UNL A   1      44.039  28.693  29.612  1.00  0.00     0.049 A 
ATOM     52  N   UNL A   1      41.488  30.287  29.680  1.00  0.00    -0.248 NA
ATOM     53  C   UNL A   1      40.318  28.313  29.806  1.00  0.00     0.031 C 
ATOM     54  C   UNL A   1      44.309  29.824  30.484  1.00  0.00     0.029 A 
ATOM     55  N   UNL A   1      45.318  28.274  29.239  1.00  0.00    -0.354 N 
ATOM     56  C   UNL A   1      40.301  30.542  30.335  1.00  0.00     0.074 A 
ATOM     57  C   UNL A   1      39.558  29.305  30.275  1.00  0.00     0.031 C 
ATOM     58  C   UNL A   1      45.597  30.187  30.353  1.00  0.00     0.029 A 
ATOM     59  C   UNL A   1      46.124  29.423  29.236  1.00  0.00     0.049 A 
ATOM     60  H   UNL A   1      45.598  27.355  29.021  1.00  0.00     0.167 HD
ATOM     61  C   UNL A   1      40.151  31.704  31.031  1.00  0.00     0.031 A 
ATOM     62  C   UNL A   1      46.636  29.997  28.103  1.00  0.00     0.031 A 
ATOM     63  C   UNL A   1      41.354  32.530  30.939  1.00  0.00     0.049 A 
ATOM     64  C   UNL A   1      46.123  31.419  27.909  1.00  0.00     0.074 A 
ATOM     65  C   UNL A   1      42.409  32.706  31.819  1.00  0.00     0.029 A 
ATOM     66  N   UNL A   1      41.778  33.017  29.706  1.00  0.00    -0.354 N 
ATOM     67  N   UNL A   1      44.981  31.844  28.381  1.00  0.00    -0.248 NA
ATOM     68  C   UNL A   1      46.849  32.466  27.191  1.00  0.00     0.031 C 
ATOM     69  C   UNL A   1      43.510  33.202  31.081  1.00  0.00     0.029 A 
ATOM     70  C   UNL A   1      43.114  33.370  29.767  1.00  0.00     0.049 A 
ATOM     71  H   UNL A   1      41.211  33.097  28.905  1.00  0.00     0.167 HD
ATOM     72  C   UNL A   1      44.849  33.184  28.128  1.00  0.00     0.074 A 
ATOM     73  C   UNL A   1      46.024  33.520  27.344  1.00  0.00     0.031 C 
ATOM     74  C   UNL A   1      43.814  33.928  28.620  1.00  0.00     0.031 A 
BRANCH  61  75
ATOM     75  C   UNL A   1      39.075  31.911  32.077  1.00  0.00    -0.014 A 
ATOM     76  C   UNL A   1      38.245  30.834  32.445  1.00  0.00     0.009 A 
ATOM     77  C   UNL A   1      38.794  33.139  32.700  1.00  0.00     0.009 A 
ATOM     78  C   UNL A   1      37.143  30.997  33.296  1.00  0.00     0.001 A 
ATOM     79  C   UNL A   1      37.671  33.319  33.522  1.00  0.00     0.001 A 
ATOM     80  C   UNL A   1      36.837  32.249  33.810  1.00  0.00     0.000 A 
ENDBRANCH  61  75
BRANCH  62  81
ATOM     81  C   UNL A   1      46.873  29.027  26.998  1.00  0.00    -0.014 A 
ATOM     82  C   UNL A   1      47.981  28.161  27.106  1.00  0.00     0.009 A 
ATOM     83  C   UNL A   1      45.834  28.683  26.124  1.00  0.00     0.009 A 
ATOM     84  C   UNL A   1      47.966  26.905  26.491  1.00  0.00     0.001 A 
ATOM     85  C   UNL A   1      45.836  27.432  25.494  1.00  0.00     0.001 A 
ATOM     86  C   UNL A   1      46.873  26.526  25.718  1.00  0.00     0.000 A 
ENDBRANCH  62  81
BRANCH  74  87
ATOM     87  C   UNL A   1      43.451  35.326  28.193  1.00  0.00    -0.014 A 
ATOM     88  C   UNL A   1      42.983  35.655  26.916  1.00  0.00     0.009 A 
ATOM     89  C   UNL A   1      43.433  36.357  29.162  1.00  0.00     0.009 A 
ATOM     90  C   UNL A   1      42.566  36.957  26.610  1.00  0.00     0.001 A 
ATOM     91  C   UNL A   1      42.973  37.642  28.876  1.00  0.00     0.001 A 
ATOM     92  C   UNL A   1      42.551  37.945  27.591  1.00  0.00     0.000 A 
ENDBRANCH  74  87
ENDBRANCH  48  49
ENDBRANCH  40  43
ENDBRANCH  38  39
ENDBRANCH  37  38
ENDBRANCH  36  37
ENDBRANCH   3  36
TORSDOF 15
ENDMDL
