MODEL 1
REMARK VINA RESULT:     -11.1      0.000      0.000
REMARK SMILES CCc1ccc(CNc2ccc(Cl)c(C(=O)NCCCNC(=O)c3ccc(-c4c5nc(c(-c6ccccc6)c6ccc([nH]6)c(-c6ccccc6)c6nc(c(-c7ccccc7)c7ccc4[nH]7)C=C6)C=C5)cc3)c2)cc1
REMARK SMILES IDX 18 1 17 2 15 3 16 4 14 6 9 7 10 8 72 9 11 10 12 11 13 12
REMARK SMILES IDX 8 13 7 15 6 16 3 17 4 18 74 19 5 20 73 21 2 22 1 23 19 24
REMARK SMILES IDX 20 25 21 26 22 27 23 29 24 30 25 31 71 32 26 33 70 34 27 35
REMARK SMILES IDX 28 36 29 37 64 38 30 39 69 40 63 41 65 42 31 43 68 44 62 45
REMARK SMILES IDX 61 46 32 48 54 49 39 50 53 51 40 52 43 53 52 54 66 55 41 56
REMARK SMILES IDX 42 57 51 59 67 60 44 61 33 62 34 63 38 64 35 65 37 66 36 67
REMARK SMILES IDX 55 68 56 69 60 70 57 71 59 72 58 73 45 74 46 75 50 76 47 77
REMARK SMILES IDX 49 78 48 79
REMARK H PARENT 17 5 8 14 21 28 65 47 43 58
REMARK Flexibility Score: inf
ROOT
ATOM      1  C   UNL A   1      35.974  20.592  24.878  1.00  0.00     0.118 C 
ENDROOT
BRANCH   1   2
ATOM      2  N   UNL A   1      35.250  20.743  26.136  1.00  0.00    -0.352 N 
ATOM      3  C   UNL A   1      34.459  21.734  26.684  1.00  0.00     0.252 C 
ATOM      4  O   UNL A   1      33.919  21.469  27.757  1.00  0.00    -0.269 OA
ATOM      5  H   UNL A   1      35.346  19.962  26.727  1.00  0.00     0.163 HD
BRANCH   3   6
ATOM      6  C   UNL A   1      34.272  23.070  26.047  1.00  0.00     0.060 A 
ATOM      7  C   UNL A   1      32.737  24.573  24.876  1.00  0.00     0.035 A 
ATOM      8  C   UNL A   1      33.816  25.399  24.565  1.00  0.00     0.027 A 
ATOM      9  C   UNL A   1      32.980  23.506  25.737  1.00  0.00     0.041 A 
ATOM     10  C   UNL A   1      35.099  25.105  25.029  1.00  0.00     0.023 A 
ATOM     11  C   UNL A   1      35.341  23.920  25.733  1.00  0.00     0.053 A 
ATOM     12  Cl  UNL A   1      36.989  23.610  26.145  1.00  0.00    -0.083 Cl
BRANCH   7  13
ATOM     13  N   UNL A   1      31.502  24.840  24.339  1.00  0.00    -0.381 N 
ATOM     14  H   UNL A   1      31.338  24.512  23.425  1.00  0.00     0.160 HD
BRANCH  13  15
ATOM     15  C   UNL A   1      30.410  25.555  24.980  1.00  0.00     0.148 C 
BRANCH  15  16
ATOM     16  C   UNL A   1      30.940  26.871  25.483  1.00  0.00    -0.029 A 
ATOM     17  C   UNL A   1      31.833  29.384  26.394  1.00  0.00    -0.048 A 
ATOM     18  C   UNL A   1      31.492  29.192  25.049  1.00  0.00     0.004 A 
ATOM     19  C   UNL A   1      31.754  28.292  27.269  1.00  0.00     0.004 A 
ATOM     20  C   UNL A   1      31.067  27.949  24.596  1.00  0.00     0.006 A 
ATOM     21  C   UNL A   1      31.316  27.043  26.819  1.00  0.00     0.006 A 
BRANCH  17  22
ATOM     22  C   UNL A   1      32.204  30.782  26.827  1.00  0.00     0.032 C 
ATOM     23  C   UNL A   1      31.252  31.895  26.423  1.00  0.00     0.009 C 
ENDBRANCH  17  22
ENDBRANCH  15  16
ENDBRANCH  13  15
ENDBRANCH   7  13
ENDBRANCH   3   6
ENDBRANCH   1   2
BRANCH   1  24
ATOM     24  C   UNL A   1      37.186  19.680  24.951  1.00  0.00     0.042 C 
BRANCH  24  25
ATOM     25  C   UNL A   1      38.476  20.369  25.355  1.00  0.00     0.118 C 
BRANCH  25  26
ATOM     26  N   UNL A   1      39.568  19.435  25.602  1.00  0.00    -0.352 N 
ATOM     27  C   UNL A   1      40.849  19.633  26.060  1.00  0.00     0.251 C 
ATOM     28  H   UNL A   1      39.350  18.496  25.404  1.00  0.00     0.163 HD
ATOM     29  O   UNL A   1      41.655  18.708  26.005  1.00  0.00    -0.269 OA
BRANCH  27  30
ATOM     30  C   UNL A   1      41.280  20.944  26.599  1.00  0.00     0.039 A 
ATOM     31  C   UNL A   1      41.855  21.878  25.730  1.00  0.00     0.014 A 
ATOM     32  C   UNL A   1      41.166  21.247  27.955  1.00  0.00     0.014 A 
ATOM     33  C   UNL A   1      42.241  23.133  26.209  1.00  0.00     0.010 A 
ATOM     34  C   UNL A   1      41.445  22.531  28.409  1.00  0.00     0.010 A 
ATOM     35  C   UNL A   1      42.000  23.486  27.546  1.00  0.00    -0.014 A 
BRANCH  35  36
ATOM     36  C   UNL A   1      42.337  24.834  28.069  1.00  0.00     0.031 A 
ATOM     37  C   UNL A   1      43.749  25.151  28.489  1.00  0.00     0.074 A 
ATOM     38  C   UNL A   1      41.363  25.750  28.235  1.00  0.00     0.049 A 
ATOM     39  N   UNL A   1      44.223  26.242  29.036  1.00  0.00    -0.248 NA
ATOM     40  C   UNL A   1      44.754  24.091  28.299  1.00  0.00     0.031 C 
ATOM     41  C   UNL A   1      39.948  25.554  27.912  1.00  0.00     0.029 A 
ATOM     42  N   UNL A   1      41.417  27.031  28.724  1.00  0.00    -0.354 N 
ATOM     43  C   UNL A   1      45.568  25.989  29.276  1.00  0.00     0.074 A 
ATOM     44  C   UNL A   1      45.822  24.626  28.869  1.00  0.00     0.031 C 
ATOM     45  C   UNL A   1      39.275  26.684  28.179  1.00  0.00     0.029 A 
ATOM     46  C   UNL A   1      40.199  27.669  28.732  1.00  0.00     0.049 A 
ATOM     47  H   UNL A   1      42.248  27.453  29.040  1.00  0.00     0.167 HD
ATOM     48  C   UNL A   1      46.515  26.823  29.768  1.00  0.00     0.031 A 
ATOM     49  C   UNL A   1      39.863  28.906  29.142  1.00  0.00     0.031 A 
ATOM     50  C   UNL A   1      46.267  28.185  30.156  1.00  0.00     0.049 A 
ATOM     51  C   UNL A   1      40.932  29.812  29.687  1.00  0.00     0.074 A 
ATOM     52  C   UNL A   1      47.170  29.131  30.610  1.00  0.00     0.029 A 
ATOM     53  N   UNL A   1      45.024  28.797  30.134  1.00  0.00    -0.354 N 
ATOM     54  N   UNL A   1      42.212  29.580  29.843  1.00  0.00    -0.248 NA
ATOM     55  C   UNL A   1      40.508  31.158  30.098  1.00  0.00     0.031 C 
ATOM     56  C   UNL A   1      46.462  30.300  30.911  1.00  0.00     0.029 A 
ATOM     57  C   UNL A   1      45.130  30.100  30.586  1.00  0.00     0.049 A 
ATOM     58  H   UNL A   1      44.187  28.366  29.840  1.00  0.00     0.167 HD
ATOM     59  C   UNL A   1      42.752  30.758  30.342  1.00  0.00     0.074 A 
ATOM     60  C   UNL A   1      41.663  31.707  30.445  1.00  0.00     0.031 C 
ATOM     61  C   UNL A   1      44.035  31.031  30.683  1.00  0.00     0.031 A 
BRANCH  48  62
ATOM     62  C   UNL A   1      47.910  26.278  29.916  1.00  0.00    -0.014 A 
ATOM     63  C   UNL A   1      48.819  26.299  28.845  1.00  0.00     0.009 A 
ATOM     64  C   UNL A   1      48.331  25.758  31.150  1.00  0.00     0.009 A 
ATOM     65  C   UNL A   1      50.105  25.774  28.995  1.00  0.00     0.001 A 
ATOM     66  C   UNL A   1      49.627  25.264  31.307  1.00  0.00     0.001 A 
ATOM     67  C   UNL A   1      50.509  25.263  30.227  1.00  0.00     0.000 A 
ENDBRANCH  48  62
BRANCH  49  68
ATOM     68  C   UNL A   1      38.456  29.372  29.031  1.00  0.00    -0.014 A 
ATOM     69  C   UNL A   1      37.584  29.263  30.125  1.00  0.00     0.009 A 
ATOM     70  C   UNL A   1      37.975  29.922  27.834  1.00  0.00     0.009 A 
ATOM     71  C   UNL A   1      36.252  29.667  30.013  1.00  0.00     0.001 A 
ATOM     72  C   UNL A   1      36.650  30.355  27.734  1.00  0.00     0.001 A 
ATOM     73  C   UNL A   1      35.787  30.217  28.820  1.00  0.00     0.000 A 
ENDBRANCH  49  68
BRANCH  61  74
ATOM     74  C   UNL A   1      44.337  32.423  31.161  1.00  0.00    -0.014 A 
ATOM     75  C   UNL A   1      44.307  32.752  32.525  1.00  0.00     0.009 A 
ATOM     76  C   UNL A   1      44.690  33.413  30.229  1.00  0.00     0.009 A 
ATOM     77  C   UNL A   1      44.588  34.054  32.942  1.00  0.00     0.001 A 
ATOM     78  C   UNL A   1      45.001  34.706  30.653  1.00  0.00     0.001 A 
ATOM     79  C   UNL A   1      44.940  35.028  32.008  1.00  0.00     0.000 A 
ENDBRANCH  61  74
ENDBRANCH  35  36
ENDBRANCH  27  30
ENDBRANCH  25  26
ENDBRANCH  24  25
ENDBRANCH   1  24
TORSDOF 14
ENDMDL
MODEL 2
REMARK VINA RESULT:     -11.0      3.839      9.070
REMARK SMILES CCc1ccc(CNc2ccc(Cl)c(C(=O)NCCCNC(=O)c3ccc(-c4c5nc(c(-c6ccccc6)c6ccc([nH]6)c(-c6ccccc6)c6nc(c(-c7ccccc7)c7ccc4[nH]7)C=C6)C=C5)cc3)c2)cc1
REMARK SMILES IDX 18 1 17 2 15 3 16 4 14 6 9 7 10 8 72 9 11 10 12 11 13 12
REMARK SMILES IDX 8 13 7 15 6 16 3 17 4 18 74 19 5 20 73 21 2 22 1 23 19 24
REMARK SMILES IDX 20 25 21 26 22 27 23 29 24 30 25 31 71 32 26 33 70 34 27 35
REMARK SMILES IDX 28 36 29 37 64 38 30 39 69 40 63 41 65 42 31 43 68 44 62 45
REMARK SMILES IDX 61 46 32 48 54 49 39 50 53 51 40 52 43 53 52 54 66 55 41 56
REMARK SMILES IDX 42 57 51 59 67 60 44 61 33 62 34 63 38 64 35 65 37 66 36 67
REMARK SMILES IDX 55 68 56 69 60 70 57 71 59 72 58 73 45 74 46 75 50 76 47 77
REMARK SMILES IDX 49 78 48 79
REMARK H PARENT 17 5 8 14 21 28 65 47 43 58
REMARK Flexibility Score: inf
ROOT
ATOM      1  C   UNL A   1      31.596  30.643  26.705  1.00  0.00     0.118 C 
ENDROOT
BRANCH   1   2
ATOM      2  N   UNL A   1      32.439  30.211  25.595  1.00  0.00    -0.352 N 
ATOM      3  C   UNL A   1      32.346  29.216  24.640  1.00  0.00     0.252 C 
ATOM      4  O   UNL A   1      33.221  29.208  23.776  1.00  0.00    -0.269 OA
ATOM      5  H   UNL A   1      33.257  30.750  25.505  1.00  0.00     0.163 HD
BRANCH   3   6
ATOM      6  C   UNL A   1      31.272  28.182  24.645  1.00  0.00     0.060 A 
ATOM      7  C   UNL A   1      30.460  26.091  25.624  1.00  0.00     0.035 A 
ATOM      8  C   UNL A   1      29.514  26.005  24.603  1.00  0.00     0.027 A 
ATOM      9  C   UNL A   1      31.215  27.258  25.695  1.00  0.00     0.041 A 
ATOM     10  C   UNL A   1      29.402  27.013  23.645  1.00  0.00     0.023 A 
ATOM     11  C   UNL A   1      30.306  28.081  23.634  1.00  0.00     0.053 A 
ATOM     12  Cl  UNL A   1      30.142  29.198  22.327  1.00  0.00    -0.083 Cl
BRANCH   7  13
ATOM     13  N   UNL A   1      30.604  25.047  26.504  1.00  0.00    -0.381 N 
ATOM     14  H   UNL A   1      30.440  25.244  27.454  1.00  0.00     0.160 HD
BRANCH  13  15
ATOM     15  C   UNL A   1      30.971  23.678  26.177  1.00  0.00     0.148 C 
BRANCH  15  16
ATOM     16  C   UNL A   1      32.471  23.606  26.069  1.00  0.00    -0.029 A 
ATOM     17  C   UNL A   1      35.282  23.585  25.866  1.00  0.00    -0.048 A 
ATOM     18  C   UNL A   1      34.500  24.200  24.880  1.00  0.00     0.004 A 
ATOM     19  C   UNL A   1      34.636  22.951  26.937  1.00  0.00     0.004 A 
ATOM     20  C   UNL A   1      33.113  24.195  24.971  1.00  0.00     0.006 A 
ATOM     21  C   UNL A   1      33.242  22.956  27.037  1.00  0.00     0.006 A 
BRANCH  17  22
ATOM     22  C   UNL A   1      36.782  23.703  25.742  1.00  0.00     0.032 C 
ATOM     23  C   UNL A   1      37.540  22.428  25.411  1.00  0.00     0.009 C 
ENDBRANCH  17  22
ENDBRANCH  15  16
ENDBRANCH  13  15
ENDBRANCH   7  13
ENDBRANCH   3   6
ENDBRANCH   1   2
BRANCH   1  24
ATOM     24  C   UNL A   1      31.407  32.146  26.807  1.00  0.00     0.042 C 
BRANCH  24  25
ATOM     25  C   UNL A   1      32.694  32.941  26.934  1.00  0.00     0.118 C 
BRANCH  25  26
ATOM     26  N   UNL A   1      32.514  34.209  27.632  1.00  0.00    -0.352 N 
ATOM     27  C   UNL A   1      33.164  34.751  28.715  1.00  0.00     0.251 C 
ATOM     28  H   UNL A   1      31.799  34.776  27.263  1.00  0.00     0.163 HD
ATOM     29  O   UNL A   1      32.705  35.759  29.246  1.00  0.00    -0.269 OA
BRANCH  27  30
ATOM     30  C   UNL A   1      34.392  34.133  29.265  1.00  0.00     0.039 A 
ATOM     31  C   UNL A   1      34.283  33.262  30.354  1.00  0.00     0.014 A 
ATOM     32  C   UNL A   1      35.653  34.435  28.750  1.00  0.00     0.014 A 
ATOM     33  C   UNL A   1      35.425  32.642  30.870  1.00  0.00     0.010 A 
ATOM     34  C   UNL A   1      36.772  33.736  29.189  1.00  0.00     0.010 A 
ATOM     35  C   UNL A   1      36.675  32.842  30.264  1.00  0.00    -0.014 A 
BRANCH  35  36
ATOM     36  C   UNL A   1      37.896  32.147  30.747  1.00  0.00     0.031 A 
ATOM     37  C   UNL A   1      38.692  32.723  31.889  1.00  0.00     0.074 A 
ATOM     38  C   UNL A   1      38.329  31.040  30.113  1.00  0.00     0.049 A 
ATOM     39  N   UNL A   1      39.821  32.303  32.403  1.00  0.00    -0.248 NA
ATOM     40  C   UNL A   1      38.167  33.947  32.516  1.00  0.00     0.031 C 
ATOM     41  C   UNL A   1      37.677  30.407  28.964  1.00  0.00     0.029 A 
ATOM     42  N   UNL A   1      39.429  30.252  30.345  1.00  0.00    -0.354 N 
ATOM     43  C   UNL A   1      40.149  33.224  33.391  1.00  0.00     0.074 A 
ATOM     44  C   UNL A   1      39.133  34.252  33.367  1.00  0.00     0.031 C 
ATOM     45  C   UNL A   1      38.369  29.311  28.614  1.00  0.00     0.029 A 
ATOM     46  C   UNL A   1      39.536  29.188  29.482  1.00  0.00     0.049 A 
ATOM     47  H   UNL A   1      40.081  30.433  31.060  1.00  0.00     0.167 HD
ATOM     48  C   UNL A   1      41.189  33.205  34.259  1.00  0.00     0.031 A 
ATOM     49  C   UNL A   1      40.470  28.222  29.397  1.00  0.00     0.031 A 
ATOM     50  C   UNL A   1      42.190  32.172  34.295  1.00  0.00     0.049 A 
ATOM     51  C   UNL A   1      41.616  28.224  30.369  1.00  0.00     0.074 A 
ATOM     52  C   UNL A   1      43.250  32.029  35.173  1.00  0.00     0.029 A 
ATOM     53  N   UNL A   1      42.252  31.104  33.414  1.00  0.00    -0.354 N 
ATOM     54  N   UNL A   1      41.875  29.064  31.341  1.00  0.00    -0.248 NA
ATOM     55  C   UNL A   1      42.592  27.132  30.239  1.00  0.00     0.031 C 
ATOM     56  C   UNL A   1      43.983  30.901  34.791  1.00  0.00     0.029 A 
ATOM     57  C   UNL A   1      43.344  30.309  33.713  1.00  0.00     0.049 A 
ATOM     58  H   UNL A   1      41.613  30.936  32.683  1.00  0.00     0.167 HD
ATOM     59  C   UNL A   1      43.024  28.588  31.957  1.00  0.00     0.074 A 
ATOM     60  C   UNL A   1      43.401  27.376  31.260  1.00  0.00     0.031 C 
ATOM     61  C   UNL A   1      43.705  29.106  33.008  1.00  0.00     0.031 A 
BRANCH  48  62
ATOM     62  C   UNL A   1      41.295  34.342  35.238  1.00  0.00    -0.014 A 
ATOM     63  C   UNL A   1      42.004  35.513  34.922  1.00  0.00     0.009 A 
ATOM     64  C   UNL A   1      40.657  34.253  36.486  1.00  0.00     0.009 A 
ATOM     65  C   UNL A   1      42.106  36.553  35.849  1.00  0.00     0.001 A 
ATOM     66  C   UNL A   1      40.733  35.307  37.398  1.00  0.00     0.001 A 
ATOM     67  C   UNL A   1      41.466  36.450  37.084  1.00  0.00     0.000 A 
ENDBRANCH  48  62
BRANCH  49  68
ATOM     68  C   UNL A   1      40.349  27.157  28.367  1.00  0.00    -0.014 A 
ATOM     69  C   UNL A   1      39.665  25.966  28.654  1.00  0.00     0.009 A 
ATOM     70  C   UNL A   1      40.919  27.321  27.095  1.00  0.00     0.009 A 
ATOM     71  C   UNL A   1      39.580  24.949  27.700  1.00  0.00     0.001 A 
ATOM     72  C   UNL A   1      40.805  26.315  26.132  1.00  0.00     0.001 A 
ATOM     73  C   UNL A   1      40.146  25.126  26.439  1.00  0.00     0.000 A 
ENDBRANCH  49  68
BRANCH  61  74
ATOM     74  C   UNL A   1      44.905  28.341  33.491  1.00  0.00    -0.014 A 
ATOM     75  C   UNL A   1      44.787  27.325  34.452  1.00  0.00     0.009 A 
ATOM     76  C   UNL A   1      46.170  28.622  32.948  1.00  0.00     0.009 A 
ATOM     77  C   UNL A   1      45.919  26.631  34.887  1.00  0.00     0.001 A 
ATOM     78  C   UNL A   1      47.293  27.905  33.362  1.00  0.00     0.001 A 
ATOM     79  C   UNL A   1      47.168  26.918  34.338  1.00  0.00     0.000 A 
ENDBRANCH  61  74
ENDBRANCH  35  36
ENDBRANCH  27  30
ENDBRANCH  25  26
ENDBRANCH  24  25
ENDBRANCH   1  24
TORSDOF 14
ENDMDL
MODEL 3
REMARK VINA RESULT:     -10.9      3.893      8.929
REMARK SMILES CCc1ccc(CNc2ccc(Cl)c(C(=O)NCCCNC(=O)c3ccc(-c4c5nc(c(-c6ccccc6)c6ccc([nH]6)c(-c6ccccc6)c6nc(c(-c7ccccc7)c7ccc4[nH]7)C=C6)C=C5)cc3)c2)cc1
REMARK SMILES IDX 18 1 17 2 15 3 16 4 14 6 9 7 10 8 72 9 11 10 12 11 13 12
REMARK SMILES IDX 8 13 7 15 6 16 3 17 4 18 74 19 5 20 73 21 2 22 1 23 19 24
REMARK SMILES IDX 20 25 21 26 22 27 23 29 24 30 25 31 71 32 26 33 70 34 27 35
REMARK SMILES IDX 28 36 29 37 64 38 30 39 69 40 63 41 65 42 31 43 68 44 62 45
REMARK SMILES IDX 61 46 32 48 54 49 39 50 53 51 40 52 43 53 52 54 66 55 41 56
REMARK SMILES IDX 42 57 51 59 67 60 44 61 33 62 34 63 38 64 35 65 37 66 36 67
REMARK SMILES IDX 55 68 56 69 60 70 57 71 59 72 58 73 45 74 46 75 50 76 47 77
REMARK SMILES IDX 49 78 48 79
REMARK H PARENT 17 5 8 14 21 28 65 47 43 58
REMARK Flexibility Score: inf
ROOT
ATOM      1  C   UNL A   1      31.514  30.415  26.274  1.00  0.00     0.118 C 
ENDROOT
BRANCH   1   2
ATOM      2  N   UNL A   1      32.222  30.035  25.056  1.00  0.00    -0.352 N 
ATOM      3  C   UNL A   1      31.964  29.156  24.021  1.00  0.00     0.252 C 
ATOM      4  O   UNL A   1      32.761  29.167  23.085  1.00  0.00    -0.269 OA
ATOM      5  H   UNL A   1      33.076  30.512  24.946  1.00  0.00     0.163 HD
BRANCH   3   6
ATOM      6  C   UNL A   1      30.806  28.216  24.023  1.00  0.00     0.060 A 
ATOM      7  C   UNL A   1      30.048  25.914  24.364  1.00  0.00     0.035 A 
ATOM      8  C   UNL A   1      28.820  26.257  23.799  1.00  0.00     0.027 A 
ATOM      9  C   UNL A   1      30.954  26.947  24.592  1.00  0.00     0.041 A 
ATOM     10  C   UNL A   1      28.558  27.568  23.400  1.00  0.00     0.023 A 
ATOM     11  C   UNL A   1      29.560  28.542  23.468  1.00  0.00     0.053 A 
ATOM     12  Cl  UNL A   1      29.152  30.094  22.831  1.00  0.00    -0.083 Cl
BRANCH   7  13
ATOM     13  N   UNL A   1      30.310  24.602  24.671  1.00  0.00    -0.381 N 
ATOM     14  H   UNL A   1      29.957  24.270  25.528  1.00  0.00     0.160 HD
BRANCH  13  15
ATOM     15  C   UNL A   1      31.054  23.651  23.861  1.00  0.00     0.148 C 
BRANCH  15  16
ATOM     16  C   UNL A   1      32.478  23.626  24.351  1.00  0.00    -0.029 A 
ATOM     17  C   UNL A   1      35.169  23.657  25.188  1.00  0.00    -0.048 A 
ATOM     18  C   UNL A   1      34.832  23.279  23.882  1.00  0.00     0.004 A 
ATOM     19  C   UNL A   1      34.138  23.987  26.079  1.00  0.00     0.004 A 
ATOM     20  C   UNL A   1      33.503  23.248  23.475  1.00  0.00     0.006 A 
ATOM     21  C   UNL A   1      32.802  23.968  25.668  1.00  0.00     0.006 A 
BRANCH  17  22
ATOM     22  C   UNL A   1      36.636  23.748  25.531  1.00  0.00     0.032 C 
ATOM     23  C   UNL A   1      37.477  22.512  25.257  1.00  0.00     0.009 C 
ENDBRANCH  17  22
ENDBRANCH  15  16
ENDBRANCH  13  15
ENDBRANCH   7  13
ENDBRANCH   3   6
ENDBRANCH   1   2
BRANCH   1  24
ATOM     24  C   UNL A   1      31.448  31.911  26.525  1.00  0.00     0.042 C 
BRANCH  24  25
ATOM     25  C   UNL A   1      32.721  32.519  27.085  1.00  0.00     0.118 C 
BRANCH  25  26
ATOM     26  N   UNL A   1      32.517  33.848  27.650  1.00  0.00    -0.352 N 
ATOM     27  C   UNL A   1      33.191  34.532  28.633  1.00  0.00     0.251 C 
ATOM     28  H   UNL A   1      31.762  34.343  27.256  1.00  0.00     0.163 HD
ATOM     29  O   UNL A   1      32.713  35.574  29.073  1.00  0.00    -0.269 OA
BRANCH  27  30
ATOM     30  C   UNL A   1      34.469  34.026  29.185  1.00  0.00     0.039 A 
ATOM     31  C   UNL A   1      34.439  33.190  30.306  1.00  0.00     0.014 A 
ATOM     32  C   UNL A   1      35.696  34.401  28.640  1.00  0.00     0.014 A 
ATOM     33  C   UNL A   1      35.630  32.676  30.826  1.00  0.00     0.010 A 
ATOM     34  C   UNL A   1      36.870  33.802  29.086  1.00  0.00     0.010 A 
ATOM     35  C   UNL A   1      36.854  32.944  30.193  1.00  0.00    -0.014 A 
BRANCH  35  36
ATOM     36  C   UNL A   1      38.129  32.359  30.681  1.00  0.00     0.031 A 
ATOM     37  C   UNL A   1      38.657  31.084  30.075  1.00  0.00     0.074 A 
ATOM     38  C   UNL A   1      38.774  32.932  31.715  1.00  0.00     0.049 A 
ATOM     39  N   UNL A   1      39.710  30.383  30.415  1.00  0.00    -0.248 NA
ATOM     40  C   UNL A   1      37.885  30.505  28.964  1.00  0.00     0.031 C 
ATOM     41  C   UNL A   1      38.344  34.141  32.421  1.00  0.00     0.029 A 
ATOM     42  N   UNL A   1      39.931  32.568  32.358  1.00  0.00    -0.354 N 
ATOM     43  C   UNL A   1      39.709  29.274  29.578  1.00  0.00     0.074 A 
ATOM     44  C   UNL A   1      38.523  29.364  28.756  1.00  0.00     0.031 C 
ATOM     45  C   UNL A   1      39.242  34.437  33.374  1.00  0.00     0.029 A 
ATOM     46  C   UNL A   1      40.286  33.418  33.378  1.00  0.00     0.049 A 
ATOM     47  H   UNL A   1      40.457  31.773  32.112  1.00  0.00     0.167 HD
ATOM     48  C   UNL A   1      40.623  28.279  29.484  1.00  0.00     0.031 A 
ATOM     49  C   UNL A   1      41.332  33.380  34.224  1.00  0.00     0.031 A 
ATOM     50  C   UNL A   1      41.812  28.198  30.289  1.00  0.00     0.049 A 
ATOM     51  C   UNL A   1      42.332  32.264  34.101  1.00  0.00     0.074 A 
ATOM     52  C   UNL A   1      42.832  27.264  30.230  1.00  0.00     0.029 A 
ATOM     53  N   UNL A   1      42.141  29.088  31.299  1.00  0.00    -0.354 N 
ATOM     54  N   UNL A   1      42.352  31.260  33.259  1.00  0.00    -0.248 NA
ATOM     55  C   UNL A   1      43.464  32.288  35.038  1.00  0.00     0.031 C 
ATOM     56  C   UNL A   1      43.753  27.561  31.240  1.00  0.00     0.029 A 
ATOM     57  C   UNL A   1      43.337  28.714  31.887  1.00  0.00     0.049 A 
ATOM     58  H   UNL A   1      41.603  29.871  31.561  1.00  0.00     0.167 HD
ATOM     59  C   UNL A   1      43.510  30.550  33.544  1.00  0.00     0.074 A 
ATOM     60  C   UNL A   1      44.175  31.248  34.625  1.00  0.00     0.031 C 
ATOM     61  C   UNL A   1      43.983  29.420  32.962  1.00  0.00     0.031 A 
BRANCH  48  62
ATOM     62  C   UNL A   1      40.367  27.196  28.471  1.00  0.00    -0.014 A 
ATOM     63  C   UNL A   1      40.921  27.257  27.182  1.00  0.00     0.009 A 
ATOM     64  C   UNL A   1      39.583  26.085  28.818  1.00  0.00     0.009 A 
ATOM     65  C   UNL A   1      40.661  26.250  26.249  1.00  0.00     0.001 A 
ATOM     66  C   UNL A   1      39.350  25.064  27.895  1.00  0.00     0.001 A 
ATOM     67  C   UNL A   1      39.880  25.153  26.608  1.00  0.00     0.000 A 
ENDBRANCH  48  62
BRANCH  49  68
ATOM     68  C   UNL A   1      41.502  34.443  35.248  1.00  0.00    -0.014 A 
ATOM     69  C   UNL A   1      40.940  34.295  36.525  1.00  0.00     0.009 A 
ATOM     70  C   UNL A   1      42.221  35.612  34.955  1.00  0.00     0.009 A 
ATOM     71  C   UNL A   1      41.068  35.308  37.478  1.00  0.00     0.001 A 
ATOM     72  C   UNL A   1      42.375  36.610  35.921  1.00  0.00     0.001 A 
ATOM     73  C   UNL A   1      41.789  36.463  37.177  1.00  0.00     0.000 A 
ENDBRANCH  49  68
BRANCH  61  74
ATOM     74  C   UNL A   1      45.301  28.895  33.457  1.00  0.00    -0.014 A 
ATOM     75  C   UNL A   1      46.514  29.294  32.874  1.00  0.00     0.009 A 
ATOM     76  C   UNL A   1      45.328  28.011  34.548  1.00  0.00     0.009 A 
ATOM     77  C   UNL A   1      47.725  28.788  33.351  1.00  0.00     0.001 A 
ATOM     78  C   UNL A   1      46.542  27.533  35.042  1.00  0.00     0.001 A 
ATOM     79  C   UNL A   1      47.738  27.913  34.437  1.00  0.00     0.000 A 
ENDBRANCH  61  74
ENDBRANCH  35  36
ENDBRANCH  27  30
ENDBRANCH  25  26
ENDBRANCH  24  25
ENDBRANCH   1  24
TORSDOF 14
ENDMDL
