MODEL 1
REMARK VINA RESULT:     -13.5      0.000      0.000
REMARK SMILES CC1=C([C@H](NC(=O)[C@@H]2[C@H](C)c3cc(F)ccc3N2C)C(=O)NCCCNC(=O)c2ccc(-c3c4nc(c(-c5ccccc5)c5ccc([nH]5)c(-c5ccccc5)c5nc(c(-c6ccccc6)c6ccc3[nH]6)C=C5)C=C4)cc2)[C@@H](C)N=N1
REMARK SMILES IDX 24 1 23 2 22 3 20 4 21 5 4 7 3 8 1 9 2 10 80 11 77 12 79 13
REMARK SMILES IDX 78 14 5 15 6 16 7 18 8 19 9 20 18 21 11 22 10 23 17 24 19 25
REMARK SMILES IDX 12 26 16 27 13 28 15 29 14 30 25 31 26 32 27 33 28 35 29 36
REMARK SMILES IDX 30 37 76 38 31 39 75 40 32 41 33 42 34 43 69 44 35 45 74 46
REMARK SMILES IDX 68 47 70 48 36 49 73 50 67 51 66 52 37 54 59 55 44 56 58 57
REMARK SMILES IDX 45 58 48 59 57 60 71 61 46 62 47 63 56 65 72 66 49 67 38 68
REMARK SMILES IDX 39 69 43 70 40 71 42 72 41 73 60 74 61 75 65 76 62 77 64 78
REMARK SMILES IDX 63 79 50 80 51 81 55 82 52 83 54 84 53 85
REMARK H PARENT 22 6 5 17 26 34 70 53 48 64
REMARK Flexibility Score: inf
ROOT
ATOM      1  C   UNL A   1      34.439  30.125  26.699  1.00  0.00     0.042 C 
ENDROOT
BRANCH   1   2
ATOM      2  C   UNL A   1      34.220  28.632  26.991  1.00  0.00     0.117 C 
BRANCH   2   3
ATOM      3  N   UNL A   1      32.902  28.439  27.595  1.00  0.00    -0.354 N 
ATOM      4  C   UNL A   1      31.755  27.774  27.330  1.00  0.00     0.247 C 
ATOM      5  O   UNL A   1      30.846  28.009  28.145  1.00  0.00    -0.272 OA
ATOM      6  H   UNL A   1      32.828  28.939  28.439  1.00  0.00     0.163 HD
BRANCH   4   7
ATOM      7  C   UNL A   1      31.457  26.785  26.152  1.00  0.00     0.202 C 
BRANCH   7   8
ATOM      8  C   UNL A   1      31.225  27.300  24.772  1.00  0.00     0.011 C 
ATOM      9  C   UNL A   1      28.910  26.328  24.251  1.00  0.00     0.069 C 
ATOM     10  C   UNL A   1      30.155  27.107  23.982  1.00  0.00     0.064 C 
ATOM     11  N   UNL A   1      30.286  27.718  22.762  1.00  0.00    -0.160 NA
ATOM     12  C   UNL A   1      32.183  28.077  23.932  1.00  0.00     0.156 C 
ATOM     13  N   UNL A   1      31.401  28.296  22.682  1.00  0.00    -0.181 NA
ATOM     14  C   UNL A   1      33.465  27.343  23.551  1.00  0.00     0.040 C 
ENDBRANCH   7   8
BRANCH   7  15
ATOM     15  N   UNL A   1      30.885  25.453  26.384  1.00  0.00    -0.339 N 
ATOM     16  C   UNL A   1      31.399  24.200  26.519  1.00  0.00     0.244 C 
ATOM     17  H   UNL A   1      29.904  25.470  26.461  1.00  0.00     0.164 HD
ATOM     18  O   UNL A   1      30.655  23.338  26.991  1.00  0.00    -0.273 OA
BRANCH  16  19
ATOM     19  C   UNL A   1      32.788  23.896  26.004  1.00  0.00     0.178 C 
ATOM     20  C   UNL A   1      32.809  23.879  24.461  1.00  0.00     0.050 C 
ATOM     21  N   UNL A   1      33.393  22.626  26.495  1.00  0.00    -0.362 N 
ATOM     22  C   UNL A   1      33.859  22.844  24.233  1.00  0.00    -0.016 A 
ATOM     23  C   UNL A   1      31.532  23.770  23.648  1.00  0.00     0.015 C 
ATOM     24  C   UNL A   1      34.211  22.207  25.426  1.00  0.00     0.041 A 
ATOM     25  C   UNL A   1      33.993  22.578  27.818  1.00  0.00     0.144 C 
ATOM     26  C   UNL A   1      34.737  22.941  23.189  1.00  0.00     0.045 A 
ATOM     27  C   UNL A   1      35.425  21.542  25.540  1.00  0.00     0.029 A 
ATOM     28  C   UNL A   1      36.038  22.599  23.499  1.00  0.00     0.123 A 
ATOM     29  C   UNL A   1      36.385  21.817  24.586  1.00  0.00     0.041 A 
ATOM     30  F   UNL A   1      37.028  23.300  22.958  1.00  0.00    -0.207 F 
ENDBRANCH  16  19
ENDBRANCH   7  15
ENDBRANCH   4   7
ENDBRANCH   2   3
ENDBRANCH   1   2
BRANCH   1  31
ATOM     31  C   UNL A   1      33.890  31.199  27.665  1.00  0.00     0.118 C 
BRANCH  31  32
ATOM     32  N   UNL A   1      34.653  31.543  28.852  1.00  0.00    -0.352 N 
ATOM     33  C   UNL A   1      35.986  31.929  28.703  1.00  0.00     0.251 C 
ATOM     34  H   UNL A   1      34.238  31.507  29.744  1.00  0.00     0.163 HD
ATOM     35  O   UNL A   1      36.284  33.042  28.258  1.00  0.00    -0.269 OA
BRANCH  33  36
ATOM     36  C   UNL A   1      37.019  31.068  29.334  1.00  0.00     0.039 A 
ATOM     37  C   UNL A   1      38.356  31.452  29.360  1.00  0.00     0.014 A 
ATOM     38  C   UNL A   1      36.662  29.767  29.730  1.00  0.00     0.014 A 
ATOM     39  C   UNL A   1      39.335  30.468  29.540  1.00  0.00     0.010 A 
ATOM     40  C   UNL A   1      37.649  28.789  29.940  1.00  0.00     0.010 A 
ATOM     41  C   UNL A   1      38.994  29.103  29.734  1.00  0.00    -0.014 A 
BRANCH  41  42
ATOM     42  C   UNL A   1      40.101  28.101  29.761  1.00  0.00     0.031 A 
ATOM     43  C   UNL A   1      40.855  28.141  31.047  1.00  0.00     0.074 A 
ATOM     44  C   UNL A   1      40.412  27.154  28.835  1.00  0.00     0.049 A 
ATOM     45  N   UNL A   1      42.124  28.292  31.254  1.00  0.00    -0.248 NA
ATOM     46  C   UNL A   1      40.032  28.175  32.272  1.00  0.00     0.031 C 
ATOM     47  C   UNL A   1      39.658  26.816  27.623  1.00  0.00     0.029 A 
ATOM     48  N   UNL A   1      41.417  26.203  28.826  1.00  0.00    -0.354 N 
ATOM     49  C   UNL A   1      42.269  28.282  32.640  1.00  0.00     0.074 A 
ATOM     50  C   UNL A   1      40.952  28.407  33.201  1.00  0.00     0.031 C 
ATOM     51  C   UNL A   1      40.060  25.613  27.153  1.00  0.00     0.029 A 
ATOM     52  C   UNL A   1      41.181  25.140  27.949  1.00  0.00     0.049 A 
ATOM     53  H   UNL A   1      42.224  26.267  29.386  1.00  0.00     0.167 HD
ATOM     54  C   UNL A   1      43.410  27.864  33.246  1.00  0.00     0.031 A 
ATOM     55  C   UNL A   1      41.792  23.927  27.904  1.00  0.00     0.031 A 
ATOM     56  C   UNL A   1      44.550  27.942  32.382  1.00  0.00     0.049 A 
ATOM     57  C   UNL A   1      43.085  24.009  28.605  1.00  0.00     0.074 A 
ATOM     58  C   UNL A   1      45.362  28.937  31.889  1.00  0.00     0.029 A 
ATOM     59  N   UNL A   1      44.769  26.819  31.633  1.00  0.00    -0.354 N 
ATOM     60  N   UNL A   1      44.119  24.656  28.156  1.00  0.00    -0.248 NA
ATOM     61  C   UNL A   1      43.169  23.565  29.990  1.00  0.00     0.031 C 
ATOM     62  C   UNL A   1      45.927  28.423  30.686  1.00  0.00     0.029 A 
ATOM     63  C   UNL A   1      45.474  27.118  30.499  1.00  0.00     0.049 A 
ATOM     64  H   UNL A   1      44.461  25.916  31.877  1.00  0.00     0.167 HD
ATOM     65  C   UNL A   1      44.773  25.074  29.297  1.00  0.00     0.074 A 
ATOM     66  C   UNL A   1      44.256  24.238  30.371  1.00  0.00     0.031 C 
ATOM     67  C   UNL A   1      45.421  26.270  29.327  1.00  0.00     0.031 A 
BRANCH  54  68
ATOM     68  C   UNL A   1      43.365  26.908  34.424  1.00  0.00    -0.014 A 
ATOM     69  C   UNL A   1      43.368  27.338  35.769  1.00  0.00     0.009 A 
ATOM     70  C   UNL A   1      43.025  25.562  34.205  1.00  0.00     0.009 A 
ATOM     71  C   UNL A   1      43.069  26.489  36.834  1.00  0.00     0.001 A 
ATOM     72  C   UNL A   1      42.683  24.715  35.269  1.00  0.00     0.001 A 
ATOM     73  C   UNL A   1      42.707  25.177  36.582  1.00  0.00     0.000 A 
ENDBRANCH  54  68
BRANCH  55  74
ATOM     74  C   UNL A   1      41.217  22.598  27.556  1.00  0.00    -0.014 A 
ATOM     75  C   UNL A   1      42.028  21.452  27.626  1.00  0.00     0.009 A 
ATOM     76  C   UNL A   1      39.997  22.485  26.860  1.00  0.00     0.009 A 
ATOM     77  C   UNL A   1      41.667  20.259  26.986  1.00  0.00     0.001 A 
ATOM     78  C   UNL A   1      39.636  21.291  26.216  1.00  0.00     0.001 A 
ATOM     79  C   UNL A   1      40.481  20.185  26.264  1.00  0.00     0.000 A 
ENDBRANCH  55  74
BRANCH  67  80
ATOM     80  C   UNL A   1      45.909  26.853  28.032  1.00  0.00    -0.014 A 
ATOM     81  C   UNL A   1      47.194  26.481  27.606  1.00  0.00     0.009 A 
ATOM     82  C   UNL A   1      45.217  27.833  27.304  1.00  0.00     0.009 A 
ATOM     83  C   UNL A   1      47.790  27.094  26.505  1.00  0.00     0.001 A 
ATOM     84  C   UNL A   1      45.805  28.427  26.183  1.00  0.00     0.001 A 
ATOM     85  C   UNL A   1      47.095  28.069  25.794  1.00  0.00     0.000 A 
ENDBRANCH  67  80
ENDBRANCH  41  42
ENDBRANCH  33  36
ENDBRANCH  31  32
ENDBRANCH   1  31
TORSDOF 13
ENDMDL
MODEL 2
REMARK VINA RESULT:     -12.6      3.640      8.687
REMARK SMILES CC1=C([C@H](NC(=O)[C@@H]2[C@H](C)c3cc(F)ccc3N2C)C(=O)NCCCNC(=O)c2ccc(-c3c4nc(c(-c5ccccc5)c5ccc([nH]5)c(-c5ccccc5)c5nc(c(-c6ccccc6)c6ccc3[nH]6)C=C5)C=C4)cc2)[C@@H](C)N=N1
REMARK SMILES IDX 24 1 23 2 22 3 20 4 21 5 4 7 3 8 1 9 2 10 80 11 77 12 79 13
REMARK SMILES IDX 78 14 5 15 6 16 7 18 8 19 9 20 18 21 11 22 10 23 17 24 19 25
REMARK SMILES IDX 12 26 16 27 13 28 15 29 14 30 25 31 26 32 27 33 28 35 29 36
REMARK SMILES IDX 30 37 76 38 31 39 75 40 32 41 33 42 34 43 69 44 35 45 74 46
REMARK SMILES IDX 68 47 70 48 36 49 73 50 67 51 66 52 37 54 59 55 44 56 58 57
REMARK SMILES IDX 45 58 48 59 57 60 71 61 46 62 47 63 56 65 72 66 49 67 38 68
REMARK SMILES IDX 39 69 43 70 40 71 42 72 41 73 60 74 61 75 65 76 62 77 64 78
REMARK SMILES IDX 63 79 50 80 51 81 55 82 52 83 54 84 53 85
REMARK H PARENT 22 6 5 17 26 34 70 53 48 64
REMARK Flexibility Score: inf
ROOT
ATOM      1  C   UNL A   1      38.797  21.146  25.791  1.00  0.00     0.042 C 
ENDROOT
BRANCH   1   2
ATOM      2  C   UNL A   1      37.576  22.074  25.695  1.00  0.00     0.117 C 
BRANCH   2   3
ATOM      3  N   UNL A   1      37.375  22.477  24.304  1.00  0.00    -0.354 N 
ATOM      4  C   UNL A   1      36.349  22.768  23.473  1.00  0.00     0.247 C 
ATOM      5  O   UNL A   1      36.704  22.981  22.301  1.00  0.00    -0.272 OA
ATOM      6  H   UNL A   1      38.236  22.559  23.835  1.00  0.00     0.163 HD
BRANCH   4   7
ATOM      7  C   UNL A   1      34.821  22.856  23.811  1.00  0.00     0.202 C 
BRANCH   7   8
ATOM      8  C   UNL A   1      34.240  22.029  24.907  1.00  0.00     0.011 C 
ATOM      9  C   UNL A   1      34.319  23.668  26.877  1.00  0.00     0.069 C 
ATOM     10  C   UNL A   1      34.030  22.376  26.188  1.00  0.00     0.064 C 
ATOM     11  N   UNL A   1      33.491  21.355  26.927  1.00  0.00    -0.160 NA
ATOM     12  C   UNL A   1      33.844  20.592  24.832  1.00  0.00     0.156 C 
ATOM     13  N   UNL A   1      33.346  20.329  26.212  1.00  0.00    -0.181 NA
ATOM     14  C   UNL A   1      34.981  19.612  24.558  1.00  0.00     0.040 C 
ENDBRANCH   7   8
BRANCH   7  15
ATOM     15  N   UNL A   1      33.832  23.292  22.818  1.00  0.00    -0.339 N 
ATOM     16  C   UNL A   1      33.160  24.451  22.581  1.00  0.00     0.244 C 
ATOM     17  H   UNL A   1      33.602  22.583  22.176  1.00  0.00     0.164 HD
ATOM     18  O   UNL A   1      32.609  24.565  21.484  1.00  0.00    -0.273 OA
BRANCH  16  19
ATOM     19  C   UNL A   1      33.029  25.484  23.677  1.00  0.00     0.178 C 
ATOM     20  C   UNL A   1      31.963  25.059  24.708  1.00  0.00     0.050 C 
ATOM     21  N   UNL A   1      32.715  26.869  23.223  1.00  0.00    -0.362 N 
ATOM     22  C   UNL A   1      31.445  26.400  25.107  1.00  0.00    -0.016 A 
ATOM     23  C   UNL A   1      30.942  23.979  24.398  1.00  0.00     0.015 C 
ATOM     24  C   UNL A   1      31.954  27.406  24.282  1.00  0.00     0.041 A 
ATOM     25  C   UNL A   1      33.777  27.714  22.705  1.00  0.00     0.144 C 
ATOM     26  C   UNL A   1      31.058  26.658  26.393  1.00  0.00     0.045 A 
ATOM     27  C   UNL A   1      31.964  28.729  24.705  1.00  0.00     0.029 A 
ATOM     28  C   UNL A   1      31.444  27.894  26.871  1.00  0.00     0.123 A 
ATOM     29  C   UNL A   1      31.783  28.958  26.055  1.00  0.00     0.041 A 
ATOM     30  F   UNL A   1      31.835  27.995  28.137  1.00  0.00    -0.207 F 
ENDBRANCH  16  19
ENDBRANCH   7  15
ENDBRANCH   4   7
ENDBRANCH   2   3
ENDBRANCH   1   2
BRANCH   1  31
ATOM     31  C   UNL A   1      40.106  21.642  26.446  1.00  0.00     0.118 C 
BRANCH  31  32
ATOM     32  N   UNL A   1      40.529  23.016  26.237  1.00  0.00    -0.352 N 
ATOM     33  C   UNL A   1      41.534  23.538  27.052  1.00  0.00     0.251 C 
ATOM     34  H   UNL A   1      40.117  23.567  25.534  1.00  0.00     0.163 HD
ATOM     35  O   UNL A   1      42.716  23.212  26.900  1.00  0.00    -0.269 OA
BRANCH  33  36
ATOM     36  C   UNL A   1      41.176  24.685  27.926  1.00  0.00     0.039 A 
ATOM     37  C   UNL A   1      39.919  25.274  27.859  1.00  0.00     0.014 A 
ATOM     38  C   UNL A   1      42.191  25.297  28.683  1.00  0.00     0.014 A 
ATOM     39  C   UNL A   1      39.762  26.581  28.337  1.00  0.00     0.010 A 
ATOM     40  C   UNL A   1      42.020  26.597  29.189  1.00  0.00     0.010 A 
ATOM     41  C   UNL A   1      40.841  27.296  28.921  1.00  0.00    -0.014 A 
BRANCH  41  42
ATOM     42  C   UNL A   1      40.626  28.735  29.261  1.00  0.00     0.031 A 
ATOM     43  C   UNL A   1      41.745  29.594  28.776  1.00  0.00     0.074 A 
ATOM     44  C   UNL A   1      39.543  29.317  29.843  1.00  0.00     0.049 A 
ATOM     45  N   UNL A   1      42.489  30.425  29.432  1.00  0.00    -0.248 NA
ATOM     46  C   UNL A   1      42.182  29.353  27.386  1.00  0.00     0.031 C 
ATOM     47  C   UNL A   1      38.266  28.678  30.183  1.00  0.00     0.029 A 
ATOM     48  N   UNL A   1      39.298  30.640  30.163  1.00  0.00    -0.354 N 
ATOM     49  C   UNL A   1      43.387  30.926  28.492  1.00  0.00     0.074 A 
ATOM     50  C   UNL A   1      43.280  30.096  27.324  1.00  0.00     0.031 C 
ATOM     51  C   UNL A   1      37.325  29.623  30.404  1.00  0.00     0.029 A 
ATOM     52  C   UNL A   1      37.945  30.936  30.345  1.00  0.00     0.049 A 
ATOM     53  H   UNL A   1      40.012  31.312  30.254  1.00  0.00     0.167 HD
ATOM     54  C   UNL A   1      43.936  32.163  28.602  1.00  0.00     0.031 A 
ATOM     55  C   UNL A   1      37.340  32.154  30.376  1.00  0.00     0.031 A 
ATOM     56  C   UNL A   1      43.924  32.650  29.950  1.00  0.00     0.049 A 
ATOM     57  C   UNL A   1      38.349  33.189  30.660  1.00  0.00     0.074 A 
ATOM     58  C   UNL A   1      44.629  32.405  31.106  1.00  0.00     0.029 A 
ATOM     59  N   UNL A   1      42.793  33.337  30.292  1.00  0.00    -0.354 N 
ATOM     60  N   UNL A   1      38.934  33.342  31.810  1.00  0.00    -0.248 NA
ATOM     61  C   UNL A   1      38.927  33.938  29.552  1.00  0.00     0.031 C 
ATOM     62  C   UNL A   1      43.775  32.794  32.177  1.00  0.00     0.029 A 
ATOM     63  C   UNL A   1      42.590  33.299  31.644  1.00  0.00     0.049 A 
ATOM     64  H   UNL A   1      42.203  33.796  29.651  1.00  0.00     0.167 HD
ATOM     65  C   UNL A   1      40.181  33.838  31.488  1.00  0.00     0.074 A 
ATOM     66  C   UNL A   1      40.059  34.345  30.129  1.00  0.00     0.031 C 
ATOM     67  C   UNL A   1      41.275  33.495  32.220  1.00  0.00     0.031 A 
BRANCH  54  68
ATOM     68  C   UNL A   1      43.988  33.105  27.414  1.00  0.00    -0.014 A 
ATOM     69  C   UNL A   1      44.348  32.690  26.113  1.00  0.00     0.009 A 
ATOM     70  C   UNL A   1      43.393  34.374  27.515  1.00  0.00     0.009 A 
ATOM     71  C   UNL A   1      44.148  33.484  24.984  1.00  0.00     0.001 A 
ATOM     72  C   UNL A   1      43.151  35.159  26.378  1.00  0.00     0.001 A 
ATOM     73  C   UNL A   1      43.530  34.715  25.114  1.00  0.00     0.000 A 
ENDBRANCH  54  68
BRANCH  55  74
ATOM     74  C   UNL A   1      35.991  32.546  29.882  1.00  0.00    -0.014 A 
ATOM     75  C   UNL A   1      35.568  32.123  28.610  1.00  0.00     0.009 A 
ATOM     76  C   UNL A   1      35.255  33.577  30.498  1.00  0.00     0.009 A 
ATOM     77  C   UNL A   1      34.493  32.736  27.955  1.00  0.00     0.001 A 
ATOM     78  C   UNL A   1      34.179  34.195  29.840  1.00  0.00     0.001 A 
ATOM     79  C   UNL A   1      33.811  33.785  28.561  1.00  0.00     0.000 A 
ENDBRANCH  55  74
BRANCH  67  80
ATOM     80  C   UNL A   1      41.078  33.073  33.648  1.00  0.00    -0.014 A 
ATOM     81  C   UNL A   1      40.862  31.707  33.888  1.00  0.00     0.009 A 
ATOM     82  C   UNL A   1      40.967  33.970  34.721  1.00  0.00     0.009 A 
ATOM     83  C   UNL A   1      40.511  31.248  35.156  1.00  0.00     0.001 A 
ATOM     84  C   UNL A   1      40.642  33.505  36.000  1.00  0.00     0.001 A 
ATOM     85  C   UNL A   1      40.399  32.148  36.212  1.00  0.00     0.000 A 
ENDBRANCH  67  80
ENDBRANCH  41  42
ENDBRANCH  33  36
ENDBRANCH  31  32
ENDBRANCH   1  31
TORSDOF 13
ENDMDL
MODEL 3
REMARK VINA RESULT:     -12.4      1.919      2.786
REMARK SMILES CC1=C([C@H](NC(=O)[C@@H]2[C@H](C)c3cc(F)ccc3N2C)C(=O)NCCCNC(=O)c2ccc(-c3c4nc(c(-c5ccccc5)c5ccc([nH]5)c(-c5ccccc5)c5nc(c(-c6ccccc6)c6ccc3[nH]6)C=C5)C=C4)cc2)[C@@H](C)N=N1
REMARK SMILES IDX 24 1 23 2 22 3 20 4 21 5 4 7 3 8 1 9 2 10 80 11 77 12 79 13
REMARK SMILES IDX 78 14 5 15 6 16 7 18 8 19 9 20 18 21 11 22 10 23 17 24 19 25
REMARK SMILES IDX 12 26 16 27 13 28 15 29 14 30 25 31 26 32 27 33 28 35 29 36
REMARK SMILES IDX 30 37 76 38 31 39 75 40 32 41 33 42 34 43 69 44 35 45 74 46
REMARK SMILES IDX 68 47 70 48 36 49 73 50 67 51 66 52 37 54 59 55 44 56 58 57
REMARK SMILES IDX 45 58 48 59 57 60 71 61 46 62 47 63 56 65 72 66 49 67 38 68
REMARK SMILES IDX 39 69 43 70 40 71 42 72 41 73 60 74 61 75 65 76 62 77 64 78
REMARK SMILES IDX 63 79 50 80 51 81 55 82 52 83 54 84 53 85
REMARK H PARENT 22 6 5 17 26 34 70 53 48 64
REMARK Flexibility Score: inf
ROOT
ATOM      1  C   UNL A   1      33.661  31.290  27.165  1.00  0.00     0.042 C 
ENDROOT
BRANCH   1   2
ATOM      2  C   UNL A   1      32.131  31.152  27.117  1.00  0.00     0.117 C 
BRANCH   2   3
ATOM      3  N   UNL A   1      31.773  29.756  26.869  1.00  0.00    -0.354 N 
ATOM      4  C   UNL A   1      31.465  28.962  25.818  1.00  0.00     0.247 C 
ATOM      5  O   UNL A   1      31.134  27.810  26.147  1.00  0.00    -0.272 OA
ATOM      6  H   UNL A   1      31.747  29.247  27.710  1.00  0.00     0.163 HD
BRANCH   4   7
ATOM      7  C   UNL A   1      31.474  29.324  24.294  1.00  0.00     0.202 C 
BRANCH   7   8
ATOM      8  C   UNL A   1      30.209  29.306  23.504  1.00  0.00     0.011 C 
ATOM      9  C   UNL A   1      29.298  31.660  23.955  1.00  0.00     0.069 C 
ATOM     10  C   UNL A   1      29.304  30.289  23.364  1.00  0.00     0.064 C 
ATOM     11  N   UNL A   1      28.246  29.920  22.574  1.00  0.00    -0.160 NA
ATOM     12  C   UNL A   1      29.631  28.147  22.764  1.00  0.00     0.156 C 
ATOM     13  N   UNL A   1      28.383  28.729  22.191  1.00  0.00    -0.181 NA
ATOM     14  C   UNL A   1      29.229  26.953  23.625  1.00  0.00     0.040 C 
ENDBRANCH   7   8
BRANCH   7  15
ATOM     15  N   UNL A   1      32.681  29.177  23.470  1.00  0.00    -0.339 N 
ATOM     16  C   UNL A   1      33.217  28.170  22.728  1.00  0.00     0.244 C 
ATOM     17  H   UNL A   1      33.227  29.995  23.450  1.00  0.00     0.164 HD
ATOM     18  O   UNL A   1      34.103  28.476  21.927  1.00  0.00    -0.273 OA
BRANCH  16  19
ATOM     19  C   UNL A   1      32.792  26.741  22.977  1.00  0.00     0.178 C 
ATOM     20  C   UNL A   1      33.301  26.249  24.348  1.00  0.00     0.050 C 
ATOM     21  N   UNL A   1      33.209  25.754  21.941  1.00  0.00    -0.362 N 
ATOM     22  C   UNL A   1      33.520  24.807  24.035  1.00  0.00    -0.016 A 
ATOM     23  C   UNL A   1      34.404  26.977  25.096  1.00  0.00     0.015 C 
ATOM     24  C   UNL A   1      33.387  24.559  22.666  1.00  0.00     0.041 A 
ATOM     25  C   UNL A   1      32.453  25.647  20.705  1.00  0.00     0.144 C 
ATOM     26  C   UNL A   1      33.275  23.833  24.964  1.00  0.00     0.045 A 
ATOM     27  C   UNL A   1      33.124  23.276  22.203  1.00  0.00     0.029 A 
ATOM     28  C   UNL A   1      32.657  22.705  24.464  1.00  0.00     0.123 A 
ATOM     29  C   UNL A   1      32.670  22.355  23.126  1.00  0.00     0.041 A 
ATOM     30  F   UNL A   1      31.735  22.101  25.206  1.00  0.00    -0.207 F 
ENDBRANCH  16  19
ENDBRANCH   7  15
ENDBRANCH   4   7
ENDBRANCH   2   3
ENDBRANCH   1   2
BRANCH   1  31
ATOM     31  C   UNL A   1      34.340  32.066  28.316  1.00  0.00     0.118 C 
BRANCH  31  32
ATOM     32  N   UNL A   1      35.121  31.338  29.300  1.00  0.00    -0.352 N 
ATOM     33  C   UNL A   1      36.384  31.822  29.646  1.00  0.00     0.251 C 
ATOM     34  H   UNL A   1      34.767  30.519  29.717  1.00  0.00     0.163 HD
ATOM     35  O   UNL A   1      36.511  32.817  30.366  1.00  0.00    -0.269 OA
BRANCH  33  36
ATOM     36  C   UNL A   1      37.553  30.958  29.340  1.00  0.00     0.039 A 
ATOM     37  C   UNL A   1      37.389  29.618  29.008  1.00  0.00     0.014 A 
ATOM     38  C   UNL A   1      38.843  31.461  29.585  1.00  0.00     0.014 A 
ATOM     39  C   UNL A   1      38.474  28.748  29.166  1.00  0.00     0.010 A 
ATOM     40  C   UNL A   1      39.937  30.588  29.713  1.00  0.00     0.010 A 
ATOM     41  C   UNL A   1      39.740  29.208  29.617  1.00  0.00    -0.014 A 
BRANCH  41  42
ATOM     42  C   UNL A   1      40.794  28.190  29.906  1.00  0.00     0.031 A 
ATOM     43  C   UNL A   1      41.142  28.147  31.355  1.00  0.00     0.074 A 
ATOM     44  C   UNL A   1      41.362  27.292  29.056  1.00  0.00     0.049 A 
ATOM     45  N   UNL A   1      42.296  28.268  31.929  1.00  0.00    -0.248 NA
ATOM     46  C   UNL A   1      39.999  28.124  32.289  1.00  0.00     0.031 C 
ATOM     47  C   UNL A   1      40.993  27.034  27.660  1.00  0.00     0.029 A 
ATOM     48  N   UNL A   1      42.328  26.328  29.284  1.00  0.00    -0.354 N 
ATOM     49  C   UNL A   1      42.032  28.178  33.294  1.00  0.00     0.074 A 
ATOM     50  C   UNL A   1      40.609  28.290  33.456  1.00  0.00     0.031 C 
ATOM     51  C   UNL A   1      41.516  25.853  27.258  1.00  0.00     0.029 A 
ATOM     52  C   UNL A   1      42.359  25.321  28.316  1.00  0.00     0.049 A 
ATOM     53  H   UNL A   1      42.938  26.350  30.057  1.00  0.00     0.167 HD
ATOM     54  C   UNL A   1      42.949  27.710  34.180  1.00  0.00     0.031 A 
ATOM     55  C   UNL A   1      42.960  24.103  28.379  1.00  0.00     0.031 A 
ATOM     56  C   UNL A   1      44.291  27.820  33.689  1.00  0.00     0.049 A 
ATOM     57  C   UNL A   1      43.994  24.126  29.429  1.00  0.00     0.074 A 
ATOM     58  C   UNL A   1      45.209  28.829  33.511  1.00  0.00     0.029 A 
ATOM     59  N   UNL A   1      44.721  26.737  32.972  1.00  0.00    -0.354 N 
ATOM     60  N   UNL A   1      45.112  24.782  29.337  1.00  0.00    -0.248 NA
ATOM     61  C   UNL A   1      43.673  23.604  30.751  1.00  0.00     0.031 C 
ATOM     62  C   UNL A   1      46.100  28.375  32.496  1.00  0.00     0.029 A 
ATOM     63  C   UNL A   1      45.723  27.089  32.111  1.00  0.00     0.049 A 
ATOM     64  H   UNL A   1      44.357  25.827  33.064  1.00  0.00     0.167 HD
ATOM     65  C   UNL A   1      45.406  25.126  30.641  1.00  0.00     0.074 A 
ATOM     66  C   UNL A   1      44.601  24.239  31.468  1.00  0.00     0.031 C 
ATOM     67  C   UNL A   1      46.015  26.309  30.927  1.00  0.00     0.031 A 
BRANCH  54  68
ATOM     68  C   UNL A   1      42.567  26.690  35.237  1.00  0.00    -0.014 A 
ATOM     69  C   UNL A   1      42.058  27.046  36.505  1.00  0.00     0.009 A 
ATOM     70  C   UNL A   1      42.436  25.339  34.874  1.00  0.00     0.009 A 
ATOM     71  C   UNL A   1      41.470  26.122  37.369  1.00  0.00     0.001 A 
ATOM     72  C   UNL A   1      41.809  24.414  35.721  1.00  0.00     0.001 A 
ATOM     73  C   UNL A   1      41.328  24.805  36.968  1.00  0.00     0.000 A 
ENDBRANCH  54  68
BRANCH  55  74
ATOM     74  C   UNL A   1      42.514  22.804  27.804  1.00  0.00    -0.014 A 
ATOM     75  C   UNL A   1      43.237  22.229  26.744  1.00  0.00     0.009 A 
ATOM     76  C   UNL A   1      41.227  22.290  28.062  1.00  0.00     0.009 A 
ATOM     77  C   UNL A   1      42.683  21.224  25.940  1.00  0.00     0.001 A 
ATOM     78  C   UNL A   1      40.671  21.285  27.255  1.00  0.00     0.001 A 
ATOM     79  C   UNL A   1      41.394  20.766  26.183  1.00  0.00     0.000 A 
ENDBRANCH  55  74
BRANCH  67  80
ATOM     80  C   UNL A   1      46.856  26.956  29.864  1.00  0.00    -0.014 A 
ATOM     81  C   UNL A   1      48.228  26.656  29.863  1.00  0.00     0.009 A 
ATOM     82  C   UNL A   1      46.380  27.929  28.973  1.00  0.00     0.009 A 
ATOM     83  C   UNL A   1      49.108  27.332  29.020  1.00  0.00     0.001 A 
ATOM     84  C   UNL A   1      47.260  28.586  28.107  1.00  0.00     0.001 A 
ATOM     85  C   UNL A   1      48.624  28.298  28.142  1.00  0.00     0.000 A 
ENDBRANCH  67  80
ENDBRANCH  41  42
ENDBRANCH  33  36
ENDBRANCH  31  32
ENDBRANCH   1  31
TORSDOF 13
ENDMDL
