MODEL 1
REMARK VINA RESULT:     -12.0      0.000      0.000
REMARK SMILES O=Cc1c(OCc2ccc(C(=O)NCCCNC(=O)c3ccc(-c4c5nc(c(-c6ccccc6)c6ccc([nH]6)c(-c6ccccc6)c6nc(c(-c7ccccc7)c7ccc4[nH]7)C=C6)C=C5)cc3)cc2)ccc2ccccc12
REMARK SMILES IDX 14 1 13 2 11 3 12 4 10 6 7 7 8 8 69 9 9 10 68 11 6 12 5 13
REMARK SMILES IDX 4 14 3 15 77 16 70 17 72 18 76 19 71 20 73 21 75 22 74 23
REMARK SMILES IDX 2 24 1 25 15 26 16 27 17 28 18 29 19 31 20 32 21 33 67 34
REMARK SMILES IDX 22 35 66 36 23 37 24 38 25 39 60 40 26 41 65 42 59 43 61 44
REMARK SMILES IDX 27 45 64 46 58 47 57 48 28 50 50 51 35 52 49 53 36 54 39 55
REMARK SMILES IDX 48 56 62 57 37 58 38 59 47 61 63 62 40 63 29 64 30 65 34 66
REMARK SMILES IDX 31 67 33 68 32 69 51 70 52 71 56 72 53 73 55 74 54 75 41 76
REMARK SMILES IDX 42 77 46 78 43 79 45 80 44 81
REMARK H PARENT 13 5 17 30 61 49 39 60
REMARK Flexibility Score: inf
ROOT
ATOM      1  C   UNL A   1      31.637  30.610  26.402  1.00  0.00     0.118 C 
ENDROOT
BRANCH   1   2
ATOM      2  N   UNL A   1      31.229  30.248  25.060  1.00  0.00    -0.352 N 
ATOM      3  C   UNL A   1      31.382  29.094  24.339  1.00  0.00     0.251 C 
ATOM      4  O   UNL A   1      30.953  29.075  23.186  1.00  0.00    -0.269 OA
ATOM      5  H   UNL A   1      30.755  30.963  24.577  1.00  0.00     0.163 HD
BRANCH   3   6
ATOM      6  C   UNL A   1      31.945  27.854  24.927  1.00  0.00     0.039 A 
ATOM      7  C   UNL A   1      33.165  25.454  25.808  1.00  0.00    -0.011 A 
ATOM      8  C   UNL A   1      33.814  26.315  24.914  1.00  0.00     0.008 A 
ATOM      9  C   UNL A   1      31.911  25.848  26.299  1.00  0.00     0.008 A 
ATOM     10  C   UNL A   1      33.221  27.501  24.487  1.00  0.00     0.014 A 
ATOM     11  C   UNL A   1      31.312  27.042  25.871  1.00  0.00     0.014 A 
BRANCH   7  12
ATOM     12  C   UNL A   1      33.757  24.104  26.184  1.00  0.00     0.265 C 
BRANCH  12  13
ATOM     13  O   UNL A   1      34.258  23.336  25.089  1.00  0.00    -0.488 OA
BRANCH  13  14
ATOM     14  C   UNL A   1      33.694  22.126  24.787  1.00  0.00     0.130 A 
ATOM     15  C   UNL A   1      34.480  20.977  24.987  1.00  0.00     0.064 A 
ATOM     16  C   UNL A   1      34.089  19.709  24.466  1.00  0.00    -0.004 A 
ATOM     17  C   UNL A   1      32.427  21.981  24.230  1.00  0.00     0.048 A 
ATOM     18  C   UNL A   1      32.864  19.634  23.761  1.00  0.00    -0.017 A 
ATOM     19  C   UNL A   1      34.840  18.512  24.590  1.00  0.00     0.009 A 
ATOM     20  C   UNL A   1      32.032  20.757  23.690  1.00  0.00     0.012 A 
ATOM     21  C   UNL A   1      32.475  18.437  23.139  1.00  0.00     0.009 A 
ATOM     22  C   UNL A   1      34.433  17.323  23.978  1.00  0.00     0.001 A 
ATOM     23  C   UNL A   1      33.261  17.293  23.235  1.00  0.00     0.001 A 
BRANCH  15  24
ATOM     24  C   UNL A   1      35.767  21.103  25.712  1.00  0.00     0.264 C 
ATOM     25  O   UNL A   1      36.839  21.281  25.146  1.00  0.00    -0.298 OA
ENDBRANCH  15  24
ENDBRANCH  13  14
ENDBRANCH  12  13
ENDBRANCH   7  12
ENDBRANCH   3   6
ENDBRANCH   1   2
BRANCH   1  26
ATOM     26  C   UNL A   1      31.450  32.109  26.630  1.00  0.00     0.042 C 
BRANCH  26  27
ATOM     27  C   UNL A   1      32.754  32.840  26.934  1.00  0.00     0.118 C 
BRANCH  27  28
ATOM     28  N   UNL A   1      32.522  34.104  27.611  1.00  0.00    -0.352 N 
ATOM     29  C   UNL A   1      33.140  34.632  28.716  1.00  0.00     0.251 C 
ATOM     30  H   UNL A   1      31.817  34.667  27.217  1.00  0.00     0.163 HD
ATOM     31  O   UNL A   1      32.645  35.604  29.277  1.00  0.00    -0.269 OA
BRANCH  29  32
ATOM     32  C   UNL A   1      34.392  34.042  29.237  1.00  0.00     0.039 A 
ATOM     33  C   UNL A   1      35.594  34.364  28.600  1.00  0.00     0.014 A 
ATOM     34  C   UNL A   1      34.383  33.121  30.290  1.00  0.00     0.014 A 
ATOM     35  C   UNL A   1      36.786  33.780  29.031  1.00  0.00     0.010 A 
ATOM     36  C   UNL A   1      35.581  32.590  30.763  1.00  0.00     0.010 A 
ATOM     37  C   UNL A   1      36.790  32.895  30.121  1.00  0.00    -0.014 A 
BRANCH  37  38
ATOM     38  C   UNL A   1      38.051  32.254  30.566  1.00  0.00     0.031 A 
ATOM     39  C   UNL A   1      38.835  32.837  31.711  1.00  0.00     0.074 A 
ATOM     40  C   UNL A   1      38.504  31.159  29.927  1.00  0.00     0.049 A 
ATOM     41  N   UNL A   1      39.949  32.411  32.250  1.00  0.00    -0.248 NA
ATOM     42  C   UNL A   1      38.310  34.072  32.315  1.00  0.00     0.031 C 
ATOM     43  C   UNL A   1      37.860  30.522  28.776  1.00  0.00     0.029 A 
ATOM     44  N   UNL A   1      39.613  30.386  30.159  1.00  0.00    -0.354 N 
ATOM     45  C   UNL A   1      40.265  33.332  33.241  1.00  0.00     0.074 A 
ATOM     46  C   UNL A   1      39.252  34.364  33.200  1.00  0.00     0.031 C 
ATOM     47  C   UNL A   1      38.568  29.438  28.423  1.00  0.00     0.029 A 
ATOM     48  C   UNL A   1      39.725  29.317  29.304  1.00  0.00     0.049 A 
ATOM     49  H   UNL A   1      40.265  30.578  30.871  1.00  0.00     0.167 HD
ATOM     50  C   UNL A   1      41.294  33.313  34.121  1.00  0.00     0.031 A 
ATOM     51  C   UNL A   1      40.653  28.344  29.242  1.00  0.00     0.031 A 
ATOM     52  C   UNL A   1      42.292  32.278  34.177  1.00  0.00     0.049 A 
ATOM     53  C   UNL A   1      41.774  28.334  30.242  1.00  0.00     0.074 A 
ATOM     54  C   UNL A   1      43.339  32.136  35.071  1.00  0.00     0.029 A 
ATOM     55  N   UNL A   1      42.363  31.207  33.301  1.00  0.00    -0.354 N 
ATOM     56  N   UNL A   1      42.018  29.173  31.219  1.00  0.00    -0.248 NA
ATOM     57  C   UNL A   1      42.739  27.230  30.139  1.00  0.00     0.031 C 
ATOM     58  C   UNL A   1      44.068  30.997  34.711  1.00  0.00     0.029 A 
ATOM     59  C   UNL A   1      43.448  30.408  33.620  1.00  0.00     0.049 A 
ATOM     60  H   UNL A   1      41.736  31.039  32.562  1.00  0.00     0.167 HD
ATOM     61  C   UNL A   1      43.150  28.689  31.859  1.00  0.00     0.074 A 
ATOM     62  C   UNL A   1      43.532  27.472  31.173  1.00  0.00     0.031 C 
ATOM     63  C   UNL A   1      43.816  29.206  32.920  1.00  0.00     0.031 A 
BRANCH  50  64
ATOM     64  C   UNL A   1      41.390  34.454  35.095  1.00  0.00    -0.014 A 
ATOM     65  C   UNL A   1      40.749  34.400  36.343  1.00  0.00     0.009 A 
ATOM     66  C   UNL A   1      42.153  35.587  34.771  1.00  0.00     0.009 A 
ATOM     67  C   UNL A   1      40.838  35.473  37.232  1.00  0.00     0.001 A 
ATOM     68  C   UNL A   1      42.263  36.647  35.673  1.00  0.00     0.001 A 
ATOM     69  C   UNL A   1      41.598  36.594  36.898  1.00  0.00     0.000 A 
ENDBRANCH  50  64
BRANCH  51  70
ATOM     70  C   UNL A   1      40.544  27.279  28.214  1.00  0.00    -0.014 A 
ATOM     71  C   UNL A   1      41.140  27.444  26.955  1.00  0.00     0.009 A 
ATOM     72  C   UNL A   1      39.842  26.095  28.485  1.00  0.00     0.009 A 
ATOM     73  C   UNL A   1      41.015  26.453  25.979  1.00  0.00     0.001 A 
ATOM     74  C   UNL A   1      39.741  25.095  27.514  1.00  0.00     0.001 A 
ATOM     75  C   UNL A   1      40.320  25.279  26.261  1.00  0.00     0.000 A 
ENDBRANCH  51  70
BRANCH  63  76
ATOM     76  C   UNL A   1      45.014  28.443  33.409  1.00  0.00    -0.014 A 
ATOM     77  C   UNL A   1      44.884  27.434  34.376  1.00  0.00     0.009 A 
ATOM     78  C   UNL A   1      46.282  28.721  32.877  1.00  0.00     0.009 A 
ATOM     79  C   UNL A   1      46.010  26.744  34.828  1.00  0.00     0.001 A 
ATOM     80  C   UNL A   1      47.401  28.010  33.311  1.00  0.00     0.001 A 
ATOM     81  C   UNL A   1      47.266  27.030  34.293  1.00  0.00     0.000 A 
ENDBRANCH  63  76
ENDBRANCH  37  38
ENDBRANCH  29  32
ENDBRANCH  27  28
ENDBRANCH  26  27
ENDBRANCH   1  26
TORSDOF 14
ENDMDL
MODEL 2
REMARK VINA RESULT:     -12.0      3.618      9.492
REMARK SMILES O=Cc1c(OCc2ccc(C(=O)NCCCNC(=O)c3ccc(-c4c5nc(c(-c6ccccc6)c6ccc([nH]6)c(-c6ccccc6)c6nc(c(-c7ccccc7)c7ccc4[nH]7)C=C6)C=C5)cc3)cc2)ccc2ccccc12
REMARK SMILES IDX 14 1 13 2 11 3 12 4 10 6 7 7 8 8 69 9 9 10 68 11 6 12 5 13
REMARK SMILES IDX 4 14 3 15 77 16 70 17 72 18 76 19 71 20 73 21 75 22 74 23
REMARK SMILES IDX 2 24 1 25 15 26 16 27 17 28 18 29 19 31 20 32 21 33 67 34
REMARK SMILES IDX 22 35 66 36 23 37 24 38 25 39 60 40 26 41 65 42 59 43 61 44
REMARK SMILES IDX 27 45 64 46 58 47 57 48 28 50 50 51 35 52 49 53 36 54 39 55
REMARK SMILES IDX 48 56 62 57 37 58 38 59 47 61 63 62 40 63 29 64 30 65 34 66
REMARK SMILES IDX 31 67 33 68 32 69 51 70 52 71 56 72 53 73 55 74 54 75 41 76
REMARK SMILES IDX 42 77 46 78 43 79 45 80 44 81
REMARK H PARENT 13 5 17 30 61 49 39 60
REMARK Flexibility Score: inf
ROOT
ATOM      1  C   UNL A   1      36.161  20.219  25.079  1.00  0.00     0.118 C 
ENDROOT
BRANCH   1   2
ATOM      2  N   UNL A   1      35.270  19.089  24.915  1.00  0.00    -0.352 N 
ATOM      3  C   UNL A   1      33.916  19.013  24.730  1.00  0.00     0.251 C 
ATOM      4  O   UNL A   1      33.408  17.895  24.649  1.00  0.00    -0.269 OA
ATOM      5  H   UNL A   1      35.721  18.215  24.942  1.00  0.00     0.163 HD
BRANCH   3   6
ATOM      6  C   UNL A   1      33.070  20.214  24.525  1.00  0.00     0.039 A 
ATOM      7  C   UNL A   1      31.598  22.552  23.896  1.00  0.00    -0.011 A 
ATOM      8  C   UNL A   1      32.132  21.735  22.891  1.00  0.00     0.008 A 
ATOM      9  C   UNL A   1      31.768  22.142  25.228  1.00  0.00     0.008 A 
ATOM     10  C   UNL A   1      32.847  20.579  23.198  1.00  0.00     0.014 A 
ATOM     11  C   UNL A   1      32.488  20.979  25.539  1.00  0.00     0.014 A 
BRANCH   7  12
ATOM     12  C   UNL A   1      30.919  23.873  23.571  1.00  0.00     0.265 C 
BRANCH  12  13
ATOM     13  O   UNL A   1      31.807  24.974  23.361  1.00  0.00    -0.488 OA
BRANCH  13  14
ATOM     14  C   UNL A   1      32.000  25.895  24.354  1.00  0.00     0.130 A 
ATOM     15  C   UNL A   1      31.363  27.142  24.214  1.00  0.00     0.064 A 
ATOM     16  C   UNL A   1      31.704  28.248  25.046  1.00  0.00    -0.004 A 
ATOM     17  C   UNL A   1      32.842  25.693  25.444  1.00  0.00     0.048 A 
ATOM     18  C   UNL A   1      32.687  28.045  26.045  1.00  0.00    -0.017 A 
ATOM     19  C   UNL A   1      31.139  29.545  24.947  1.00  0.00     0.009 A 
ATOM     20  C   UNL A   1      33.209  26.764  26.258  1.00  0.00     0.012 A 
ATOM     21  C   UNL A   1      33.136  29.120  26.827  1.00  0.00     0.009 A 
ATOM     22  C   UNL A   1      31.585  30.603  25.743  1.00  0.00     0.001 A 
ATOM     23  C   UNL A   1      32.598  30.395  26.668  1.00  0.00     0.001 A 
BRANCH  15  24
ATOM     24  C   UNL A   1      30.355  27.318  23.142  1.00  0.00     0.264 C 
ATOM     25  O   UNL A   1      30.636  27.717  22.018  1.00  0.00    -0.298 OA
ENDBRANCH  15  24
ENDBRANCH  13  14
ENDBRANCH  12  13
ENDBRANCH   7  12
ENDBRANCH   3   6
ENDBRANCH   1   2
BRANCH   1  26
ATOM     26  C   UNL A   1      37.591  19.830  24.708  1.00  0.00     0.042 C 
BRANCH  26  27
ATOM     27  C   UNL A   1      38.625  20.287  25.733  1.00  0.00     0.118 C 
BRANCH  27  28
ATOM     28  N   UNL A   1      39.767  19.390  25.789  1.00  0.00    -0.352 N 
ATOM     29  C   UNL A   1      41.086  19.666  26.040  1.00  0.00     0.251 C 
ATOM     30  H   UNL A   1      39.562  18.441  25.623  1.00  0.00     0.163 HD
ATOM     31  O   UNL A   1      41.936  18.811  25.811  1.00  0.00    -0.269 OA
BRANCH  29  32
ATOM     32  C   UNL A   1      41.494  20.981  26.581  1.00  0.00     0.039 A 
ATOM     33  C   UNL A   1      41.376  21.200  27.956  1.00  0.00     0.014 A 
ATOM     34  C   UNL A   1      41.916  22.018  25.741  1.00  0.00     0.014 A 
ATOM     35  C   UNL A   1      41.699  22.448  28.491  1.00  0.00     0.010 A 
ATOM     36  C   UNL A   1      42.301  23.242  26.283  1.00  0.00     0.010 A 
ATOM     37  C   UNL A   1      42.172  23.476  27.660  1.00  0.00    -0.014 A 
BRANCH  37  38
ATOM     38  C   UNL A   1      42.493  24.811  28.221  1.00  0.00     0.031 A 
ATOM     39  C   UNL A   1      43.905  25.146  28.619  1.00  0.00     0.074 A 
ATOM     40  C   UNL A   1      41.510  25.715  28.394  1.00  0.00     0.049 A 
ATOM     41  N   UNL A   1      44.380  26.262  29.112  1.00  0.00    -0.248 NA
ATOM     42  C   UNL A   1      44.910  24.082  28.462  1.00  0.00     0.031 C 
ATOM     43  C   UNL A   1      40.094  25.497  28.089  1.00  0.00     0.029 A 
ATOM     44  N   UNL A   1      41.556  27.001  28.866  1.00  0.00    -0.354 N 
ATOM     45  C   UNL A   1      45.731  26.028  29.340  1.00  0.00     0.074 A 
ATOM     46  C   UNL A   1      45.991  24.653  28.974  1.00  0.00     0.031 C 
ATOM     47  C   UNL A   1      39.412  26.623  28.352  1.00  0.00     0.029 A 
ATOM     48  C   UNL A   1      40.334  27.630  28.865  1.00  0.00     0.049 A 
ATOM     49  H   UNL A   1      42.384  27.434  29.174  1.00  0.00     0.167 HD
ATOM     50  C   UNL A   1      46.676  26.885  29.793  1.00  0.00     0.031 A 
ATOM     51  C   UNL A   1      39.998  28.881  29.230  1.00  0.00     0.031 A 
ATOM     52  C   UNL A   1      46.424  28.259  30.139  1.00  0.00     0.049 A 
ATOM     53  C   UNL A   1      41.068  29.818  29.712  1.00  0.00     0.074 A 
ATOM     54  C   UNL A   1      47.326  29.225  30.550  1.00  0.00     0.029 A 
ATOM     55  N   UNL A   1      45.176  28.859  30.113  1.00  0.00    -0.354 N 
ATOM     56  N   UNL A   1      42.353  29.604  29.851  1.00  0.00    -0.248 NA
ATOM     57  C   UNL A   1      40.640  31.179  30.068  1.00  0.00     0.031 C 
ATOM     58  C   UNL A   1      46.615  30.402  30.810  1.00  0.00     0.029 A 
ATOM     59  C   UNL A   1      45.279  30.179  30.519  1.00  0.00     0.049 A 
ATOM     60  H   UNL A   1      44.340  28.414  29.846  1.00  0.00     0.167 HD
ATOM     61  C   UNL A   1      42.891  30.804  30.293  1.00  0.00     0.074 A 
ATOM     62  C   UNL A   1      41.796  31.749  30.377  1.00  0.00     0.031 C 
ATOM     63  C   UNL A   1      44.177  31.099  30.604  1.00  0.00     0.031 A 
BRANCH  50  64
ATOM     64  C   UNL A   1      48.074  26.354  29.942  1.00  0.00    -0.014 A 
ATOM     65  C   UNL A   1      48.516  25.798  31.154  1.00  0.00     0.009 A 
ATOM     66  C   UNL A   1      48.955  26.388  28.849  1.00  0.00     0.009 A 
ATOM     67  C   UNL A   1      49.821  25.320  31.279  1.00  0.00     0.001 A 
ATOM     68  C   UNL A   1      50.252  25.885  28.970  1.00  0.00     0.001 A 
ATOM     69  C   UNL A   1      50.687  25.361  30.187  1.00  0.00     0.000 A 
ENDBRANCH  50  64
BRANCH  51  70
ATOM     70  C   UNL A   1      38.586  29.329  29.125  1.00  0.00    -0.014 A 
ATOM     71  C   UNL A   1      37.735  29.264  30.238  1.00  0.00     0.009 A 
ATOM     72  C   UNL A   1      38.083  29.823  27.911  1.00  0.00     0.009 A 
ATOM     73  C   UNL A   1      36.401  29.661  30.132  1.00  0.00     0.001 A 
ATOM     74  C   UNL A   1      36.755  30.244  27.817  1.00  0.00     0.001 A 
ATOM     75  C   UNL A   1      35.914  30.154  28.924  1.00  0.00     0.000 A 
ENDBRANCH  51  70
BRANCH  63  76
ATOM     76  C   UNL A   1      44.464  32.507  31.044  1.00  0.00    -0.014 A 
ATOM     77  C   UNL A   1      44.784  33.506  30.112  1.00  0.00     0.009 A 
ATOM     78  C   UNL A   1      44.389  32.840  32.405  1.00  0.00     0.009 A 
ATOM     79  C   UNL A   1      45.061  34.805  30.541  1.00  0.00     0.001 A 
ATOM     80  C   UNL A   1      44.640  34.146  32.828  1.00  0.00     0.001 A 
ATOM     81  C   UNL A   1      44.986  35.125  31.897  1.00  0.00     0.000 A 
ENDBRANCH  63  76
ENDBRANCH  37  38
ENDBRANCH  29  32
ENDBRANCH  27  28
ENDBRANCH  26  27
ENDBRANCH   1  26
TORSDOF 14
ENDMDL
MODEL 3
REMARK VINA RESULT:     -11.9      4.301     10.629
REMARK SMILES O=Cc1c(OCc2ccc(C(=O)NCCCNC(=O)c3ccc(-c4c5nc(c(-c6ccccc6)c6ccc([nH]6)c(-c6ccccc6)c6nc(c(-c7ccccc7)c7ccc4[nH]7)C=C6)C=C5)cc3)cc2)ccc2ccccc12
REMARK SMILES IDX 14 1 13 2 11 3 12 4 10 6 7 7 8 8 69 9 9 10 68 11 6 12 5 13
REMARK SMILES IDX 4 14 3 15 77 16 70 17 72 18 76 19 71 20 73 21 75 22 74 23
REMARK SMILES IDX 2 24 1 25 15 26 16 27 17 28 18 29 19 31 20 32 21 33 67 34
REMARK SMILES IDX 22 35 66 36 23 37 24 38 25 39 60 40 26 41 65 42 59 43 61 44
REMARK SMILES IDX 27 45 64 46 58 47 57 48 28 50 50 51 35 52 49 53 36 54 39 55
REMARK SMILES IDX 48 56 62 57 37 58 38 59 47 61 63 62 40 63 29 64 30 65 34 66
REMARK SMILES IDX 31 67 33 68 32 69 51 70 52 71 56 72 53 73 55 74 54 75 41 76
REMARK SMILES IDX 42 77 46 78 43 79 45 80 44 81
REMARK H PARENT 13 5 17 30 61 49 39 60
REMARK Flexibility Score: inf
ROOT
ATOM      1  C   UNL A   1      42.343  19.773  27.347  1.00  0.00     0.118 C 
ENDROOT
BRANCH   1   2
ATOM      2  N   UNL A   1      42.993  18.996  26.312  1.00  0.00    -0.352 N 
ATOM      3  C   UNL A   1      43.827  19.356  25.288  1.00  0.00     0.251 C 
ATOM      4  O   UNL A   1      44.215  18.473  24.525  1.00  0.00    -0.269 OA
ATOM      5  H   UNL A   1      42.800  18.032  26.352  1.00  0.00     0.163 HD
BRANCH   3   6
ATOM      6  C   UNL A   1      44.350  20.735  25.131  1.00  0.00     0.039 A 
ATOM      7  C   UNL A   1      45.586  23.278  24.955  1.00  0.00    -0.011 A 
ATOM      8  C   UNL A   1      46.339  22.098  24.907  1.00  0.00     0.008 A 
ATOM      9  C   UNL A   1      44.191  23.159  25.036  1.00  0.00     0.008 A 
ATOM     10  C   UNL A   1      45.732  20.846  24.983  1.00  0.00     0.014 A 
ATOM     11  C   UNL A   1      43.577  21.899  25.113  1.00  0.00     0.014 A 
BRANCH   7  12
ATOM     12  C   UNL A   1      46.252  24.645  24.990  1.00  0.00     0.265 C 
BRANCH  12  13
ATOM     13  O   UNL A   1      45.355  25.757  24.926  1.00  0.00    -0.488 OA
BRANCH  13  14
ATOM     14  C   UNL A   1      45.341  26.683  25.933  1.00  0.00     0.130 A 
ATOM     15  C   UNL A   1      44.200  27.499  26.046  1.00  0.00     0.064 A 
ATOM     16  C   UNL A   1      44.193  28.654  26.882  1.00  0.00    -0.004 A 
ATOM     17  C   UNL A   1      46.412  26.907  26.793  1.00  0.00     0.048 A 
ATOM     18  C   UNL A   1      45.365  28.940  27.622  1.00  0.00    -0.017 A 
ATOM     19  C   UNL A   1      43.101  29.548  27.024  1.00  0.00     0.009 A 
ATOM     20  C   UNL A   1      46.439  28.044  27.601  1.00  0.00     0.012 A 
ATOM     21  C   UNL A   1      45.453  30.117  28.383  1.00  0.00     0.009 A 
ATOM     22  C   UNL A   1      43.198  30.707  27.798  1.00  0.00     0.001 A 
ATOM     23  C   UNL A   1      44.381  31.002  28.460  1.00  0.00     0.001 A 
BRANCH  15  24
ATOM     24  C   UNL A   1      43.001  27.175  25.238  1.00  0.00     0.264 C 
ATOM     25  O   UNL A   1      42.662  27.823  24.254  1.00  0.00    -0.298 OA
ENDBRANCH  15  24
ENDBRANCH  13  14
ENDBRANCH  12  13
ENDBRANCH   7  12
ENDBRANCH   3   6
ENDBRANCH   1   2
BRANCH   1  26
ATOM     26  C   UNL A   1      40.909  20.109  26.941  1.00  0.00     0.042 C 
BRANCH  26  27
ATOM     27  C   UNL A   1      40.585  21.596  27.046  1.00  0.00     0.118 C 
BRANCH  27  28
ATOM     28  N   UNL A   1      39.545  21.992  26.112  1.00  0.00    -0.352 N 
ATOM     29  C   UNL A   1      38.829  23.159  26.042  1.00  0.00     0.251 C 
ATOM     30  H   UNL A   1      39.321  21.322  25.426  1.00  0.00     0.163 HD
ATOM     31  O   UNL A   1      37.831  23.213  25.330  1.00  0.00    -0.269 OA
BRANCH  29  32
ATOM     32  C   UNL A   1      39.245  24.350  26.814  1.00  0.00     0.039 A 
ATOM     33  C   UNL A   1      38.799  24.476  28.133  1.00  0.00     0.014 A 
ATOM     34  C   UNL A   1      40.002  25.372  26.231  1.00  0.00     0.014 A 
ATOM     35  C   UNL A   1      39.127  25.614  28.871  1.00  0.00     0.010 A 
ATOM     36  C   UNL A   1      40.385  26.476  26.989  1.00  0.00     0.010 A 
ATOM     37  C   UNL A   1      39.930  26.619  28.308  1.00  0.00    -0.014 A 
BRANCH  37  38
ATOM     38  C   UNL A   1      40.260  27.841  29.081  1.00  0.00     0.031 A 
ATOM     39  C   UNL A   1      41.576  27.949  29.802  1.00  0.00     0.074 A 
ATOM     40  C   UNL A   1      39.367  28.846  29.153  1.00  0.00     0.049 A 
ATOM     41  N   UNL A   1      42.048  28.940  30.515  1.00  0.00    -0.248 NA
ATOM     42  C   UNL A   1      42.471  26.782  29.731  1.00  0.00     0.031 C 
ATOM     43  C   UNL A   1      38.039  28.846  28.535  1.00  0.00     0.029 A 
ATOM     44  N   UNL A   1      39.445  30.065  29.776  1.00  0.00    -0.354 N 
ATOM     45  C   UNL A   1      43.281  28.511  30.989  1.00  0.00     0.074 A 
ATOM     46  C   UNL A   1      43.466  27.154  30.522  1.00  0.00     0.031 C 
ATOM     47  C   UNL A   1      37.440  30.021  28.783  1.00  0.00     0.029 A 
ATOM     48  C   UNL A   1      38.329  30.845  29.596  1.00  0.00     0.049 A 
ATOM     49  H   UNL A   1      40.226  30.354  30.300  1.00  0.00     0.167 HD
ATOM     50  C   UNL A   1      44.189  29.189  31.730  1.00  0.00     0.031 A 
ATOM     51  C   UNL A   1      38.057  32.089  30.031  1.00  0.00     0.031 A 
ATOM     52  C   UNL A   1      44.016  30.545  32.179  1.00  0.00     0.049 A 
ATOM     53  C   UNL A   1      39.088  32.829  30.835  1.00  0.00     0.074 A 
ATOM     54  C   UNL A   1      44.903  31.341  32.883  1.00  0.00     0.029 A 
ATOM     55  N   UNL A   1      42.877  31.304  31.966  1.00  0.00    -0.354 N 
ATOM     56  N   UNL A   1      40.280  32.435  31.213  1.00  0.00    -0.248 NA
ATOM     57  C   UNL A   1      38.741  34.193  31.257  1.00  0.00     0.031 C 
ATOM     58  C   UNL A   1      44.283  32.572  33.129  1.00  0.00     0.029 A 
ATOM     59  C   UNL A   1      43.029  32.555  32.541  1.00  0.00     0.049 A 
ATOM     60  H   UNL A   1      42.078  31.000  31.479  1.00  0.00     0.167 HD
ATOM     61  C   UNL A   1      40.832  33.507  31.899  1.00  0.00     0.074 A 
ATOM     62  C   UNL A   1      39.854  34.575  31.867  1.00  0.00     0.031 C 
ATOM     63  C   UNL A   1      42.041  33.600  32.504  1.00  0.00     0.031 A 
BRANCH  50  64
ATOM     64  C   UNL A   1      45.454  28.468  32.102  1.00  0.00    -0.014 A 
ATOM     65  C   UNL A   1      45.540  27.713  33.283  1.00  0.00     0.009 A 
ATOM     66  C   UNL A   1      46.567  28.523  31.249  1.00  0.00     0.009 A 
ATOM     67  C   UNL A   1      46.725  27.058  33.620  1.00  0.00     0.001 A 
ATOM     68  C   UNL A   1      47.744  27.846  31.576  1.00  0.00     0.001 A 
ATOM     69  C   UNL A   1      47.825  27.122  32.765  1.00  0.00     0.000 A 
ENDBRANCH  50  64
BRANCH  51  70
ATOM     70  C   UNL A   1      36.761  32.727  29.689  1.00  0.00    -0.014 A 
ATOM     71  C   UNL A   1      36.610  33.429  28.484  1.00  0.00     0.009 A 
ATOM     72  C   UNL A   1      35.668  32.639  30.567  1.00  0.00     0.009 A 
ATOM     73  C   UNL A   1      35.399  34.051  28.175  1.00  0.00     0.001 A 
ATOM     74  C   UNL A   1      34.451  33.241  30.242  1.00  0.00     0.001 A 
ATOM     75  C   UNL A   1      34.320  33.953  29.051  1.00  0.00     0.000 A 
ENDBRANCH  51  70
BRANCH  63  76
ATOM     76  C   UNL A   1      42.373  34.909  33.162  1.00  0.00    -0.014 A 
ATOM     77  C   UNL A   1      43.131  35.883  32.494  1.00  0.00     0.009 A 
ATOM     78  C   UNL A   1      41.901  35.179  34.455  1.00  0.00     0.009 A 
ATOM     79  C   UNL A   1      43.442  37.089  33.126  1.00  0.00     0.001 A 
ATOM     80  C   UNL A   1      42.191  36.396  35.074  1.00  0.00     0.001 A 
ATOM     81  C   UNL A   1      42.969  37.345  34.412  1.00  0.00     0.000 A 
ENDBRANCH  63  76
ENDBRANCH  37  38
ENDBRANCH  29  32
ENDBRANCH  27  28
ENDBRANCH  26  27
ENDBRANCH   1  26
TORSDOF 14
ENDMDL
