MODEL 1
REMARK VINA RESULT:     -11.3      0.000      0.000
REMARK SMILES CC(C)[NH2+]CC[C@H](c1ccccc1)c1cc(C(=O)NCCCNC(=O)c2ccc(-c3c4nc(c(-c5ccccc5)c5ccc([nH]5)c(-c5ccccc5)c5nc(c(-c6ccccc6)c6ccc3[nH]6)C=C5)C=C4)cc2)ccc1O
REMARK SMILES IDX 17 1 18 2 19 3 16 5 14 6 15 7 76 8 75 9 74 10 7 11 6 12 5 13
REMARK SMILES IDX 4 14 2 17 1 18 3 19 8 20 9 21 13 22 10 23 12 24 11 25 77 26
REMARK SMILES IDX 20 28 21 29 22 30 23 31 24 32 25 34 26 35 27 36 73 37 28 38
REMARK SMILES IDX 72 39 29 40 30 41 31 42 66 43 32 44 71 45 65 46 67 47 33 48
REMARK SMILES IDX 70 49 64 50 63 51 34 53 56 54 41 55 55 56 42 57 45 58 54 59
REMARK SMILES IDX 68 60 43 61 44 62 53 64 69 65 46 66 35 67 36 68 40 69 37 70
REMARK SMILES IDX 39 71 38 72 57 73 58 74 62 75 59 76 61 77 60 78 47 79 48 80
REMARK SMILES IDX 52 81 49 82 51 83 50 84
REMARK H PARENT 19 4 4 15 4 16 77 27 23 33 67 52 45 63
REMARK Flexibility Score: inf
ROOT
ATOM      1  C   UNL A   1      30.690  25.176  26.040  1.00  0.00     0.251 C 
ATOM      2  O   UNL A   1      29.897  24.355  26.506  1.00  0.00    -0.269 OA
ATOM      3  N   UNL A   1      30.684  26.425  26.602  1.00  0.00    -0.352 N 
ATOM      4  H   UNL A   1      30.047  26.509  27.347  1.00  0.00     0.163 HD
ENDROOT
BRANCH   1   5
ATOM      5  C   UNL A   1      31.533  24.775  24.878  1.00  0.00     0.040 A 
ATOM      6  C   UNL A   1      33.288  23.189  24.106  1.00  0.00     0.002 A 
ATOM      7  C   UNL A   1      32.444  23.724  25.101  1.00  0.00     0.022 A 
ATOM      8  C   UNL A   1      33.140  23.737  22.824  1.00  0.00     0.119 A 
ATOM      9  C   UNL A   1      32.281  24.819  22.592  1.00  0.00     0.047 A 
ATOM     10  C   UNL A   1      31.514  25.366  23.623  1.00  0.00     0.017 A 
BRANCH   6  11
ATOM     11  C   UNL A   1      34.174  21.968  24.428  1.00  0.00     0.059 C 
BRANCH  11  12
ATOM     12  C   UNL A   1      33.325  20.921  25.209  1.00  0.00     0.074 C 
BRANCH  12  13
ATOM     13  C   UNL A   1      33.083  19.506  24.666  1.00  0.00     0.261 C 
BRANCH  13  14
ATOM     14  N   UNL A   1      33.699  18.380  25.336  1.00  0.00    -0.344 N 
ATOM     15  H   UNL A   1      34.667  18.647  25.518  1.00  0.00     0.346 HD
ATOM     16  H   UNL A   1      33.076  18.229  26.129  1.00  0.00     0.346 HD
BRANCH  14  17
ATOM     17  C   UNL A   1      33.747  17.060  24.716  1.00  0.00     0.176 C 
ATOM     18  C   UNL A   1      33.806  17.260  23.195  1.00  0.00     0.075 C 
ATOM     19  C   UNL A   1      34.882  16.128  25.132  1.00  0.00     0.075 C 
ENDBRANCH  14  17
ENDBRANCH  13  14
ENDBRANCH  12  13
ENDBRANCH  11  12
BRANCH  11  20
ATOM     20  C   UNL A   1      35.620  22.236  24.864  1.00  0.00    -0.040 A 
ATOM     21  C   UNL A   1      36.100  23.473  25.319  1.00  0.00     0.004 A 
ATOM     22  C   UNL A   1      36.538  21.165  24.858  1.00  0.00     0.004 A 
ATOM     23  C   UNL A   1      37.412  23.630  25.784  1.00  0.00     0.000 A 
ATOM     24  C   UNL A   1      37.856  21.322  25.307  1.00  0.00     0.000 A 
ATOM     25  C   UNL A   1      38.290  22.554  25.780  1.00  0.00     0.000 A 
ENDBRANCH  11  20
ENDBRANCH   6  11
BRANCH   8  26
ATOM     26  O   UNL A   1      33.766  23.281  21.698  1.00  0.00    -0.508 OA
ATOM     27  H   UNL A   1      33.816  22.360  21.531  1.00  0.00     0.293 HD
ENDBRANCH   8  26
ENDBRANCH   1   5
BRANCH   3  28
ATOM     28  C   UNL A   1      31.413  27.653  26.336  1.00  0.00     0.118 C 
BRANCH  28  29
ATOM     29  C   UNL A   1      32.218  28.156  27.528  1.00  0.00     0.042 C 
BRANCH  29  30
ATOM     30  C   UNL A   1      33.536  28.837  27.179  1.00  0.00     0.118 C 
BRANCH  30  31
ATOM     31  N   UNL A   1      33.618  30.211  27.661  1.00  0.00    -0.352 N 
ATOM     32  C   UNL A   1      34.598  30.883  28.344  1.00  0.00     0.251 C 
ATOM     33  H   UNL A   1      32.823  30.755  27.458  1.00  0.00     0.163 HD
ATOM     34  O   UNL A   1      34.341  31.992  28.820  1.00  0.00    -0.269 OA
BRANCH  32  35
ATOM     35  C   UNL A   1      35.945  30.306  28.548  1.00  0.00     0.039 A 
ATOM     36  C   UNL A   1      36.857  30.328  27.487  1.00  0.00     0.014 A 
ATOM     37  C   UNL A   1      36.303  29.688  29.747  1.00  0.00     0.014 A 
ATOM     38  C   UNL A   1      38.142  29.802  27.654  1.00  0.00     0.010 A 
ATOM     39  C   UNL A   1      37.610  29.252  29.946  1.00  0.00     0.010 A 
ATOM     40  C   UNL A   1      38.544  29.295  28.900  1.00  0.00    -0.014 A 
BRANCH  40  41
ATOM     41  C   UNL A   1      39.926  28.800  29.133  1.00  0.00     0.031 A 
ATOM     42  C   UNL A   1      40.976  29.719  29.701  1.00  0.00     0.074 A 
ATOM     43  C   UNL A   1      40.262  27.551  28.755  1.00  0.00     0.049 A 
ATOM     44  N   UNL A   1      42.255  29.503  29.881  1.00  0.00    -0.248 NA
ATOM     45  C   UNL A   1      40.538  31.071  30.089  1.00  0.00     0.031 C 
ATOM     46  C   UNL A   1      39.356  26.573  28.148  1.00  0.00     0.029 A 
ATOM     47  N   UNL A   1      41.466  26.893  28.814  1.00  0.00    -0.354 N 
ATOM     48  C   UNL A   1      42.777  30.697  30.365  1.00  0.00     0.074 A 
ATOM     49  C   UNL A   1      41.687  31.646  30.413  1.00  0.00     0.031 C 
ATOM     50  C   UNL A   1      40.029  25.435  27.911  1.00  0.00     0.029 A 
ATOM     51  C   UNL A   1      41.421  25.615  28.309  1.00  0.00     0.049 A 
ATOM     52  H   UNL A   1      42.284  27.298  29.182  1.00  0.00     0.167 HD
ATOM     53  C   UNL A   1      44.044  30.976  30.752  1.00  0.00     0.031 A 
ATOM     54  C   UNL A   1      42.393  24.694  28.169  1.00  0.00     0.031 A 
ATOM     55  C   UNL A   1      45.122  30.024  30.738  1.00  0.00     0.049 A 
ATOM     56  C   UNL A   1      43.788  25.023  28.622  1.00  0.00     0.074 A 
ATOM     57  C   UNL A   1      46.421  30.185  31.188  1.00  0.00     0.029 A 
ATOM     58  N   UNL A   1      45.024  28.730  30.250  1.00  0.00    -0.354 N 
ATOM     59  N   UNL A   1      44.245  26.132  29.151  1.00  0.00    -0.248 NA
ATOM     60  C   UNL A   1      44.799  23.967  28.468  1.00  0.00     0.031 C 
ATOM     61  C   UNL A   1      47.123  29.004  30.927  1.00  0.00     0.029 A 
ATOM     62  C   UNL A   1      46.247  28.090  30.365  1.00  0.00     0.049 A 
ATOM     63  H   UNL A   1      44.208  28.327  29.877  1.00  0.00     0.167 HD
ATOM     64  C   UNL A   1      45.588  25.897  29.419  1.00  0.00     0.074 A 
ATOM     65  C   UNL A   1      45.866  24.537  29.010  1.00  0.00     0.031 C 
ATOM     66  C   UNL A   1      46.507  26.735  29.956  1.00  0.00     0.031 A 
BRANCH  53  67
ATOM     67  C   UNL A   1      44.339  32.374  31.221  1.00  0.00    -0.014 A 
ATOM     68  C   UNL A   1      44.737  33.377  30.322  1.00  0.00     0.009 A 
ATOM     69  C   UNL A   1      44.175  32.703  32.575  1.00  0.00     0.009 A 
ATOM     70  C   UNL A   1      45.000  34.671  30.777  1.00  0.00     0.001 A 
ATOM     71  C   UNL A   1      44.409  34.005  33.022  1.00  0.00     0.001 A 
ATOM     72  C   UNL A   1      44.831  34.985  32.126  1.00  0.00     0.000 A 
ENDBRANCH  53  67
BRANCH  54  73
ATOM     73  C   UNL A   1      42.083  23.363  27.583  1.00  0.00    -0.014 A 
ATOM     74  C   UNL A   1      42.333  23.108  26.226  1.00  0.00     0.009 A 
ATOM     75  C   UNL A   1      41.523  22.347  28.373  1.00  0.00     0.009 A 
ATOM     76  C   UNL A   1      42.000  21.874  25.664  1.00  0.00     0.001 A 
ATOM     77  C   UNL A   1      41.219  21.103  27.814  1.00  0.00     0.001 A 
ATOM     78  C   UNL A   1      41.447  20.871  26.459  1.00  0.00     0.000 A 
ENDBRANCH  54  73
BRANCH  66  79
ATOM     79  C   UNL A   1      47.891  26.191  30.167  1.00  0.00    -0.014 A 
ATOM     80  C   UNL A   1      48.836  26.178  29.130  1.00  0.00     0.009 A 
ATOM     81  C   UNL A   1      48.266  25.722  31.437  1.00  0.00     0.009 A 
ATOM     82  C   UNL A   1      50.119  25.676  29.351  1.00  0.00     0.001 A 
ATOM     83  C   UNL A   1      49.558  25.247  31.663  1.00  0.00     0.001 A 
ATOM     84  C   UNL A   1      50.480  25.216  30.618  1.00  0.00     0.000 A 
ENDBRANCH  66  79
ENDBRANCH  40  41
ENDBRANCH  32  35
ENDBRANCH  30  31
ENDBRANCH  29  30
ENDBRANCH  28  29
ENDBRANCH   3  28
TORSDOF 17
ENDMDL
MODEL 2
REMARK VINA RESULT:     -11.2      2.234      7.634
REMARK SMILES CC(C)[NH2+]CC[C@H](c1ccccc1)c1cc(C(=O)NCCCNC(=O)c2ccc(-c3c4nc(c(-c5ccccc5)c5ccc([nH]5)c(-c5ccccc5)c5nc(c(-c6ccccc6)c6ccc3[nH]6)C=C5)C=C4)cc2)ccc1O
REMARK SMILES IDX 17 1 18 2 19 3 16 5 14 6 15 7 76 8 75 9 74 10 7 11 6 12 5 13
REMARK SMILES IDX 4 14 2 17 1 18 3 19 8 20 9 21 13 22 10 23 12 24 11 25 77 26
REMARK SMILES IDX 20 28 21 29 22 30 23 31 24 32 25 34 26 35 27 36 73 37 28 38
REMARK SMILES IDX 72 39 29 40 30 41 31 42 66 43 32 44 71 45 65 46 67 47 33 48
REMARK SMILES IDX 70 49 64 50 63 51 34 53 56 54 41 55 55 56 42 57 45 58 54 59
REMARK SMILES IDX 68 60 43 61 44 62 53 64 69 65 46 66 35 67 36 68 40 69 37 70
REMARK SMILES IDX 39 71 38 72 57 73 58 74 62 75 59 76 61 77 60 78 47 79 48 80
REMARK SMILES IDX 52 81 49 82 51 83 50 84
REMARK H PARENT 19 4 4 15 4 16 77 27 23 33 67 52 45 63
REMARK Flexibility Score: inf
ROOT
ATOM      1  C   UNL A   1      37.291  23.274  25.736  1.00  0.00     0.251 C 
ATOM      2  O   UNL A   1      38.076  24.173  26.045  1.00  0.00    -0.269 OA
ATOM      3  N   UNL A   1      37.804  22.234  25.007  1.00  0.00    -0.352 N 
ATOM      4  H   UNL A   1      38.770  22.322  24.837  1.00  0.00     0.163 HD
ENDROOT
BRANCH   1   5
ATOM      5  C   UNL A   1      35.856  23.415  26.114  1.00  0.00     0.040 A 
ATOM      6  C   UNL A   1      33.796  24.764  25.756  1.00  0.00     0.002 A 
ATOM      7  C   UNL A   1      35.166  24.502  25.544  1.00  0.00     0.022 A 
ATOM      8  C   UNL A   1      33.115  23.829  26.550  1.00  0.00     0.119 A 
ATOM      9  C   UNL A   1      33.793  22.773  27.171  1.00  0.00     0.047 A 
ATOM     10  C   UNL A   1      35.166  22.591  26.991  1.00  0.00     0.017 A 
BRANCH   6  11
ATOM     11  C   UNL A   1      33.111  25.921  25.001  1.00  0.00     0.059 C 
BRANCH  11  12
ATOM     12  C   UNL A   1      33.707  26.008  23.564  1.00  0.00     0.074 C 
BRANCH  12  13
ATOM     13  C   UNL A   1      33.171  25.150  22.411  1.00  0.00     0.261 C 
BRANCH  13  14
ATOM     14  N   UNL A   1      33.455  23.731  22.398  1.00  0.00    -0.344 N 
ATOM     15  H   UNL A   1      33.773  23.510  21.454  1.00  0.00     0.346 HD
ATOM     16  H   UNL A   1      34.112  23.631  23.171  1.00  0.00     0.346 HD
BRANCH  14  17
ATOM     17  C   UNL A   1      32.429  22.746  22.727  1.00  0.00     0.176 C 
ATOM     18  C   UNL A   1      33.066  21.702  23.655  1.00  0.00     0.075 C 
ATOM     19  C   UNL A   1      31.145  23.258  23.373  1.00  0.00     0.075 C 
ENDBRANCH  14  17
ENDBRANCH  13  14
ENDBRANCH  12  13
ENDBRANCH  11  12
BRANCH  11  20
ATOM     20  C   UNL A   1      32.839  27.214  25.781  1.00  0.00    -0.040 A 
ATOM     21  C   UNL A   1      31.801  27.384  26.708  1.00  0.00     0.004 A 
ATOM     22  C   UNL A   1      33.712  28.308  25.601  1.00  0.00     0.004 A 
ATOM     23  C   UNL A   1      31.659  28.563  27.449  1.00  0.00     0.000 A 
ATOM     24  C   UNL A   1      33.563  29.495  26.329  1.00  0.00     0.000 A 
ATOM     25  C   UNL A   1      32.541  29.619  27.262  1.00  0.00     0.000 A 
ENDBRANCH  11  20
ENDBRANCH   6  11
BRANCH   8  26
ATOM     26  O   UNL A   1      31.767  23.826  26.776  1.00  0.00    -0.508 OA
ATOM     27  H   UNL A   1      31.321  24.630  26.958  1.00  0.00     0.293 HD
ENDBRANCH   8  26
ENDBRANCH   1   5
BRANCH   3  28
ATOM     28  C   UNL A   1      37.234  21.029  24.431  1.00  0.00     0.118 C 
BRANCH  28  29
ATOM     29  C   UNL A   1      38.031  19.767  24.738  1.00  0.00     0.042 C 
BRANCH  29  30
ATOM     30  C   UNL A   1      38.881  19.829  26.001  1.00  0.00     0.118 C 
BRANCH  30  31
ATOM     31  N   UNL A   1      40.166  19.154  25.863  1.00  0.00    -0.352 N 
ATOM     32  C   UNL A   1      41.454  19.606  25.993  1.00  0.00     0.251 C 
ATOM     33  H   UNL A   1      40.095  18.199  25.635  1.00  0.00     0.163 HD
ATOM     34  O   UNL A   1      42.380  18.881  25.622  1.00  0.00    -0.269 OA
BRANCH  32  35
ATOM     35  C   UNL A   1      41.761  20.945  26.542  1.00  0.00     0.039 A 
ATOM     36  C   UNL A   1      41.811  21.111  27.931  1.00  0.00     0.014 A 
ATOM     37  C   UNL A   1      41.939  22.053  25.712  1.00  0.00     0.014 A 
ATOM     38  C   UNL A   1      42.113  22.363  28.478  1.00  0.00     0.010 A 
ATOM     39  C   UNL A   1      42.333  23.275  26.252  1.00  0.00     0.010 A 
ATOM     40  C   UNL A   1      42.417  23.447  27.642  1.00  0.00    -0.014 A 
BRANCH  40  41
ATOM     41  C   UNL A   1      42.817  24.770  28.191  1.00  0.00     0.031 A 
ATOM     42  C   UNL A   1      41.778  25.828  28.452  1.00  0.00     0.074 A 
ATOM     43  C   UNL A   1      44.122  25.051  28.374  1.00  0.00     0.049 A 
ATOM     44  N   UNL A   1      41.941  27.072  28.832  1.00  0.00    -0.248 NA
ATOM     45  C   UNL A   1      40.372  25.452  28.228  1.00  0.00     0.031 C 
ATOM     46  C   UNL A   1      45.235  24.134  28.114  1.00  0.00     0.029 A 
ATOM     47  N   UNL A   1      44.736  26.199  28.810  1.00  0.00    -0.354 N 
ATOM     48  C   UNL A   1      40.669  27.631  28.854  1.00  0.00     0.074 A 
ATOM     49  C   UNL A   1      39.749  26.607  28.412  1.00  0.00     0.031 C 
ATOM     50  C   UNL A   1      46.391  24.746  28.416  1.00  0.00     0.029 A 
ATOM     51  C   UNL A   1      46.108  26.110  28.849  1.00  0.00     0.049 A 
ATOM     52  H   UNL A   1      44.242  27.010  29.069  1.00  0.00     0.167 HD
ATOM     53  C   UNL A   1      40.295  28.879  29.226  1.00  0.00     0.031 A 
ATOM     54  C   UNL A   1      47.035  27.026  29.185  1.00  0.00     0.031 A 
ATOM     55  C   UNL A   1      41.205  29.887  29.699  1.00  0.00     0.049 A 
ATOM     56  C   UNL A   1      46.593  28.398  29.610  1.00  0.00     0.074 A 
ATOM     57  C   UNL A   1      40.914  31.153  30.178  1.00  0.00     0.029 A 
ATOM     58  N   UNL A   1      42.582  29.744  29.756  1.00  0.00    -0.354 N 
ATOM     59  N   UNL A   1      45.379  28.884  29.701  1.00  0.00    -0.248 NA
ATOM     60  C   UNL A   1      47.651  29.346  29.990  1.00  0.00     0.031 C 
ATOM     61  C   UNL A   1      42.121  31.794  30.478  1.00  0.00     0.029 A 
ATOM     62  C   UNL A   1      43.158  30.907  30.237  1.00  0.00     0.049 A 
ATOM     63  H   UNL A   1      43.077  28.935  29.491  1.00  0.00     0.167 HD
ATOM     64  C   UNL A   1      45.526  30.182  30.174  1.00  0.00     0.074 A 
ATOM     65  C   UNL A   1      46.943  30.401  30.367  1.00  0.00     0.031 C 
ATOM     66  C   UNL A   1      44.570  31.109  30.426  1.00  0.00     0.031 A 
BRANCH  53  67
ATOM     67  C   UNL A   1      38.836  29.227  29.131  1.00  0.00    -0.014 A 
ATOM     68  C   UNL A   1      37.983  29.108  30.240  1.00  0.00     0.009 A 
ATOM     69  C   UNL A   1      38.315  29.723  27.925  1.00  0.00     0.009 A 
ATOM     70  C   UNL A   1      36.631  29.443  30.132  1.00  0.00     0.001 A 
ATOM     71  C   UNL A   1      36.971  30.086  27.829  1.00  0.00     0.001 A 
ATOM     72  C   UNL A   1      36.127  29.936  28.928  1.00  0.00     0.000 A 
ENDBRANCH  53  67
BRANCH  54  73
ATOM     73  C   UNL A   1      48.480  26.676  29.144  1.00  0.00    -0.014 A 
ATOM     74  C   UNL A   1      49.104  26.101  30.262  1.00  0.00     0.009 A 
ATOM     75  C   UNL A   1      49.245  26.930  27.995  1.00  0.00     0.009 A 
ATOM     76  C   UNL A   1      50.471  25.815  30.240  1.00  0.00     0.001 A 
ATOM     77  C   UNL A   1      50.605  26.615  27.967  1.00  0.00     0.001 A 
ATOM     78  C   UNL A   1      51.220  26.068  29.092  1.00  0.00     0.000 A 
ENDBRANCH  54  73
BRANCH  66  79
ATOM     79  C   UNL A   1      45.024  32.431  30.975  1.00  0.00    -0.014 A 
ATOM     80  C   UNL A   1      45.165  32.639  32.355  1.00  0.00     0.009 A 
ATOM     81  C   UNL A   1      45.356  33.471  30.091  1.00  0.00     0.009 A 
ATOM     82  C   UNL A   1      45.597  33.873  32.841  1.00  0.00     0.001 A 
ATOM     83  C   UNL A   1      45.815  34.694  30.579  1.00  0.00     0.001 A 
ATOM     84  C   UNL A   1      45.927  34.898  31.954  1.00  0.00     0.000 A 
ENDBRANCH  66  79
ENDBRANCH  40  41
ENDBRANCH  32  35
ENDBRANCH  30  31
ENDBRANCH  29  30
ENDBRANCH  28  29
ENDBRANCH   3  28
TORSDOF 17
ENDMDL
MODEL 3
REMARK VINA RESULT:     -11.2      2.106      7.567
REMARK SMILES CC(C)[NH2+]CC[C@H](c1ccccc1)c1cc(C(=O)NCCCNC(=O)c2ccc(-c3c4nc(c(-c5ccccc5)c5ccc([nH]5)c(-c5ccccc5)c5nc(c(-c6ccccc6)c6ccc3[nH]6)C=C5)C=C4)cc2)ccc1O
REMARK SMILES IDX 17 1 18 2 19 3 16 5 14 6 15 7 76 8 75 9 74 10 7 11 6 12 5 13
REMARK SMILES IDX 4 14 2 17 1 18 3 19 8 20 9 21 13 22 10 23 12 24 11 25 77 26
REMARK SMILES IDX 20 28 21 29 22 30 23 31 24 32 25 34 26 35 27 36 73 37 28 38
REMARK SMILES IDX 72 39 29 40 30 41 31 42 66 43 32 44 71 45 65 46 67 47 33 48
REMARK SMILES IDX 70 49 64 50 63 51 34 53 56 54 41 55 55 56 42 57 45 58 54 59
REMARK SMILES IDX 68 60 43 61 44 62 53 64 69 65 46 66 35 67 36 68 40 69 37 70
REMARK SMILES IDX 39 71 38 72 57 73 58 74 62 75 59 76 61 77 60 78 47 79 48 80
REMARK SMILES IDX 52 81 49 82 51 83 50 84
REMARK H PARENT 19 4 4 15 4 16 77 27 23 33 67 52 45 63
REMARK Flexibility Score: inf
ROOT
ATOM      1  C   UNL A   1      36.486  23.078  25.857  1.00  0.00     0.251 C 
ATOM      2  O   UNL A   1      37.101  24.133  26.024  1.00  0.00    -0.269 OA
ATOM      3  N   UNL A   1      37.106  22.117  25.103  1.00  0.00    -0.352 N 
ATOM      4  H   UNL A   1      38.004  22.385  24.800  1.00  0.00     0.163 HD
ENDROOT
BRANCH   1   5
ATOM      5  C   UNL A   1      35.112  22.954  26.421  1.00  0.00     0.040 A 
ATOM      6  C   UNL A   1      32.877  24.040  26.554  1.00  0.00     0.002 A 
ATOM      7  C   UNL A   1      34.224  24.011  26.138  1.00  0.00     0.022 A 
ATOM      8  C   UNL A   1      32.430  22.905  27.246  1.00  0.00     0.119 A 
ATOM      9  C   UNL A   1      33.309  21.870  27.586  1.00  0.00     0.047 A 
ATOM     10  C   UNL A   1      34.654  21.913  27.215  1.00  0.00     0.017 A 
BRANCH   6  11
ATOM     11  C   UNL A   1      31.960  25.195  26.101  1.00  0.00     0.059 C 
BRANCH  11  12
ATOM     12  C   UNL A   1      31.286  24.804  24.752  1.00  0.00     0.074 C 
BRANCH  12  13
ATOM     13  C   UNL A   1      32.024  24.925  23.412  1.00  0.00     0.261 C 
BRANCH  13  14
ATOM     14  N   UNL A   1      31.966  23.824  22.473  1.00  0.00    -0.344 N 
ATOM     15  H   UNL A   1      31.025  23.435  22.544  1.00  0.00     0.346 HD
ATOM     16  H   UNL A   1      32.248  24.266  21.598  1.00  0.00     0.346 HD
BRANCH  14  17
ATOM     17  C   UNL A   1      32.885  22.695  22.566  1.00  0.00     0.176 C 
ATOM     18  C   UNL A   1      34.298  23.260  22.775  1.00  0.00     0.075 C 
ATOM     19  C   UNL A   1      32.610  21.651  23.645  1.00  0.00     0.075 C 
ENDBRANCH  14  17
ENDBRANCH  13  14
ENDBRANCH  12  13
ENDBRANCH  11  12
BRANCH  11  20
ATOM     20  C   UNL A   1      32.475  26.627  26.295  1.00  0.00    -0.040 A 
ATOM     21  C   UNL A   1      33.625  27.151  25.688  1.00  0.00     0.004 A 
ATOM     22  C   UNL A   1      31.727  27.511  27.101  1.00  0.00     0.004 A 
ATOM     23  C   UNL A   1      33.993  28.493  25.840  1.00  0.00     0.000 A 
ATOM     24  C   UNL A   1      32.101  28.850  27.269  1.00  0.00     0.000 A 
ATOM     25  C   UNL A   1      33.231  29.344  26.628  1.00  0.00     0.000 A 
ENDBRANCH  11  20
ENDBRANCH   6  11
BRANCH   8  26
ATOM     26  O   UNL A   1      31.137  22.677  27.626  1.00  0.00    -0.508 OA
ATOM     27  H   UNL A   1      30.773  21.817  27.555  1.00  0.00     0.293 HD
ENDBRANCH   8  26
ENDBRANCH   1   5
BRANCH   3  28
ATOM     28  C   UNL A   1      36.727  20.789  24.654  1.00  0.00     0.118 C 
BRANCH  28  29
ATOM     29  C   UNL A   1      37.825  19.747  24.832  1.00  0.00     0.042 C 
BRANCH  29  30
ATOM     30  C   UNL A   1      38.802  20.023  25.968  1.00  0.00     0.118 C 
BRANCH  30  31
ATOM     31  N   UNL A   1      40.050  19.278  25.847  1.00  0.00    -0.352 N 
ATOM     32  C   UNL A   1      41.359  19.658  25.988  1.00  0.00     0.251 C 
ATOM     33  H   UNL A   1      39.928  18.326  25.623  1.00  0.00     0.163 HD
ATOM     34  O   UNL A   1      42.248  18.881  25.630  1.00  0.00    -0.269 OA
BRANCH  32  35
ATOM     35  C   UNL A   1      41.734  20.981  26.532  1.00  0.00     0.039 A 
ATOM     36  C   UNL A   1      42.203  21.965  25.653  1.00  0.00     0.014 A 
ATOM     37  C   UNL A   1      41.693  21.249  27.901  1.00  0.00     0.014 A 
ATOM     38  C   UNL A   1      42.552  23.231  26.136  1.00  0.00     0.010 A 
ATOM     39  C   UNL A   1      41.948  22.536  28.370  1.00  0.00     0.010 A 
ATOM     40  C   UNL A   1      42.389  23.540  27.496  1.00  0.00    -0.014 A 
BRANCH  40  41
ATOM     41  C   UNL A   1      42.677  24.897  28.028  1.00  0.00     0.031 A 
ATOM     42  C   UNL A   1      44.068  25.254  28.485  1.00  0.00     0.074 A 
ATOM     43  C   UNL A   1      41.673  25.782  28.183  1.00  0.00     0.049 A 
ATOM     44  N   UNL A   1      44.491  26.347  29.070  1.00  0.00    -0.248 NA
ATOM     45  C   UNL A   1      45.114  24.238  28.289  1.00  0.00     0.031 C 
ATOM     46  C   UNL A   1      40.271  25.549  27.827  1.00  0.00     0.029 A 
ATOM     47  N   UNL A   1      41.675  27.057  28.694  1.00  0.00    -0.354 N 
ATOM     48  C   UNL A   1      45.838  26.134  29.342  1.00  0.00     0.074 A 
ATOM     49  C   UNL A   1      46.151  24.794  28.897  1.00  0.00     0.031 C 
ATOM     50  C   UNL A   1      39.555  26.650  28.109  1.00  0.00     0.029 A 
ATOM     51  C   UNL A   1      40.435  27.649  28.705  1.00  0.00     0.049 A 
ATOM     52  H   UNL A   1      42.488  27.504  29.023  1.00  0.00     0.167 HD
ATOM     53  C   UNL A   1      46.737  26.980  29.896  1.00  0.00     0.031 A 
ATOM     54  C   UNL A   1      40.045  28.857  29.154  1.00  0.00     0.031 A 
ATOM     55  C   UNL A   1      46.435  28.325  30.307  1.00  0.00     0.049 A 
ATOM     56  C   UNL A   1      41.066  29.785  29.750  1.00  0.00     0.074 A 
ATOM     57  C   UNL A   1      47.296  29.289  30.802  1.00  0.00     0.029 A 
ATOM     58  N   UNL A   1      45.173  28.897  30.269  1.00  0.00    -0.354 N 
ATOM     59  N   UNL A   1      42.352  29.595  29.927  1.00  0.00    -0.248 NA
ATOM     60  C   UNL A   1      40.584  31.099  30.198  1.00  0.00     0.031 C 
ATOM     61  C   UNL A   1      46.546  30.429  31.109  1.00  0.00     0.029 A 
ATOM     62  C   UNL A   1      45.228  30.192  30.755  1.00  0.00     0.049 A 
ATOM     63  H   UNL A   1      44.359  28.448  29.945  1.00  0.00     0.167 HD
ATOM     64  C   UNL A   1      42.835  30.774  30.479  1.00  0.00     0.074 A 
ATOM     65  C   UNL A   1      41.710  31.678  30.592  1.00  0.00     0.031 C 
ATOM     66  C   UNL A   1      44.100  31.080  30.858  1.00  0.00     0.031 A 
BRANCH  53  67
ATOM     67  C   UNL A   1      48.139  26.475  30.097  1.00  0.00    -0.014 A 
ATOM     68  C   UNL A   1      48.523  25.838  31.288  1.00  0.00     0.009 A 
ATOM     69  C   UNL A   1      49.079  26.601  29.062  1.00  0.00     0.009 A 
ATOM     70  C   UNL A   1      49.829  25.371  31.451  1.00  0.00     0.001 A 
ATOM     71  C   UNL A   1      50.375  26.105  29.216  1.00  0.00     0.001 A 
ATOM     72  C   UNL A   1      50.752  25.500  30.414  1.00  0.00     0.000 A 
ENDBRANCH  53  67
BRANCH  54  73
ATOM     73  C   UNL A   1      38.620  29.269  29.050  1.00  0.00    -0.014 A 
ATOM     74  C   UNL A   1      38.114  29.786  27.848  1.00  0.00     0.009 A 
ATOM     75  C   UNL A   1      37.763  29.161  30.156  1.00  0.00     0.009 A 
ATOM     76  C   UNL A   1      36.788  30.216  27.764  1.00  0.00     0.001 A 
ATOM     77  C   UNL A   1      36.428  29.564  30.060  1.00  0.00     0.001 A 
ATOM     78  C   UNL A   1      35.946  30.102  28.868  1.00  0.00     0.000 A 
ENDBRANCH  54  73
BRANCH  66  79
ATOM     79  C   UNL A   1      44.340  32.462  31.395  1.00  0.00    -0.014 A 
ATOM     80  C   UNL A   1      44.651  33.532  30.543  1.00  0.00     0.009 A 
ATOM     81  C   UNL A   1      44.211  32.702  32.773  1.00  0.00     0.009 A 
ATOM     82  C   UNL A   1      44.861  34.809  31.064  1.00  0.00     0.001 A 
ATOM     83  C   UNL A   1      44.393  33.986  33.287  1.00  0.00     0.001 A 
ATOM     84  C   UNL A   1      44.727  35.036  32.434  1.00  0.00     0.000 A 
ENDBRANCH  66  79
ENDBRANCH  40  41
ENDBRANCH  32  35
ENDBRANCH  30  31
ENDBRANCH  29  30
ENDBRANCH  28  29
ENDBRANCH   3  28
TORSDOF 17
ENDMDL
