MODEL 1
REMARK VINA RESULT:     -10.5      0.000      0.000
REMARK SMILES O=C(CCC(=O)Nc1ncc([N+](=O)[O-])s1)NCCCNC(=O)c1ccc(-c2c3nc(c(-c4ccccc4)c4ccc([nH]4)c(-c4ccccc4)c4nc(c(-c5ccccc5)c5ccc2[nH]5)C=C4)C=C3)cc1
REMARK SMILES IDX 17 1 16 2 1 3 2 4 3 6 4 7 5 8 6 9 7 10 8 12 9 13 15 14 10 15
REMARK SMILES IDX 11 16 12 17 13 18 14 19 18 20 19 21 20 22 21 23 22 25 23 26
REMARK SMILES IDX 24 27 70 28 25 29 69 30 26 31 27 32 28 33 63 34 29 35 68 36
REMARK SMILES IDX 62 37 64 38 30 39 67 40 61 41 60 42 31 44 53 45 38 46 52 47
REMARK SMILES IDX 39 48 42 49 51 50 65 51 40 52 41 53 50 55 66 56 43 57 32 58
REMARK SMILES IDX 33 59 37 60 34 61 36 62 35 63 54 64 55 65 59 66 56 67 58 68
REMARK SMILES IDX 57 69 44 70 45 71 49 72 46 73 48 74 47 75
REMARK H PARENT 16 5 7 11 20 24 64 43 42 54
REMARK Flexibility Score: inf
ROOT
ATOM      1  C   UNL A   1      34.411  34.771  28.225  1.00  0.00     0.117 C 
ENDROOT
BRANCH   1   2
ATOM      2  N   UNL A   1      34.135  35.414  29.493  1.00  0.00    -0.356 N 
ATOM      3  O   UNL A   1      32.172  36.418  28.840  1.00  0.00    -0.275 OA
ATOM      4  C   UNL A   1      32.975  36.126  29.717  1.00  0.00     0.220 C 
ATOM      5  H   UNL A   1      34.797  35.342  30.217  1.00  0.00     0.163 HD
BRANCH   4   6
ATOM      6  C   UNL A   1      32.762  36.490  31.172  1.00  0.00     0.110 C 
BRANCH   6   7
ATOM      7  C   UNL A   1      34.054  36.922  31.863  1.00  0.00     0.110 C 
BRANCH   7   8
ATOM      8  C   UNL A   1      33.983  36.766  33.371  1.00  0.00     0.226 C 
ATOM      9  O   UNL A   1      33.835  37.770  34.079  1.00  0.00    -0.275 OA
ATOM     10  N   UNL A   1      34.149  35.574  34.003  1.00  0.00    -0.302 N 
ATOM     11  H   UNL A   1      33.920  35.545  34.960  1.00  0.00     0.172 HD
BRANCH  10  12
ATOM     12  C   UNL A   1      34.600  34.415  33.446  1.00  0.00     0.195 A 
ATOM     13  N   UNL A   1      33.922  33.482  32.834  1.00  0.00    -0.221 NA
ATOM     14  S   UNL A   1      36.303  34.255  33.419  1.00  0.00    -0.024 S 
ATOM     15  C   UNL A   1      34.793  32.653  32.150  1.00  0.00     0.212 A 
ATOM     16  C   UNL A   1      36.121  32.961  32.326  1.00  0.00     0.345 A 
BRANCH  16  17
ATOM     17  N   UNL A   1      37.237  32.358  31.671  1.00  0.00     0.076 N 
ATOM     18  O   UNL A   1      37.404  32.596  30.469  1.00  0.00    -0.257 OA
ATOM     19  O   UNL A   1      37.946  31.618  32.365  1.00  0.00    -0.257 OA
ENDBRANCH  16  17
ENDBRANCH  10  12
ENDBRANCH   7   8
ENDBRANCH   6   7
ENDBRANCH   4   6
ENDBRANCH   1   2
BRANCH   1  20
ATOM     20  C   UNL A   1      33.666  33.464  28.031  1.00  0.00     0.042 C 
BRANCH  20  21
ATOM     21  C   UNL A   1      34.338  32.243  28.648  1.00  0.00     0.118 C 
BRANCH  21  22
ATOM     22  N   UNL A   1      33.916  30.968  28.078  1.00  0.00    -0.352 N 
ATOM     23  C   UNL A   1      34.640  29.809  27.890  1.00  0.00     0.251 C 
ATOM     24  H   UNL A   1      32.977  30.929  27.787  1.00  0.00     0.163 HD
ATOM     25  O   UNL A   1      34.124  28.845  27.342  1.00  0.00    -0.269 OA
BRANCH  23  26
ATOM     26  C   UNL A   1      36.061  29.764  28.300  1.00  0.00     0.039 A 
ATOM     27  C   UNL A   1      36.377  29.317  29.586  1.00  0.00     0.014 A 
ATOM     28  C   UNL A   1      37.077  30.077  27.396  1.00  0.00     0.014 A 
ATOM     29  C   UNL A   1      37.710  29.062  29.921  1.00  0.00     0.010 A 
ATOM     30  C   UNL A   1      38.392  29.739  27.699  1.00  0.00     0.010 A 
ATOM     31  C   UNL A   1      38.719  29.203  28.955  1.00  0.00    -0.014 A 
BRANCH  31  32
ATOM     32  C   UNL A   1      40.110  28.741  29.204  1.00  0.00     0.031 A 
ATOM     33  C   UNL A   1      41.126  29.674  29.797  1.00  0.00     0.074 A 
ATOM     34  C   UNL A   1      40.487  27.514  28.790  1.00  0.00     0.049 A 
ATOM     35  N   UNL A   1      42.414  29.497  29.957  1.00  0.00    -0.248 NA
ATOM     36  C   UNL A   1      40.640  30.991  30.237  1.00  0.00     0.031 C 
ATOM     37  C   UNL A   1      39.617  26.523  28.150  1.00  0.00     0.029 A 
ATOM     38  N   UNL A   1      41.713  26.896  28.833  1.00  0.00    -0.354 N 
ATOM     39  C   UNL A   1      42.895  30.689  30.485  1.00  0.00     0.074 A 
ATOM     40  C   UNL A   1      41.768  31.592  30.583  1.00  0.00     0.031 C 
ATOM     41  C   UNL A   1      40.329  25.416  27.885  1.00  0.00     0.029 A 
ATOM     42  C   UNL A   1      41.713  25.633  28.293  1.00  0.00     0.049 A 
ATOM     43  H   UNL A   1      42.517  27.318  29.215  1.00  0.00     0.167 HD
ATOM     44  C   UNL A   1      44.156  31.000  30.866  1.00  0.00     0.031 A 
ATOM     45  C   UNL A   1      42.715  24.750  28.128  1.00  0.00     0.031 A 
ATOM     46  C   UNL A   1      45.273  30.098  30.800  1.00  0.00     0.049 A 
ATOM     47  C   UNL A   1      44.102  25.115  28.570  1.00  0.00     0.074 A 
ATOM     48  C   UNL A   1      46.572  30.300  31.234  1.00  0.00     0.029 A 
ATOM     49  N   UNL A   1      45.223  28.819  30.267  1.00  0.00    -0.354 N 
ATOM     50  N   UNL A   1      44.528  26.226  29.119  1.00  0.00    -0.248 NA
ATOM     51  C   UNL A   1      45.148  24.101  28.369  1.00  0.00     0.031 C 
ATOM     52  C   UNL A   1      47.318  29.155  30.932  1.00  0.00     0.029 A 
ATOM     53  C   UNL A   1      46.472  28.228  30.344  1.00  0.00     0.049 A 
ATOM     54  H   UNL A   1      44.419  28.395  29.890  1.00  0.00     0.167 HD
ATOM     55  C   UNL A   1      45.884  26.041  29.344  1.00  0.00     0.074 A 
ATOM     56  C   UNL A   1      46.209  24.704  28.888  1.00  0.00     0.031 C 
ATOM     57  C   UNL A   1      46.782  26.902  29.881  1.00  0.00     0.031 A 
BRANCH  44  58
ATOM     58  C   UNL A   1      44.391  32.387  31.391  1.00  0.00    -0.014 A 
ATOM     59  C   UNL A   1      44.696  33.449  30.525  1.00  0.00     0.009 A 
ATOM     60  C   UNL A   1      44.282  32.639  32.768  1.00  0.00     0.009 A 
ATOM     61  C   UNL A   1      44.922  34.730  31.032  1.00  0.00     0.001 A 
ATOM     62  C   UNL A   1      44.485  33.927  33.267  1.00  0.00     0.001 A 
ATOM     63  C   UNL A   1      44.813  34.968  32.401  1.00  0.00     0.000 A 
ENDBRANCH  44  58
BRANCH  45  64
ATOM     64  C   UNL A   1      42.443  23.421  27.522  1.00  0.00    -0.014 A 
ATOM     65  C   UNL A   1      41.927  22.380  28.307  1.00  0.00     0.009 A 
ATOM     66  C   UNL A   1      42.702  23.187  26.163  1.00  0.00     0.009 A 
ATOM     67  C   UNL A   1      41.694  21.122  27.748  1.00  0.00     0.001 A 
ATOM     68  C   UNL A   1      42.446  21.934  25.602  1.00  0.00     0.001 A 
ATOM     69  C   UNL A   1      41.950  20.901  26.395  1.00  0.00     0.000 A 
ENDBRANCH  45  64
BRANCH  57  70
ATOM     70  C   UNL A   1      48.194  26.416  30.020  1.00  0.00    -0.014 A 
ATOM     71  C   UNL A   1      49.128  26.605  28.991  1.00  0.00     0.009 A 
ATOM     72  C   UNL A   1      48.603  25.795  31.210  1.00  0.00     0.009 A 
ATOM     73  C   UNL A   1      50.442  26.155  29.141  1.00  0.00     0.001 A 
ATOM     74  C   UNL A   1      49.922  25.366  31.365  1.00  0.00     0.001 A 
ATOM     75  C   UNL A   1      50.838  25.540  30.328  1.00  0.00     0.000 A 
ENDBRANCH  57  70
ENDBRANCH  31  32
ENDBRANCH  23  26
ENDBRANCH  21  22
ENDBRANCH  20  21
ENDBRANCH   1  20
TORSDOF 14
ENDMDL
MODEL 2
REMARK VINA RESULT:     -10.2      5.615     10.911
REMARK SMILES O=C(CCC(=O)Nc1ncc([N+](=O)[O-])s1)NCCCNC(=O)c1ccc(-c2c3nc(c(-c4ccccc4)c4ccc([nH]4)c(-c4ccccc4)c4nc(c(-c5ccccc5)c5ccc2[nH]5)C=C4)C=C3)cc1
REMARK SMILES IDX 17 1 16 2 1 3 2 4 3 6 4 7 5 8 6 9 7 10 8 12 9 13 15 14 10 15
REMARK SMILES IDX 11 16 12 17 13 18 14 19 18 20 19 21 20 22 21 23 22 25 23 26
REMARK SMILES IDX 24 27 70 28 25 29 69 30 26 31 27 32 28 33 63 34 29 35 68 36
REMARK SMILES IDX 62 37 64 38 30 39 67 40 61 41 60 42 31 44 53 45 38 46 52 47
REMARK SMILES IDX 39 48 42 49 51 50 65 51 40 52 41 53 50 55 66 56 43 57 32 58
REMARK SMILES IDX 33 59 37 60 34 61 36 62 35 63 54 64 55 65 59 66 56 67 58 68
REMARK SMILES IDX 57 69 44 70 45 71 49 72 46 73 48 74 47 75
REMARK H PARENT 16 5 7 11 20 24 64 43 42 54
REMARK Flexibility Score: inf
ROOT
ATOM      1  C   UNL A   1      36.799  22.232  24.695  1.00  0.00     0.117 C 
ENDROOT
BRANCH   1   2
ATOM      2  N   UNL A   1      35.540  22.101  23.993  1.00  0.00    -0.356 N 
ATOM      3  O   UNL A   1      34.415  23.703  25.198  1.00  0.00    -0.275 OA
ATOM      4  C   UNL A   1      34.463  22.922  24.256  1.00  0.00     0.220 C 
ATOM      5  H   UNL A   1      35.449  21.402  23.306  1.00  0.00     0.163 HD
BRANCH   4   6
ATOM      6  C   UNL A   1      33.345  22.796  23.242  1.00  0.00     0.110 C 
BRANCH   6   7
ATOM      7  C   UNL A   1      32.559  21.496  23.397  1.00  0.00     0.110 C 
BRANCH   7   8
ATOM      8  C   UNL A   1      32.137  21.243  24.832  1.00  0.00     0.226 C 
ATOM      9  O   UNL A   1      31.607  22.154  25.479  1.00  0.00    -0.275 OA
ATOM     10  N   UNL A   1      32.378  20.073  25.483  1.00  0.00    -0.302 N 
ATOM     11  H   UNL A   1      31.922  19.944  26.346  1.00  0.00     0.172 HD
BRANCH  10  12
ATOM     12  C   UNL A   1      33.187  19.061  25.061  1.00  0.00     0.195 A 
ATOM     13  N   UNL A   1      34.403  19.127  24.588  1.00  0.00    -0.221 NA
ATOM     14  S   UNL A   1      32.568  17.492  25.343  1.00  0.00    -0.024 S 
ATOM     15  C   UNL A   1      34.965  17.863  24.586  1.00  0.00     0.212 A 
ATOM     16  C   UNL A   1      34.117  16.866  25.008  1.00  0.00     0.345 A 
BRANCH  16  17
ATOM     17  N   UNL A   1      34.441  15.492  25.214  1.00  0.00     0.076 N 
ATOM     18  O   UNL A   1      33.511  14.694  25.379  1.00  0.00    -0.257 OA
ATOM     19  O   UNL A   1      35.646  15.209  25.233  1.00  0.00    -0.257 OA
ENDBRANCH  16  17
ENDBRANCH  10  12
ENDBRANCH   7   8
ENDBRANCH   6   7
ENDBRANCH   4   6
ENDBRANCH   1   2
BRANCH   1  20
ATOM     20  C   UNL A   1      37.544  20.920  24.858  1.00  0.00     0.042 C 
BRANCH  20  21
ATOM     21  C   UNL A   1      38.721  20.964  25.825  1.00  0.00     0.118 C 
BRANCH  21  22
ATOM     22  N   UNL A   1      39.649  19.845  25.702  1.00  0.00    -0.352 N 
ATOM     23  C   UNL A   1      40.993  19.783  26.004  1.00  0.00     0.251 C 
ATOM     24  H   UNL A   1      39.258  19.013  25.352  1.00  0.00     0.163 HD
ATOM     25  O   UNL A   1      41.625  18.760  25.782  1.00  0.00    -0.269 OA
BRANCH  23  26
ATOM     26  C   UNL A   1      41.675  20.981  26.542  1.00  0.00     0.039 A 
ATOM     27  C   UNL A   1      42.251  21.886  25.647  1.00  0.00     0.014 A 
ATOM     28  C   UNL A   1      41.671  21.253  27.911  1.00  0.00     0.014 A 
ATOM     29  C   UNL A   1      42.708  23.122  26.113  1.00  0.00     0.010 A 
ATOM     30  C   UNL A   1      42.043  22.516  28.360  1.00  0.00     0.010 A 
ATOM     31  C   UNL A   1      42.540  23.473  27.462  1.00  0.00    -0.014 A 
BRANCH  31  32
ATOM     32  C   UNL A   1      42.815  24.850  27.951  1.00  0.00     0.031 A 
ATOM     33  C   UNL A   1      44.197  25.240  28.389  1.00  0.00     0.074 A 
ATOM     34  C   UNL A   1      41.793  25.716  28.109  1.00  0.00     0.049 A 
ATOM     35  N   UNL A   1      44.598  26.342  28.972  1.00  0.00    -0.248 NA
ATOM     36  C   UNL A   1      45.264  24.249  28.176  1.00  0.00     0.031 C 
ATOM     37  C   UNL A   1      40.390  25.452  27.775  1.00  0.00     0.029 A 
ATOM     38  N   UNL A   1      41.776  26.995  28.609  1.00  0.00    -0.354 N 
ATOM     39  C   UNL A   1      45.953  26.164  29.223  1.00  0.00     0.074 A 
ATOM     40  C   UNL A   1      46.297  24.835  28.763  1.00  0.00     0.031 C 
ATOM     41  C   UNL A   1      39.657  26.542  28.055  1.00  0.00     0.029 A 
ATOM     42  C   UNL A   1      40.526  27.564  28.628  1.00  0.00     0.049 A 
ATOM     43  H   UNL A   1      42.585  27.462  28.923  1.00  0.00     0.167 HD
ATOM     44  C   UNL A   1      46.834  27.031  29.774  1.00  0.00     0.031 A 
ATOM     45  C   UNL A   1      40.116  28.767  29.071  1.00  0.00     0.031 A 
ATOM     46  C   UNL A   1      46.507  28.362  30.204  1.00  0.00     0.049 A 
ATOM     47  C   UNL A   1      41.117  29.715  29.666  1.00  0.00     0.074 A 
ATOM     48  C   UNL A   1      47.351  29.340  30.703  1.00  0.00     0.029 A 
ATOM     49  N   UNL A   1      45.232  28.907  30.184  1.00  0.00    -0.354 N 
ATOM     50  N   UNL A   1      42.404  29.551  29.844  1.00  0.00    -0.248 NA
ATOM     51  C   UNL A   1      40.604  31.016  30.122  1.00  0.00     0.031 C 
ATOM     52  C   UNL A   1      46.580  30.464  31.019  1.00  0.00     0.029 A 
ATOM     53  C   UNL A   1      45.263  30.198  30.680  1.00  0.00     0.049 A 
ATOM     54  H   UNL A   1      44.425  28.443  29.864  1.00  0.00     0.167 HD
ATOM     55  C   UNL A   1      42.860  30.730  30.416  1.00  0.00     0.074 A 
ATOM     56  C   UNL A   1      41.714  31.609  30.541  1.00  0.00     0.031 C 
ATOM     57  C   UNL A   1      44.116  31.057  30.804  1.00  0.00     0.031 A 
BRANCH  44  58
ATOM     58  C   UNL A   1      48.249  26.556  29.941  1.00  0.00    -0.014 A 
ATOM     59  C   UNL A   1      49.217  26.798  28.954  1.00  0.00     0.009 A 
ATOM     60  C   UNL A   1      48.624  25.881  31.113  1.00  0.00     0.009 A 
ATOM     61  C   UNL A   1      50.525  26.340  29.121  1.00  0.00     0.001 A 
ATOM     62  C   UNL A   1      49.940  25.446  31.287  1.00  0.00     0.001 A 
ATOM     63  C   UNL A   1      50.886  25.668  30.288  1.00  0.00     0.000 A 
ENDBRANCH  44  58
BRANCH  45  64
ATOM     64  C   UNL A   1      38.686  29.153  28.960  1.00  0.00    -0.014 A 
ATOM     65  C   UNL A   1      38.186  29.664  27.753  1.00  0.00     0.009 A 
ATOM     66  C   UNL A   1      37.821  29.018  30.055  1.00  0.00     0.009 A 
ATOM     67  C   UNL A   1      36.848  30.053  27.652  1.00  0.00     0.001 A 
ATOM     68  C   UNL A   1      36.478  29.387  29.943  1.00  0.00     0.001 A 
ATOM     69  C   UNL A   1      35.995  29.910  28.745  1.00  0.00     0.000 A 
ENDBRANCH  45  64
BRANCH  57  70
ATOM     70  C   UNL A   1      44.317  32.427  31.381  1.00  0.00    -0.014 A 
ATOM     71  C   UNL A   1      44.236  32.647  32.765  1.00  0.00     0.009 A 
ATOM     72  C   UNL A   1      44.627  33.501  30.534  1.00  0.00     0.009 A 
ATOM     73  C   UNL A   1      44.435  33.927  33.286  1.00  0.00     0.001 A 
ATOM     74  C   UNL A   1      44.848  34.775  31.061  1.00  0.00     0.001 A 
ATOM     75  C   UNL A   1      44.745  34.987  32.435  1.00  0.00     0.000 A 
ENDBRANCH  57  70
ENDBRANCH  31  32
ENDBRANCH  23  26
ENDBRANCH  21  22
ENDBRANCH  20  21
ENDBRANCH   1  20
TORSDOF 14
ENDMDL
MODEL 3
REMARK VINA RESULT:     -10.2      5.859     10.920
REMARK SMILES O=C(CCC(=O)Nc1ncc([N+](=O)[O-])s1)NCCCNC(=O)c1ccc(-c2c3nc(c(-c4ccccc4)c4ccc([nH]4)c(-c4ccccc4)c4nc(c(-c5ccccc5)c5ccc2[nH]5)C=C4)C=C3)cc1
REMARK SMILES IDX 17 1 16 2 1 3 2 4 3 6 4 7 5 8 6 9 7 10 8 12 9 13 15 14 10 15
REMARK SMILES IDX 11 16 12 17 13 18 14 19 18 20 19 21 20 22 21 23 22 25 23 26
REMARK SMILES IDX 24 27 70 28 25 29 69 30 26 31 27 32 28 33 63 34 29 35 68 36
REMARK SMILES IDX 62 37 64 38 30 39 67 40 61 41 60 42 31 44 53 45 38 46 52 47
REMARK SMILES IDX 39 48 42 49 51 50 65 51 40 52 41 53 50 55 66 56 43 57 32 58
REMARK SMILES IDX 33 59 37 60 34 61 36 62 35 63 54 64 55 65 59 66 56 67 58 68
REMARK SMILES IDX 57 69 44 70 45 71 49 72 46 73 48 74 47 75
REMARK H PARENT 16 5 7 11 20 24 64 43 42 54
REMARK Flexibility Score: inf
ROOT
ATOM      1  C   UNL A   1      36.952  23.180  24.583  1.00  0.00     0.117 C 
ENDROOT
BRANCH   1   2
ATOM      2  N   UNL A   1      35.521  23.302  24.765  1.00  0.00    -0.356 N 
ATOM      3  O   UNL A   1      34.971  23.126  22.540  1.00  0.00    -0.275 OA
ATOM      4  C   UNL A   1      34.634  23.179  23.716  1.00  0.00     0.220 C 
ATOM      5  H   UNL A   1      35.170  23.480  25.668  1.00  0.00     0.163 HD
BRANCH   4   6
ATOM      6  C   UNL A   1      33.188  23.076  24.156  1.00  0.00     0.110 C 
BRANCH   6   7
ATOM      7  C   UNL A   1      32.775  21.640  24.477  1.00  0.00     0.110 C 
BRANCH   7   8
ATOM      8  C   UNL A   1      32.298  20.888  23.249  1.00  0.00     0.226 C 
ATOM      9  O   UNL A   1      31.727  21.506  22.342  1.00  0.00    -0.275 OA
ATOM     10  N   UNL A   1      32.398  19.538  23.118  1.00  0.00    -0.302 N 
ATOM     11  H   UNL A   1      32.218  19.165  22.225  1.00  0.00     0.172 HD
BRANCH  10  12
ATOM     12  C   UNL A   1      32.724  18.649  24.099  1.00  0.00     0.195 A 
ATOM     13  N   UNL A   1      32.167  18.477  25.267  1.00  0.00    -0.221 NA
ATOM     14  S   UNL A   1      33.926  17.515  23.657  1.00  0.00    -0.024 S 
ATOM     15  C   UNL A   1      32.591  17.275  25.806  1.00  0.00     0.212 A 
ATOM     16  C   UNL A   1      33.515  16.606  25.039  1.00  0.00     0.345 A 
BRANCH  16  17
ATOM     17  N   UNL A   1      34.051  15.306  25.279  1.00  0.00     0.076 N 
ATOM     18  O   UNL A   1      35.280  15.173  25.272  1.00  0.00    -0.257 OA
ATOM     19  O   UNL A   1      33.229  14.398  25.458  1.00  0.00    -0.257 OA
ENDBRANCH  16  17
ENDBRANCH  10  12
ENDBRANCH   7   8
ENDBRANCH   6   7
ENDBRANCH   4   6
ENDBRANCH   1   2
BRANCH   1  20
ATOM     20  C   UNL A   1      37.456  21.751  24.658  1.00  0.00     0.042 C 
BRANCH  20  21
ATOM     21  C   UNL A   1      38.403  21.463  25.817  1.00  0.00     0.118 C 
BRANCH  21  22
ATOM     22  N   UNL A   1      39.242  20.284  25.633  1.00  0.00    -0.352 N 
ATOM     23  C   UNL A   1      40.570  20.094  25.955  1.00  0.00     0.251 C 
ATOM     24  H   UNL A   1      38.795  19.511  25.221  1.00  0.00     0.163 HD
ATOM     25  O   UNL A   1      41.124  19.040  25.675  1.00  0.00    -0.269 OA
BRANCH  23  26
ATOM     26  C   UNL A   1      41.331  21.195  26.584  1.00  0.00     0.039 A 
ATOM     27  C   UNL A   1      41.965  22.132  25.763  1.00  0.00     0.014 A 
ATOM     28  C   UNL A   1      41.350  21.351  27.971  1.00  0.00     0.014 A 
ATOM     29  C   UNL A   1      42.504  23.291  26.326  1.00  0.00     0.010 A 
ATOM     30  C   UNL A   1      41.806  22.544  28.521  1.00  0.00     0.010 A 
ATOM     31  C   UNL A   1      42.364  23.539  27.701  1.00  0.00    -0.014 A 
BRANCH  31  32
ATOM     32  C   UNL A   1      42.731  24.848  28.301  1.00  0.00     0.031 A 
ATOM     33  C   UNL A   1      41.688  25.908  28.511  1.00  0.00     0.074 A 
ATOM     34  C   UNL A   1      44.027  25.125  28.552  1.00  0.00     0.049 A 
ATOM     35  N   UNL A   1      41.840  27.153  28.888  1.00  0.00    -0.248 NA
ATOM     36  C   UNL A   1      40.293  25.532  28.228  1.00  0.00     0.031 C 
ATOM     37  C   UNL A   1      45.151  24.208  28.345  1.00  0.00     0.029 A 
ATOM     38  N   UNL A   1      44.620  26.271  29.023  1.00  0.00    -0.354 N 
ATOM     39  C   UNL A   1      40.570  27.714  28.857  1.00  0.00     0.074 A 
ATOM     40  C   UNL A   1      39.665  26.687  28.388  1.00  0.00     0.031 C 
ATOM     41  C   UNL A   1      46.291  24.817  28.711  1.00  0.00     0.029 A 
ATOM     42  C   UNL A   1      45.986  26.179  29.135  1.00  0.00     0.049 A 
ATOM     43  H   UNL A   1      44.113  27.082  29.260  1.00  0.00     0.167 HD
ATOM     44  C   UNL A   1      40.188  28.967  29.198  1.00  0.00     0.031 A 
ATOM     45  C   UNL A   1      46.897  27.091  29.520  1.00  0.00     0.031 A 
ATOM     46  C   UNL A   1      41.076  29.983  29.693  1.00  0.00     0.049 A 
ATOM     47  C   UNL A   1      46.446  28.470  29.906  1.00  0.00     0.074 A 
ATOM     48  C   UNL A   1      40.766  31.258  30.137  1.00  0.00     0.029 A 
ATOM     49  N   UNL A   1      42.449  29.841  29.812  1.00  0.00    -0.354 N 
ATOM     50  N   UNL A   1      45.233  28.967  29.923  1.00  0.00    -0.248 NA
ATOM     51  C   UNL A   1      47.491  29.415  30.325  1.00  0.00     0.031 C 
ATOM     52  C   UNL A   1      41.959  31.900  30.491  1.00  0.00     0.029 A 
ATOM     53  C   UNL A   1      43.004  31.010  30.304  1.00  0.00     0.049 A 
ATOM     54  H   UNL A   1      42.955  29.028  29.581  1.00  0.00     0.167 HD
ATOM     55  C   UNL A   1      45.367  30.273  30.369  1.00  0.00     0.074 A 
ATOM     56  C   UNL A   1      46.776  30.490  30.628  1.00  0.00     0.031 C 
ATOM     57  C   UNL A   1      44.407  31.212  30.549  1.00  0.00     0.031 A 
BRANCH  44  58
ATOM     58  C   UNL A   1      38.733  29.306  29.044  1.00  0.00    -0.014 A 
ATOM     59  C   UNL A   1      38.221  29.771  27.823  1.00  0.00     0.009 A 
ATOM     60  C   UNL A   1      37.859  29.135  30.129  1.00  0.00     0.009 A 
ATOM     61  C   UNL A   1      36.869  30.092  27.700  1.00  0.00     0.001 A 
ATOM     62  C   UNL A   1      36.501  29.434  29.995  1.00  0.00     0.001 A 
ATOM     63  C   UNL A   1      36.010  29.920  28.785  1.00  0.00     0.000 A 
ENDBRANCH  44  58
BRANCH  45  64
ATOM     64  C   UNL A   1      48.337  26.729  29.571  1.00  0.00    -0.014 A 
ATOM     65  C   UNL A   1      48.897  26.234  30.758  1.00  0.00     0.009 A 
ATOM     66  C   UNL A   1      49.154  26.879  28.442  1.00  0.00     0.009 A 
ATOM     67  C   UNL A   1      50.256  25.916  30.819  1.00  0.00     0.001 A 
ATOM     68  C   UNL A   1      50.508  26.539  28.499  1.00  0.00     0.001 A 
ATOM     69  C   UNL A   1      51.059  26.065  29.688  1.00  0.00     0.000 A 
ENDBRANCH  45  64
BRANCH  57  70
ATOM     70  C   UNL A   1      44.848  32.549  31.067  1.00  0.00    -0.014 A 
ATOM     71  C   UNL A   1      44.820  32.837  32.440  1.00  0.00     0.009 A 
ATOM     72  C   UNL A   1      45.331  33.517  30.174  1.00  0.00     0.009 A 
ATOM     73  C   UNL A   1      45.243  34.084  32.906  1.00  0.00     0.001 A 
ATOM     74  C   UNL A   1      45.774  34.754  30.646  1.00  0.00     0.001 A 
ATOM     75  C   UNL A   1      45.722  35.038  32.009  1.00  0.00     0.000 A 
ENDBRANCH  57  70
ENDBRANCH  31  32
ENDBRANCH  23  26
ENDBRANCH  21  22
ENDBRANCH  20  21
ENDBRANCH   1  20
TORSDOF 14
ENDMDL
