MODEL 1
REMARK VINA RESULT:     -10.7      0.000      0.000
REMARK SMILES O=C(CCCNC(=O)N1CC[C@@H](C(=O)NCCCNC(=O)c2ccc(-c3c4nc(c(-c5ccccc5)c5ccc([nH]5)c(-c5ccccc5)c5nc(c(-c6ccccc6)c6ccc3[nH]6)C=C5)C=C4)cc2)C1)NC1CC1
REMARK SMILES IDX 13 1 14 2 15 3 12 5 9 6 10 7 70 8 11 9 7 10 6 11 8 13 5 14
REMARK SMILES IDX 4 15 3 16 2 17 1 18 71 19 72 21 73 22 74 23 16 24 17 25
REMARK SMILES IDX 18 26 19 27 20 28 21 30 22 31 23 32 69 33 24 34 68 35 25 36
REMARK SMILES IDX 26 37 27 38 62 39 28 40 67 41 61 42 63 43 29 44 66 45 60 46
REMARK SMILES IDX 59 47 30 49 52 50 37 51 51 52 38 53 41 54 50 55 64 56 39 57
REMARK SMILES IDX 40 58 49 60 65 61 42 62 31 63 32 64 36 65 33 66 35 67 34 68
REMARK SMILES IDX 53 69 54 70 58 71 55 72 57 73 56 74 43 75 44 76 48 77 45 78
REMARK SMILES IDX 47 79 46 80
REMARK H PARENT 15 4 6 12 71 20 19 29 63 48 41 59
REMARK Flexibility Score: inf
ROOT
ATOM      1  C   UNL A   1      34.957  21.796  24.550  1.00  0.00     0.224 C 
ATOM      2  O   UNL A   1      33.817  21.486  24.891  1.00  0.00    -0.275 OA
ATOM      3  N   UNL A   1      35.995  21.011  24.954  1.00  0.00    -0.356 N 
ATOM      4  H   UNL A   1      35.742  20.176  25.410  1.00  0.00     0.163 HD
ENDROOT
BRANCH   1   5
ATOM      5  C   UNL A   1      35.251  22.989  23.668  1.00  0.00     0.100 C 
ATOM      6  N   UNL A   1      33.630  24.543  22.956  1.00  0.00    -0.324 N 
ATOM      7  C   UNL A   1      33.970  24.916  24.314  1.00  0.00     0.122 C 
ATOM      8  C   UNL A   1      34.084  23.195  22.693  1.00  0.00     0.134 C 
ATOM      9  C   UNL A   1      35.346  24.301  24.470  1.00  0.00     0.037 C 
BRANCH   6  10
ATOM     10  C   UNL A   1      32.836  25.214  22.084  1.00  0.00     0.317 C 
ATOM     11  N   UNL A   1      31.489  25.095  22.221  1.00  0.00    -0.338 N 
ATOM     12  H   UNL A   1      30.950  25.162  21.401  1.00  0.00     0.165 HD
ATOM     13  O   UNL A   1      33.273  25.980  21.228  1.00  0.00    -0.249 OA
BRANCH  11  14
ATOM     14  C   UNL A   1      30.769  24.878  23.466  1.00  0.00     0.118 C 
BRANCH  14  15
ATOM     15  C   UNL A   1      30.424  26.191  24.170  1.00  0.00     0.031 C 
BRANCH  15  16
ATOM     16  C   UNL A   1      29.139  26.853  23.678  1.00  0.00     0.102 C 
BRANCH  16  17
ATOM     17  C   UNL A   1      29.456  28.071  22.841  1.00  0.00     0.220 C 
ATOM     18  O   UNL A   1      30.339  28.062  21.989  1.00  0.00    -0.275 OA
ATOM     19  N   UNL A   1      28.719  29.185  23.185  1.00  0.00    -0.353 N 
ATOM     20  H   UNL A   1      28.017  29.096  23.869  1.00  0.00     0.163 HD
BRANCH  19  21
ATOM     21  C   UNL A   1      28.935  30.459  22.584  1.00  0.00     0.082 C 
ATOM     22  C   UNL A   1      28.034  30.961  21.492  1.00  0.00     0.027 C 
ATOM     23  C   UNL A   1      27.983  31.591  22.853  1.00  0.00     0.027 C 
ENDBRANCH  19  21
ENDBRANCH  16  17
ENDBRANCH  15  16
ENDBRANCH  14  15
ENDBRANCH  11  14
ENDBRANCH   6  10
ENDBRANCH   1   5
BRANCH   3  24
ATOM     24  C   UNL A   1      37.423  21.231  24.806  1.00  0.00     0.117 C 
BRANCH  24  25
ATOM     25  C   UNL A   1      38.214  19.934  24.962  1.00  0.00     0.042 C 
BRANCH  25  26
ATOM     26  C   UNL A   1      39.153  19.917  26.168  1.00  0.00     0.118 C 
BRANCH  26  27
ATOM     27  N   UNL A   1      40.381  19.175  25.917  1.00  0.00    -0.352 N 
ATOM     28  C   UNL A   1      41.689  19.575  25.977  1.00  0.00     0.251 C 
ATOM     29  H   UNL A   1      40.249  18.234  25.662  1.00  0.00     0.163 HD
ATOM     30  O   UNL A   1      42.570  18.820  25.560  1.00  0.00    -0.269 OA
BRANCH  28  31
ATOM     31  C   UNL A   1      42.060  20.902  26.511  1.00  0.00     0.039 A 
ATOM     32  C   UNL A   1      42.453  21.898  25.612  1.00  0.00     0.014 A 
ATOM     33  C   UNL A   1      42.067  21.161  27.884  1.00  0.00     0.014 A 
ATOM     34  C   UNL A   1      42.793  23.168  26.083  1.00  0.00     0.010 A 
ATOM     35  C   UNL A   1      42.341  22.447  28.348  1.00  0.00     0.010 A 
ATOM     36  C   UNL A   1      42.707  23.463  27.453  1.00  0.00    -0.014 A 
BRANCH  36  37
ATOM     37  C   UNL A   1      42.982  24.831  27.959  1.00  0.00     0.031 A 
ATOM     38  C   UNL A   1      44.381  25.243  28.330  1.00  0.00     0.074 A 
ATOM     39  C   UNL A   1      41.958  25.688  28.144  1.00  0.00     0.049 A 
ATOM     40  N   UNL A   1      44.799  26.376  28.835  1.00  0.00    -0.248 NA
ATOM     41  C   UNL A   1      45.443  24.245  28.129  1.00  0.00     0.031 C 
ATOM     42  C   UNL A   1      40.550  25.401  27.860  1.00  0.00     0.029 A 
ATOM     43  N   UNL A   1      41.945  26.974  28.621  1.00  0.00    -0.354 N 
ATOM     44  C   UNL A   1      46.166  26.222  29.030  1.00  0.00     0.074 A 
ATOM     45  C   UNL A   1      46.499  24.872  28.627  1.00  0.00     0.031 C 
ATOM     46  C   UNL A   1      39.815  26.486  28.146  1.00  0.00     0.029 A 
ATOM     47  C   UNL A   1      40.690  27.530  28.669  1.00  0.00     0.049 A 
ATOM     48  H   UNL A   1      42.758  27.454  28.903  1.00  0.00     0.167 HD
ATOM     49  C   UNL A   1      47.067  27.124  29.489  1.00  0.00     0.031 A 
ATOM     50  C   UNL A   1      40.286  28.743  29.091  1.00  0.00     0.031 A 
ATOM     51  C   UNL A   1      46.740  28.471  29.876  1.00  0.00     0.049 A 
ATOM     52  C   UNL A   1      41.304  29.723  29.602  1.00  0.00     0.074 A 
ATOM     53  C   UNL A   1      47.595  29.479  30.289  1.00  0.00     0.029 A 
ATOM     54  N   UNL A   1      45.458  28.998  29.900  1.00  0.00    -0.354 N 
ATOM     55  N   UNL A   1      42.603  29.584  29.711  1.00  0.00    -0.248 NA
ATOM     56  C   UNL A   1      40.798  31.032  30.039  1.00  0.00     0.031 C 
ATOM     57  C   UNL A   1      46.824  30.601  30.613  1.00  0.00     0.029 A 
ATOM     58  C   UNL A   1      45.496  30.308  30.348  1.00  0.00     0.049 A 
ATOM     59  H   UNL A   1      44.644  28.513  29.639  1.00  0.00     0.167 HD
ATOM     60  C   UNL A   1      43.072  30.795  30.200  1.00  0.00     0.074 A 
ATOM     61  C   UNL A   1      41.922  31.662  30.353  1.00  0.00     0.031 C 
ATOM     62  C   UNL A   1      44.344  31.158  30.497  1.00  0.00     0.031 A 
BRANCH  49  63
ATOM     63  C   UNL A   1      48.497  26.678  29.607  1.00  0.00    -0.014 A 
ATOM     64  C   UNL A   1      49.430  26.945  28.592  1.00  0.00     0.009 A 
ATOM     65  C   UNL A   1      48.929  26.020  30.769  1.00  0.00     0.009 A 
ATOM     66  C   UNL A   1      50.757  26.530  28.724  1.00  0.00     0.001 A 
ATOM     67  C   UNL A   1      50.262  25.631  30.910  1.00  0.00     0.001 A 
ATOM     68  C   UNL A   1      51.173  25.878  29.885  1.00  0.00     0.000 A 
ENDBRANCH  49  63
BRANCH  50  69
ATOM     69  C   UNL A   1      38.846  29.107  29.041  1.00  0.00    -0.014 A 
ATOM     70  C   UNL A   1      38.276  29.586  27.851  1.00  0.00     0.009 A 
ATOM     71  C   UNL A   1      38.037  28.987  30.180  1.00  0.00     0.009 A 
ATOM     72  C   UNL A   1      36.932  29.966  27.813  1.00  0.00     0.001 A 
ATOM     73  C   UNL A   1      36.687  29.340  30.132  1.00  0.00     0.001 A 
ATOM     74  C   UNL A   1      36.138  29.839  28.952  1.00  0.00     0.000 A 
ENDBRANCH  50  69
BRANCH  62  75
ATOM     75  C   UNL A   1      44.561  32.562  30.985  1.00  0.00    -0.014 A 
ATOM     76  C   UNL A   1      44.544  32.871  32.353  1.00  0.00     0.009 A 
ATOM     77  C   UNL A   1      44.817  33.586  30.058  1.00  0.00     0.009 A 
ATOM     78  C   UNL A   1      44.748  34.183  32.783  1.00  0.00     0.001 A 
ATOM     79  C   UNL A   1      45.048  34.891  30.493  1.00  0.00     0.001 A 
ATOM     80  C   UNL A   1      45.003  35.191  31.854  1.00  0.00     0.000 A 
ENDBRANCH  62  75
ENDBRANCH  36  37
ENDBRANCH  28  31
ENDBRANCH  26  27
ENDBRANCH  25  26
ENDBRANCH  24  25
ENDBRANCH   3  24
TORSDOF 16
ENDMDL
MODEL 2
REMARK VINA RESULT:     -10.7      0.279      5.993
REMARK SMILES O=C(CCCNC(=O)N1CC[C@@H](C(=O)NCCCNC(=O)c2ccc(-c3c4nc(c(-c5ccccc5)c5ccc([nH]5)c(-c5ccccc5)c5nc(c(-c6ccccc6)c6ccc3[nH]6)C=C5)C=C4)cc2)C1)NC1CC1
REMARK SMILES IDX 13 1 14 2 15 3 12 5 9 6 10 7 70 8 11 9 7 10 6 11 8 13 5 14
REMARK SMILES IDX 4 15 3 16 2 17 1 18 71 19 72 21 73 22 74 23 16 24 17 25
REMARK SMILES IDX 18 26 19 27 20 28 21 30 22 31 23 32 69 33 24 34 68 35 25 36
REMARK SMILES IDX 26 37 27 38 62 39 28 40 67 41 61 42 63 43 29 44 66 45 60 46
REMARK SMILES IDX 59 47 30 49 52 50 37 51 51 52 38 53 41 54 50 55 64 56 39 57
REMARK SMILES IDX 40 58 49 60 65 61 42 62 31 63 32 64 36 65 33 66 35 67 34 68
REMARK SMILES IDX 53 69 54 70 58 71 55 72 57 73 56 74 43 75 44 76 48 77 45 78
REMARK SMILES IDX 47 79 46 80
REMARK H PARENT 15 4 6 12 71 20 19 29 63 48 41 59
REMARK Flexibility Score: inf
ROOT
ATOM      1  C   UNL A   1      34.959  21.708  24.486  1.00  0.00     0.224 C 
ATOM      2  O   UNL A   1      33.820  21.398  24.831  1.00  0.00    -0.275 OA
ATOM      3  N   UNL A   1      36.000  20.931  24.899  1.00  0.00    -0.356 N 
ATOM      4  H   UNL A   1      35.750  20.101  25.364  1.00  0.00     0.163 HD
ENDROOT
BRANCH   1   5
ATOM      5  C   UNL A   1      35.249  22.892  23.590  1.00  0.00     0.100 C 
ATOM      6  N   UNL A   1      33.638  24.478  22.927  1.00  0.00    -0.324 N 
ATOM      7  C   UNL A   1      34.032  24.848  24.272  1.00  0.00     0.122 C 
ATOM      8  C   UNL A   1      34.054  23.120  22.654  1.00  0.00     0.134 C 
ATOM      9  C   UNL A   1      35.399  24.203  24.384  1.00  0.00     0.037 C 
BRANCH   6  10
ATOM     10  C   UNL A   1      32.830  25.164  22.080  1.00  0.00     0.317 C 
ATOM     11  N   UNL A   1      31.485  25.029  22.227  1.00  0.00    -0.338 N 
ATOM     12  H   UNL A   1      30.938  25.112  21.414  1.00  0.00     0.165 HD
ATOM     13  O   UNL A   1      33.252  25.955  21.240  1.00  0.00    -0.249 OA
BRANCH  11  14
ATOM     14  C   UNL A   1      30.780  24.775  23.474  1.00  0.00     0.118 C 
BRANCH  14  15
ATOM     15  C   UNL A   1      30.395  26.068  24.194  1.00  0.00     0.031 C 
BRANCH  15  16
ATOM     16  C   UNL A   1      29.121  26.727  23.672  1.00  0.00     0.102 C 
BRANCH  16  17
ATOM     17  C   UNL A   1      29.453  27.960  22.861  1.00  0.00     0.220 C 
ATOM     18  O   UNL A   1      30.351  27.964  22.026  1.00  0.00    -0.275 OA
ATOM     19  N   UNL A   1      28.711  29.068  23.211  1.00  0.00    -0.353 N 
ATOM     20  H   UNL A   1      27.997  28.968  23.882  1.00  0.00     0.163 HD
BRANCH  19  21
ATOM     21  C   UNL A   1      28.938  30.351  22.636  1.00  0.00     0.082 C 
ATOM     22  C   UNL A   1      28.051  30.876  21.544  1.00  0.00     0.027 C 
ATOM     23  C   UNL A   1      27.987  31.482  22.915  1.00  0.00     0.027 C 
ENDBRANCH  19  21
ENDBRANCH  16  17
ENDBRANCH  15  16
ENDBRANCH  14  15
ENDBRANCH  11  14
ENDBRANCH   6  10
ENDBRANCH   1   5
BRANCH   3  24
ATOM     24  C   UNL A   1      37.427  21.155  24.747  1.00  0.00     0.117 C 
BRANCH  24  25
ATOM     25  C   UNL A   1      38.217  19.851  24.843  1.00  0.00     0.042 C 
BRANCH  25  26
ATOM     26  C   UNL A   1      39.068  19.728  26.107  1.00  0.00     0.118 C 
BRANCH  26  27
ATOM     27  N   UNL A   1      40.351  19.082  25.862  1.00  0.00    -0.352 N 
ATOM     28  C   UNL A   1      41.624  19.581  25.930  1.00  0.00     0.251 C 
ATOM     29  H   UNL A   1      40.292  18.133  25.607  1.00  0.00     0.163 HD
ATOM     30  O   UNL A   1      42.562  18.895  25.518  1.00  0.00    -0.269 OA
BRANCH  28  31
ATOM     31  C   UNL A   1      41.890  20.931  26.467  1.00  0.00     0.039 A 
ATOM     32  C   UNL A   1      41.809  21.128  27.849  1.00  0.00     0.014 A 
ATOM     33  C   UNL A   1      42.172  22.010  25.626  1.00  0.00     0.014 A 
ATOM     34  C   UNL A   1      42.072  22.387  28.391  1.00  0.00     0.010 A 
ATOM     35  C   UNL A   1      42.500  23.251  26.171  1.00  0.00     0.010 A 
ATOM     36  C   UNL A   1      42.453  23.453  27.558  1.00  0.00    -0.014 A 
BRANCH  36  37
ATOM     37  C   UNL A   1      42.818  24.774  28.127  1.00  0.00     0.031 A 
ATOM     38  C   UNL A   1      41.767  25.824  28.361  1.00  0.00     0.074 A 
ATOM     39  C   UNL A   1      44.113  25.054  28.377  1.00  0.00     0.049 A 
ATOM     40  N   UNL A   1      41.908  27.049  28.800  1.00  0.00    -0.248 NA
ATOM     41  C   UNL A   1      40.379  25.458  28.037  1.00  0.00     0.031 C 
ATOM     42  C   UNL A   1      45.236  24.138  28.159  1.00  0.00     0.029 A 
ATOM     43  N   UNL A   1      44.703  26.192  28.864  1.00  0.00    -0.354 N 
ATOM     44  C   UNL A   1      40.636  27.605  28.788  1.00  0.00     0.074 A 
ATOM     45  C   UNL A   1      39.741  26.598  28.259  1.00  0.00     0.031 C 
ATOM     46  C   UNL A   1      46.374  24.742  28.533  1.00  0.00     0.029 A 
ATOM     47  C   UNL A   1      46.069  26.098  28.979  1.00  0.00     0.049 A 
ATOM     48  H   UNL A   1      44.197  27.000  29.108  1.00  0.00     0.167 HD
ATOM     49  C   UNL A   1      40.242  28.837  29.193  1.00  0.00     0.031 A 
ATOM     50  C   UNL A   1      46.977  27.002  29.392  1.00  0.00     0.031 A 
ATOM     51  C   UNL A   1      41.128  29.834  29.733  1.00  0.00     0.049 A 
ATOM     52  C   UNL A   1      46.515  28.363  29.829  1.00  0.00     0.074 A 
ATOM     53  C   UNL A   1      40.812  31.086  30.232  1.00  0.00     0.029 A 
ATOM     54  N   UNL A   1      42.503  29.696  29.842  1.00  0.00    -0.354 N 
ATOM     55  N   UNL A   1      45.298  28.846  29.879  1.00  0.00    -0.248 NA
ATOM     56  C   UNL A   1      47.555  29.300  30.278  1.00  0.00     0.031 C 
ATOM     57  C   UNL A   1      42.002  31.726  30.597  1.00  0.00     0.029 A 
ATOM     58  C   UNL A   1      43.052  30.850  30.374  1.00  0.00     0.049 A 
ATOM     59  H   UNL A   1      43.012  28.896  29.578  1.00  0.00     0.167 HD
ATOM     60  C   UNL A   1      45.422  30.131  30.390  1.00  0.00     0.074 A 
ATOM     61  C   UNL A   1      46.831  30.347  30.649  1.00  0.00     0.031 C 
ATOM     62  C   UNL A   1      44.455  31.051  30.625  1.00  0.00     0.031 A 
BRANCH  49  63
ATOM     63  C   UNL A   1      38.785  29.180  29.058  1.00  0.00    -0.014 A 
ATOM     64  C   UNL A   1      37.906  29.069  30.147  1.00  0.00     0.009 A 
ATOM     65  C   UNL A   1      38.293  29.662  27.834  1.00  0.00     0.009 A 
ATOM     66  C   UNL A   1      36.557  29.400  30.003  1.00  0.00     0.001 A 
ATOM     67  C   UNL A   1      36.950  30.018  27.702  1.00  0.00     0.001 A 
ATOM     68  C   UNL A   1      36.081  29.879  28.783  1.00  0.00     0.000 A 
ENDBRANCH  49  63
BRANCH  50  69
ATOM     69  C   UNL A   1      48.419  26.648  29.423  1.00  0.00    -0.014 A 
ATOM     70  C   UNL A   1      49.248  26.949  28.331  1.00  0.00     0.009 A 
ATOM     71  C   UNL A   1      48.973  25.999  30.536  1.00  0.00     0.009 A 
ATOM     72  C   UNL A   1      50.596  26.582  28.342  1.00  0.00     0.001 A 
ATOM     73  C   UNL A   1      50.327  25.658  30.557  1.00  0.00     0.001 A 
ATOM     74  C   UNL A   1      51.135  25.940  29.457  1.00  0.00     0.000 A 
ENDBRANCH  50  69
BRANCH  62  75
ATOM     75  C   UNL A   1      44.885  32.362  31.221  1.00  0.00    -0.014 A 
ATOM     76  C   UNL A   1      45.222  33.457  30.410  1.00  0.00     0.009 A 
ATOM     77  C   UNL A   1      44.922  32.510  32.617  1.00  0.00     0.009 A 
ATOM     78  C   UNL A   1      45.619  34.664  30.987  1.00  0.00     0.001 A 
ATOM     79  C   UNL A   1      45.292  33.727  33.189  1.00  0.00     0.001 A 
ATOM     80  C   UNL A   1      45.650  34.800  32.374  1.00  0.00     0.000 A 
ENDBRANCH  62  75
ENDBRANCH  36  37
ENDBRANCH  28  31
ENDBRANCH  26  27
ENDBRANCH  25  26
ENDBRANCH  24  25
ENDBRANCH   3  24
TORSDOF 16
ENDMDL
MODEL 3
REMARK VINA RESULT:     -10.5      3.635      9.389
REMARK SMILES O=C(CCCNC(=O)N1CC[C@@H](C(=O)NCCCNC(=O)c2ccc(-c3c4nc(c(-c5ccccc5)c5ccc([nH]5)c(-c5ccccc5)c5nc(c(-c6ccccc6)c6ccc3[nH]6)C=C5)C=C4)cc2)C1)NC1CC1
REMARK SMILES IDX 13 1 14 2 15 3 12 5 9 6 10 7 70 8 11 9 7 10 6 11 8 13 5 14
REMARK SMILES IDX 4 15 3 16 2 17 1 18 71 19 72 21 73 22 74 23 16 24 17 25
REMARK SMILES IDX 18 26 19 27 20 28 21 30 22 31 23 32 69 33 24 34 68 35 25 36
REMARK SMILES IDX 26 37 27 38 62 39 28 40 67 41 61 42 63 43 29 44 66 45 60 46
REMARK SMILES IDX 59 47 30 49 52 50 37 51 51 52 38 53 41 54 50 55 64 56 39 57
REMARK SMILES IDX 40 58 49 60 65 61 42 62 31 63 32 64 36 65 33 66 35 67 34 68
REMARK SMILES IDX 53 69 54 70 58 71 55 72 57 73 56 74 43 75 44 76 48 77 45 78
REMARK SMILES IDX 47 79 46 80
REMARK H PARENT 15 4 6 12 71 20 19 29 63 48 41 59
REMARK Flexibility Score: inf
ROOT
ATOM      1  C   UNL A   1      31.667  27.908  25.011  1.00  0.00     0.224 C 
ATOM      2  O   UNL A   1      31.332  27.596  23.868  1.00  0.00    -0.275 OA
ATOM      3  N   UNL A   1      31.434  29.182  25.435  1.00  0.00    -0.356 N 
ATOM      4  H   UNL A   1      30.908  29.743  24.820  1.00  0.00     0.163 HD
ENDROOT
BRANCH   1   5
ATOM      5  C   UNL A   1      32.287  26.924  25.977  1.00  0.00     0.100 C 
ATOM      6  N   UNL A   1      31.582  24.690  26.230  1.00  0.00    -0.324 N 
ATOM      7  C   UNL A   1      32.415  24.713  25.044  1.00  0.00     0.122 C 
ATOM      8  C   UNL A   1      31.185  26.037  26.573  1.00  0.00     0.134 C 
ATOM      9  C   UNL A   1      33.257  25.951  25.279  1.00  0.00     0.037 C 
BRANCH   6  10
ATOM     10  C   UNL A   1      31.052  23.606  26.851  1.00  0.00     0.317 C 
ATOM     11  N   UNL A   1      31.877  22.567  27.144  1.00  0.00    -0.338 N 
ATOM     12  H   UNL A   1      31.477  21.668  27.147  1.00  0.00     0.165 HD
ATOM     13  O   UNL A   1      29.882  23.552  27.227  1.00  0.00    -0.249 OA
BRANCH  11  14
ATOM     14  C   UNL A   1      33.295  22.659  27.454  1.00  0.00     0.118 C 
BRANCH  14  15
ATOM     15  C   UNL A   1      34.043  21.367  27.124  1.00  0.00     0.031 C 
BRANCH  15  16
ATOM     16  C   UNL A   1      34.257  21.125  25.632  1.00  0.00     0.102 C 
BRANCH  16  17
ATOM     17  C   UNL A   1      33.377  19.996  25.144  1.00  0.00     0.220 C 
ATOM     18  O   UNL A   1      32.155  20.043  25.230  1.00  0.00    -0.275 OA
ATOM     19  N   UNL A   1      34.084  18.906  24.680  1.00  0.00    -0.353 N 
ATOM     20  H   UNL A   1      35.065  18.962  24.630  1.00  0.00     0.163 HD
BRANCH  19  21
ATOM     21  C   UNL A   1      33.444  17.701  24.268  1.00  0.00     0.082 C 
ATOM     22  C   UNL A   1      34.169  16.691  23.427  1.00  0.00     0.027 C 
ATOM     23  C   UNL A   1      33.861  16.384  24.862  1.00  0.00     0.027 C 
ENDBRANCH  19  21
ENDBRANCH  16  17
ENDBRANCH  15  16
ENDBRANCH  14  15
ENDBRANCH  11  14
ENDBRANCH   6  10
ENDBRANCH   1   5
BRANCH   3  24
ATOM     24  C   UNL A   1      31.852  29.828  26.666  1.00  0.00     0.117 C 
BRANCH  24  25
ATOM     25  C   UNL A   1      31.564  31.328  26.643  1.00  0.00     0.042 C 
BRANCH  25  26
ATOM     26  C   UNL A   1      32.805  32.204  26.817  1.00  0.00     0.118 C 
BRANCH  26  27
ATOM     27  N   UNL A   1      32.507  33.485  27.445  1.00  0.00    -0.352 N 
ATOM     28  C   UNL A   1      33.157  34.157  28.444  1.00  0.00     0.251 C 
ATOM     29  H   UNL A   1      31.709  33.941  27.092  1.00  0.00     0.163 HD
ATOM     30  O   UNL A   1      32.633  35.157  28.939  1.00  0.00    -0.269 OA
BRANCH  28  31
ATOM     31  C   UNL A   1      34.464  33.692  28.954  1.00  0.00     0.039 A 
ATOM     32  C   UNL A   1      34.485  32.856  30.075  1.00  0.00     0.014 A 
ATOM     33  C   UNL A   1      35.665  34.104  28.371  1.00  0.00     0.014 A 
ATOM     34  C   UNL A   1      35.702  32.386  30.572  1.00  0.00     0.010 A 
ATOM     35  C   UNL A   1      36.875  33.581  28.825  1.00  0.00     0.010 A 
ATOM     36  C   UNL A   1      36.906  32.717  29.930  1.00  0.00    -0.014 A 
BRANCH  36  37
ATOM     37  C   UNL A   1      38.200  32.156  30.394  1.00  0.00     0.031 A 
ATOM     38  C   UNL A   1      38.730  30.874  29.813  1.00  0.00     0.074 A 
ATOM     39  C   UNL A   1      38.871  32.771  31.388  1.00  0.00     0.049 A 
ATOM     40  N   UNL A   1      39.812  30.210  30.132  1.00  0.00    -0.248 NA
ATOM     41  C   UNL A   1      37.929  30.243  28.752  1.00  0.00     0.031 C 
ATOM     42  C   UNL A   1      38.448  34.000  32.063  1.00  0.00     0.029 A 
ATOM     43  N   UNL A   1      40.050  32.441  32.006  1.00  0.00    -0.354 N 
ATOM     44  C   UNL A   1      39.813  29.077  29.328  1.00  0.00     0.074 A 
ATOM     45  C   UNL A   1      38.603  29.122  28.535  1.00  0.00     0.031 C 
ATOM     46  C   UNL A   1      39.365  34.332  32.985  1.00  0.00     0.029 A 
ATOM     47  C   UNL A   1      40.418  33.322  32.994  1.00  0.00     0.049 A 
ATOM     48  H   UNL A   1      40.582  31.648  31.767  1.00  0.00     0.167 HD
ATOM     49  C   UNL A   1      40.742  28.095  29.244  1.00  0.00     0.031 A 
ATOM     50  C   UNL A   1      41.482  33.318  33.819  1.00  0.00     0.031 A 
ATOM     51  C   UNL A   1      41.953  28.055  30.020  1.00  0.00     0.049 A 
ATOM     52  C   UNL A   1      42.494  32.212  33.710  1.00  0.00     0.074 A 
ATOM     53  C   UNL A   1      42.986  27.136  29.957  1.00  0.00     0.029 A 
ATOM     54  N   UNL A   1      42.293  28.972  31.002  1.00  0.00    -0.354 N 
ATOM     55  N   UNL A   1      42.515  31.188  32.893  1.00  0.00    -0.248 NA
ATOM     56  C   UNL A   1      43.637  32.271  34.633  1.00  0.00     0.031 C 
ATOM     57  C   UNL A   1      43.929  27.468  30.936  1.00  0.00     0.029 A 
ATOM     58  C   UNL A   1      43.507  28.625  31.571  1.00  0.00     0.049 A 
ATOM     59  H   UNL A   1      41.751  29.753  31.257  1.00  0.00     0.167 HD
ATOM     60  C   UNL A   1      43.683  30.497  33.183  1.00  0.00     0.074 A 
ATOM     61  C   UNL A   1      44.353  31.226  34.241  1.00  0.00     0.031 C 
ATOM     62  C   UNL A   1      44.160  29.358  32.623  1.00  0.00     0.031 A 
BRANCH  49  63
ATOM     63  C   UNL A   1      40.478  26.970  28.282  1.00  0.00    -0.014 A 
ATOM     64  C   UNL A   1      40.977  27.002  26.969  1.00  0.00     0.009 A 
ATOM     65  C   UNL A   1      39.757  25.843  28.707  1.00  0.00     0.009 A 
ATOM     66  C   UNL A   1      40.728  25.944  26.092  1.00  0.00     0.001 A 
ATOM     67  C   UNL A   1      39.534  24.775  27.836  1.00  0.00     0.001 A 
ATOM     68  C   UNL A   1      40.012  24.829  26.528  1.00  0.00     0.000 A 
ENDBRANCH  49  63
BRANCH  50  69
ATOM     69  C   UNL A   1      41.654  34.403  34.818  1.00  0.00    -0.014 A 
ATOM     70  C   UNL A   1      41.169  34.248  36.126  1.00  0.00     0.009 A 
ATOM     71  C   UNL A   1      42.292  35.603  34.470  1.00  0.00     0.009 A 
ATOM     72  C   UNL A   1      41.295  35.283  37.056  1.00  0.00     0.001 A 
ATOM     73  C   UNL A   1      42.442  36.625  35.409  1.00  0.00     0.001 A 
ATOM     74  C   UNL A   1      41.935  36.469  36.698  1.00  0.00     0.000 A 
ENDBRANCH  50  69
BRANCH  62  75
ATOM     75  C   UNL A   1      45.484  28.852  33.121  1.00  0.00    -0.014 A 
ATOM     76  C   UNL A   1      45.567  27.991  34.226  1.00  0.00     0.009 A 
ATOM     77  C   UNL A   1      46.663  29.218  32.451  1.00  0.00     0.009 A 
ATOM     78  C   UNL A   1      46.809  27.533  34.670  1.00  0.00     0.001 A 
ATOM     79  C   UNL A   1      47.899  28.736  32.882  1.00  0.00     0.001 A 
ATOM     80  C   UNL A   1      47.972  27.902  33.996  1.00  0.00     0.000 A 
ENDBRANCH  62  75
ENDBRANCH  36  37
ENDBRANCH  28  31
ENDBRANCH  26  27
ENDBRANCH  25  26
ENDBRANCH  24  25
ENDBRANCH   3  24
TORSDOF 16
ENDMDL
