MODEL 1
REMARK VINA RESULT:     -10.8      0.000      0.000
REMARK SMILES [NH3+][C@]1(C(=O)NCCCNC(=O)c2ccc(-c3c4nc(c(-c5ccccc5)c5ccc([nH]5)c(-c5ccccc5)c5nc(c(-c6ccccc6)c6ccc3[nH]6)C=C5)C=C4)cc2)CCC[C@@H](Oc2ccc3c(c2)CCC3)C1
REMARK SMILES IDX 7 1 6 2 5 3 3 4 4 5 2 7 60 8 74 9 61 10 63 11 62 12 1 13
REMARK SMILES IDX 64 17 65 18 66 19 70 20 67 21 69 22 68 23 71 24 73 25 72 26
REMARK SMILES IDX 8 27 9 28 10 29 11 31 12 32 13 33 59 34 14 35 58 36 15 37
REMARK SMILES IDX 16 38 17 39 52 40 18 41 57 42 51 43 53 44 19 45 56 46 50 47
REMARK SMILES IDX 49 48 20 50 42 51 27 52 41 53 28 54 31 55 40 56 54 57 29 58
REMARK SMILES IDX 30 59 39 61 55 62 32 63 21 64 22 65 26 66 23 67 25 68 24 69
REMARK SMILES IDX 43 70 44 71 48 72 45 73 47 74 46 75 33 76 34 77 38 78 35 79
REMARK SMILES IDX 37 80 36 81
REMARK H PARENT 5 6 1 14 1 15 1 16 9 30 53 49 31 60
REMARK Flexibility Score: inf
ROOT
ATOM      1  C   UNL A   1      42.072  20.390  27.209  1.00  0.00     0.042 C 
ENDROOT
BRANCH   1   2
ATOM      2  C   UNL A   1      42.737  20.383  25.821  1.00  0.00     0.118 C 
BRANCH   2   3
ATOM      3  N   UNL A   1      44.192  20.301  25.742  1.00  0.00    -0.351 N 
ATOM      4  C   UNL A   1      45.194  21.061  25.176  1.00  0.00     0.281 C 
ATOM      5  O   UNL A   1      46.344  20.775  25.529  1.00  0.00    -0.268 OA
ATOM      6  H   UNL A   1      44.546  19.508  26.206  1.00  0.00     0.163 HD
BRANCH   4   7
ATOM      7  C   UNL A   1      44.921  22.280  24.227  1.00  0.00     0.177 C 
ATOM      8  C   UNL A   1      43.630  23.052  24.625  1.00  0.00     0.079 C 
ATOM      9  C   UNL A   1      46.100  23.264  24.085  1.00  0.00     0.124 C 
ATOM     10  C   UNL A   1      43.796  24.098  25.727  1.00  0.00     0.011 C 
ATOM     11  C   UNL A   1      46.243  24.388  25.144  1.00  0.00     0.180 C 
ATOM     12  C   UNL A   1      44.917  25.083  25.428  1.00  0.00     0.046 C 
BRANCH   7  13
ATOM     13  N   UNL A   1      44.575  21.663  22.913  1.00  0.00    -0.345 N 
ATOM     14  H   UNL A   1      45.296  21.893  22.229  1.00  0.00     0.345 HD
ATOM     15  H   UNL A   1      43.676  22.027  22.593  1.00  0.00     0.345 HD
ATOM     16  H   UNL A   1      44.514  20.651  23.018  1.00  0.00     0.345 HD
ENDBRANCH   7  13
BRANCH  11  17
ATOM     17  O   UNL A   1      47.101  24.146  26.281  1.00  0.00    -0.490 OA
BRANCH  17  18
ATOM     18  C   UNL A   1      46.613  24.339  27.538  1.00  0.00     0.120 A 
ATOM     19  C   UNL A   1      47.150  25.263  28.437  1.00  0.00     0.047 A 
ATOM     20  C   UNL A   1      45.619  23.481  27.971  1.00  0.00     0.050 A 
ATOM     21  C   UNL A   1      46.576  25.429  29.712  1.00  0.00     0.008 A 
ATOM     22  C   UNL A   1      45.023  23.659  29.205  1.00  0.00    -0.041 A 
ATOM     23  C   UNL A   1      45.489  24.642  30.069  1.00  0.00    -0.045 A 
ATOM     24  C   UNL A   1      43.781  23.009  29.726  1.00  0.00     0.036 C 
ATOM     25  C   UNL A   1      44.604  24.735  31.274  1.00  0.00     0.036 C 
ATOM     26  C   UNL A   1      43.824  23.410  31.201  1.00  0.00     0.010 C 
ENDBRANCH  17  18
ENDBRANCH  11  17
ENDBRANCH   4   7
ENDBRANCH   2   3
ENDBRANCH   1   2
BRANCH   1  27
ATOM     27  C   UNL A   1      41.095  21.497  27.604  1.00  0.00     0.118 C 
BRANCH  27  28
ATOM     28  N   UNL A   1      39.910  21.607  26.787  1.00  0.00    -0.352 N 
ATOM     29  C   UNL A   1      39.208  22.714  26.374  1.00  0.00     0.251 C 
ATOM     30  H   UNL A   1      39.544  20.748  26.476  1.00  0.00     0.163 HD
ATOM     31  O   UNL A   1      38.228  22.556  25.652  1.00  0.00    -0.269 OA
BRANCH  29  32
ATOM     32  C   UNL A   1      39.561  24.085  26.822  1.00  0.00     0.039 A 
ATOM     33  C   UNL A   1      39.217  24.439  28.131  1.00  0.00     0.014 A 
ATOM     34  C   UNL A   1      40.163  25.036  25.994  1.00  0.00     0.014 A 
ATOM     35  C   UNL A   1      39.533  25.707  28.629  1.00  0.00     0.010 A 
ATOM     36  C   UNL A   1      40.540  26.283  26.513  1.00  0.00     0.010 A 
ATOM     37  C   UNL A   1      40.233  26.631  27.838  1.00  0.00    -0.014 A 
BRANCH  37  38
ATOM     38  C   UNL A   1      40.656  27.946  28.399  1.00  0.00     0.031 A 
ATOM     39  C   UNL A   1      42.096  28.209  28.752  1.00  0.00     0.074 A 
ATOM     40  C   UNL A   1      39.735  28.905  28.623  1.00  0.00     0.049 A 
ATOM     41  N   UNL A   1      42.634  29.279  29.286  1.00  0.00    -0.248 NA
ATOM     42  C   UNL A   1      43.055  27.126  28.484  1.00  0.00     0.031 C 
ATOM     43  C   UNL A   1      38.302  28.786  28.346  1.00  0.00     0.029 A 
ATOM     44  N   UNL A   1      39.866  30.173  29.140  1.00  0.00    -0.354 N 
ATOM     45  C   UNL A   1      43.988  28.996  29.425  1.00  0.00     0.074 A 
ATOM     46  C   UNL A   1      44.181  27.637  28.963  1.00  0.00     0.031 C 
ATOM     47  C   UNL A   1      37.693  29.935  28.677  1.00  0.00     0.029 A 
ATOM     48  C   UNL A   1      38.678  30.858  29.233  1.00  0.00     0.049 A 
ATOM     49  H   UNL A   1      40.730  30.554  29.419  1.00  0.00     0.167 HD
ATOM     50  C   UNL A   1      44.984  29.795  29.879  1.00  0.00     0.031 A 
ATOM     51  C   UNL A   1      38.403  32.082  29.723  1.00  0.00     0.031 A 
ATOM     52  C   UNL A   1      44.800  31.145  30.345  1.00  0.00     0.049 A 
ATOM     53  C   UNL A   1      39.520  32.932  30.266  1.00  0.00     0.074 A 
ATOM     54  C   UNL A   1      45.758  32.041  30.791  1.00  0.00     0.029 A 
ATOM     55  N   UNL A   1      43.579  31.794  30.430  1.00  0.00    -0.354 N 
ATOM     56  N   UNL A   1      40.801  32.665  30.337  1.00  0.00    -0.248 NA
ATOM     57  C   UNL A   1      39.151  34.256  30.786  1.00  0.00     0.031 C 
ATOM     58  C   UNL A   1      45.110  33.209  31.202  1.00  0.00     0.029 A 
ATOM     59  C   UNL A   1      43.756  33.068  30.946  1.00  0.00     0.049 A 
ATOM     60  H   UNL A   1      42.713  31.408  30.164  1.00  0.00     0.167 HD
ATOM     61  C   UNL A   1      41.394  33.801  30.876  1.00  0.00     0.074 A 
ATOM     62  C   UNL A   1      40.336  34.762  31.099  1.00  0.00     0.031 C 
ATOM     63  C   UNL A   1      42.700  34.024  31.159  1.00  0.00     0.031 A 
BRANCH  50  64
ATOM     64  C   UNL A   1      46.377  29.224  29.907  1.00  0.00    -0.014 A 
ATOM     65  C   UNL A   1      47.186  29.226  28.759  1.00  0.00     0.009 A 
ATOM     66  C   UNL A   1      46.907  28.727  31.108  1.00  0.00     0.009 A 
ATOM     67  C   UNL A   1      48.483  28.710  28.806  1.00  0.00     0.001 A 
ATOM     68  C   UNL A   1      48.215  28.241  31.159  1.00  0.00     0.001 A 
ATOM     69  C   UNL A   1      48.999  28.225  30.007  1.00  0.00     0.000 A 
ENDBRANCH  50  64
BRANCH  51  70
ATOM     70  C   UNL A   1      37.003  32.586  29.737  1.00  0.00    -0.014 A 
ATOM     71  C   UNL A   1      36.516  33.386  28.692  1.00  0.00     0.009 A 
ATOM     72  C   UNL A   1      36.151  32.290  30.814  1.00  0.00     0.009 A 
ATOM     73  C   UNL A   1      35.222  33.911  28.744  1.00  0.00     0.001 A 
ATOM     74  C   UNL A   1      34.847  32.786  30.846  1.00  0.00     0.001 A 
ATOM     75  C   UNL A   1      34.388  33.606  29.817  1.00  0.00     0.000 A 
ENDBRANCH  51  70
BRANCH  63  76
ATOM     76  C   UNL A   1      43.072  35.380  31.694  1.00  0.00    -0.014 A 
ATOM     77  C   UNL A   1      42.975  35.683  33.062  1.00  0.00     0.009 A 
ATOM     78  C   UNL A   1      43.569  36.358  30.817  1.00  0.00     0.009 A 
ATOM     79  C   UNL A   1      43.334  36.949  33.532  1.00  0.00     0.001 A 
ATOM     80  C   UNL A   1      43.958  37.610  31.294  1.00  0.00     0.001 A 
ATOM     81  C   UNL A   1      43.831  37.907  32.650  1.00  0.00     0.000 A 
ENDBRANCH  63  76
ENDBRANCH  37  38
ENDBRANCH  29  32
ENDBRANCH  27  28
ENDBRANCH   1  27
TORSDOF 13
ENDMDL
MODEL 2
REMARK VINA RESULT:     -10.8      4.235      9.957
REMARK SMILES [NH3+][C@]1(C(=O)NCCCNC(=O)c2ccc(-c3c4nc(c(-c5ccccc5)c5ccc([nH]5)c(-c5ccccc5)c5nc(c(-c6ccccc6)c6ccc3[nH]6)C=C5)C=C4)cc2)CCC[C@@H](Oc2ccc3c(c2)CCC3)C1
REMARK SMILES IDX 7 1 6 2 5 3 3 4 4 5 2 7 60 8 74 9 61 10 63 11 62 12 1 13
REMARK SMILES IDX 64 17 65 18 66 19 70 20 67 21 69 22 68 23 71 24 73 25 72 26
REMARK SMILES IDX 8 27 9 28 10 29 11 31 12 32 13 33 59 34 14 35 58 36 15 37
REMARK SMILES IDX 16 38 17 39 52 40 18 41 57 42 51 43 53 44 19 45 56 46 50 47
REMARK SMILES IDX 49 48 20 50 42 51 27 52 41 53 28 54 31 55 40 56 54 57 29 58
REMARK SMILES IDX 30 59 39 61 55 62 32 63 21 64 22 65 26 66 23 67 25 68 24 69
REMARK SMILES IDX 43 70 44 71 48 72 45 73 47 74 46 75 33 76 34 77 38 78 35 79
REMARK SMILES IDX 37 80 36 81
REMARK H PARENT 5 6 1 14 1 15 1 16 9 30 53 49 31 60
REMARK Flexibility Score: inf
ROOT
ATOM      1  C   UNL A   1      32.916  28.567  25.817  1.00  0.00     0.042 C 
ENDROOT
BRANCH   1   2
ATOM      2  C   UNL A   1      31.450  28.121  25.670  1.00  0.00     0.118 C 
BRANCH   2   3
ATOM      3  N   UNL A   1      31.028  26.880  26.313  1.00  0.00    -0.351 N 
ATOM      4  C   UNL A   1      30.764  25.593  25.895  1.00  0.00     0.281 C 
ATOM      5  O   UNL A   1      30.648  24.753  26.794  1.00  0.00    -0.268 OA
ATOM      6  H   UNL A   1      30.899  26.988  27.283  1.00  0.00     0.163 HD
BRANCH   4   7
ATOM      7  C   UNL A   1      30.713  25.170  24.385  1.00  0.00     0.177 C 
ATOM      8  C   UNL A   1      31.794  25.899  23.537  1.00  0.00     0.079 C 
ATOM      9  C   UNL A   1      30.788  23.649  24.139  1.00  0.00     0.124 C 
ATOM     10  C   UNL A   1      33.185  25.263  23.546  1.00  0.00     0.011 C 
ATOM     11  C   UNL A   1      32.191  22.991  24.059  1.00  0.00     0.180 C 
ATOM     12  C   UNL A   1      33.149  23.786  23.181  1.00  0.00     0.046 C 
BRANCH   7  13
ATOM     13  N   UNL A   1      29.426  25.733  23.880  1.00  0.00    -0.345 N 
ATOM     14  H   UNL A   1      28.825  25.970  24.669  1.00  0.00     0.345 HD
ATOM     15  H   UNL A   1      28.959  25.040  23.293  1.00  0.00     0.345 HD
ATOM     16  H   UNL A   1      29.615  26.571  23.331  1.00  0.00     0.345 HD
ENDBRANCH   7  13
BRANCH  11  17
ATOM     17  O   UNL A   1      32.743  22.421  25.265  1.00  0.00    -0.490 OA
BRANCH  17  18
ATOM     18  C   UNL A   1      34.062  22.081  25.299  1.00  0.00     0.120 A 
ATOM     19  C   UNL A   1      34.536  20.810  24.967  1.00  0.00     0.047 A 
ATOM     20  C   UNL A   1      34.944  23.014  25.812  1.00  0.00     0.050 A 
ATOM     21  C   UNL A   1      35.918  20.538  24.998  1.00  0.00     0.008 A 
ATOM     22  C   UNL A   1      36.304  22.772  25.811  1.00  0.00    -0.041 A 
ATOM     23  C   UNL A   1      36.793  21.542  25.390  1.00  0.00    -0.045 A 
ATOM     24  C   UNL A   1      37.410  23.744  26.075  1.00  0.00     0.036 C 
ATOM     25  C   UNL A   1      38.291  21.566  25.347  1.00  0.00     0.036 C 
ATOM     26  C   UNL A   1      38.616  22.810  26.192  1.00  0.00     0.010 C 
ENDBRANCH  17  18
ENDBRANCH  11  17
ENDBRANCH   4   7
ENDBRANCH   2   3
ENDBRANCH   1   2
BRANCH   1  27
ATOM     27  C   UNL A   1      33.545  28.747  27.198  1.00  0.00     0.118 C 
BRANCH  27  28
ATOM     28  N   UNL A   1      33.543  30.093  27.716  1.00  0.00    -0.352 N 
ATOM     29  C   UNL A   1      34.550  30.833  28.291  1.00  0.00     0.251 C 
ATOM     30  H   UNL A   1      32.678  30.559  27.648  1.00  0.00     0.163 HD
ATOM     31  O   UNL A   1      34.311  31.985  28.640  1.00  0.00    -0.269 OA
BRANCH  29  32
ATOM     32  C   UNL A   1      35.895  30.262  28.557  1.00  0.00     0.039 A 
ATOM     33  C   UNL A   1      36.812  30.265  27.501  1.00  0.00     0.014 A 
ATOM     34  C   UNL A   1      36.259  29.687  29.777  1.00  0.00     0.014 A 
ATOM     35  C   UNL A   1      38.103  29.758  27.683  1.00  0.00     0.010 A 
ATOM     36  C   UNL A   1      37.573  29.240  29.979  1.00  0.00     0.010 A 
ATOM     37  C   UNL A   1      38.511  29.276  28.935  1.00  0.00    -0.014 A 
BRANCH  37  38
ATOM     38  C   UNL A   1      39.916  28.827  29.156  1.00  0.00     0.031 A 
ATOM     39  C   UNL A   1      40.936  29.750  29.770  1.00  0.00     0.074 A 
ATOM     40  C   UNL A   1      40.291  27.588  28.776  1.00  0.00     0.049 A 
ATOM     41  N   UNL A   1      42.210  29.540  29.998  1.00  0.00    -0.248 NA
ATOM     42  C   UNL A   1      40.469  31.087  30.166  1.00  0.00     0.031 C 
ATOM     43  C   UNL A   1      39.416  26.592  28.154  1.00  0.00     0.029 A 
ATOM     44  N   UNL A   1      41.508  26.955  28.853  1.00  0.00    -0.354 N 
ATOM     45  C   UNL A   1      42.696  30.717  30.555  1.00  0.00     0.074 A 
ATOM     46  C   UNL A   1      41.592  31.653  30.587  1.00  0.00     0.031 C 
ATOM     47  C   UNL A   1      40.118  25.472  27.925  1.00  0.00     0.029 A 
ATOM     48  C   UNL A   1      41.503  25.681  28.338  1.00  0.00     0.049 A 
ATOM     49  H   UNL A   1      42.311  27.375  29.240  1.00  0.00     0.167 HD
ATOM     50  C   UNL A   1      43.942  30.992  31.013  1.00  0.00     0.031 A 
ATOM     51  C   UNL A   1      42.497  24.783  28.196  1.00  0.00     0.031 A 
ATOM     52  C   UNL A   1      45.047  30.068  30.981  1.00  0.00     0.049 A 
ATOM     53  C   UNL A   1      43.883  25.131  28.670  1.00  0.00     0.074 A 
ATOM     54  C   UNL A   1      46.336  30.251  31.455  1.00  0.00     0.029 A 
ATOM     55  N   UNL A   1      44.998  28.793  30.441  1.00  0.00    -0.354 N 
ATOM     56  N   UNL A   1      44.308  26.229  29.243  1.00  0.00    -0.248 NA
ATOM     57  C   UNL A   1      44.922  24.107  28.484  1.00  0.00     0.031 C 
ATOM     58  C   UNL A   1      47.082  29.109  31.149  1.00  0.00     0.029 A 
ATOM     59  C   UNL A   1      46.240  28.188  30.548  1.00  0.00     0.049 A 
ATOM     60  H   UNL A   1      44.199  28.378  30.042  1.00  0.00     0.167 HD
ATOM     61  C   UNL A   1      45.654  26.015  29.519  1.00  0.00     0.074 A 
ATOM     62  C   UNL A   1      45.969  24.678  29.064  1.00  0.00     0.031 C 
ATOM     63  C   UNL A   1      46.546  26.854  30.099  1.00  0.00     0.031 A 
BRANCH  50  64
ATOM     64  C   UNL A   1      44.186  32.363  31.586  1.00  0.00    -0.014 A 
ATOM     65  C   UNL A   1      44.015  32.619  32.957  1.00  0.00     0.009 A 
ATOM     66  C   UNL A   1      44.644  33.398  30.756  1.00  0.00     0.009 A 
ATOM     67  C   UNL A   1      44.265  33.891  33.476  1.00  0.00     0.001 A 
ATOM     68  C   UNL A   1      44.923  34.660  31.284  1.00  0.00     0.001 A 
ATOM     69  C   UNL A   1      44.724  34.908  32.640  1.00  0.00     0.000 A 
ENDBRANCH  50  64
BRANCH  51  70
ATOM     70  C   UNL A   1      42.230  23.462  27.565  1.00  0.00    -0.014 A 
ATOM     71  C   UNL A   1      41.731  22.392  28.324  1.00  0.00     0.009 A 
ATOM     72  C   UNL A   1      42.500  23.256  26.202  1.00  0.00     0.009 A 
ATOM     73  C   UNL A   1      41.544  21.136  27.741  1.00  0.00     0.001 A 
ATOM     74  C   UNL A   1      42.279  22.010  25.615  1.00  0.00     0.001 A 
ATOM     75  C   UNL A   1      41.814  20.947  26.387  1.00  0.00     0.000 A 
ENDBRANCH  51  70
BRANCH  63  76
ATOM     76  C   UNL A   1      47.940  26.336  30.324  1.00  0.00    -0.014 A 
ATOM     77  C   UNL A   1      48.930  26.429  29.332  1.00  0.00     0.009 A 
ATOM     78  C   UNL A   1      48.279  25.781  31.569  1.00  0.00     0.009 A 
ATOM     79  C   UNL A   1      50.219  25.946  29.571  1.00  0.00     0.001 A 
ATOM     80  C   UNL A   1      49.576  25.329  31.817  1.00  0.00     0.001 A 
ATOM     81  C   UNL A   1      50.541  25.403  30.814  1.00  0.00     0.000 A 
ENDBRANCH  63  76
ENDBRANCH  37  38
ENDBRANCH  29  32
ENDBRANCH  27  28
ENDBRANCH   1  27
TORSDOF 13
ENDMDL
MODEL 3
REMARK VINA RESULT:     -10.5      3.896      7.457
REMARK SMILES [NH3+][C@]1(C(=O)NCCCNC(=O)c2ccc(-c3c4nc(c(-c5ccccc5)c5ccc([nH]5)c(-c5ccccc5)c5nc(c(-c6ccccc6)c6ccc3[nH]6)C=C5)C=C4)cc2)CCC[C@@H](Oc2ccc3c(c2)CCC3)C1
REMARK SMILES IDX 7 1 6 2 5 3 3 4 4 5 2 7 60 8 74 9 61 10 63 11 62 12 1 13
REMARK SMILES IDX 64 17 65 18 66 19 70 20 67 21 69 22 68 23 71 24 73 25 72 26
REMARK SMILES IDX 8 27 9 28 10 29 11 31 12 32 13 33 59 34 14 35 58 36 15 37
REMARK SMILES IDX 16 38 17 39 52 40 18 41 57 42 51 43 53 44 19 45 56 46 50 47
REMARK SMILES IDX 49 48 20 50 42 51 27 52 41 53 28 54 31 55 40 56 54 57 29 58
REMARK SMILES IDX 30 59 39 61 55 62 32 63 21 64 22 65 26 66 23 67 25 68 24 69
REMARK SMILES IDX 43 70 44 71 48 72 45 73 47 74 46 75 33 76 34 77 38 78 35 79
REMARK SMILES IDX 37 80 36 81
REMARK H PARENT 5 6 1 14 1 15 1 16 9 30 53 49 31 60
REMARK Flexibility Score: inf
ROOT
ATOM      1  C   UNL A   1      35.646  22.678  25.580  1.00  0.00     0.042 C 
ENDROOT
BRANCH   1   2
ATOM      2  C   UNL A   1      34.910  22.176  24.325  1.00  0.00     0.118 C 
BRANCH   2   3
ATOM      3  N   UNL A   1      34.664  23.115  23.235  1.00  0.00    -0.351 N 
ATOM      4  C   UNL A   1      33.570  23.800  22.751  1.00  0.00     0.281 C 
ATOM      5  O   UNL A   1      33.819  24.692  21.932  1.00  0.00    -0.268 OA
ATOM      6  H   UNL A   1      35.479  23.304  22.715  1.00  0.00     0.163 HD
BRANCH   4   7
ATOM      7  C   UNL A   1      32.107  23.561  23.263  1.00  0.00     0.177 C 
ATOM      8  C   UNL A   1      32.048  23.395  24.809  1.00  0.00     0.079 C 
ATOM      9  C   UNL A   1      31.083  24.621  22.808  1.00  0.00     0.124 C 
ATOM     10  C   UNL A   1      31.992  24.695  25.614  1.00  0.00     0.011 C 
ATOM     11  C   UNL A   1      30.945  25.913  23.656  1.00  0.00     0.180 C 
ATOM     12  C   UNL A   1      30.873  25.616  25.149  1.00  0.00     0.046 C 
BRANCH   7  13
ATOM     13  N   UNL A   1      31.744  22.208  22.748  1.00  0.00    -0.345 N 
ATOM     14  H   UNL A   1      30.999  22.296  22.056  1.00  0.00     0.345 HD
ATOM     15  H   UNL A   1      31.422  21.625  23.521  1.00  0.00     0.345 HD
ATOM     16  H   UNL A   1      32.562  21.779  22.316  1.00  0.00     0.345 HD
ENDBRANCH   7  13
BRANCH  11  17
ATOM     17  O   UNL A   1      31.718  27.068  23.264  1.00  0.00    -0.490 OA
BRANCH  17  18
ATOM     18  C   UNL A   1      31.924  28.070  24.165  1.00  0.00     0.120 A 
ATOM     19  C   UNL A   1      31.033  29.127  24.356  1.00  0.00     0.047 A 
ATOM     20  C   UNL A   1      33.142  28.091  24.821  1.00  0.00     0.050 A 
ATOM     21  C   UNL A   1      31.299  30.112  25.326  1.00  0.00     0.008 A 
ATOM     22  C   UNL A   1      33.397  29.030  25.801  1.00  0.00    -0.041 A 
ATOM     23  C   UNL A   1      32.471  30.031  26.066  1.00  0.00    -0.045 A 
ATOM     24  C   UNL A   1      34.527  29.050  26.782  1.00  0.00     0.036 C 
ATOM     25  C   UNL A   1      32.903  30.837  27.252  1.00  0.00     0.036 C 
ATOM     26  C   UNL A   1      34.388  30.451  27.378  1.00  0.00     0.010 C 
ENDBRANCH  17  18
ENDBRANCH  11  17
ENDBRANCH   4   7
ENDBRANCH   2   3
ENDBRANCH   1   2
BRANCH   1  27
ATOM     27  C   UNL A   1      36.945  23.473  25.460  1.00  0.00     0.118 C 
BRANCH  27  28
ATOM     28  N   UNL A   1      38.162  22.703  25.553  1.00  0.00    -0.352 N 
ATOM     29  C   UNL A   1      39.359  22.990  26.167  1.00  0.00     0.251 C 
ATOM     30  H   UNL A   1      38.130  21.828  25.103  1.00  0.00     0.163 HD
ATOM     31  O   UNL A   1      40.256  22.154  26.131  1.00  0.00    -0.269 OA
BRANCH  29  32
ATOM     32  C   UNL A   1      39.618  24.301  26.815  1.00  0.00     0.039 A 
ATOM     33  C   UNL A   1      39.132  24.478  28.115  1.00  0.00     0.014 A 
ATOM     34  C   UNL A   1      40.267  25.361  26.178  1.00  0.00     0.014 A 
ATOM     35  C   UNL A   1      39.352  25.681  28.796  1.00  0.00     0.010 A 
ATOM     36  C   UNL A   1      40.547  26.540  26.883  1.00  0.00     0.010 A 
ATOM     37  C   UNL A   1      40.096  26.711  28.202  1.00  0.00    -0.014 A 
BRANCH  37  38
ATOM     38  C   UNL A   1      40.415  27.954  28.962  1.00  0.00     0.031 A 
ATOM     39  C   UNL A   1      41.721  28.096  29.699  1.00  0.00     0.074 A 
ATOM     40  C   UNL A   1      39.512  28.954  29.018  1.00  0.00     0.049 A 
ATOM     41  N   UNL A   1      42.147  29.089  30.441  1.00  0.00    -0.248 NA
ATOM     42  C   UNL A   1      42.666  26.974  29.600  1.00  0.00     0.031 C 
ATOM     43  C   UNL A   1      38.200  28.949  28.369  1.00  0.00     0.029 A 
ATOM     44  N   UNL A   1      39.559  30.172  29.656  1.00  0.00    -0.354 N 
ATOM     45  C   UNL A   1      43.401  28.708  30.904  1.00  0.00     0.074 A 
ATOM     46  C   UNL A   1      43.648  27.375  30.396  1.00  0.00     0.031 C 
ATOM     47  C   UNL A   1      37.578  30.111  28.624  1.00  0.00     0.029 A 
ATOM     48  C   UNL A   1      38.422  30.926  29.493  1.00  0.00     0.049 A 
ATOM     49  H   UNL A   1      40.336  30.475  30.181  1.00  0.00     0.167 HD
ATOM     50  C   UNL A   1      44.277  29.407  31.667  1.00  0.00     0.031 A 
ATOM     51  C   UNL A   1      38.083  32.129  29.996  1.00  0.00     0.031 A 
ATOM     52  C   UNL A   1      44.038  30.731  32.180  1.00  0.00     0.049 A 
ATOM     53  C   UNL A   1      39.054  32.863  30.880  1.00  0.00     0.074 A 
ATOM     54  C   UNL A   1      44.883  31.528  32.934  1.00  0.00     0.029 A 
ATOM     55  N   UNL A   1      42.868  31.452  31.999  1.00  0.00    -0.354 N 
ATOM     56  N   UNL A   1      40.257  32.509  31.259  1.00  0.00    -0.248 NA
ATOM     57  C   UNL A   1      38.622  34.170  31.395  1.00  0.00     0.031 C 
ATOM     58  C   UNL A   1      44.204  32.706  33.259  1.00  0.00     0.029 A 
ATOM     59  C   UNL A   1      42.961  32.673  32.648  1.00  0.00     0.049 A 
ATOM     60  H   UNL A   1      42.087  31.142  31.485  1.00  0.00     0.167 HD
ATOM     61  C   UNL A   1      40.737  33.562  32.028  1.00  0.00     0.074 A 
ATOM     62  C   UNL A   1      39.703  34.574  32.047  1.00  0.00     0.031 C 
ATOM     63  C   UNL A   1      41.931  33.679  32.659  1.00  0.00     0.031 A 
BRANCH  50  64
ATOM     64  C   UNL A   1      45.585  28.744  32.008  1.00  0.00    -0.014 A 
ATOM     65  C   UNL A   1      46.724  28.929  31.207  1.00  0.00     0.009 A 
ATOM     66  C   UNL A   1      45.695  27.970  33.175  1.00  0.00     0.009 A 
ATOM     67  C   UNL A   1      47.935  28.324  31.548  1.00  0.00     0.001 A 
ATOM     68  C   UNL A   1      46.916  27.392  33.529  1.00  0.00     0.001 A 
ATOM     69  C   UNL A   1      48.032  27.561  32.712  1.00  0.00     0.000 A 
ENDBRANCH  50  64
BRANCH  51  70
ATOM     70  C   UNL A   1      36.753  32.722  29.687  1.00  0.00    -0.014 A 
ATOM     71  C   UNL A   1      35.667  32.542  30.558  1.00  0.00     0.009 A 
ATOM     72  C   UNL A   1      36.556  33.449  28.502  1.00  0.00     0.009 A 
ATOM     73  C   UNL A   1      34.405  33.044  30.231  1.00  0.00     0.001 A 
ATOM     74  C   UNL A   1      35.301  33.979  28.195  1.00  0.00     0.001 A 
ATOM     75  C   UNL A   1      34.225  33.766  29.053  1.00  0.00     0.000 A 
ENDBRANCH  51  70
BRANCH  63  76
ATOM     76  C   UNL A   1      42.209  34.967  33.384  1.00  0.00    -0.014 A 
ATOM     77  C   UNL A   1      41.731  35.198  34.684  1.00  0.00     0.009 A 
ATOM     78  C   UNL A   1      43.001  35.951  32.768  1.00  0.00     0.009 A 
ATOM     79  C   UNL A   1      42.011  36.401  35.337  1.00  0.00     0.001 A 
ATOM     80  C   UNL A   1      43.307  37.138  33.435  1.00  0.00     0.001 A 
ATOM     81  C   UNL A   1      42.803  37.366  34.714  1.00  0.00     0.000 A 
ENDBRANCH  63  76
ENDBRANCH  37  38
ENDBRANCH  29  32
ENDBRANCH  27  28
ENDBRANCH   1  27
TORSDOF 13
ENDMDL
