MODEL 1
REMARK VINA RESULT:     -12.9      0.000      0.000
REMARK SMILES O=C(Cn1cnc(-c2ccccc2)c1-c1ccccc1)NCCCNC(=O)c1ccc(-c2c3nc(c(-c4ccccc4)c4ccc([nH]4)c(-c4ccccc4)c4nc(c(-c5ccccc5)c5ccc2[nH]5)C=C4)C=C3)cc1
REMARK SMILES IDX 23 1 22 2 21 3 1 4 2 5 3 7 4 8 5 9 14 10 6 11 7 12 15 13
REMARK SMILES IDX 16 14 20 15 17 16 19 17 18 18 8 19 9 20 13 21 10 22 12 23
REMARK SMILES IDX 11 24 24 25 25 26 26 27 27 29 28 30 29 31 75 32 30 33 74 34
REMARK SMILES IDX 31 35 32 36 33 37 68 38 34 39 73 40 67 41 69 42 35 43 72 44
REMARK SMILES IDX 66 45 65 46 36 48 58 49 43 50 57 51 44 52 47 53 56 54 70 55
REMARK SMILES IDX 45 56 46 57 55 59 71 60 48 61 37 62 38 63 42 64 39 65 41 66
REMARK SMILES IDX 40 67 59 68 60 69 64 70 61 71 63 72 62 73 49 74 50 75 54 76
REMARK SMILES IDX 51 77 53 78 52 79
REMARK H PARENT 21 6 25 28 69 47 47 58
REMARK Flexibility Score: inf
ROOT
ATOM      1  C   UNL A   1      33.461  21.964  27.031  1.00  0.00     0.042 C 
ENDROOT
BRANCH   1   2
ATOM      2  C   UNL A   1      32.775  22.549  25.794  1.00  0.00     0.117 C 
BRANCH   2   3
ATOM      3  N   UNL A   1      33.115  23.945  25.540  1.00  0.00    -0.354 N 
ATOM      4  O   UNL A   1      34.601  23.573  23.831  1.00  0.00    -0.273 OA
ATOM      5  C   UNL A   1      33.941  24.353  24.513  1.00  0.00     0.239 C 
ATOM      6  H   UNL A   1      32.734  24.633  26.132  1.00  0.00     0.163 HD
BRANCH   5   7
ATOM      7  C   UNL A   1      33.995  25.856  24.289  1.00  0.00     0.223 C 
BRANCH   7   8
ATOM      8  N   UNL A   1      32.891  26.328  23.471  1.00  0.00    -0.321 N 
ATOM      9  C   UNL A   1      32.565  25.835  22.234  1.00  0.00     0.201 A 
ATOM     10  C   UNL A   1      31.991  27.325  23.762  1.00  0.00     0.076 A 
ATOM     11  N   UNL A   1      31.502  26.427  21.732  1.00  0.00    -0.236 NA
ATOM     12  C   UNL A   1      31.145  27.370  22.660  1.00  0.00     0.096 A 
BRANCH  10  13
ATOM     13  C   UNL A   1      31.920  28.131  24.966  1.00  0.00     0.000 A 
ATOM     14  C   UNL A   1      32.571  29.374  24.991  1.00  0.00     0.010 A 
ATOM     15  C   UNL A   1      31.410  27.581  26.140  1.00  0.00     0.010 A 
ATOM     16  C   UNL A   1      32.814  30.012  26.198  1.00  0.00     0.001 A 
ATOM     17  C   UNL A   1      31.644  28.227  27.344  1.00  0.00     0.001 A 
ATOM     18  C   UNL A   1      32.388  29.411  27.373  1.00  0.00     0.000 A 
ENDBRANCH  10  13
BRANCH  12  19
ATOM     19  C   UNL A   1      29.981  28.242  22.562  1.00  0.00     0.002 A 
ATOM     20  C   UNL A   1      28.762  27.828  23.105  1.00  0.00     0.010 A 
ATOM     21  C   UNL A   1      30.098  29.553  22.070  1.00  0.00     0.010 A 
ATOM     22  C   UNL A   1      27.691  28.722  23.196  1.00  0.00     0.001 A 
ATOM     23  C   UNL A   1      29.030  30.448  22.167  1.00  0.00     0.001 A 
ATOM     24  C   UNL A   1      27.829  30.033  22.737  1.00  0.00     0.000 A 
ENDBRANCH  12  19
ENDBRANCH   7   8
ENDBRANCH   5   7
ENDBRANCH   2   3
ENDBRANCH   1   2
BRANCH   1  25
ATOM     25  C   UNL A   1      34.973  21.885  26.902  1.00  0.00     0.118 C 
BRANCH  25  26
ATOM     26  N   UNL A   1      35.522  21.066  25.846  1.00  0.00    -0.352 N 
ATOM     27  C   UNL A   1      36.784  21.114  25.271  1.00  0.00     0.251 C 
ATOM     28  H   UNL A   1      34.918  20.377  25.485  1.00  0.00     0.163 HD
ATOM     29  O   UNL A   1      37.017  20.367  24.330  1.00  0.00    -0.269 OA
BRANCH  27  30
ATOM     30  C   UNL A   1      37.886  21.995  25.789  1.00  0.00     0.039 A 
ATOM     31  C   UNL A   1      39.090  21.401  26.214  1.00  0.00     0.014 A 
ATOM     32  C   UNL A   1      37.741  23.364  25.983  1.00  0.00     0.014 A 
ATOM     33  C   UNL A   1      40.069  22.158  26.876  1.00  0.00     0.010 A 
ATOM     34  C   UNL A   1      38.670  24.103  26.675  1.00  0.00     0.010 A 
ATOM     35  C   UNL A   1      39.820  23.499  27.150  1.00  0.00    -0.014 A 
BRANCH  35  36
ATOM     36  C   UNL A   1      40.794  24.424  27.706  1.00  0.00     0.031 A 
ATOM     37  C   UNL A   1      40.233  25.782  27.932  1.00  0.00     0.074 A 
ATOM     38  C   UNL A   1      41.910  24.029  28.354  1.00  0.00     0.049 A 
ATOM     39  N   UNL A   1      40.556  26.862  27.308  1.00  0.00    -0.248 NA
ATOM     40  C   UNL A   1      39.077  25.940  28.836  1.00  0.00     0.031 C 
ATOM     41  C   UNL A   1      42.412  22.677  28.579  1.00  0.00     0.029 A 
ATOM     42  N   UNL A   1      42.758  24.783  29.101  1.00  0.00    -0.354 N 
ATOM     43  C   UNL A   1      39.786  27.869  27.874  1.00  0.00     0.074 A 
ATOM     44  C   UNL A   1      38.745  27.211  28.619  1.00  0.00     0.031 C 
ATOM     45  C   UNL A   1      43.298  22.683  29.604  1.00  0.00     0.029 A 
ATOM     46  C   UNL A   1      43.550  24.061  29.985  1.00  0.00     0.049 A 
ATOM     47  H   UNL A   1      42.807  25.763  29.022  1.00  0.00     0.167 HD
ATOM     48  C   UNL A   1      40.223  29.157  27.925  1.00  0.00     0.031 A 
ATOM     49  C   UNL A   1      44.325  24.570  30.976  1.00  0.00     0.031 A 
ATOM     50  C   UNL A   1      41.405  29.341  27.118  1.00  0.00     0.049 A 
ATOM     51  C   UNL A   1      44.533  26.007  30.668  1.00  0.00     0.074 A 
ATOM     52  C   UNL A   1      41.717  29.113  25.791  1.00  0.00     0.029 A 
ATOM     53  N   UNL A   1      42.610  29.408  27.782  1.00  0.00    -0.354 N 
ATOM     54  N   UNL A   1      45.226  26.427  29.649  1.00  0.00    -0.248 NA
ATOM     55  C   UNL A   1      43.590  26.970  31.218  1.00  0.00     0.031 C 
ATOM     56  C   UNL A   1      43.029  28.552  25.819  1.00  0.00     0.029 A 
ATOM     57  C   UNL A   1      43.472  28.554  27.143  1.00  0.00     0.049 A 
ATOM     58  H   UNL A   1      42.815  29.964  28.568  1.00  0.00     0.167 HD
ATOM     59  C   UNL A   1      44.500  27.498  29.147  1.00  0.00     0.074 A 
ATOM     60  C   UNL A   1      43.566  27.855  30.215  1.00  0.00     0.031 C 
ATOM     61  C   UNL A   1      44.509  27.799  27.813  1.00  0.00     0.031 A 
BRANCH  48  62
ATOM     62  C   UNL A   1      39.848  30.133  29.010  1.00  0.00    -0.014 A 
ATOM     63  C   UNL A   1      40.552  30.077  30.226  1.00  0.00     0.009 A 
ATOM     64  C   UNL A   1      38.679  30.919  28.994  1.00  0.00     0.009 A 
ATOM     65  C   UNL A   1      40.068  30.706  31.378  1.00  0.00     0.001 A 
ATOM     66  C   UNL A   1      38.219  31.588  30.131  1.00  0.00     0.001 A 
ATOM     67  C   UNL A   1      38.897  31.455  31.332  1.00  0.00     0.000 A 
ENDBRANCH  48  62
BRANCH  49  68
ATOM     68  C   UNL A   1      44.725  23.978  32.273  1.00  0.00    -0.014 A 
ATOM     69  C   UNL A   1      45.792  24.518  33.009  1.00  0.00     0.009 A 
ATOM     70  C   UNL A   1      43.895  23.044  32.923  1.00  0.00     0.009 A 
ATOM     71  C   UNL A   1      45.992  24.176  34.355  1.00  0.00     0.001 A 
ATOM     72  C   UNL A   1      44.097  22.699  34.265  1.00  0.00     0.001 A 
ATOM     73  C   UNL A   1      45.135  23.279  34.987  1.00  0.00     0.000 A 
ENDBRANCH  49  68
BRANCH  61  74
ATOM     74  C   UNL A   1      45.495  27.083  26.918  1.00  0.00    -0.014 A 
ATOM     75  C   UNL A   1      45.244  25.824  26.344  1.00  0.00     0.009 A 
ATOM     76  C   UNL A   1      46.635  27.784  26.498  1.00  0.00     0.009 A 
ATOM     77  C   UNL A   1      46.120  25.275  25.400  1.00  0.00     0.001 A 
ATOM     78  C   UNL A   1      47.497  27.247  25.540  1.00  0.00     0.001 A 
ATOM     79  C   UNL A   1      47.243  25.992  24.995  1.00  0.00     0.000 A 
ENDBRANCH  61  74
ENDBRANCH  35  36
ENDBRANCH  27  30
ENDBRANCH  25  26
ENDBRANCH   1  25
TORSDOF 13
ENDMDL
MODEL 2
REMARK VINA RESULT:     -12.6      3.458      9.076
REMARK SMILES O=C(Cn1cnc(-c2ccccc2)c1-c1ccccc1)NCCCNC(=O)c1ccc(-c2c3nc(c(-c4ccccc4)c4ccc([nH]4)c(-c4ccccc4)c4nc(c(-c5ccccc5)c5ccc2[nH]5)C=C4)C=C3)cc1
REMARK SMILES IDX 23 1 22 2 21 3 1 4 2 5 3 7 4 8 5 9 14 10 6 11 7 12 15 13
REMARK SMILES IDX 16 14 20 15 17 16 19 17 18 18 8 19 9 20 13 21 10 22 12 23
REMARK SMILES IDX 11 24 24 25 25 26 26 27 27 29 28 30 29 31 75 32 30 33 74 34
REMARK SMILES IDX 31 35 32 36 33 37 68 38 34 39 73 40 67 41 69 42 35 43 72 44
REMARK SMILES IDX 66 45 65 46 36 48 58 49 43 50 57 51 44 52 47 53 56 54 70 55
REMARK SMILES IDX 45 56 46 57 55 59 71 60 48 61 37 62 38 63 42 64 39 65 41 66
REMARK SMILES IDX 40 67 59 68 60 69 64 70 61 71 63 72 62 73 49 74 50 75 54 76
REMARK SMILES IDX 51 77 53 78 52 79
REMARK H PARENT 21 6 25 28 69 47 47 58
REMARK Flexibility Score: inf
ROOT
ATOM      1  C   UNL A   1      31.943  28.573  23.784  1.00  0.00     0.042 C 
ENDROOT
BRANCH   1   2
ATOM      2  C   UNL A   1      31.298  27.224  24.111  1.00  0.00     0.117 C 
BRANCH   2   3
ATOM      3  N   UNL A   1      32.203  26.284  24.764  1.00  0.00    -0.354 N 
ATOM      4  O   UNL A   1      31.250  26.372  26.852  1.00  0.00    -0.273 OA
ATOM      5  C   UNL A   1      32.051  25.864  26.071  1.00  0.00     0.239 C 
ATOM      6  H   UNL A   1      32.961  25.930  24.246  1.00  0.00     0.163 HD
BRANCH   5   7
ATOM      7  C   UNL A   1      32.968  24.726  26.490  1.00  0.00     0.223 C 
BRANCH   7   8
ATOM      8  N   UNL A   1      32.468  23.432  26.058  1.00  0.00    -0.321 N 
ATOM      9  C   UNL A   1      31.165  23.020  26.160  1.00  0.00     0.201 A 
ATOM     10  C   UNL A   1      33.177  22.403  25.484  1.00  0.00     0.076 A 
ATOM     11  N   UNL A   1      30.988  21.815  25.664  1.00  0.00    -0.236 NA
ATOM     12  C   UNL A   1      32.232  21.408  25.259  1.00  0.00     0.096 A 
BRANCH  10  13
ATOM     13  C   UNL A   1      34.590  22.373  25.159  1.00  0.00     0.000 A 
ATOM     14  C   UNL A   1      35.028  22.988  23.976  1.00  0.00     0.010 A 
ATOM     15  C   UNL A   1      35.452  21.558  25.889  1.00  0.00     0.010 A 
ATOM     16  C   UNL A   1      36.284  22.700  23.463  1.00  0.00     0.001 A 
ATOM     17  C   UNL A   1      36.711  21.282  25.380  1.00  0.00     0.001 A 
ATOM     18  C   UNL A   1      37.101  21.812  24.146  1.00  0.00     0.000 A 
ENDBRANCH  10  13
BRANCH  12  19
ATOM     19  C   UNL A   1      32.524  20.146  24.591  1.00  0.00     0.002 A 
ATOM     20  C   UNL A   1      32.872  19.027  25.353  1.00  0.00     0.010 A 
ATOM     21  C   UNL A   1      32.312  19.991  23.211  1.00  0.00     0.010 A 
ATOM     22  C   UNL A   1      32.963  17.767  24.753  1.00  0.00     0.001 A 
ATOM     23  C   UNL A   1      32.396  18.731  22.613  1.00  0.00     0.001 A 
ATOM     24  C   UNL A   1      32.715  17.618  23.388  1.00  0.00     0.000 A 
ENDBRANCH  12  19
ENDBRANCH   7   8
ENDBRANCH   5   7
ENDBRANCH   2   3
ENDBRANCH   1   2
BRANCH   1  25
ATOM     25  C   UNL A   1      32.398  29.339  25.014  1.00  0.00     0.118 C 
BRANCH  25  26
ATOM     26  N   UNL A   1      31.607  30.470  25.441  1.00  0.00    -0.352 N 
ATOM     27  C   UNL A   1      31.852  31.367  26.471  1.00  0.00     0.251 C 
ATOM     28  H   UNL A   1      30.780  30.627  24.930  1.00  0.00     0.163 HD
ATOM     29  O   UNL A   1      31.003  32.217  26.708  1.00  0.00    -0.269 OA
BRANCH  27  30
ATOM     30  C   UNL A   1      33.129  31.377  27.262  1.00  0.00     0.039 A 
ATOM     31  C   UNL A   1      33.688  32.614  27.639  1.00  0.00     0.014 A 
ATOM     32  C   UNL A   1      33.860  30.228  27.545  1.00  0.00     0.014 A 
ATOM     33  C   UNL A   1      34.968  32.679  28.209  1.00  0.00     0.010 A 
ATOM     34  C   UNL A   1      35.134  30.285  28.056  1.00  0.00     0.010 A 
ATOM     35  C   UNL A   1      35.705  31.507  28.360  1.00  0.00    -0.014 A 
BRANCH  35  36
ATOM     36  C   UNL A   1      36.979  31.416  29.053  1.00  0.00     0.031 A 
ATOM     37  C   UNL A   1      37.661  30.115  28.831  1.00  0.00     0.074 A 
ATOM     38  C   UNL A   1      37.678  32.492  29.471  1.00  0.00     0.049 A 
ATOM     39  N   UNL A   1      37.876  29.197  29.711  1.00  0.00    -0.248 NA
ATOM     40  C   UNL A   1      38.007  29.711  27.454  1.00  0.00     0.031 C 
ATOM     41  C   UNL A   1      37.321  33.905  29.396  1.00  0.00     0.029 A 
ATOM     42  N   UNL A   1      38.962  32.539  29.914  1.00  0.00    -0.354 N 
ATOM     43  C   UNL A   1      38.556  28.187  29.043  1.00  0.00     0.074 A 
ATOM     44  C   UNL A   1      38.391  28.449  27.638  1.00  0.00     0.031 C 
ATOM     45  C   UNL A   1      38.435  34.666  29.523  1.00  0.00     0.029 A 
ATOM     46  C   UNL A   1      39.548  33.797  29.861  1.00  0.00     0.049 A 
ATOM     47  H   UNL A   1      39.438  31.744  30.247  1.00  0.00     0.167 HD
ATOM     48  C   UNL A   1      39.438  27.375  29.688  1.00  0.00     0.031 A 
ATOM     49  C   UNL A   1      40.861  34.085  30.047  1.00  0.00     0.031 A 
ATOM     50  C   UNL A   1      39.356  27.546  31.119  1.00  0.00     0.049 A 
ATOM     51  C   UNL A   1      41.464  32.924  30.750  1.00  0.00     0.074 A 
ATOM     52  C   UNL A   1      38.338  27.455  32.049  1.00  0.00     0.029 A 
ATOM     53  N   UNL A   1      40.345  28.297  31.715  1.00  0.00    -0.354 N 
ATOM     54  N   UNL A   1      41.164  32.595  31.974  1.00  0.00    -0.248 NA
ATOM     55  C   UNL A   1      42.042  31.859  29.944  1.00  0.00     0.031 C 
ATOM     56  C   UNL A   1      38.549  28.561  32.925  1.00  0.00     0.029 A 
ATOM     57  C   UNL A   1      39.725  29.205  32.534  1.00  0.00     0.049 A 
ATOM     58  H   UNL A   1      41.315  28.201  31.578  1.00  0.00     0.167 HD
ATOM     59  C   UNL A   1      41.077  31.210  31.955  1.00  0.00     0.074 A 
ATOM     60  C   UNL A   1      41.736  30.807  30.712  1.00  0.00     0.031 C 
ATOM     61  C   UNL A   1      40.222  30.541  32.784  1.00  0.00     0.031 A 
BRANCH  48  62
ATOM     62  C   UNL A   1      40.643  26.751  29.034  1.00  0.00    -0.014 A 
ATOM     63  C   UNL A   1      40.497  25.483  28.445  1.00  0.00     0.009 A 
ATOM     64  C   UNL A   1      41.960  27.224  29.194  1.00  0.00     0.009 A 
ATOM     65  C   UNL A   1      41.609  24.701  28.113  1.00  0.00     0.001 A 
ATOM     66  C   UNL A   1      43.072  26.465  28.818  1.00  0.00     0.001 A 
ATOM     67  C   UNL A   1      42.896  25.190  28.306  1.00  0.00     0.000 A 
ENDBRANCH  48  62
BRANCH  49  68
ATOM     68  C   UNL A   1      41.687  35.179  29.486  1.00  0.00    -0.014 A 
ATOM     69  C   UNL A   1      42.867  35.588  30.128  1.00  0.00     0.009 A 
ATOM     70  C   UNL A   1      41.462  35.649  28.178  1.00  0.00     0.009 A 
ATOM     71  C   UNL A   1      43.809  36.395  29.471  1.00  0.00     0.001 A 
ATOM     72  C   UNL A   1      42.399  36.459  27.524  1.00  0.00     0.001 A 
ATOM     73  C   UNL A   1      43.581  36.817  28.164  1.00  0.00     0.000 A 
ENDBRANCH  49  68
BRANCH  61  74
ATOM     74  C   UNL A   1      39.525  31.315  33.880  1.00  0.00    -0.014 A 
ATOM     75  C   UNL A   1      40.029  31.426  35.188  1.00  0.00     0.009 A 
ATOM     76  C   UNL A   1      38.419  32.103  33.531  1.00  0.00     0.009 A 
ATOM     77  C   UNL A   1      39.430  32.280  36.122  1.00  0.00     0.001 A 
ATOM     78  C   UNL A   1      37.834  32.973  34.454  1.00  0.00     0.001 A 
ATOM     79  C   UNL A   1      38.336  33.057  35.750  1.00  0.00     0.000 A 
ENDBRANCH  61  74
ENDBRANCH  35  36
ENDBRANCH  27  30
ENDBRANCH  25  26
ENDBRANCH   1  25
TORSDOF 13
ENDMDL
MODEL 3
REMARK VINA RESULT:     -12.5      2.306      3.726
REMARK SMILES O=C(Cn1cnc(-c2ccccc2)c1-c1ccccc1)NCCCNC(=O)c1ccc(-c2c3nc(c(-c4ccccc4)c4ccc([nH]4)c(-c4ccccc4)c4nc(c(-c5ccccc5)c5ccc2[nH]5)C=C4)C=C3)cc1
REMARK SMILES IDX 23 1 22 2 21 3 1 4 2 5 3 7 4 8 5 9 14 10 6 11 7 12 15 13
REMARK SMILES IDX 16 14 20 15 17 16 19 17 18 18 8 19 9 20 13 21 10 22 12 23
REMARK SMILES IDX 11 24 24 25 25 26 26 27 27 29 28 30 29 31 75 32 30 33 74 34
REMARK SMILES IDX 31 35 32 36 33 37 68 38 34 39 73 40 67 41 69 42 35 43 72 44
REMARK SMILES IDX 66 45 65 46 36 48 58 49 43 50 57 51 44 52 47 53 56 54 70 55
REMARK SMILES IDX 45 56 46 57 55 59 71 60 48 61 37 62 38 63 42 64 39 65 41 66
REMARK SMILES IDX 40 67 59 68 60 69 64 70 61 71 63 72 62 73 49 74 50 75 54 76
REMARK SMILES IDX 51 77 53 78 52 79
REMARK H PARENT 21 6 25 28 69 47 47 58
REMARK Flexibility Score: inf
ROOT
ATOM      1  C   UNL A   1      37.808  19.816  24.535  1.00  0.00     0.042 C 
ENDROOT
BRANCH   1   2
ATOM      2  C   UNL A   1      36.414  19.239  24.793  1.00  0.00     0.117 C 
BRANCH   2   3
ATOM      3  N   UNL A   1      35.502  20.176  25.440  1.00  0.00    -0.354 N 
ATOM      4  O   UNL A   1      33.588  19.501  24.367  1.00  0.00    -0.273 OA
ATOM      5  C   UNL A   1      34.137  20.173  25.236  1.00  0.00     0.239 C 
ATOM      6  H   UNL A   1      35.880  20.846  26.054  1.00  0.00     0.163 HD
BRANCH   5   7
ATOM      7  C   UNL A   1      33.347  21.083  26.163  1.00  0.00     0.223 C 
BRANCH   7   8
ATOM      8  N   UNL A   1      32.745  22.199  25.454  1.00  0.00    -0.321 N 
ATOM      9  C   UNL A   1      31.400  22.372  25.261  1.00  0.00     0.201 A 
ATOM     10  C   UNL A   1      33.382  23.261  24.856  1.00  0.00     0.076 A 
ATOM     11  N   UNL A   1      31.133  23.484  24.610  1.00  0.00    -0.236 NA
ATOM     12  C   UNL A   1      32.356  24.038  24.333  1.00  0.00     0.096 A 
BRANCH  10  13
ATOM     13  C   UNL A   1      34.807  23.526  24.808  1.00  0.00     0.000 A 
ATOM     14  C   UNL A   1      35.514  23.235  23.631  1.00  0.00     0.010 A 
ATOM     15  C   UNL A   1      35.492  23.849  25.978  1.00  0.00     0.010 A 
ATOM     16  C   UNL A   1      36.898  23.154  23.649  1.00  0.00     0.001 A 
ATOM     17  C   UNL A   1      36.876  23.779  25.989  1.00  0.00     0.001 A 
ATOM     18  C   UNL A   1      37.569  23.382  24.841  1.00  0.00     0.000 A 
ENDBRANCH  10  13
BRANCH  12  19
ATOM     19  C   UNL A   1      32.563  25.318  23.666  1.00  0.00     0.002 A 
ATOM     20  C   UNL A   1      32.890  26.445  24.424  1.00  0.00     0.010 A 
ATOM     21  C   UNL A   1      32.591  25.407  22.265  1.00  0.00     0.010 A 
ATOM     22  C   UNL A   1      33.282  27.630  23.793  1.00  0.00     0.001 A 
ATOM     23  C   UNL A   1      32.990  26.589  21.634  1.00  0.00     0.001 A 
ATOM     24  C   UNL A   1      33.342  27.697  22.400  1.00  0.00     0.000 A 
ENDBRANCH  12  19
ENDBRANCH   7   8
ENDBRANCH   5   7
ENDBRANCH   2   3
ENDBRANCH   1   2
BRANCH   1  25
ATOM     25  C   UNL A   1      38.732  19.723  25.737  1.00  0.00     0.118 C 
BRANCH  25  26
ATOM     26  N   UNL A   1      39.920  18.910  25.618  1.00  0.00    -0.352 N 
ATOM     27  C   UNL A   1      41.236  19.238  25.916  1.00  0.00     0.251 C 
ATOM     28  H   UNL A   1      39.777  17.996  25.281  1.00  0.00     0.163 HD
ATOM     29  O   UNL A   1      42.104  18.413  25.669  1.00  0.00    -0.269 OA
BRANCH  27  30
ATOM     30  C   UNL A   1      41.627  20.529  26.577  1.00  0.00     0.039 A 
ATOM     31  C   UNL A   1      41.193  20.780  27.893  1.00  0.00     0.014 A 
ATOM     32  C   UNL A   1      42.302  21.551  25.917  1.00  0.00     0.014 A 
ATOM     33  C   UNL A   1      41.372  22.042  28.480  1.00  0.00     0.010 A 
ATOM     34  C   UNL A   1      42.438  22.804  26.463  1.00  0.00     0.010 A 
ATOM     35  C   UNL A   1      41.948  23.064  27.730  1.00  0.00    -0.014 A 
BRANCH  35  36
ATOM     36  C   UNL A   1      42.311  24.370  28.254  1.00  0.00     0.031 A 
ATOM     37  C   UNL A   1      41.264  25.397  28.011  1.00  0.00     0.074 A 
ATOM     38  C   UNL A   1      43.239  24.555  29.216  1.00  0.00     0.049 A 
ATOM     39  N   UNL A   1      41.357  26.423  27.236  1.00  0.00    -0.248 NA
ATOM     40  C   UNL A   1      39.911  25.187  28.560  1.00  0.00     0.031 C 
ATOM     41  C   UNL A   1      44.093  23.568  29.870  1.00  0.00     0.029 A 
ATOM     42  N   UNL A   1      43.493  25.681  29.933  1.00  0.00    -0.354 N 
ATOM     43  C   UNL A   1      40.146  27.093  27.350  1.00  0.00     0.074 A 
ATOM     44  C   UNL A   1      39.233  26.172  27.972  1.00  0.00     0.031 C 
ATOM     45  C   UNL A   1      44.561  24.070  31.037  1.00  0.00     0.029 A 
ATOM     46  C   UNL A   1      44.179  25.468  31.122  1.00  0.00     0.049 A 
ATOM     47  H   UNL A   1      43.212  26.575  29.633  1.00  0.00     0.167 HD
ATOM     48  C   UNL A   1      40.060  28.441  27.188  1.00  0.00     0.031 A 
ATOM     49  C   UNL A   1      44.380  26.375  32.112  1.00  0.00     0.031 A 
ATOM     50  C   UNL A   1      41.286  28.983  26.653  1.00  0.00     0.049 A 
ATOM     51  C   UNL A   1      44.148  27.718  31.523  1.00  0.00     0.074 A 
ATOM     52  C   UNL A   1      42.048  28.730  25.528  1.00  0.00     0.029 A 
ATOM     53  N   UNL A   1      42.124  29.624  27.539  1.00  0.00    -0.354 N 
ATOM     54  N   UNL A   1      44.923  28.245  30.619  1.00  0.00    -0.248 NA
ATOM     55  C   UNL A   1      42.805  28.274  31.592  1.00  0.00     0.031 C 
ATOM     56  C   UNL A   1      43.397  28.763  25.990  1.00  0.00     0.029 A 
ATOM     57  C   UNL A   1      43.384  29.120  27.340  1.00  0.00     0.049 A 
ATOM     58  H   UNL A   1      41.867  30.313  28.193  1.00  0.00     0.167 HD
ATOM     59  C   UNL A   1      44.054  28.850  29.720  1.00  0.00     0.074 A 
ATOM     60  C   UNL A   1      42.776  28.932  30.427  1.00  0.00     0.031 C 
ATOM     61  C   UNL A   1      44.363  28.949  28.392  1.00  0.00     0.031 A 
BRANCH  48  62
ATOM     62  C   UNL A   1      39.050  29.313  27.890  1.00  0.00    -0.014 A 
ATOM     63  C   UNL A   1      39.196  29.515  29.273  1.00  0.00     0.009 A 
ATOM     64  C   UNL A   1      37.832  29.725  27.317  1.00  0.00     0.009 A 
ATOM     65  C   UNL A   1      38.150  30.026  30.050  1.00  0.00     0.001 A 
ATOM     66  C   UNL A   1      36.802  30.281  28.082  1.00  0.00     0.001 A 
ATOM     67  C   UNL A   1      36.951  30.401  29.455  1.00  0.00     0.000 A 
ENDBRANCH  48  62
BRANCH  49  68
ATOM     68  C   UNL A   1      44.547  26.174  33.570  1.00  0.00    -0.014 A 
ATOM     69  C   UNL A   1      43.443  25.866  34.382  1.00  0.00     0.009 A 
ATOM     70  C   UNL A   1      45.829  26.024  34.132  1.00  0.00     0.009 A 
ATOM     71  C   UNL A   1      43.615  25.379  35.686  1.00  0.00     0.001 A 
ATOM     72  C   UNL A   1      46.001  25.543  35.436  1.00  0.00     0.001 A 
ATOM     73  C   UNL A   1      44.895  25.204  36.207  1.00  0.00     0.000 A 
ENDBRANCH  49  68
BRANCH  61  74
ATOM     74  C   UNL A   1      45.762  28.587  27.947  1.00  0.00    -0.014 A 
ATOM     75  C   UNL A   1      46.189  27.263  27.742  1.00  0.00     0.009 A 
ATOM     76  C   UNL A   1      46.617  29.626  27.549  1.00  0.00     0.009 A 
ATOM     77  C   UNL A   1      47.441  26.989  27.181  1.00  0.00     0.001 A 
ATOM     78  C   UNL A   1      47.857  29.353  26.968  1.00  0.00     0.001 A 
ATOM     79  C   UNL A   1      48.271  28.036  26.789  1.00  0.00     0.000 A 
ENDBRANCH  61  74
ENDBRANCH  35  36
ENDBRANCH  27  30
ENDBRANCH  25  26
ENDBRANCH   1  25
TORSDOF 13
ENDMDL
