MODEL 1
REMARK VINA RESULT:     -10.1      0.000      0.000
REMARK SMILES COc1cc([C@@H](O)[C@H](C)[C@H](C)C(=O)NCCCNC(=O)c2ccc(-c3c4nc(c(-c5ccccc5)c5ccc([nH]5)c(-c5ccccc5)c5nc(c(-c6ccccc6)c6ccc3[nH]6)C=C5)C=C4)cc2)cc(OC)c1OC
REMARK SMILES IDX 15 1 14 2 12 3 13 4 10 6 11 7 8 8 9 9 6 10 5 11 3 12 4 13
REMARK SMILES IDX 73 14 70 15 69 16 2 17 1 18 74 19 75 20 71 21 72 22 7 23
REMARK SMILES IDX 16 25 17 26 18 27 19 28 20 30 21 31 22 32 68 33 23 34 67 35
REMARK SMILES IDX 24 36 25 37 26 38 61 39 27 40 66 41 60 42 62 43 28 44 65 45
REMARK SMILES IDX 59 46 58 47 29 49 51 50 36 51 50 52 37 53 40 54 49 55 63 56
REMARK SMILES IDX 38 57 39 58 48 60 64 61 41 62 30 63 31 64 35 65 32 66 34 67
REMARK SMILES IDX 33 68 52 69 53 70 57 71 54 72 56 73 55 74 42 75 43 76 47 77
REMARK SMILES IDX 44 78 46 79 45 80
REMARK H PARENT 14 5 7 24 18 29 62 48 40 59
REMARK Flexibility Score: inf
ROOT
ATOM      1  C   UNL A   1      31.639  29.074  25.959  1.00  0.00     0.117 C 
ENDROOT
BRANCH   1   2
ATOM      2  N   UNL A   1      32.520  29.264  24.828  1.00  0.00    -0.356 N 
ATOM      3  C   UNL A   1      32.408  28.811  23.557  1.00  0.00     0.223 C 
ATOM      4  O   UNL A   1      33.199  29.266  22.723  1.00  0.00    -0.275 OA
ATOM      5  H   UNL A   1      33.322  29.807  25.008  1.00  0.00     0.163 HD
BRANCH   3   6
ATOM      6  C   UNL A   1      31.377  27.763  23.139  1.00  0.00     0.081 C 
ATOM      7  C   UNL A   1      30.264  28.394  22.300  1.00  0.00     0.018 C 
BRANCH   6   8
ATOM      8  C   UNL A   1      31.917  26.363  22.680  1.00  0.00     0.031 C 
ATOM      9  C   UNL A   1      31.751  26.046  21.186  1.00  0.00     0.011 C 
BRANCH   8  10
ATOM     10  C   UNL A   1      33.359  26.109  23.206  1.00  0.00     0.148 C 
BRANCH  10  11
ATOM     11  C   UNL A   1      33.491  25.319  24.492  1.00  0.00    -0.012 A 
ATOM     12  C   UNL A   1      32.542  24.288  26.486  1.00  0.00     0.165 A 
ATOM     13  C   UNL A   1      32.422  25.133  25.372  1.00  0.00     0.057 A 
ATOM     14  C   UNL A   1      33.717  23.549  26.717  1.00  0.00     0.203 A 
ATOM     15  C   UNL A   1      34.798  23.737  25.832  1.00  0.00     0.165 A 
ATOM     16  C   UNL A   1      34.679  24.630  24.753  1.00  0.00     0.057 A 
BRANCH  12  17
ATOM     17  O   UNL A   1      31.427  24.130  27.273  1.00  0.00    -0.493 OA
ATOM     18  C   UNL A   1      30.562  23.117  26.754  1.00  0.00     0.278 C 
ENDBRANCH  12  17
BRANCH  14  19
ATOM     19  O   UNL A   1      33.898  22.629  27.712  1.00  0.00    -0.490 OA
ATOM     20  C   UNL A   1      33.718  21.247  27.455  1.00  0.00     0.278 C 
ENDBRANCH  14  19
BRANCH  15  21
ATOM     21  O   UNL A   1      36.038  23.148  25.846  1.00  0.00    -0.493 OA
ATOM     22  C   UNL A   1      37.193  23.965  25.950  1.00  0.00     0.278 C 
ENDBRANCH  15  21
ENDBRANCH  10  11
BRANCH  10  23
ATOM     23  O   UNL A   1      34.148  25.441  22.224  1.00  0.00    -0.388 OA
ATOM     24  H   UNL A   1      33.912  25.769  21.341  1.00  0.00     0.211 HD
ENDBRANCH  10  23
ENDBRANCH   8  10
ENDBRANCH   6   8
ENDBRANCH   3   6
ENDBRANCH   1   2
BRANCH   1  25
ATOM     25  C   UNL A   1      32.351  28.466  27.151  1.00  0.00     0.042 C 
BRANCH  25  26
ATOM     26  C   UNL A   1      33.772  28.973  27.324  1.00  0.00     0.118 C 
BRANCH  26  27
ATOM     27  N   UNL A   1      33.835  30.324  27.869  1.00  0.00    -0.352 N 
ATOM     28  C   UNL A   1      34.849  30.948  28.557  1.00  0.00     0.251 C 
ATOM     29  H   UNL A   1      33.031  30.873  27.722  1.00  0.00     0.163 HD
ATOM     30  O   UNL A   1      34.667  32.041  29.083  1.00  0.00    -0.269 OA
BRANCH  28  31
ATOM     31  C   UNL A   1      36.156  30.274  28.688  1.00  0.00     0.039 A 
ATOM     32  C   UNL A   1      37.070  30.335  27.634  1.00  0.00     0.014 A 
ATOM     33  C   UNL A   1      36.490  29.616  29.872  1.00  0.00     0.014 A 
ATOM     34  C   UNL A   1      38.354  29.812  27.803  1.00  0.00     0.010 A 
ATOM     35  C   UNL A   1      37.797  29.200  30.079  1.00  0.00     0.010 A 
ATOM     36  C   UNL A   1      38.740  29.282  29.043  1.00  0.00    -0.014 A 
BRANCH  36  37
ATOM     37  C   UNL A   1      40.106  28.761  29.298  1.00  0.00     0.031 A 
ATOM     38  C   UNL A   1      41.132  29.670  29.919  1.00  0.00     0.074 A 
ATOM     39  C   UNL A   1      40.458  27.532  28.874  1.00  0.00     0.049 A 
ATOM     40  N   UNL A   1      42.423  29.500  30.044  1.00  0.00    -0.248 NA
ATOM     41  C   UNL A   1      40.644  30.966  30.422  1.00  0.00     0.031 C 
ATOM     42  C   UNL A   1      39.569  26.563  28.227  1.00  0.00     0.029 A 
ATOM     43  N   UNL A   1      41.673  26.894  28.909  1.00  0.00    -0.354 N 
ATOM     44  C   UNL A   1      42.903  30.683  30.590  1.00  0.00     0.074 A 
ATOM     45  C   UNL A   1      41.776  31.578  30.732  1.00  0.00     0.031 C 
ATOM     46  C   UNL A   1      40.265  25.448  27.947  1.00  0.00     0.029 A 
ATOM     47  C   UNL A   1      41.654  25.641  28.347  1.00  0.00     0.049 A 
ATOM     48  H   UNL A   1      42.482  27.297  29.300  1.00  0.00     0.167 HD
ATOM     49  C   UNL A   1      44.167  30.994  30.959  1.00  0.00     0.031 A 
ATOM     50  C   UNL A   1      42.650  24.753  28.163  1.00  0.00     0.031 A 
ATOM     51  C   UNL A   1      45.277  30.086  30.866  1.00  0.00     0.049 A 
ATOM     52  C   UNL A   1      44.041  25.107  28.609  1.00  0.00     0.074 A 
ATOM     53  C   UNL A   1      46.584  30.277  31.273  1.00  0.00     0.029 A 
ATOM     54  N   UNL A   1      45.200  28.805  30.340  1.00  0.00    -0.354 N 
ATOM     55  N   UNL A   1      44.475  26.215  29.160  1.00  0.00    -0.248 NA
ATOM     56  C   UNL A   1      45.080  24.085  28.415  1.00  0.00     0.031 C 
ATOM     57  C   UNL A   1      47.308  29.121  30.966  1.00  0.00     0.029 A 
ATOM     58  C   UNL A   1      46.439  28.196  30.410  1.00  0.00     0.049 A 
ATOM     59  H   UNL A   1      44.385  28.393  29.973  1.00  0.00     0.167 HD
ATOM     60  C   UNL A   1      45.824  26.011  29.412  1.00  0.00     0.074 A 
ATOM     61  C   UNL A   1      46.139  24.672  28.957  1.00  0.00     0.031 C 
ATOM     62  C   UNL A   1      46.723  26.854  29.973  1.00  0.00     0.031 A 
BRANCH  49  63
ATOM     63  C   UNL A   1      44.410  32.375  31.499  1.00  0.00    -0.014 A 
ATOM     64  C   UNL A   1      44.660  33.459  30.642  1.00  0.00     0.009 A 
ATOM     65  C   UNL A   1      44.374  32.598  32.885  1.00  0.00     0.009 A 
ATOM     66  C   UNL A   1      44.911  34.729  31.164  1.00  0.00     0.001 A 
ATOM     67  C   UNL A   1      44.594  33.875  33.401  1.00  0.00     0.001 A 
ATOM     68  C   UNL A   1      44.874  34.937  32.541  1.00  0.00     0.000 A 
ENDBRANCH  49  63
BRANCH  50  69
ATOM     69  C   UNL A   1      42.365  23.431  27.546  1.00  0.00    -0.014 A 
ATOM     70  C   UNL A   1      41.847  22.385  28.326  1.00  0.00     0.009 A 
ATOM     71  C   UNL A   1      42.612  23.205  26.184  1.00  0.00     0.009 A 
ATOM     72  C   UNL A   1      41.605  21.132  27.758  1.00  0.00     0.001 A 
ATOM     73  C   UNL A   1      42.345  21.958  25.614  1.00  0.00     0.001 A 
ATOM     74  C   UNL A   1      41.850  20.920  26.403  1.00  0.00     0.000 A 
ENDBRANCH  50  69
BRANCH  62  75
ATOM     75  C   UNL A   1      48.115  26.339  30.189  1.00  0.00    -0.014 A 
ATOM     76  C   UNL A   1      48.492  25.742  31.401  1.00  0.00     0.009 A 
ATOM     77  C   UNL A   1      49.038  26.388  29.132  1.00  0.00     0.009 A 
ATOM     78  C   UNL A   1      49.778  25.220  31.554  1.00  0.00     0.001 A 
ATOM     79  C   UNL A   1      50.314  25.845  29.282  1.00  0.00     0.001 A 
ATOM     80  C   UNL A   1      50.684  25.266  30.494  1.00  0.00     0.000 A 
ENDBRANCH  62  75
ENDBRANCH  36  37
ENDBRANCH  28  31
ENDBRANCH  26  27
ENDBRANCH  25  26
ENDBRANCH   1  25
TORSDOF 17
ENDMDL
MODEL 2
REMARK VINA RESULT:     -10.1      2.343      3.530
REMARK SMILES COc1cc([C@@H](O)[C@H](C)[C@H](C)C(=O)NCCCNC(=O)c2ccc(-c3c4nc(c(-c5ccccc5)c5ccc([nH]5)c(-c5ccccc5)c5nc(c(-c6ccccc6)c6ccc3[nH]6)C=C5)C=C4)cc2)cc(OC)c1OC
REMARK SMILES IDX 15 1 14 2 12 3 13 4 10 6 11 7 8 8 9 9 6 10 5 11 3 12 4 13
REMARK SMILES IDX 73 14 70 15 69 16 2 17 1 18 74 19 75 20 71 21 72 22 7 23
REMARK SMILES IDX 16 25 17 26 18 27 19 28 20 30 21 31 22 32 68 33 23 34 67 35
REMARK SMILES IDX 24 36 25 37 26 38 61 39 27 40 66 41 60 42 62 43 28 44 65 45
REMARK SMILES IDX 59 46 58 47 29 49 51 50 36 51 50 52 37 53 40 54 49 55 63 56
REMARK SMILES IDX 38 57 39 58 48 60 64 61 41 62 30 63 31 64 35 65 32 66 34 67
REMARK SMILES IDX 33 68 52 69 53 70 57 71 54 72 56 73 55 74 42 75 43 76 47 77
REMARK SMILES IDX 44 78 46 79 45 80
REMARK H PARENT 14 5 7 24 18 29 62 48 40 59
REMARK Flexibility Score: inf
ROOT
ATOM      1  C   UNL A   1      31.694  30.286  25.745  1.00  0.00     0.117 C 
ENDROOT
BRANCH   1   2
ATOM      2  N   UNL A   1      31.074  30.253  24.438  1.00  0.00    -0.356 N 
ATOM      3  C   UNL A   1      30.532  29.212  23.763  1.00  0.00     0.223 C 
ATOM      4  O   UNL A   1      29.894  29.475  22.737  1.00  0.00    -0.275 OA
ATOM      5  H   UNL A   1      31.039  31.118  23.969  1.00  0.00     0.163 HD
BRANCH   3   6
ATOM      6  C   UNL A   1      30.702  27.758  24.205  1.00  0.00     0.081 C 
ATOM      7  C   UNL A   1      29.479  26.923  23.821  1.00  0.00     0.018 C 
BRANCH   6   8
ATOM      8  C   UNL A   1      32.113  27.103  24.000  1.00  0.00     0.031 C 
ATOM      9  C   UNL A   1      32.942  27.665  22.837  1.00  0.00     0.011 C 
BRANCH   8  10
ATOM     10  C   UNL A   1      32.902  27.023  25.338  1.00  0.00     0.148 C 
BRANCH  10  11
ATOM     11  C   UNL A   1      33.074  25.650  25.953  1.00  0.00    -0.012 A 
ATOM     12  C   UNL A   1      32.187  23.658  27.043  1.00  0.00     0.165 A 
ATOM     13  C   UNL A   1      32.032  24.981  26.599  1.00  0.00     0.057 A 
ATOM     14  C   UNL A   1      33.370  22.940  26.792  1.00  0.00     0.203 A 
ATOM     15  C   UNL A   1      34.425  23.614  26.143  1.00  0.00     0.165 A 
ATOM     16  C   UNL A   1      34.272  24.956  25.756  1.00  0.00     0.057 A 
BRANCH  12  17
ATOM     17  O   UNL A   1      31.096  23.064  27.629  1.00  0.00    -0.493 OA
ATOM     18  C   UNL A   1      30.012  22.936  26.704  1.00  0.00     0.278 C 
ENDBRANCH  12  17
BRANCH  14  19
ATOM     19  O   UNL A   1      33.583  21.624  27.094  1.00  0.00    -0.490 OA
ATOM     20  C   UNL A   1      33.403  20.622  26.108  1.00  0.00     0.278 C 
ENDBRANCH  14  19
BRANCH  15  21
ATOM     21  O   UNL A   1      35.667  23.143  25.796  1.00  0.00    -0.493 OA
ATOM     22  C   UNL A   1      36.360  23.743  24.714  1.00  0.00     0.278 C 
ENDBRANCH  15  21
ENDBRANCH  10  11
BRANCH  10  23
ATOM     23  O   UNL A   1      34.208  27.580  25.191  1.00  0.00    -0.388 OA
ATOM     24  H   UNL A   1      34.853  26.864  25.076  1.00  0.00     0.211 HD
ENDBRANCH  10  23
ENDBRANCH   8  10
ENDBRANCH   6   8
ENDBRANCH   3   6
ENDBRANCH   1   2
BRANCH   1  25
ATOM     25  C   UNL A   1      31.406  31.574  26.489  1.00  0.00     0.042 C 
BRANCH  25  26
ATOM     26  C   UNL A   1      32.642  32.189  27.123  1.00  0.00     0.118 C 
BRANCH  26  27
ATOM     27  N   UNL A   1      32.447  33.579  27.523  1.00  0.00    -0.352 N 
ATOM     28  C   UNL A   1      33.177  34.352  28.395  1.00  0.00     0.251 C 
ATOM     29  H   UNL A   1      31.679  34.031  27.105  1.00  0.00     0.163 HD
ATOM     30  O   UNL A   1      32.773  35.460  28.735  1.00  0.00    -0.269 OA
BRANCH  28  31
ATOM     31  C   UNL A   1      34.440  33.825  28.947  1.00  0.00     0.039 A 
ATOM     32  C   UNL A   1      34.419  33.095  30.138  1.00  0.00     0.014 A 
ATOM     33  C   UNL A   1      35.640  34.021  28.263  1.00  0.00     0.014 A 
ATOM     34  C   UNL A   1      35.589  32.486  30.594  1.00  0.00     0.010 A 
ATOM     35  C   UNL A   1      36.773  33.324  28.655  1.00  0.00     0.010 A 
ATOM     36  C   UNL A   1      36.764  32.558  29.830  1.00  0.00    -0.014 A 
BRANCH  36  37
ATOM     37  C   UNL A   1      38.023  31.886  30.238  1.00  0.00     0.031 A 
ATOM     38  C   UNL A   1      38.964  32.599  31.171  1.00  0.00     0.074 A 
ATOM     39  C   UNL A   1      38.374  30.706  29.693  1.00  0.00     0.049 A 
ATOM     40  N   UNL A   1      40.195  32.299  31.496  1.00  0.00    -0.248 NA
ATOM     41  C   UNL A   1      38.468  33.846  31.780  1.00  0.00     0.031 C 
ATOM     42  C   UNL A   1      37.569  29.925  28.751  1.00  0.00     0.029 A 
ATOM     43  N   UNL A   1      39.520  29.964  29.843  1.00  0.00    -0.354 N 
ATOM     44  C   UNL A   1      40.632  33.342  32.302  1.00  0.00     0.074 A 
ATOM     45  C   UNL A   1      39.555  34.303  32.382  1.00  0.00     0.031 C 
ATOM     46  C   UNL A   1      38.237  28.805  28.425  1.00  0.00     0.029 A 
ATOM     47  C   UNL A   1      39.533  28.813  29.093  1.00  0.00     0.049 A 
ATOM     48  H   UNL A   1      40.262  30.231  30.432  1.00  0.00     0.167 HD
ATOM     49  C   UNL A   1      41.819  33.482  32.937  1.00  0.00     0.031 A 
ATOM     50  C   UNL A   1      40.491  27.876  28.950  1.00  0.00     0.031 A 
ATOM     51  C   UNL A   1      42.870  32.502  32.899  1.00  0.00     0.049 A 
ATOM     52  C   UNL A   1      41.790  28.037  29.689  1.00  0.00     0.074 A 
ATOM     53  C   UNL A   1      44.084  32.515  33.559  1.00  0.00     0.029 A 
ATOM     54  N   UNL A   1      42.818  31.324  32.170  1.00  0.00    -0.354 N 
ATOM     55  N   UNL A   1      42.176  29.009  30.479  1.00  0.00    -0.248 NA
ATOM     56  C   UNL A   1      42.784  26.965  29.524  1.00  0.00     0.031 C 
ATOM     57  C   UNL A   1      44.782  31.356  33.206  1.00  0.00     0.029 A 
ATOM     58  C   UNL A   1      43.982  30.603  32.362  1.00  0.00     0.049 A 
ATOM     59  H   UNL A   1      42.064  31.044  31.602  1.00  0.00     0.167 HD
ATOM     60  C   UNL A   1      43.438  28.651  30.933  1.00  0.00     0.074 A 
ATOM     61  C   UNL A   1      43.753  27.370  30.333  1.00  0.00     0.031 C 
ATOM     62  C   UNL A   1      44.262  29.320  31.774  1.00  0.00     0.031 A 
BRANCH  49  63
ATOM     63  C   UNL A   1      42.037  34.741  33.726  1.00  0.00    -0.014 A 
ATOM     64  C   UNL A   1      41.610  34.849  35.059  1.00  0.00     0.009 A 
ATOM     65  C   UNL A   1      42.693  35.831  33.132  1.00  0.00     0.009 A 
ATOM     66  C   UNL A   1      41.796  36.037  35.768  1.00  0.00     0.001 A 
ATOM     67  C   UNL A   1      42.906  37.006  33.854  1.00  0.00     0.001 A 
ATOM     68  C   UNL A   1      42.447  37.112  35.166  1.00  0.00     0.000 A 
ENDBRANCH  49  63
BRANCH  50  69
ATOM     69  C   UNL A   1      40.250  26.690  28.089  1.00  0.00    -0.014 A 
ATOM     70  C   UNL A   1      39.527  25.593  28.583  1.00  0.00     0.009 A 
ATOM     71  C   UNL A   1      40.741  26.642  26.775  1.00  0.00     0.009 A 
ATOM     72  C   UNL A   1      39.323  24.463  27.788  1.00  0.00     0.001 A 
ATOM     73  C   UNL A   1      40.513  25.521  25.975  1.00  0.00     0.001 A 
ATOM     74  C   UNL A   1      39.812  24.429  26.484  1.00  0.00     0.000 A 
ENDBRANCH  50  69
BRANCH  62  75
ATOM     75  C   UNL A   1      45.554  28.657  32.150  1.00  0.00    -0.014 A 
ATOM     76  C   UNL A   1      45.633  27.778  33.240  1.00  0.00     0.009 A 
ATOM     77  C   UNL A   1      46.690  28.862  31.351  1.00  0.00     0.009 A 
ATOM     78  C   UNL A   1      46.834  27.131  33.534  1.00  0.00     0.001 A 
ATOM     79  C   UNL A   1      47.883  28.196  31.634  1.00  0.00     0.001 A 
ATOM     80  C   UNL A   1      47.955  27.335  32.727  1.00  0.00     0.000 A 
ENDBRANCH  62  75
ENDBRANCH  36  37
ENDBRANCH  28  31
ENDBRANCH  26  27
ENDBRANCH  25  26
ENDBRANCH   1  25
TORSDOF 17
ENDMDL
MODEL 3
REMARK VINA RESULT:      -9.9      2.261      7.783
REMARK SMILES COc1cc([C@@H](O)[C@H](C)[C@H](C)C(=O)NCCCNC(=O)c2ccc(-c3c4nc(c(-c5ccccc5)c5ccc([nH]5)c(-c5ccccc5)c5nc(c(-c6ccccc6)c6ccc3[nH]6)C=C5)C=C4)cc2)cc(OC)c1OC
REMARK SMILES IDX 15 1 14 2 12 3 13 4 10 6 11 7 8 8 9 9 6 10 5 11 3 12 4 13
REMARK SMILES IDX 73 14 70 15 69 16 2 17 1 18 74 19 75 20 71 21 72 22 7 23
REMARK SMILES IDX 16 25 17 26 18 27 19 28 20 30 21 31 22 32 68 33 23 34 67 35
REMARK SMILES IDX 24 36 25 37 26 38 61 39 27 40 66 41 60 42 62 43 28 44 65 45
REMARK SMILES IDX 59 46 58 47 29 49 51 50 36 51 50 52 37 53 40 54 49 55 63 56
REMARK SMILES IDX 38 57 39 58 48 60 64 61 41 62 30 63 31 64 35 65 32 66 34 67
REMARK SMILES IDX 33 68 52 69 53 70 57 71 54 72 56 73 55 74 42 75 43 76 47 77
REMARK SMILES IDX 44 78 46 79 45 80
REMARK H PARENT 14 5 7 24 18 29 62 48 40 59
REMARK Flexibility Score: inf
ROOT
ATOM      1  C   UNL A   1      36.609  19.880  24.707  1.00  0.00     0.117 C 
ENDROOT
BRANCH   1   2
ATOM      2  N   UNL A   1      35.404  19.136  25.005  1.00  0.00    -0.356 N 
ATOM      3  C   UNL A   1      34.107  19.493  24.854  1.00  0.00     0.223 C 
ATOM      4  O   UNL A   1      33.257  18.609  25.006  1.00  0.00    -0.275 OA
ATOM      5  H   UNL A   1      35.549  18.234  25.371  1.00  0.00     0.163 HD
BRANCH   3   6
ATOM      6  C   UNL A   1      33.672  20.923  24.535  1.00  0.00     0.081 C 
ATOM      7  C   UNL A   1      32.421  20.931  23.654  1.00  0.00     0.018 C 
BRANCH   6   8
ATOM      8  C   UNL A   1      33.738  21.974  25.699  1.00  0.00     0.031 C 
ATOM      9  C   UNL A   1      33.777  21.389  27.118  1.00  0.00     0.011 C 
BRANCH   8  10
ATOM     10  C   UNL A   1      34.842  23.039  25.441  1.00  0.00     0.148 C 
BRANCH  10  11
ATOM     11  C   UNL A   1      34.387  24.391  24.934  1.00  0.00    -0.012 A 
ATOM     12  C   UNL A   1      33.793  25.921  23.132  1.00  0.00     0.165 A 
ATOM     13  C   UNL A   1      34.343  24.707  23.574  1.00  0.00     0.057 A 
ATOM     14  C   UNL A   1      33.208  26.828  24.035  1.00  0.00     0.203 A 
ATOM     15  C   UNL A   1      33.254  26.512  25.409  1.00  0.00     0.165 A 
ATOM     16  C   UNL A   1      33.859  25.318  25.838  1.00  0.00     0.057 A 
BRANCH  12  17
ATOM     17  O   UNL A   1      33.751  26.130  21.775  1.00  0.00    -0.493 OA
ATOM     18  C   UNL A   1      32.633  25.467  21.180  1.00  0.00     0.278 C 
ENDBRANCH  12  17
BRANCH  14  19
ATOM     19  O   UNL A   1      32.562  27.985  23.697  1.00  0.00    -0.490 OA
ATOM     20  C   UNL A   1      31.162  27.988  23.480  1.00  0.00     0.278 C 
ENDBRANCH  14  19
BRANCH  15  21
ATOM     21  O   UNL A   1      32.768  27.226  26.475  1.00  0.00    -0.493 OA
ATOM     22  C   UNL A   1      33.560  28.261  27.036  1.00  0.00     0.278 C 
ENDBRANCH  15  21
ENDBRANCH  10  11
BRANCH  10  23
ATOM     23  O   UNL A   1      35.607  23.273  26.622  1.00  0.00    -0.388 OA
ATOM     24  H   UNL A   1      35.355  24.127  27.007  1.00  0.00     0.211 HD
ENDBRANCH  10  23
ENDBRANCH   8  10
ENDBRANCH   6   8
ENDBRANCH   3   6
ENDBRANCH   1   2
BRANCH   1  25
ATOM     25  C   UNL A   1      37.866  19.093  25.018  1.00  0.00     0.042 C 
BRANCH  25  26
ATOM     26  C   UNL A   1      38.953  19.931  25.669  1.00  0.00     0.118 C 
BRANCH  26  27
ATOM     27  N   UNL A   1      40.210  19.210  25.833  1.00  0.00    -0.352 N 
ATOM     28  C   UNL A   1      41.442  19.672  26.231  1.00  0.00     0.251 C 
ATOM     29  H   UNL A   1      40.170  18.247  25.630  1.00  0.00     0.163 HD
ATOM     30  O   UNL A   1      42.433  18.951  26.159  1.00  0.00    -0.269 OA
BRANCH  28  31
ATOM     31  C   UNL A   1      41.573  21.060  26.717  1.00  0.00     0.039 A 
ATOM     32  C   UNL A   1      41.470  21.322  28.085  1.00  0.00     0.014 A 
ATOM     33  C   UNL A   1      41.838  22.094  25.820  1.00  0.00     0.014 A 
ATOM     34  C   UNL A   1      41.722  22.611  28.560  1.00  0.00     0.010 A 
ATOM     35  C   UNL A   1      42.198  23.343  26.302  1.00  0.00     0.010 A 
ATOM     36  C   UNL A   1      42.133  23.619  27.676  1.00  0.00    -0.014 A 
BRANCH  36  37
ATOM     37  C   UNL A   1      42.466  24.992  28.132  1.00  0.00     0.031 A 
ATOM     38  C   UNL A   1      43.881  25.306  28.536  1.00  0.00     0.074 A 
ATOM     39  C   UNL A   1      41.496  25.912  28.291  1.00  0.00     0.049 A 
ATOM     40  N   UNL A   1      44.353  26.360  29.149  1.00  0.00    -0.248 NA
ATOM     41  C   UNL A   1      44.890  24.270  28.257  1.00  0.00     0.031 C 
ATOM     42  C   UNL A   1      40.079  25.727  27.968  1.00  0.00     0.029 A 
ATOM     43  N   UNL A   1      41.556  27.190  28.787  1.00  0.00    -0.354 N 
ATOM     44  C   UNL A   1      45.697  26.091  29.372  1.00  0.00     0.074 A 
ATOM     45  C   UNL A   1      45.956  24.760  28.870  1.00  0.00     0.031 C 
ATOM     46  C   UNL A   1      39.411  26.857  28.255  1.00  0.00     0.029 A 
ATOM     47  C   UNL A   1      40.340  27.826  28.826  1.00  0.00     0.049 A 
ATOM     48  H   UNL A   1      42.394  27.613  29.088  1.00  0.00     0.167 HD
ATOM     49  C   UNL A   1      46.640  26.886  29.929  1.00  0.00     0.031 A 
ATOM     50  C   UNL A   1      40.008  29.048  29.285  1.00  0.00     0.031 A 
ATOM     51  C   UNL A   1      46.393  28.228  30.380  1.00  0.00     0.049 A 
ATOM     52  C   UNL A   1      41.077  29.927  29.872  1.00  0.00     0.074 A 
ATOM     53  C   UNL A   1      47.292  29.142  30.898  1.00  0.00     0.029 A 
ATOM     54  N   UNL A   1      45.155  28.850  30.349  1.00  0.00    -0.354 N 
ATOM     55  N   UNL A   1      42.353  29.675  30.041  1.00  0.00    -0.248 NA
ATOM     56  C   UNL A   1      40.663  31.264  30.323  1.00  0.00     0.031 C 
ATOM     57  C   UNL A   1      46.591  30.311  31.209  1.00  0.00     0.029 A 
ATOM     58  C   UNL A   1      45.266  30.137  30.843  1.00  0.00     0.049 A 
ATOM     59  H   UNL A   1      44.322  28.438  30.025  1.00  0.00     0.167 HD
ATOM     60  C   UNL A   1      42.899  30.830  30.582  1.00  0.00     0.074 A 
ATOM     61  C   UNL A   1      41.819  31.786  30.711  1.00  0.00     0.031 C 
ATOM     62  C   UNL A   1      44.182  31.079  30.938  1.00  0.00     0.031 A 
BRANCH  49  63
ATOM     63  C   UNL A   1      48.023  26.320  30.076  1.00  0.00    -0.014 A 
ATOM     64  C   UNL A   1      48.448  25.737  31.281  1.00  0.00     0.009 A 
ATOM     65  C   UNL A   1      48.911  26.356  28.989  1.00  0.00     0.009 A 
ATOM     66  C   UNL A   1      49.747  25.241  31.407  1.00  0.00     0.001 A 
ATOM     67  C   UNL A   1      50.198  25.830  29.109  1.00  0.00     0.001 A 
ATOM     68  C   UNL A   1      50.618  25.284  30.321  1.00  0.00     0.000 A 
ENDBRANCH  49  63
BRANCH  50  69
ATOM     69  C   UNL A   1      38.603  29.524  29.189  1.00  0.00    -0.014 A 
ATOM     70  C   UNL A   1      37.750  29.434  30.299  1.00  0.00     0.009 A 
ATOM     71  C   UNL A   1      38.107  30.065  27.993  1.00  0.00     0.009 A 
ATOM     72  C   UNL A   1      36.420  29.853  30.206  1.00  0.00     0.001 A 
ATOM     73  C   UNL A   1      36.785  30.506  27.911  1.00  0.00     0.001 A 
ATOM     74  C   UNL A   1      35.939  30.392  29.014  1.00  0.00     0.000 A 
ENDBRANCH  50  69
BRANCH  62  75
ATOM     75  C   UNL A   1      44.507  32.455  31.440  1.00  0.00    -0.014 A 
ATOM     76  C   UNL A   1      44.850  33.490  30.558  1.00  0.00     0.009 A 
ATOM     77  C   UNL A   1      44.392  32.732  32.811  1.00  0.00     0.009 A 
ATOM     78  C   UNL A   1      45.092  34.775  31.046  1.00  0.00     0.001 A 
ATOM     79  C   UNL A   1      44.612  34.023  33.292  1.00  0.00     0.001 A 
ATOM     80  C   UNL A   1      44.966  35.042  32.411  1.00  0.00     0.000 A 
ENDBRANCH  62  75
ENDBRANCH  36  37
ENDBRANCH  28  31
ENDBRANCH  26  27
ENDBRANCH  25  26
ENDBRANCH   1  25
TORSDOF 17
ENDMDL
