MODEL 1
REMARK VINA RESULT:     -11.6      0.000      0.000
REMARK SMILES O=C(NCCCNC(=O)c1ccc(-c2c3nc(c(-c4ccccc4)c4ccc([nH]4)c(-c4ccccc4)c4nc(c(-c5ccccc5)c5ccc2[nH]5)C=C4)C=C3)cc1)c1ccc(N[C@H]2OC[C@@H](O)[C@@H](O)[C@H]2O)cc1
REMARK SMILES IDX 4 1 3 2 1 3 2 4 58 6 59 7 73 8 60 9 72 10 61 11 62 12 63 14
REMARK SMILES IDX 64 15 70 16 65 17 68 18 66 19 71 20 69 22 67 24 5 26 6 27
REMARK SMILES IDX 7 28 8 29 9 31 10 32 11 33 57 34 12 35 56 36 13 37 14 38
REMARK SMILES IDX 15 39 50 40 16 41 55 42 49 43 51 44 17 45 54 46 48 47 47 48
REMARK SMILES IDX 18 50 40 51 25 52 39 53 26 54 29 55 38 56 52 57 27 58 28 59
REMARK SMILES IDX 37 61 53 62 30 63 19 64 20 65 24 66 21 67 23 68 22 69 41 70
REMARK SMILES IDX 42 71 46 72 43 73 45 74 44 75 31 76 32 77 36 78 33 79 35 80
REMARK SMILES IDX 34 81
REMARK H PARENT 3 5 62 13 71 21 69 23 67 25 7 30 51 49 29 60
REMARK Flexibility Score: inf
ROOT
ATOM      1  C   UNL A   1      35.654  21.218  25.223  1.00  0.00     0.118 C 
ENDROOT
BRANCH   1   2
ATOM      2  N   UNL A   1      34.744  20.079  25.275  1.00  0.00    -0.352 N 
ATOM      3  O   UNL A   1      32.752  19.021  25.374  1.00  0.00    -0.269 OA
ATOM      4  C   UNL A   1      33.382  20.036  25.095  1.00  0.00     0.251 C 
ATOM      5  H   UNL A   1      35.169  19.212  25.466  1.00  0.00     0.163 HD
BRANCH   4   6
ATOM      6  C   UNL A   1      32.679  21.226  24.579  1.00  0.00     0.039 A 
ATOM      7  C   UNL A   1      32.736  21.539  23.224  1.00  0.00     0.016 A 
ATOM      8  C   UNL A   1      31.950  22.035  25.449  1.00  0.00     0.016 A 
ATOM      9  C   UNL A   1      32.186  22.734  22.768  1.00  0.00     0.026 A 
ATOM     10  C   UNL A   1      31.373  23.218  24.971  1.00  0.00     0.026 A 
ATOM     11  C   UNL A   1      31.529  23.616  23.634  1.00  0.00     0.036 A 
BRANCH  11  12
ATOM     12  N   UNL A   1      30.978  24.821  23.214  1.00  0.00    -0.358 N 
ATOM     13  H   UNL A   1      30.140  24.806  22.698  1.00  0.00     0.163 HD
BRANCH  12  14
ATOM     14  C   UNL A   1      31.598  26.105  23.512  1.00  0.00     0.244 C 
ATOM     15  O   UNL A   1      33.013  25.976  23.358  1.00  0.00    -0.353 OA
ATOM     16  C   UNL A   1      31.105  27.166  22.504  1.00  0.00     0.195 C 
ATOM     17  C   UNL A   1      33.722  27.160  23.736  1.00  0.00     0.197 C 
ATOM     18  C   UNL A   1      31.806  28.497  22.822  1.00  0.00     0.178 C 
ATOM     19  C   UNL A   1      33.334  28.334  22.837  1.00  0.00     0.171 C 
BRANCH  16  20
ATOM     20  O   UNL A   1      31.441  26.751  21.157  1.00  0.00    -0.386 OA
ATOM     21  H   UNL A   1      32.382  26.520  21.116  1.00  0.00     0.211 HD
ENDBRANCH  16  20
BRANCH  18  22
ATOM     22  O   UNL A   1      31.429  29.492  21.868  1.00  0.00    -0.387 OA
ATOM     23  H   UNL A   1      32.025  29.450  21.104  1.00  0.00     0.211 HD
ENDBRANCH  18  22
BRANCH  19  24
ATOM     24  O   UNL A   1      33.814  28.098  21.504  1.00  0.00    -0.388 OA
ATOM     25  H   UNL A   1      34.218  27.218  21.457  1.00  0.00     0.211 HD
ENDBRANCH  19  24
ENDBRANCH  12  14
ENDBRANCH  11  12
ENDBRANCH   4   6
ENDBRANCH   1   2
BRANCH   1  26
ATOM     26  C   UNL A   1      37.007  20.853  24.627  1.00  0.00     0.042 C 
BRANCH  26  27
ATOM     27  C   UNL A   1      38.176  21.072  25.577  1.00  0.00     0.118 C 
BRANCH  27  28
ATOM     28  N   UNL A   1      39.119  19.959  25.579  1.00  0.00    -0.352 N 
ATOM     29  C   UNL A   1      40.450  19.912  25.916  1.00  0.00     0.251 C 
ATOM     30  H   UNL A   1      38.738  19.098  25.292  1.00  0.00     0.163 HD
ATOM     31  O   UNL A   1      41.105  18.904  25.665  1.00  0.00    -0.269 OA
BRANCH  29  32
ATOM     32  C   UNL A   1      41.109  21.077  26.545  1.00  0.00     0.039 A 
ATOM     33  C   UNL A   1      41.770  22.001  25.729  1.00  0.00     0.014 A 
ATOM     34  C   UNL A   1      41.084  21.261  27.928  1.00  0.00     0.014 A 
ATOM     35  C   UNL A   1      42.308  23.162  26.290  1.00  0.00     0.010 A 
ATOM     36  C   UNL A   1      41.549  22.453  28.476  1.00  0.00     0.010 A 
ATOM     37  C   UNL A   1      42.148  23.424  27.659  1.00  0.00    -0.014 A 
BRANCH  37  38
ATOM     38  C   UNL A   1      42.549  24.721  28.260  1.00  0.00     0.031 A 
ATOM     39  C   UNL A   1      41.539  25.817  28.448  1.00  0.00     0.074 A 
ATOM     40  C   UNL A   1      43.848  24.945  28.544  1.00  0.00     0.049 A 
ATOM     41  N   UNL A   1      41.729  27.061  28.808  1.00  0.00    -0.248 NA
ATOM     42  C   UNL A   1      40.133  25.477  28.175  1.00  0.00     0.031 C 
ATOM     43  C   UNL A   1      44.934  23.974  28.389  1.00  0.00     0.029 A 
ATOM     44  N   UNL A   1      44.478  26.074  29.006  1.00  0.00    -0.354 N 
ATOM     45  C   UNL A   1      40.474  27.655  28.791  1.00  0.00     0.074 A 
ATOM     46  C   UNL A   1      39.534  26.647  28.348  1.00  0.00     0.031 C 
ATOM     47  C   UNL A   1      46.091  24.543  28.762  1.00  0.00     0.029 A 
ATOM     48  C   UNL A   1      45.840  25.932  29.133  1.00  0.00     0.049 A 
ATOM     49  H   UNL A   1      44.001  26.906  29.227  1.00  0.00     0.167 HD
ATOM     50  C   UNL A   1      40.132  28.921  29.126  1.00  0.00     0.031 A 
ATOM     51  C   UNL A   1      46.784  26.824  29.480  1.00  0.00     0.031 A 
ATOM     52  C   UNL A   1      41.061  29.922  29.576  1.00  0.00     0.049 A 
ATOM     53  C   UNL A   1      46.384  28.238  29.791  1.00  0.00     0.074 A 
ATOM     54  C   UNL A   1      40.800  31.220  29.983  1.00  0.00     0.029 A 
ATOM     55  N   UNL A   1      42.431  29.739  29.674  1.00  0.00    -0.354 N 
ATOM     56  N   UNL A   1      45.187  28.772  29.808  1.00  0.00    -0.248 NA
ATOM     57  C   UNL A   1      47.467  29.175  30.123  1.00  0.00     0.031 C 
ATOM     58  C   UNL A   1      42.018  31.835  30.288  1.00  0.00     0.029 A 
ATOM     59  C   UNL A   1      43.031  30.907  30.111  1.00  0.00     0.049 A 
ATOM     60  H   UNL A   1      42.906  28.903  29.465  1.00  0.00     0.167 HD
ATOM     61  C   UNL A   1      45.371  30.099  30.169  1.00  0.00     0.074 A 
ATOM     62  C   UNL A   1      46.791  30.287  30.378  1.00  0.00     0.031 C 
ATOM     63  C   UNL A   1      44.446  31.077  30.312  1.00  0.00     0.031 A 
BRANCH  50  64
ATOM     64  C   UNL A   1      38.682  29.298  29.023  1.00  0.00    -0.014 A 
ATOM     65  C   UNL A   1      38.145  29.772  27.816  1.00  0.00     0.009 A 
ATOM     66  C   UNL A   1      37.833  29.127  30.126  1.00  0.00     0.009 A 
ATOM     67  C   UNL A   1      36.788  30.090  27.724  1.00  0.00     0.001 A 
ATOM     68  C   UNL A   1      36.473  29.424  30.025  1.00  0.00     0.001 A 
ATOM     69  C   UNL A   1      35.954  29.911  28.826  1.00  0.00     0.000 A 
ENDBRANCH  50  64
BRANCH  51  70
ATOM     70  C   UNL A   1      48.213  26.420  29.535  1.00  0.00    -0.014 A 
ATOM     71  C   UNL A   1      48.755  25.890  30.716  1.00  0.00     0.009 A 
ATOM     72  C   UNL A   1      49.048  26.587  28.420  1.00  0.00     0.009 A 
ATOM     73  C   UNL A   1      50.110  25.559  30.787  1.00  0.00     0.001 A 
ATOM     74  C   UNL A   1      50.397  26.231  28.485  1.00  0.00     0.001 A 
ATOM     75  C   UNL A   1      50.928  25.727  29.671  1.00  0.00     0.000 A 
ENDBRANCH  51  70
BRANCH  63  76
ATOM     76  C   UNL A   1      44.938  32.430  30.734  1.00  0.00    -0.014 A 
ATOM     77  C   UNL A   1      45.263  33.408  29.782  1.00  0.00     0.009 A 
ATOM     78  C   UNL A   1      45.035  32.743  32.099  1.00  0.00     0.009 A 
ATOM     79  C   UNL A   1      45.699  34.670  30.191  1.00  0.00     0.001 A 
ATOM     80  C   UNL A   1      45.449  34.013  32.503  1.00  0.00     0.001 A 
ATOM     81  C   UNL A   1      45.787  34.972  31.550  1.00  0.00     0.000 A 
ENDBRANCH  63  76
ENDBRANCH  37  38
ENDBRANCH  29  32
ENDBRANCH  27  28
ENDBRANCH  26  27
ENDBRANCH   1  26
TORSDOF 15
ENDMDL
MODEL 2
REMARK VINA RESULT:     -11.5      2.051      7.540
REMARK SMILES O=C(NCCCNC(=O)c1ccc(-c2c3nc(c(-c4ccccc4)c4ccc([nH]4)c(-c4ccccc4)c4nc(c(-c5ccccc5)c5ccc2[nH]5)C=C4)C=C3)cc1)c1ccc(N[C@H]2OC[C@@H](O)[C@@H](O)[C@H]2O)cc1
REMARK SMILES IDX 4 1 3 2 1 3 2 4 58 6 59 7 73 8 60 9 72 10 61 11 62 12 63 14
REMARK SMILES IDX 64 15 70 16 65 17 68 18 66 19 71 20 69 22 67 24 5 26 6 27
REMARK SMILES IDX 7 28 8 29 9 31 10 32 11 33 57 34 12 35 56 36 13 37 14 38
REMARK SMILES IDX 15 39 50 40 16 41 55 42 49 43 51 44 17 45 54 46 48 47 47 48
REMARK SMILES IDX 18 50 40 51 25 52 39 53 26 54 29 55 38 56 52 57 27 58 28 59
REMARK SMILES IDX 37 61 53 62 30 63 19 64 20 65 24 66 21 67 23 68 22 69 41 70
REMARK SMILES IDX 42 71 46 72 43 73 45 74 44 75 31 76 32 77 36 78 33 79 35 80
REMARK SMILES IDX 34 81
REMARK H PARENT 3 5 62 13 71 21 69 23 67 25 7 30 51 49 29 60
REMARK Flexibility Score: inf
ROOT
ATOM      1  C   UNL A   1      31.470  29.458  25.172  1.00  0.00     0.118 C 
ENDROOT
BRANCH   1   2
ATOM      2  N   UNL A   1      30.809  29.746  23.904  1.00  0.00    -0.352 N 
ATOM      3  O   UNL A   1      30.121  29.351  21.790  1.00  0.00    -0.269 OA
ATOM      4  C   UNL A   1      30.496  28.899  22.867  1.00  0.00     0.251 C 
ATOM      5  H   UNL A   1      30.548  30.686  23.771  1.00  0.00     0.163 HD
BRANCH   4   6
ATOM      6  C   UNL A   1      30.630  27.442  23.052  1.00  0.00     0.039 A 
ATOM      7  C   UNL A   1      29.701  26.747  23.821  1.00  0.00     0.016 A 
ATOM      8  C   UNL A   1      31.685  26.758  22.450  1.00  0.00     0.016 A 
ATOM      9  C   UNL A   1      29.909  25.399  24.104  1.00  0.00     0.026 A 
ATOM     10  C   UNL A   1      31.864  25.394  22.716  1.00  0.00     0.026 A 
ATOM     11  C   UNL A   1      31.012  24.705  23.593  1.00  0.00     0.036 A 
BRANCH  11  12
ATOM     12  N   UNL A   1      31.255  23.363  23.863  1.00  0.00    -0.358 N 
ATOM     13  H   UNL A   1      30.640  22.686  23.499  1.00  0.00     0.163 HD
BRANCH  12  14
ATOM     14  C   UNL A   1      32.388  22.926  24.667  1.00  0.00     0.244 C 
ATOM     15  O   UNL A   1      32.538  23.820  25.771  1.00  0.00    -0.353 OA
ATOM     16  C   UNL A   1      32.110  21.515  25.232  1.00  0.00     0.195 C 
ATOM     17  C   UNL A   1      33.696  23.536  26.561  1.00  0.00     0.197 C 
ATOM     18  C   UNL A   1      33.305  21.100  26.104  1.00  0.00     0.178 C 
ATOM     19  C   UNL A   1      33.594  22.147  27.192  1.00  0.00     0.171 C 
BRANCH  16  20
ATOM     20  O   UNL A   1      30.907  21.543  26.039  1.00  0.00    -0.386 OA
ATOM     21  H   UNL A   1      30.837  20.717  26.542  1.00  0.00     0.211 HD
ENDBRANCH  16  20
BRANCH  18  22
ATOM     22  O   UNL A   1      33.059  19.826  26.703  1.00  0.00    -0.387 OA
ATOM     23  H   UNL A   1      32.473  19.307  26.130  1.00  0.00     0.211 HD
ENDBRANCH  18  22
BRANCH  19  24
ATOM     24  O   UNL A   1      32.543  22.138  28.170  1.00  0.00    -0.388 OA
ATOM     25  H   UNL A   1      32.806  21.586  28.922  1.00  0.00     0.211 HD
ENDBRANCH  19  24
ENDBRANCH  12  14
ENDBRANCH  11  12
ENDBRANCH   4   6
ENDBRANCH   1   2
BRANCH   1  26
ATOM     26  C   UNL A   1      32.987  29.432  25.042  1.00  0.00     0.042 C 
BRANCH  26  27
ATOM     27  C   UNL A   1      33.715  29.303  26.373  1.00  0.00     0.118 C 
BRANCH  27  28
ATOM     28  N   UNL A   1      33.741  30.551  27.127  1.00  0.00    -0.352 N 
ATOM     29  C   UNL A   1      34.634  31.015  28.062  1.00  0.00     0.251 C 
ATOM     30  H   UNL A   1      32.995  31.163  26.933  1.00  0.00     0.163 HD
ATOM     31  O   UNL A   1      34.364  32.019  28.715  1.00  0.00    -0.269 OA
BRANCH  29  32
ATOM     32  C   UNL A   1      35.901  30.295  28.316  1.00  0.00     0.039 A 
ATOM     33  C   UNL A   1      36.896  30.312  27.333  1.00  0.00     0.014 A 
ATOM     34  C   UNL A   1      36.113  29.605  29.511  1.00  0.00     0.014 A 
ATOM     35  C   UNL A   1      38.139  29.729  27.594  1.00  0.00     0.010 A 
ATOM     36  C   UNL A   1      37.375  29.094  29.801  1.00  0.00     0.010 A 
ATOM     37  C   UNL A   1      38.406  29.170  28.853  1.00  0.00    -0.014 A 
BRANCH  37  38
ATOM     38  C   UNL A   1      39.764  28.700  29.228  1.00  0.00     0.031 A 
ATOM     39  C   UNL A   1      40.719  29.620  29.935  1.00  0.00     0.074 A 
ATOM     40  C   UNL A   1      40.170  27.474  28.841  1.00  0.00     0.049 A 
ATOM     41  N   UNL A   1      41.987  29.443  30.204  1.00  0.00    -0.248 NA
ATOM     42  C   UNL A   1      40.183  30.917  30.380  1.00  0.00     0.031 C 
ATOM     43  C   UNL A   1      39.351  26.489  28.130  1.00  0.00     0.029 A 
ATOM     44  N   UNL A   1      41.388  26.854  28.977  1.00  0.00    -0.354 N 
ATOM     45  C   UNL A   1      42.405  30.609  30.833  1.00  0.00     0.074 A 
ATOM     46  C   UNL A   1      41.266  31.500  30.873  1.00  0.00     0.031 C 
ATOM     47  C   UNL A   1      40.082  25.386  27.906  1.00  0.00     0.029 A 
ATOM     48  C   UNL A   1      41.435  25.603  28.407  1.00  0.00     0.049 A 
ATOM     49  H   UNL A   1      42.154  27.265  29.437  1.00  0.00     0.167 HD
ATOM     50  C   UNL A   1      43.624  30.904  31.344  1.00  0.00     0.031 A 
ATOM     51  C   UNL A   1      42.457  24.739  28.278  1.00  0.00     0.031 A 
ATOM     52  C   UNL A   1      44.754  30.016  31.315  1.00  0.00     0.049 A 
ATOM     53  C   UNL A   1      43.813  25.116  28.803  1.00  0.00     0.074 A 
ATOM     54  C   UNL A   1      46.017  30.211  31.850  1.00  0.00     0.029 A 
ATOM     55  N   UNL A   1      44.761  28.767  30.716  1.00  0.00    -0.354 N 
ATOM     56  N   UNL A   1      44.180  26.207  29.430  1.00  0.00    -0.248 NA
ATOM     57  C   UNL A   1      44.898  24.146  28.593  1.00  0.00     0.031 C 
ATOM     58  C   UNL A   1      46.800  29.096  31.538  1.00  0.00     0.029 A 
ATOM     59  C   UNL A   1      46.013  28.191  30.846  1.00  0.00     0.049 A 
ATOM     60  H   UNL A   1      43.991  28.352  30.266  1.00  0.00     0.167 HD
ATOM     61  C   UNL A   1      45.530  26.046  29.706  1.00  0.00     0.074 A 
ATOM     62  C   UNL A   1      45.915  24.747  29.193  1.00  0.00     0.031 C 
ATOM     63  C   UNL A   1      46.379  26.899  30.327  1.00  0.00     0.031 A 
BRANCH  50  64
ATOM     64  C   UNL A   1      43.798  32.250  31.987  1.00  0.00    -0.014 A 
ATOM     65  C   UNL A   1      44.193  33.364  31.230  1.00  0.00     0.009 A 
ATOM     66  C   UNL A   1      43.512  32.418  33.350  1.00  0.00     0.009 A 
ATOM     67  C   UNL A   1      44.322  34.617  31.833  1.00  0.00     0.001 A 
ATOM     68  C   UNL A   1      43.620  33.676  33.945  1.00  0.00     0.001 A 
ATOM     69  C   UNL A   1      44.030  34.773  33.187  1.00  0.00     0.000 A 
ENDBRANCH  50  64
BRANCH  51  70
ATOM     70  C   UNL A   1      42.252  23.431  27.603  1.00  0.00    -0.014 A 
ATOM     71  C   UNL A   1      42.532  23.287  26.236  1.00  0.00     0.009 A 
ATOM     72  C   UNL A   1      41.750  22.330  28.313  1.00  0.00     0.009 A 
ATOM     73  C   UNL A   1      42.289  22.074  25.587  1.00  0.00     0.001 A 
ATOM     74  C   UNL A   1      41.533  21.109  27.668  1.00  0.00     0.001 A 
ATOM     75  C   UNL A   1      41.794  20.987  26.304  1.00  0.00     0.000 A 
ENDBRANCH  51  70
BRANCH  63  76
ATOM     76  C   UNL A   1      47.798  26.447  30.505  1.00  0.00    -0.014 A 
ATOM     77  C   UNL A   1      48.768  26.716  29.528  1.00  0.00     0.009 A 
ATOM     78  C   UNL A   1      48.177  25.783  31.682  1.00  0.00     0.009 A 
ATOM     79  C   UNL A   1      50.090  26.308  29.717  1.00  0.00     0.001 A 
ATOM     80  C   UNL A   1      49.504  25.397  31.878  1.00  0.00     0.001 A 
ATOM     81  C   UNL A   1      50.457  25.654  30.894  1.00  0.00     0.000 A 
ENDBRANCH  63  76
ENDBRANCH  37  38
ENDBRANCH  29  32
ENDBRANCH  27  28
ENDBRANCH  26  27
ENDBRANCH   1  26
TORSDOF 15
ENDMDL
MODEL 3
REMARK VINA RESULT:     -11.5      0.586      6.083
REMARK SMILES O=C(NCCCNC(=O)c1ccc(-c2c3nc(c(-c4ccccc4)c4ccc([nH]4)c(-c4ccccc4)c4nc(c(-c5ccccc5)c5ccc2[nH]5)C=C4)C=C3)cc1)c1ccc(N[C@H]2OC[C@@H](O)[C@@H](O)[C@H]2O)cc1
REMARK SMILES IDX 4 1 3 2 1 3 2 4 58 6 59 7 73 8 60 9 72 10 61 11 62 12 63 14
REMARK SMILES IDX 64 15 70 16 65 17 68 18 66 19 71 20 69 22 67 24 5 26 6 27
REMARK SMILES IDX 7 28 8 29 9 31 10 32 11 33 57 34 12 35 56 36 13 37 14 38
REMARK SMILES IDX 15 39 50 40 16 41 55 42 49 43 51 44 17 45 54 46 48 47 47 48
REMARK SMILES IDX 18 50 40 51 25 52 39 53 26 54 29 55 38 56 52 57 27 58 28 59
REMARK SMILES IDX 37 61 53 62 30 63 19 64 20 65 24 66 21 67 23 68 22 69 41 70
REMARK SMILES IDX 42 71 46 72 43 73 45 74 44 75 31 76 32 77 36 78 33 79 35 80
REMARK SMILES IDX 34 81
REMARK H PARENT 3 5 62 13 71 21 69 23 67 25 7 30 51 49 29 60
REMARK Flexibility Score: inf
ROOT
ATOM      1  C   UNL A   1      35.875  20.973  25.221  1.00  0.00     0.118 C 
ENDROOT
BRANCH   1   2
ATOM      2  N   UNL A   1      34.788  20.003  25.291  1.00  0.00    -0.352 N 
ATOM      3  O   UNL A   1      32.652  19.295  25.470  1.00  0.00    -0.269 OA
ATOM      4  C   UNL A   1      33.431  20.198  25.185  1.00  0.00     0.251 C 
ATOM      5  H   UNL A   1      35.067  19.070  25.434  1.00  0.00     0.163 HD
BRANCH   4   6
ATOM      6  C   UNL A   1      32.918  21.508  24.743  1.00  0.00     0.039 A 
ATOM      7  C   UNL A   1      32.555  22.470  25.682  1.00  0.00     0.016 A 
ATOM      8  C   UNL A   1      32.803  21.788  23.383  1.00  0.00     0.016 A 
ATOM      9  C   UNL A   1      31.945  23.649  25.262  1.00  0.00     0.026 A 
ATOM     10  C   UNL A   1      32.218  22.993  22.973  1.00  0.00     0.026 A 
ATOM     11  C   UNL A   1      31.728  23.919  23.906  1.00  0.00     0.036 A 
BRANCH  11  12
ATOM     12  N   UNL A   1      31.113  25.081  23.453  1.00  0.00    -0.358 N 
ATOM     13  H   UNL A   1      30.243  25.011  22.998  1.00  0.00     0.163 HD
BRANCH  12  14
ATOM     14  C   UNL A   1      31.712  26.396  23.632  1.00  0.00     0.244 C 
ATOM     15  O   UNL A   1      33.125  26.284  23.450  1.00  0.00    -0.353 OA
ATOM     16  C   UNL A   1      31.169  27.364  22.557  1.00  0.00     0.195 C 
ATOM     17  C   UNL A   1      33.816  27.509  23.713  1.00  0.00     0.197 C 
ATOM     18  C   UNL A   1      31.848  28.729  22.748  1.00  0.00     0.178 C 
ATOM     19  C   UNL A   1      33.379  28.599  22.735  1.00  0.00     0.171 C 
BRANCH  16  20
ATOM     20  O   UNL A   1      31.480  26.849  21.238  1.00  0.00    -0.386 OA
ATOM     21  H   UNL A   1      31.593  25.887  21.286  1.00  0.00     0.211 HD
ENDBRANCH  16  20
BRANCH  18  22
ATOM     22  O   UNL A   1      31.425  29.638  21.730  1.00  0.00    -0.387 OA
ATOM     23  H   UNL A   1      31.779  30.521  21.917  1.00  0.00     0.211 HD
ENDBRANCH  18  22
BRANCH  19  24
ATOM     24  O   UNL A   1      33.830  28.268  21.412  1.00  0.00    -0.388 OA
ATOM     25  H   UNL A   1      34.285  29.032  21.025  1.00  0.00     0.211 HD
ENDBRANCH  19  24
ENDBRANCH  12  14
ENDBRANCH  11  12
ENDBRANCH   4   6
ENDBRANCH   1   2
BRANCH   1  26
ATOM     26  C   UNL A   1      37.181  20.346  24.750  1.00  0.00     0.042 C 
BRANCH  26  27
ATOM     27  C   UNL A   1      38.393  20.760  25.573  1.00  0.00     0.118 C 
BRANCH  27  28
ATOM     28  N   UNL A   1      39.403  19.711  25.658  1.00  0.00    -0.352 N 
ATOM     29  C   UNL A   1      40.730  19.770  26.007  1.00  0.00     0.251 C 
ATOM     30  H   UNL A   1      39.079  18.810  25.429  1.00  0.00     0.163 HD
ATOM     31  O   UNL A   1      41.450  18.790  25.831  1.00  0.00    -0.269 OA
BRANCH  29  32
ATOM     32  C   UNL A   1      41.309  21.014  26.558  1.00  0.00     0.039 A 
ATOM     33  C   UNL A   1      41.951  21.903  25.690  1.00  0.00     0.014 A 
ATOM     34  C   UNL A   1      41.227  21.307  27.920  1.00  0.00     0.014 A 
ATOM     35  C   UNL A   1      42.412  23.132  26.170  1.00  0.00     0.010 A 
ATOM     36  C   UNL A   1      41.615  22.561  28.383  1.00  0.00     0.010 A 
ATOM     37  C   UNL A   1      42.191  23.494  27.508  1.00  0.00    -0.014 A 
BRANCH  37  38
ATOM     38  C   UNL A   1      42.508  24.854  28.012  1.00  0.00     0.031 A 
ATOM     39  C   UNL A   1      43.894  25.185  28.490  1.00  0.00     0.074 A 
ATOM     40  C   UNL A   1      41.519  25.762  28.134  1.00  0.00     0.049 A 
ATOM     41  N   UNL A   1      44.321  26.259  29.103  1.00  0.00    -0.248 NA
ATOM     42  C   UNL A   1      44.932  24.165  28.266  1.00  0.00     0.031 C 
ATOM     43  C   UNL A   1      40.125  25.563  27.729  1.00  0.00     0.029 A 
ATOM     44  N   UNL A   1      41.533  27.033  28.655  1.00  0.00    -0.354 N 
ATOM     45  C   UNL A   1      45.669  26.040  29.353  1.00  0.00     0.074 A 
ATOM     46  C   UNL A   1      45.982  24.716  28.859  1.00  0.00     0.031 C 
ATOM     47  C   UNL A   1      39.423  26.674  28.002  1.00  0.00     0.029 A 
ATOM     48  C   UNL A   1      40.302  27.644  28.648  1.00  0.00     0.049 A 
ATOM     49  H   UNL A   1      42.347  27.465  28.999  1.00  0.00     0.167 HD
ATOM     50  C   UNL A   1      46.569  26.872  29.929  1.00  0.00     0.031 A 
ATOM     51  C   UNL A   1      39.915  28.838  29.132  1.00  0.00     0.031 A 
ATOM     52  C   UNL A   1      46.263  28.191  30.411  1.00  0.00     0.049 A 
ATOM     53  C   UNL A   1      40.922  29.716  29.818  1.00  0.00     0.074 A 
ATOM     54  C   UNL A   1      47.121  29.125  30.967  1.00  0.00     0.029 A 
ATOM     55  N   UNL A   1      45.002  28.763  30.398  1.00  0.00    -0.354 N 
ATOM     56  N   UNL A   1      42.202  29.510  30.010  1.00  0.00    -0.248 NA
ATOM     57  C   UNL A   1      40.427  30.990  30.362  1.00  0.00     0.031 C 
ATOM     58  C   UNL A   1      46.370  30.248  31.329  1.00  0.00     0.029 A 
ATOM     59  C   UNL A   1      45.053  30.027  30.959  1.00  0.00     0.049 A 
ATOM     60  H   UNL A   1      44.191  28.335  30.042  1.00  0.00     0.167 HD
ATOM     61  C   UNL A   1      42.668  30.632  30.679  1.00  0.00     0.074 A 
ATOM     62  C   UNL A   1      41.540  31.525  30.846  1.00  0.00     0.031 C 
ATOM     63  C   UNL A   1      43.921  30.900  31.119  1.00  0.00     0.031 A 
BRANCH  50  64
ATOM     64  C   UNL A   1      47.980  26.378  30.067  1.00  0.00    -0.014 A 
ATOM     65  C   UNL A   1      48.410  25.744  31.243  1.00  0.00     0.009 A 
ATOM     66  C   UNL A   1      48.873  26.498  28.991  1.00  0.00     0.009 A 
ATOM     67  C   UNL A   1      49.717  25.261  31.347  1.00  0.00     0.001 A 
ATOM     68  C   UNL A   1      50.171  25.995  29.090  1.00  0.00     0.001 A 
ATOM     69  C   UNL A   1      50.593  25.382  30.270  1.00  0.00     0.000 A 
ENDBRANCH  50  64
BRANCH  51  70
ATOM     70  C   UNL A   1      38.500  29.275  29.007  1.00  0.00    -0.014 A 
ATOM     71  C   UNL A   1      38.029  29.816  27.802  1.00  0.00     0.009 A 
ATOM     72  C   UNL A   1      37.622  29.176  30.097  1.00  0.00     0.009 A 
ATOM     73  C   UNL A   1      36.714  30.277  27.699  1.00  0.00     0.001 A 
ATOM     74  C   UNL A   1      36.300  29.614  29.984  1.00  0.00     0.001 A 
ATOM     75  C   UNL A   1      35.851  30.172  28.788  1.00  0.00     0.000 A 
ENDBRANCH  51  70
BRANCH  63  76
ATOM     76  C   UNL A   1      44.140  32.218  31.803  1.00  0.00    -0.014 A 
ATOM     77  C   UNL A   1      44.032  32.333  33.197  1.00  0.00     0.009 A 
ATOM     78  C   UNL A   1      44.500  33.345  31.048  1.00  0.00     0.009 A 
ATOM     79  C   UNL A   1      44.261  33.561  33.821  1.00  0.00     0.001 A 
ATOM     80  C   UNL A   1      44.750  34.565  31.677  1.00  0.00     0.001 A 
ATOM     81  C   UNL A   1      44.624  34.674  33.061  1.00  0.00     0.000 A 
ENDBRANCH  63  76
ENDBRANCH  37  38
ENDBRANCH  29  32
ENDBRANCH  27  28
ENDBRANCH  26  27
ENDBRANCH   1  26
TORSDOF 15
ENDMDL
