MODEL 1
REMARK VINA RESULT:     -12.2      0.000      0.000
REMARK SMILES Cc1ccc(NC(=O)C[C@@H](C(=O)NCCCNC(=O)c2ccc(-c3c4nc(c(-c5ccccc5)c5ccc([nH]5)c(-c5ccccc5)c5nc(c(-c6ccccc6)c6ccc3[nH]6)C=C5)C=C4)cc2)[NH+]2CCOCC2)cc1
REMARK SMILES IDX 14 1 13 2 11 3 12 4 10 6 9 7 7 8 6 9 8 11 5 12 1 13 2 14
REMARK SMILES IDX 3 15 75 16 4 17 74 18 68 19 69 20 73 21 70 23 72 24 71 25
REMARK SMILES IDX 15 26 16 27 17 28 18 29 19 31 20 32 21 33 67 34 22 35 66 36
REMARK SMILES IDX 23 37 24 38 25 39 60 40 26 41 65 42 59 43 61 44 27 45 64 46
REMARK SMILES IDX 58 47 57 48 28 50 50 51 35 52 49 53 36 54 39 55 48 56 62 57
REMARK SMILES IDX 37 58 38 59 47 61 63 62 40 63 29 64 30 65 34 66 31 67 33 68
REMARK SMILES IDX 32 69 51 70 52 71 56 72 53 73 55 74 54 75 41 76 42 77 46 78
REMARK SMILES IDX 43 79 45 80 44 81
REMARK H PARENT 13 5 6 10 68 22 17 30 61 49 39 60
REMARK Flexibility Score: inf
ROOT
ATOM      1  C   UNL A   1      31.980  29.919  25.785  1.00  0.00     0.118 C 
ENDROOT
BRANCH   1   2
ATOM      2  N   UNL A   1      32.936  29.735  24.715  1.00  0.00    -0.351 N 
ATOM      3  C   UNL A   1      33.077  28.764  23.771  1.00  0.00     0.278 C 
ATOM      4  O   UNL A   1      33.762  29.102  22.798  1.00  0.00    -0.268 OA
ATOM      5  H   UNL A   1      33.613  30.447  24.658  1.00  0.00     0.163 HD
BRANCH   3   6
ATOM      6  C   UNL A   1      32.385  27.361  23.875  1.00  0.00     0.283 C 
BRANCH   6   7
ATOM      7  C   UNL A   1      33.363  26.167  23.777  1.00  0.00     0.175 C 
BRANCH   7   8
ATOM      8  C   UNL A   1      33.623  25.500  22.450  1.00  0.00     0.230 C 
ATOM      9  N   UNL A   1      33.631  24.148  22.278  1.00  0.00    -0.326 N 
ATOM     10  H   UNL A   1      33.823  23.859  21.357  1.00  0.00     0.169 HD
ATOM     11  O   UNL A   1      33.827  26.206  21.454  1.00  0.00    -0.274 OA
BRANCH   9  12
ATOM     12  C   UNL A   1      33.415  23.091  23.178  1.00  0.00     0.041 A 
ATOM     13  C   UNL A   1      33.259  19.364  25.319  1.00  0.00     0.044 C 
ATOM     14  C   UNL A   1      33.295  20.723  24.689  1.00  0.00    -0.051 A 
ATOM     15  C   UNL A   1      32.149  21.232  24.074  1.00  0.00     0.005 A 
ATOM     16  C   UNL A   1      34.476  21.465  24.633  1.00  0.00     0.005 A 
ATOM     17  C   UNL A   1      32.207  22.417  23.336  1.00  0.00     0.026 A 
ATOM     18  C   UNL A   1      34.530  22.653  23.900  1.00  0.00     0.026 A 
ENDBRANCH   9  12
ENDBRANCH   7   8
ENDBRANCH   6   7
BRANCH   6  19
ATOM     19  N   UNL A   1      31.309  27.269  22.831  1.00  0.00    -0.320 N 
ATOM     20  C   UNL A   1      30.681  28.566  22.487  1.00  0.00     0.291 C 
ATOM     21  C   UNL A   1      30.251  26.254  22.977  1.00  0.00     0.291 C 
ATOM     22  H   UNL A   1      31.890  26.932  22.064  1.00  0.00     0.348 HD
ATOM     23  C   UNL A   1      29.480  28.938  23.373  1.00  0.00     0.221 C 
ATOM     24  C   UNL A   1      29.059  26.677  23.843  1.00  0.00     0.221 C 
ATOM     25  O   UNL A   1      28.491  27.905  23.381  1.00  0.00    -0.370 OA
ENDBRANCH   6  19
ENDBRANCH   3   6
ENDBRANCH   1   2
BRANCH   1  26
ATOM     26  C   UNL A   1      32.511  30.703  26.988  1.00  0.00     0.042 C 
BRANCH  26  27
ATOM     27  C   UNL A   1      33.911  30.315  27.471  1.00  0.00     0.118 C 
BRANCH  27  28
ATOM     28  N   UNL A   1      34.407  31.193  28.532  1.00  0.00    -0.352 N 
ATOM     29  C   UNL A   1      35.614  31.187  29.202  1.00  0.00     0.251 C 
ATOM     30  H   UNL A   1      33.781  31.900  28.811  1.00  0.00     0.163 HD
ATOM     31  O   UNL A   1      35.922  32.133  29.923  1.00  0.00    -0.269 OA
BRANCH  29  32
ATOM     32  C   UNL A   1      36.586  30.101  28.959  1.00  0.00     0.039 A 
ATOM     33  C   UNL A   1      36.876  29.225  30.010  1.00  0.00     0.014 A 
ATOM     34  C   UNL A   1      37.314  30.042  27.773  1.00  0.00     0.014 A 
ATOM     35  C   UNL A   1      38.052  28.481  29.972  1.00  0.00     0.010 A 
ATOM     36  C   UNL A   1      38.517  29.360  27.762  1.00  0.00     0.010 A 
ATOM     37  C   UNL A   1      38.922  28.650  28.895  1.00  0.00    -0.014 A 
BRANCH  37  38
ATOM     38  C   UNL A   1      40.324  28.252  28.961  1.00  0.00     0.031 A 
ATOM     39  C   UNL A   1      40.783  26.963  28.423  1.00  0.00     0.074 A 
ATOM     40  C   UNL A   1      41.226  29.087  29.524  1.00  0.00     0.049 A 
ATOM     41  N   UNL A   1      41.806  26.319  28.880  1.00  0.00    -0.248 NA
ATOM     42  C   UNL A   1      40.092  26.270  27.346  1.00  0.00     0.031 C 
ATOM     43  C   UNL A   1      42.682  28.973  29.503  1.00  0.00     0.029 A 
ATOM     44  N   UNL A   1      40.971  30.116  30.429  1.00  0.00    -0.354 N 
ATOM     45  C   UNL A   1      42.090  25.318  27.982  1.00  0.00     0.074 A 
ATOM     46  C   UNL A   1      40.939  25.264  27.106  1.00  0.00     0.031 C 
ATOM     47  C   UNL A   1      43.184  29.692  30.518  1.00  0.00     0.029 A 
ATOM     48  C   UNL A   1      42.066  30.171  31.313  1.00  0.00     0.049 A 
ATOM     49  H   UNL A   1      40.176  30.695  30.448  1.00  0.00     0.167 HD
ATOM     50  C   UNL A   1      43.326  24.744  27.982  1.00  0.00     0.031 A 
ATOM     51  C   UNL A   1      41.892  29.938  32.646  1.00  0.00     0.031 A 
ATOM     52  C   UNL A   1      44.187  25.256  29.050  1.00  0.00     0.049 A 
ATOM     53  C   UNL A   1      42.615  28.713  33.172  1.00  0.00     0.074 A 
ATOM     54  C   UNL A   1      45.279  26.110  29.084  1.00  0.00     0.029 A 
ATOM     55  N   UNL A   1      43.796  25.089  30.368  1.00  0.00    -0.354 N 
ATOM     56  N   UNL A   1      43.317  27.896  32.438  1.00  0.00    -0.248 NA
ATOM     57  C   UNL A   1      42.508  28.256  34.560  1.00  0.00     0.031 C 
ATOM     58  C   UNL A   1      45.544  26.443  30.443  1.00  0.00     0.029 A 
ATOM     59  C   UNL A   1      44.618  25.788  31.231  1.00  0.00     0.049 A 
ATOM     60  H   UNL A   1      43.029  24.542  30.654  1.00  0.00     0.167 HD
ATOM     61  C   UNL A   1      43.686  26.812  33.188  1.00  0.00     0.074 A 
ATOM     62  C   UNL A   1      43.168  27.085  34.514  1.00  0.00     0.031 C 
ATOM     63  C   UNL A   1      44.346  25.743  32.657  1.00  0.00     0.031 A 
BRANCH  50  64
ATOM     64  C   UNL A   1      43.839  23.900  26.838  1.00  0.00    -0.014 A 
ATOM     65  C   UNL A   1      44.626  24.490  25.831  1.00  0.00     0.009 A 
ATOM     66  C   UNL A   1      43.551  22.535  26.666  1.00  0.00     0.009 A 
ATOM     67  C   UNL A   1      44.998  23.797  24.672  1.00  0.00     0.001 A 
ATOM     68  C   UNL A   1      43.882  21.845  25.492  1.00  0.00     0.001 A 
ATOM     69  C   UNL A   1      44.595  22.482  24.486  1.00  0.00     0.000 A 
ENDBRANCH  50  64
BRANCH  51  70
ATOM     70  C   UNL A   1      40.584  30.430  33.163  1.00  0.00    -0.014 A 
ATOM     71  C   UNL A   1      40.350  31.819  33.176  1.00  0.00     0.009 A 
ATOM     72  C   UNL A   1      39.491  29.564  33.298  1.00  0.00     0.009 A 
ATOM     73  C   UNL A   1      39.046  32.325  33.213  1.00  0.00     0.001 A 
ATOM     74  C   UNL A   1      38.188  30.075  33.346  1.00  0.00     0.001 A 
ATOM     75  C   UNL A   1      37.966  31.450  33.268  1.00  0.00     0.000 A 
ENDBRANCH  51  70
BRANCH  63  76
ATOM     76  C   UNL A   1      44.774  24.541  33.450  1.00  0.00    -0.014 A 
ATOM     77  C   UNL A   1      46.103  24.325  33.838  1.00  0.00     0.009 A 
ATOM     78  C   UNL A   1      43.851  23.509  33.718  1.00  0.00     0.009 A 
ATOM     79  C   UNL A   1      46.480  23.155  34.510  1.00  0.00     0.001 A 
ATOM     80  C   UNL A   1      44.227  22.332  34.369  1.00  0.00     0.001 A 
ATOM     81  C   UNL A   1      45.542  22.159  34.775  1.00  0.00     0.000 A 
ENDBRANCH  63  76
ENDBRANCH  37  38
ENDBRANCH  29  32
ENDBRANCH  27  28
ENDBRANCH  26  27
ENDBRANCH   1  26
TORSDOF 14
ENDMDL
MODEL 2
REMARK VINA RESULT:     -12.1      1.514      4.057
REMARK SMILES Cc1ccc(NC(=O)C[C@@H](C(=O)NCCCNC(=O)c2ccc(-c3c4nc(c(-c5ccccc5)c5ccc([nH]5)c(-c5ccccc5)c5nc(c(-c6ccccc6)c6ccc3[nH]6)C=C5)C=C4)cc2)[NH+]2CCOCC2)cc1
REMARK SMILES IDX 14 1 13 2 11 3 12 4 10 6 9 7 7 8 6 9 8 11 5 12 1 13 2 14
REMARK SMILES IDX 3 15 75 16 4 17 74 18 68 19 69 20 73 21 70 23 72 24 71 25
REMARK SMILES IDX 15 26 16 27 17 28 18 29 19 31 20 32 21 33 67 34 22 35 66 36
REMARK SMILES IDX 23 37 24 38 25 39 60 40 26 41 65 42 59 43 61 44 27 45 64 46
REMARK SMILES IDX 58 47 57 48 28 50 50 51 35 52 49 53 36 54 39 55 48 56 62 57
REMARK SMILES IDX 37 58 38 59 47 61 63 62 40 63 29 64 30 65 34 66 31 67 33 68
REMARK SMILES IDX 32 69 51 70 52 71 56 72 53 73 55 74 54 75 41 76 42 77 46 78
REMARK SMILES IDX 43 79 45 80 44 81
REMARK H PARENT 13 5 6 10 68 22 17 30 61 49 39 60
REMARK Flexibility Score: inf
ROOT
ATOM      1  C   UNL A   1      32.721  28.082  27.303  1.00  0.00     0.118 C 
ENDROOT
BRANCH   1   2
ATOM      2  N   UNL A   1      31.495  27.325  27.170  1.00  0.00    -0.351 N 
ATOM      3  C   UNL A   1      30.977  26.595  26.144  1.00  0.00     0.278 C 
ATOM      4  O   UNL A   1      30.104  25.790  26.488  1.00  0.00    -0.268 OA
ATOM      5  H   UNL A   1      30.927  27.341  27.974  1.00  0.00     0.163 HD
BRANCH   3   6
ATOM      6  C   UNL A   1      31.480  26.721  24.664  1.00  0.00     0.283 C 
BRANCH   6   7
ATOM      7  C   UNL A   1      30.539  27.531  23.744  1.00  0.00     0.175 C 
BRANCH   7   8
ATOM      8  C   UNL A   1      29.127  27.065  23.494  1.00  0.00     0.230 C 
ATOM      9  N   UNL A   1      28.105  27.906  23.169  1.00  0.00    -0.326 N 
ATOM     10  H   UNL A   1      27.238  27.458  23.043  1.00  0.00     0.169 HD
ATOM     11  O   UNL A   1      28.873  25.856  23.571  1.00  0.00    -0.274 OA
BRANCH   9  12
ATOM     12  C   UNL A   1      28.065  29.298  22.980  1.00  0.00     0.041 A 
ATOM     13  C   UNL A   1      28.789  33.533  22.795  1.00  0.00     0.044 C 
ATOM     14  C   UNL A   1      28.454  32.073  22.757  1.00  0.00    -0.051 A 
ATOM     15  C   UNL A   1      27.502  31.558  23.639  1.00  0.00     0.005 A 
ATOM     16  C   UNL A   1      29.133  31.195  21.910  1.00  0.00     0.005 A 
ATOM     17  C   UNL A   1      27.299  30.180  23.738  1.00  0.00     0.026 A 
ATOM     18  C   UNL A   1      28.923  29.817  22.006  1.00  0.00     0.026 A 
ENDBRANCH   9  12
ENDBRANCH   7   8
ENDBRANCH   6   7
BRANCH   6  19
ATOM     19  N   UNL A   1      31.724  25.344  24.114  1.00  0.00    -0.320 N 
ATOM     20  C   UNL A   1      32.817  24.604  24.786  1.00  0.00     0.291 C 
ATOM     21  C   UNL A   1      31.856  25.164  22.658  1.00  0.00     0.291 C 
ATOM     22  H   UNL A   1      30.816  24.941  24.346  1.00  0.00     0.348 HD
ATOM     23  C   UNL A   1      34.209  24.849  24.180  1.00  0.00     0.221 C 
ATOM     24  C   UNL A   1      33.266  25.389  22.100  1.00  0.00     0.221 C 
ATOM     25  O   UNL A   1      34.228  24.577  22.776  1.00  0.00    -0.370 OA
ENDBRANCH   6  19
ENDBRANCH   3   6
ENDBRANCH   1   2
BRANCH   1  26
ATOM     26  C   UNL A   1      32.526  29.595  27.435  1.00  0.00     0.042 C 
BRANCH  26  27
ATOM     27  C   UNL A   1      33.762  30.453  27.154  1.00  0.00     0.118 C 
BRANCH  27  28
ATOM     28  N   UNL A   1      34.155  31.272  28.303  1.00  0.00    -0.352 N 
ATOM     29  C   UNL A   1      35.298  31.234  29.075  1.00  0.00     0.251 C 
ATOM     30  H   UNL A   1      33.500  31.959  28.565  1.00  0.00     0.163 HD
ATOM     31  O   UNL A   1      35.533  32.139  29.871  1.00  0.00    -0.269 OA
BRANCH  29  32
ATOM     32  C   UNL A   1      36.299  30.168  28.858  1.00  0.00     0.039 A 
ATOM     33  C   UNL A   1      36.624  29.337  29.935  1.00  0.00     0.014 A 
ATOM     34  C   UNL A   1      37.016  30.089  27.667  1.00  0.00     0.014 A 
ATOM     35  C   UNL A   1      37.821  28.626  29.909  1.00  0.00     0.010 A 
ATOM     36  C   UNL A   1      38.238  29.441  27.665  1.00  0.00     0.010 A 
ATOM     37  C   UNL A   1      38.675  28.782  28.817  1.00  0.00    -0.014 A 
BRANCH  37  38
ATOM     38  C   UNL A   1      40.088  28.427  28.881  1.00  0.00     0.031 A 
ATOM     39  C   UNL A   1      40.586  27.156  28.334  1.00  0.00     0.074 A 
ATOM     40  C   UNL A   1      40.964  29.285  29.449  1.00  0.00     0.049 A 
ATOM     41  N   UNL A   1      41.629  26.540  28.786  1.00  0.00    -0.248 NA
ATOM     42  C   UNL A   1      39.916  26.450  27.252  1.00  0.00     0.031 C 
ATOM     43  C   UNL A   1      42.423  29.215  29.428  1.00  0.00     0.029 A 
ATOM     44  N   UNL A   1      40.678  30.300  30.362  1.00  0.00    -0.354 N 
ATOM     45  C   UNL A   1      41.943  25.555  27.882  1.00  0.00     0.074 A 
ATOM     46  C   UNL A   1      40.793  25.473  27.005  1.00  0.00     0.031 C 
ATOM     47  C   UNL A   1      42.903  29.943  30.448  1.00  0.00     0.029 A 
ATOM     48  C   UNL A   1      41.770  30.382  31.246  1.00  0.00     0.049 A 
ATOM     49  H   UNL A   1      39.866  30.854  30.384  1.00  0.00     0.167 HD
ATOM     50  C   UNL A   1      43.195  25.019  27.877  1.00  0.00     0.031 A 
ATOM     51  C   UNL A   1      41.603  30.134  32.578  1.00  0.00     0.031 A 
ATOM     52  C   UNL A   1      44.041  25.549  28.949  1.00  0.00     0.049 A 
ATOM     53  C   UNL A   1      42.364  28.928  33.095  1.00  0.00     0.074 A 
ATOM     54  C   UNL A   1      45.106  26.436  28.990  1.00  0.00     0.029 A 
ATOM     55  N   UNL A   1      43.654  25.362  30.266  1.00  0.00    -0.354 N 
ATOM     56  N   UNL A   1      43.091  28.137  32.355  1.00  0.00    -0.248 NA
ATOM     57  C   UNL A   1      42.271  28.458  34.480  1.00  0.00     0.031 C 
ATOM     58  C   UNL A   1      45.360  26.767  30.351  1.00  0.00     0.029 A 
ATOM     59  C   UNL A   1      44.455  26.078  31.134  1.00  0.00     0.049 A 
ATOM     60  H   UNL A   1      42.905  24.790  30.548  1.00  0.00     0.167 HD
ATOM     61  C   UNL A   1      43.493  27.060  33.098  1.00  0.00     0.074 A 
ATOM     62  C   UNL A   1      42.966  27.308  34.426  1.00  0.00     0.031 C 
ATOM     63  C   UNL A   1      44.184  26.015  32.560  1.00  0.00     0.031 A 
BRANCH  50  64
ATOM     64  C   UNL A   1      43.734  24.199  26.728  1.00  0.00    -0.014 A 
ATOM     65  C   UNL A   1      43.637  22.795  26.764  1.00  0.00     0.009 A 
ATOM     66  C   UNL A   1      44.386  24.737  25.605  1.00  0.00     0.009 A 
ATOM     67  C   UNL A   1      44.254  21.979  25.806  1.00  0.00     0.001 A 
ATOM     68  C   UNL A   1      45.042  23.930  24.666  1.00  0.00     0.001 A 
ATOM     69  C   UNL A   1      44.988  22.548  24.775  1.00  0.00     0.000 A 
ENDBRANCH  50  64
BRANCH  51  70
ATOM     70  C   UNL A   1      40.282  30.582  33.097  1.00  0.00    -0.014 A 
ATOM     71  C   UNL A   1      40.006  31.964  33.122  1.00  0.00     0.009 A 
ATOM     72  C   UNL A   1      39.215  29.683  33.225  1.00  0.00     0.009 A 
ATOM     73  C   UNL A   1      38.688  32.429  33.162  1.00  0.00     0.001 A 
ATOM     74  C   UNL A   1      37.898  30.154  33.277  1.00  0.00     0.001 A 
ATOM     75  C   UNL A   1      37.634  31.522  33.209  1.00  0.00     0.000 A 
ENDBRANCH  51  70
BRANCH  63  76
ATOM     76  C   UNL A   1      44.649  24.821  33.344  1.00  0.00    -0.014 A 
ATOM     77  C   UNL A   1      45.980  24.653  33.748  1.00  0.00     0.009 A 
ATOM     78  C   UNL A   1      43.764  23.751  33.587  1.00  0.00     0.009 A 
ATOM     79  C   UNL A   1      46.394  23.491  34.412  1.00  0.00     0.001 A 
ATOM     80  C   UNL A   1      44.177  22.581  34.229  1.00  0.00     0.001 A 
ATOM     81  C   UNL A   1      45.493  22.455  34.652  1.00  0.00     0.000 A 
ENDBRANCH  63  76
ENDBRANCH  37  38
ENDBRANCH  29  32
ENDBRANCH  27  28
ENDBRANCH  26  27
ENDBRANCH   1  26
TORSDOF 14
ENDMDL
MODEL 3
REMARK VINA RESULT:     -12.0      3.728      8.998
REMARK SMILES Cc1ccc(NC(=O)C[C@@H](C(=O)NCCCNC(=O)c2ccc(-c3c4nc(c(-c5ccccc5)c5ccc([nH]5)c(-c5ccccc5)c5nc(c(-c6ccccc6)c6ccc3[nH]6)C=C5)C=C4)cc2)[NH+]2CCOCC2)cc1
REMARK SMILES IDX 14 1 13 2 11 3 12 4 10 6 9 7 7 8 6 9 8 11 5 12 1 13 2 14
REMARK SMILES IDX 3 15 75 16 4 17 74 18 68 19 69 20 73 21 70 23 72 24 71 25
REMARK SMILES IDX 15 26 16 27 17 28 18 29 19 31 20 32 21 33 67 34 22 35 66 36
REMARK SMILES IDX 23 37 24 38 25 39 60 40 26 41 65 42 59 43 61 44 27 45 64 46
REMARK SMILES IDX 58 47 57 48 28 50 50 51 35 52 49 53 36 54 39 55 48 56 62 57
REMARK SMILES IDX 37 58 38 59 47 61 63 62 40 63 29 64 30 65 34 66 31 67 33 68
REMARK SMILES IDX 32 69 51 70 52 71 56 72 53 73 55 74 54 75 41 76 42 77 46 78
REMARK SMILES IDX 43 79 45 80 44 81
REMARK H PARENT 13 5 6 10 68 22 17 30 61 49 39 60
REMARK Flexibility Score: inf
ROOT
ATOM      1  C   UNL A   1      37.009  21.509  24.403  1.00  0.00     0.118 C 
ENDROOT
BRANCH   1   2
ATOM      2  N   UNL A   1      35.883  22.100  25.095  1.00  0.00    -0.351 N 
ATOM      3  C   UNL A   1      34.606  21.672  25.296  1.00  0.00     0.278 C 
ATOM      4  O   UNL A   1      34.025  22.240  26.228  1.00  0.00    -0.268 OA
ATOM      5  H   UNL A   1      36.078  22.978  25.496  1.00  0.00     0.163 HD
BRANCH   3   6
ATOM      6  C   UNL A   1      33.946  20.522  24.460  1.00  0.00     0.283 C 
BRANCH   6   7
ATOM      7  C   UNL A   1      32.474  20.789  24.070  1.00  0.00     0.175 C 
BRANCH   7   8
ATOM      8  C   UNL A   1      32.130  21.317  22.700  1.00  0.00     0.230 C 
ATOM      9  N   UNL A   1      32.094  22.644  22.395  1.00  0.00    -0.326 N 
ATOM     10  H   UNL A   1      31.846  22.837  21.462  1.00  0.00     0.169 HD
ATOM     11  O   UNL A   1      31.879  20.512  21.794  1.00  0.00    -0.274 OA
BRANCH   9  12
ATOM     12  C   UNL A   1      32.346  23.789  23.170  1.00  0.00     0.041 A 
ATOM     13  C   UNL A   1      33.708  26.729  25.998  1.00  0.00     0.044 C 
ATOM     14  C   UNL A   1      33.205  25.805  24.931  1.00  0.00    -0.051 A 
ATOM     15  C   UNL A   1      31.904  25.302  25.007  1.00  0.00     0.005 A 
ATOM     16  C   UNL A   1      34.037  25.369  23.899  1.00  0.00     0.005 A 
ATOM     17  C   UNL A   1      31.474  24.311  24.122  1.00  0.00     0.026 A 
ATOM     18  C   UNL A   1      33.602  24.382  23.010  1.00  0.00     0.026 A 
ENDBRANCH   9  12
ENDBRANCH   7   8
ENDBRANCH   6   7
BRANCH   6  19
ATOM     19  N   UNL A   1      34.083  19.230  25.215  1.00  0.00    -0.320 N 
ATOM     20  C   UNL A   1      34.982  18.243  24.577  1.00  0.00     0.291 C 
ATOM     21  C   UNL A   1      32.868  18.536  25.677  1.00  0.00     0.291 C 
ATOM     22  H   UNL A   1      34.504  19.611  26.062  1.00  0.00     0.348 HD
ATOM     23  C   UNL A   1      34.285  17.318  23.565  1.00  0.00     0.221 C 
ATOM     24  C   UNL A   1      32.221  17.602  24.648  1.00  0.00     0.221 C 
ATOM     25  O   UNL A   1      33.163  16.649  24.148  1.00  0.00    -0.370 OA
ENDBRANCH   6  19
ENDBRANCH   3   6
ENDBRANCH   1   2
BRANCH   1  26
ATOM     26  C   UNL A   1      38.225  21.227  25.289  1.00  0.00     0.042 C 
BRANCH  26  27
ATOM     27  C   UNL A   1      38.723  22.403  26.132  1.00  0.00     0.118 C 
BRANCH  27  28
ATOM     28  N   UNL A   1      40.172  22.593  26.039  1.00  0.00    -0.352 N 
ATOM     29  C   UNL A   1      40.958  23.659  26.429  1.00  0.00     0.251 C 
ATOM     30  H   UNL A   1      40.663  21.841  25.635  1.00  0.00     0.163 HD
ATOM     31  O   UNL A   1      42.181  23.545  26.451  1.00  0.00    -0.269 OA
BRANCH  29  32
ATOM     32  C   UNL A   1      40.325  24.895  26.935  1.00  0.00     0.039 A 
ATOM     33  C   UNL A   1      40.645  26.105  26.310  1.00  0.00     0.014 A 
ATOM     34  C   UNL A   1      39.558  24.884  28.097  1.00  0.00     0.014 A 
ATOM     35  C   UNL A   1      40.424  27.300  26.988  1.00  0.00     0.010 A 
ATOM     36  C   UNL A   1      39.401  26.063  28.803  1.00  0.00     0.010 A 
ATOM     37  C   UNL A   1      39.911  27.256  28.285  1.00  0.00    -0.014 A 
BRANCH  37  38
ATOM     38  C   UNL A   1      40.033  28.379  29.206  1.00  0.00     0.031 A 
ATOM     39  C   UNL A   1      38.966  29.384  29.338  1.00  0.00     0.074 A 
ATOM     40  C   UNL A   1      41.147  28.503  29.962  1.00  0.00     0.049 A 
ATOM     41  N   UNL A   1      39.176  30.613  29.678  1.00  0.00    -0.248 NA
ATOM     42  C   UNL A   1      37.570  29.089  29.051  1.00  0.00     0.031 C 
ATOM     43  C   UNL A   1      41.373  29.420  31.075  1.00  0.00     0.029 A 
ATOM     44  N   UNL A   1      42.399  27.942  29.714  1.00  0.00    -0.354 N 
ATOM     45  C   UNL A   1      37.953  31.172  29.956  1.00  0.00     0.074 A 
ATOM     46  C   UNL A   1      36.984  30.222  29.452  1.00  0.00     0.031 C 
ATOM     47  C   UNL A   1      42.695  29.563  31.253  1.00  0.00     0.029 A 
ATOM     48  C   UNL A   1      43.362  28.861  30.169  1.00  0.00     0.049 A 
ATOM     49  H   UNL A   1      42.576  27.068  29.299  1.00  0.00     0.167 HD
ATOM     50  C   UNL A   1      37.886  32.305  30.711  1.00  0.00     0.031 A 
ATOM     51  C   UNL A   1      44.249  29.424  29.297  1.00  0.00     0.031 A 
ATOM     52  C   UNL A   1      39.207  32.826  31.068  1.00  0.00     0.049 A 
ATOM     53  C   UNL A   1      44.119  30.927  29.147  1.00  0.00     0.074 A 
ATOM     54  C   UNL A   1      39.954  32.848  32.236  1.00  0.00     0.029 A 
ATOM     55  N   UNL A   1      40.075  33.208  30.057  1.00  0.00    -0.354 N 
ATOM     56  N   UNL A   1      43.218  31.656  29.745  1.00  0.00    -0.248 NA
ATOM     57  C   UNL A   1      44.936  31.711  28.217  1.00  0.00     0.031 C 
ATOM     58  C   UNL A   1      41.278  33.262  31.913  1.00  0.00     0.029 A 
ATOM     59  C   UNL A   1      41.332  33.495  30.553  1.00  0.00     0.049 A 
ATOM     60  H   UNL A   1      39.826  33.268  29.107  1.00  0.00     0.167 HD
ATOM     61  C   UNL A   1      43.271  32.935  29.260  1.00  0.00     0.074 A 
ATOM     62  C   UNL A   1      44.370  32.927  28.313  1.00  0.00     0.031 C 
ATOM     63  C   UNL A   1      42.379  33.897  29.631  1.00  0.00     0.031 A 
BRANCH  50  64
ATOM     64  C   UNL A   1      36.605  32.792  31.349  1.00  0.00    -0.014 A 
ATOM     65  C   UNL A   1      35.755  33.659  30.636  1.00  0.00     0.009 A 
ATOM     66  C   UNL A   1      36.198  32.475  32.656  1.00  0.00     0.009 A 
ATOM     67  C   UNL A   1      34.639  34.264  31.229  1.00  0.00     0.001 A 
ATOM     68  C   UNL A   1      35.109  33.107  33.272  1.00  0.00     0.001 A 
ATOM     69  C   UNL A   1      34.336  34.015  32.561  1.00  0.00     0.000 A 
ENDBRANCH  50  64
BRANCH  51  70
ATOM     70  C   UNL A   1      44.663  28.501  28.204  1.00  0.00    -0.014 A 
ATOM     71  C   UNL A   1      45.455  27.383  28.536  1.00  0.00     0.009 A 
ATOM     72  C   UNL A   1      44.017  28.521  26.962  1.00  0.00     0.009 A 
ATOM     73  C   UNL A   1      45.507  26.268  27.693  1.00  0.00     0.001 A 
ATOM     74  C   UNL A   1      44.082  27.407  26.115  1.00  0.00     0.001 A 
ATOM     75  C   UNL A   1      44.796  26.270  26.497  1.00  0.00     0.000 A 
ENDBRANCH  51  70
BRANCH  63  76
ATOM     76  C   UNL A   1      42.411  35.312  29.127  1.00  0.00    -0.014 A 
ATOM     77  C   UNL A   1      41.740  35.717  27.965  1.00  0.00     0.009 A 
ATOM     78  C   UNL A   1      43.244  36.264  29.751  1.00  0.00     0.009 A 
ATOM     79  C   UNL A   1      41.854  37.027  27.482  1.00  0.00     0.001 A 
ATOM     80  C   UNL A   1      43.378  37.564  29.261  1.00  0.00     0.001 A 
ATOM     81  C   UNL A   1      42.673  37.950  28.129  1.00  0.00     0.000 A 
ENDBRANCH  63  76
ENDBRANCH  37  38
ENDBRANCH  29  32
ENDBRANCH  27  28
ENDBRANCH  26  27
ENDBRANCH   1  26
TORSDOF 14
ENDMDL
