MODEL 1
REMARK VINA RESULT:     -11.9      0.000      0.000
REMARK SMILES O=C(Cc1ccccc1C(=O)NCCCNC(=O)c1ccc(-c2c3nc(c(-c4ccccc4)c4ccc([nH]4)c(-c4ccccc4)c4nc(c(-c5ccccc5)c5ccc2[nH]5)C=C4)C=C3)cc1)Nc1cccc(OC[C@@H]2CCCO2)c1
REMARK SMILES IDX 10 1 11 2 12 3 9 5 4 6 5 7 6 8 8 9 7 10 3 11 2 12 1 13 67 14
REMARK SMILES IDX 68 16 69 17 80 18 70 19 72 20 71 21 73 22 74 23 75 24 76 25
REMARK SMILES IDX 79 26 77 27 78 28 13 29 14 30 15 31 16 32 17 33 18 35 19 36
REMARK SMILES IDX 20 37 66 38 21 39 65 40 22 41 23 42 24 43 59 44 25 45 64 46
REMARK SMILES IDX 58 47 60 48 26 49 63 50 57 51 56 52 27 54 49 55 34 56 48 57
REMARK SMILES IDX 35 58 38 59 47 60 61 61 36 62 37 63 46 65 62 66 39 67 28 68
REMARK SMILES IDX 29 69 33 70 30 71 32 72 31 73 50 74 51 75 55 76 52 77 54 78
REMARK SMILES IDX 53 79 40 80 41 81 45 82 42 83 44 84 43 85
REMARK H PARENT 12 4 67 15 16 34 60 53 38 64
REMARK Flexibility Score: inf
ROOT
ATOM      1  C   UNL A   1      34.894  20.834  25.634  1.00  0.00     0.251 C 
ATOM      2  O   UNL A   1      34.332  21.199  26.675  1.00  0.00    -0.269 OA
ATOM      3  N   UNL A   1      36.210  21.199  25.554  1.00  0.00    -0.352 N 
ATOM      4  H   UNL A   1      36.532  21.589  26.398  1.00  0.00     0.163 HD
ENDROOT
BRANCH   1   5
ATOM      5  C   UNL A   1      34.111  19.949  24.703  1.00  0.00     0.043 A 
ATOM      6  C   UNL A   1      32.874  20.140  24.049  1.00  0.00    -0.026 A 
ATOM      7  C   UNL A   1      32.326  19.070  23.291  1.00  0.00     0.005 A 
ATOM      8  C   UNL A   1      32.937  17.824  23.209  1.00  0.00     0.000 A 
ATOM      9  C   UNL A   1      34.710  18.666  24.587  1.00  0.00     0.014 A 
ATOM     10  C   UNL A   1      34.134  17.619  23.866  1.00  0.00     0.001 A 
BRANCH   6  11
ATOM     11  C   UNL A   1      31.978  21.339  24.127  1.00  0.00     0.136 C 
BRANCH  11  12
ATOM     12  C   UNL A   1      32.535  22.578  23.471  1.00  0.00     0.228 C 
ATOM     13  O   UNL A   1      32.949  22.547  22.319  1.00  0.00    -0.274 OA
ATOM     14  N   UNL A   1      32.500  23.715  24.264  1.00  0.00    -0.326 N 
ATOM     15  H   UNL A   1      32.434  23.614  25.241  1.00  0.00     0.169 HD
BRANCH  14  16
ATOM     16  C   UNL A   1      32.558  25.009  23.715  1.00  0.00     0.044 A 
ATOM     17  C   UNL A   1      33.781  25.664  23.610  1.00  0.00     0.026 A 
ATOM     18  C   UNL A   1      31.388  25.641  23.279  1.00  0.00     0.072 A 
ATOM     19  C   UNL A   1      33.838  26.900  22.963  1.00  0.00     0.006 A 
ATOM     20  C   UNL A   1      31.437  26.861  22.619  1.00  0.00     0.121 A 
ATOM     21  C   UNL A   1      32.674  27.484  22.457  1.00  0.00     0.046 A 
BRANCH  20  22
ATOM     22  O   UNL A   1      30.374  27.529  22.092  1.00  0.00    -0.491 OA
BRANCH  22  23
ATOM     23  C   UNL A   1      29.596  28.384  22.933  1.00  0.00     0.261 C 
BRANCH  23  24
ATOM     24  C   UNL A   1      29.566  29.872  22.534  1.00  0.00     0.156 C 
ATOM     25  C   UNL A   1      28.669  30.743  23.405  1.00  0.00     0.038 C 
ATOM     26  O   UNL A   1      29.178  30.092  21.168  1.00  0.00    -0.375 OA
ATOM     27  C   UNL A   1      28.242  31.832  22.454  1.00  0.00     0.031 C 
ATOM     28  C   UNL A   1      28.139  31.078  21.147  1.00  0.00     0.161 C 
ENDBRANCH  23  24
ENDBRANCH  22  23
ENDBRANCH  20  22
ENDBRANCH  14  16
ENDBRANCH  11  12
ENDBRANCH   6  11
ENDBRANCH   1   5
BRANCH   3  29
ATOM     29  C   UNL A   1      37.251  21.160  24.547  1.00  0.00     0.118 C 
BRANCH  29  30
ATOM     30  C   UNL A   1      38.128  19.918  24.766  1.00  0.00     0.042 C 
BRANCH  30  31
ATOM     31  C   UNL A   1      38.937  19.937  26.062  1.00  0.00     0.118 C 
BRANCH  31  32
ATOM     32  N   UNL A   1      40.198  19.227  25.912  1.00  0.00    -0.352 N 
ATOM     33  C   UNL A   1      41.499  19.667  25.926  1.00  0.00     0.251 C 
ATOM     34  H   UNL A   1      40.102  18.257  25.777  1.00  0.00     0.163 HD
ATOM     35  O   UNL A   1      42.367  18.911  25.490  1.00  0.00    -0.269 OA
BRANCH  33  36
ATOM     36  C   UNL A   1      41.905  21.005  26.438  1.00  0.00     0.039 A 
ATOM     37  C   UNL A   1      41.778  21.249  27.814  1.00  0.00     0.014 A 
ATOM     38  C   UNL A   1      42.295  22.058  25.607  1.00  0.00     0.014 A 
ATOM     39  C   UNL A   1      42.051  22.515  28.349  1.00  0.00     0.010 A 
ATOM     40  C   UNL A   1      42.655  23.299  26.155  1.00  0.00     0.010 A 
ATOM     41  C   UNL A   1      42.511  23.555  27.529  1.00  0.00    -0.014 A 
BRANCH  41  42
ATOM     42  C   UNL A   1      42.786  24.918  28.078  1.00  0.00     0.031 A 
ATOM     43  C   UNL A   1      44.174  25.282  28.550  1.00  0.00     0.074 A 
ATOM     44  C   UNL A   1      41.802  25.834  28.186  1.00  0.00     0.049 A 
ATOM     45  N   UNL A   1      44.594  26.393  29.107  1.00  0.00    -0.248 NA
ATOM     46  C   UNL A   1      45.225  24.269  28.375  1.00  0.00     0.031 C 
ATOM     47  C   UNL A   1      40.417  25.647  27.758  1.00  0.00     0.029 A 
ATOM     48  N   UNL A   1      41.812  27.106  28.712  1.00  0.00    -0.354 N 
ATOM     49  C   UNL A   1      45.950  26.208  29.348  1.00  0.00     0.074 A 
ATOM     50  C   UNL A   1      46.270  24.857  28.941  1.00  0.00     0.031 C 
ATOM     51  C   UNL A   1      39.706  26.746  28.061  1.00  0.00     0.029 A 
ATOM     52  C   UNL A   1      40.578  27.712  28.718  1.00  0.00     0.049 A 
ATOM     53  H   UNL A   1      42.628  27.541  29.051  1.00  0.00     0.167 HD
ATOM     54  C   UNL A   1      46.862  27.087  29.828  1.00  0.00     0.031 A 
ATOM     55  C   UNL A   1      40.181  28.904  29.203  1.00  0.00     0.031 A 
ATOM     56  C   UNL A   1      46.566  28.437  30.225  1.00  0.00     0.049 A 
ATOM     57  C   UNL A   1      41.195  29.836  29.803  1.00  0.00     0.074 A 
ATOM     58  C   UNL A   1      47.438  29.415  30.674  1.00  0.00     0.029 A 
ATOM     59  N   UNL A   1      45.301  29.002  30.222  1.00  0.00    -0.354 N 
ATOM     60  N   UNL A   1      42.484  29.664  29.956  1.00  0.00    -0.248 NA
ATOM     61  C   UNL A   1      40.701  31.142  30.265  1.00  0.00     0.031 C 
ATOM     62  C   UNL A   1      46.693  30.557  30.988  1.00  0.00     0.029 A 
ATOM     63  C   UNL A   1      45.366  30.307  30.681  1.00  0.00     0.049 A 
ATOM     64  H   UNL A   1      44.477  28.543  29.937  1.00  0.00     0.167 HD
ATOM     65  C   UNL A   1      42.964  30.858  30.479  1.00  0.00     0.074 A 
ATOM     66  C   UNL A   1      41.828  31.745  30.617  1.00  0.00     0.031 C 
ATOM     67  C   UNL A   1      44.237  31.191  30.804  1.00  0.00     0.031 A 
BRANCH  54  68
ATOM     68  C   UNL A   1      48.286  26.614  29.938  1.00  0.00    -0.014 A 
ATOM     69  C   UNL A   1      49.210  26.858  28.908  1.00  0.00     0.009 A 
ATOM     70  C   UNL A   1      48.722  25.956  31.098  1.00  0.00     0.009 A 
ATOM     71  C   UNL A   1      50.531  26.419  29.023  1.00  0.00     0.001 A 
ATOM     72  C   UNL A   1      50.049  25.545  31.223  1.00  0.00     0.001 A 
ATOM     73  C   UNL A   1      50.950  25.768  30.182  1.00  0.00     0.000 A 
ENDBRANCH  54  68
BRANCH  55  74
ATOM     74  C   UNL A   1      38.750  29.306  29.120  1.00  0.00    -0.014 A 
ATOM     75  C   UNL A   1      37.880  29.074  30.197  1.00  0.00     0.009 A 
ATOM     76  C   UNL A   1      38.242  29.897  27.953  1.00  0.00     0.009 A 
ATOM     77  C   UNL A   1      36.524  29.393  30.094  1.00  0.00     0.001 A 
ATOM     78  C   UNL A   1      36.891  30.240  27.863  1.00  0.00     0.001 A 
ATOM     79  C   UNL A   1      36.031  29.977  28.928  1.00  0.00     0.000 A 
ENDBRANCH  55  74
BRANCH  67  80
ATOM     80  C   UNL A   1      44.483  32.595  31.277  1.00  0.00    -0.014 A 
ATOM     81  C   UNL A   1      44.450  32.930  32.639  1.00  0.00     0.009 A 
ATOM     82  C   UNL A   1      44.781  33.597  30.338  1.00  0.00     0.009 A 
ATOM     83  C   UNL A   1      44.674  34.246  33.048  1.00  0.00     0.001 A 
ATOM     84  C   UNL A   1      45.035  34.904  30.753  1.00  0.00     0.001 A 
ATOM     85  C   UNL A   1      44.971  35.231  32.106  1.00  0.00     0.000 A 
ENDBRANCH  67  80
ENDBRANCH  41  42
ENDBRANCH  33  36
ENDBRANCH  31  32
ENDBRANCH  30  31
ENDBRANCH  29  30
ENDBRANCH   3  29
TORSDOF 16
ENDMDL
MODEL 2
REMARK VINA RESULT:     -11.9      0.646      5.744
REMARK SMILES O=C(Cc1ccccc1C(=O)NCCCNC(=O)c1ccc(-c2c3nc(c(-c4ccccc4)c4ccc([nH]4)c(-c4ccccc4)c4nc(c(-c5ccccc5)c5ccc2[nH]5)C=C4)C=C3)cc1)Nc1cccc(OC[C@@H]2CCCO2)c1
REMARK SMILES IDX 10 1 11 2 12 3 9 5 4 6 5 7 6 8 8 9 7 10 3 11 2 12 1 13 67 14
REMARK SMILES IDX 68 16 69 17 80 18 70 19 72 20 71 21 73 22 74 23 75 24 76 25
REMARK SMILES IDX 79 26 77 27 78 28 13 29 14 30 15 31 16 32 17 33 18 35 19 36
REMARK SMILES IDX 20 37 66 38 21 39 65 40 22 41 23 42 24 43 59 44 25 45 64 46
REMARK SMILES IDX 58 47 60 48 26 49 63 50 57 51 56 52 27 54 49 55 34 56 48 57
REMARK SMILES IDX 35 58 38 59 47 60 61 61 36 62 37 63 46 65 62 66 39 67 28 68
REMARK SMILES IDX 29 69 33 70 30 71 32 72 31 73 50 74 51 75 55 76 52 77 54 78
REMARK SMILES IDX 53 79 40 80 41 81 45 82 42 83 44 84 43 85
REMARK H PARENT 12 4 67 15 16 34 60 53 38 64
REMARK Flexibility Score: inf
ROOT
ATOM      1  C   UNL A   1      34.903  20.724  25.562  1.00  0.00     0.251 C 
ATOM      2  O   UNL A   1      34.325  21.104  26.588  1.00  0.00    -0.269 OA
ATOM      3  N   UNL A   1      36.203  21.140  25.468  1.00  0.00    -0.352 N 
ATOM      4  H   UNL A   1      36.507  21.574  26.298  1.00  0.00     0.163 HD
ENDROOT
BRANCH   1   5
ATOM      5  C   UNL A   1      34.159  19.775  24.662  1.00  0.00     0.043 A 
ATOM      6  C   UNL A   1      32.905  19.880  24.022  1.00  0.00    -0.026 A 
ATOM      7  C   UNL A   1      32.408  18.763  23.297  1.00  0.00     0.005 A 
ATOM      8  C   UNL A   1      33.088  17.552  23.235  1.00  0.00     0.000 A 
ATOM      9  C   UNL A   1      34.828  18.525  24.567  1.00  0.00     0.014 A 
ATOM     10  C   UNL A   1      34.302  17.430  23.880  1.00  0.00     0.001 A 
BRANCH   6  11
ATOM     11  C   UNL A   1      31.943  21.029  24.085  1.00  0.00     0.136 C 
BRANCH  11  12
ATOM     12  C   UNL A   1      32.392  22.260  23.338  1.00  0.00     0.228 C 
ATOM     13  O   UNL A   1      32.575  22.228  22.127  1.00  0.00    -0.274 OA
ATOM     14  N   UNL A   1      32.538  23.392  24.126  1.00  0.00    -0.326 N 
ATOM     15  H   UNL A   1      32.660  23.284  25.097  1.00  0.00     0.169 HD
BRANCH  14  16
ATOM     16  C   UNL A   1      32.519  24.688  23.580  1.00  0.00     0.044 A 
ATOM     17  C   UNL A   1      33.711  25.302  23.210  1.00  0.00     0.026 A 
ATOM     18  C   UNL A   1      31.305  25.363  23.413  1.00  0.00     0.072 A 
ATOM     19  C   UNL A   1      33.668  26.541  22.568  1.00  0.00     0.006 A 
ATOM     20  C   UNL A   1      31.250  26.587  22.762  1.00  0.00     0.121 A 
ATOM     21  C   UNL A   1      32.442  27.169  22.332  1.00  0.00     0.046 A 
BRANCH  20  22
ATOM     22  O   UNL A   1      30.121  27.296  22.483  1.00  0.00    -0.491 OA
BRANCH  22  23
ATOM     23  C   UNL A   1      29.743  28.377  23.337  1.00  0.00     0.261 C 
BRANCH  23  24
ATOM     24  C   UNL A   1      29.768  29.779  22.697  1.00  0.00     0.156 C 
ATOM     25  C   UNL A   1      28.966  30.833  23.451  1.00  0.00     0.038 C 
ATOM     26  O   UNL A   1      29.317  29.794  21.333  1.00  0.00    -0.375 OA
ATOM     27  C   UNL A   1      28.544  31.774  22.352  1.00  0.00     0.031 C 
ATOM     28  C   UNL A   1      28.330  30.824  21.196  1.00  0.00     0.161 C 
ENDBRANCH  23  24
ENDBRANCH  22  23
ENDBRANCH  20  22
ENDBRANCH  14  16
ENDBRANCH  11  12
ENDBRANCH   6  11
ENDBRANCH   1   5
BRANCH   3  29
ATOM     29  C   UNL A   1      37.246  21.108  24.464  1.00  0.00     0.118 C 
BRANCH  29  30
ATOM     30  C   UNL A   1      38.200  19.939  24.755  1.00  0.00     0.042 C 
BRANCH  30  31
ATOM     31  C   UNL A   1      39.063  20.124  26.003  1.00  0.00     0.118 C 
BRANCH  31  32
ATOM     32  N   UNL A   1      40.263  19.304  25.945  1.00  0.00    -0.352 N 
ATOM     33  C   UNL A   1      41.595  19.636  25.987  1.00  0.00     0.251 C 
ATOM     34  H   UNL A   1      40.090  18.339  25.862  1.00  0.00     0.163 HD
ATOM     35  O   UNL A   1      42.411  18.786  25.631  1.00  0.00    -0.269 OA
BRANCH  33  36
ATOM     36  C   UNL A   1      42.095  20.964  26.439  1.00  0.00     0.039 A 
ATOM     37  C   UNL A   1      42.187  21.198  27.819  1.00  0.00     0.014 A 
ATOM     38  C   UNL A   1      42.366  22.019  25.565  1.00  0.00     0.014 A 
ATOM     39  C   UNL A   1      42.556  22.455  28.314  1.00  0.00     0.010 A 
ATOM     40  C   UNL A   1      42.824  23.250  26.058  1.00  0.00     0.010 A 
ATOM     41  C   UNL A   1      42.899  23.496  27.439  1.00  0.00    -0.014 A 
BRANCH  41  42
ATOM     42  C   UNL A   1      43.275  24.851  27.948  1.00  0.00     0.031 A 
ATOM     43  C   UNL A   1      42.211  25.895  28.190  1.00  0.00     0.074 A 
ATOM     44  C   UNL A   1      44.565  25.174  28.174  1.00  0.00     0.049 A 
ATOM     45  N   UNL A   1      42.346  27.142  28.576  1.00  0.00    -0.248 NA
ATOM     46  C   UNL A   1      40.815  25.488  27.972  1.00  0.00     0.031 C 
ATOM     47  C   UNL A   1      45.707  24.276  28.008  1.00  0.00     0.029 A 
ATOM     48  N   UNL A   1      45.137  26.360  28.573  1.00  0.00    -0.354 N 
ATOM     49  C   UNL A   1      41.059  27.661  28.641  1.00  0.00     0.074 A 
ATOM     50  C   UNL A   1      40.161  26.619  28.193  1.00  0.00     0.031 C 
ATOM     51  C   UNL A   1      46.840  24.945  28.276  1.00  0.00     0.029 A 
ATOM     52  C   UNL A   1      46.511  26.324  28.616  1.00  0.00     0.049 A 
ATOM     53  H   UNL A   1      44.612  27.159  28.806  1.00  0.00     0.167 HD
ATOM     54  C   UNL A   1      40.648  28.879  29.071  1.00  0.00     0.031 A 
ATOM     55  C   UNL A   1      47.413  27.286  28.889  1.00  0.00     0.031 A 
ATOM     56  C   UNL A   1      41.524  29.921  29.533  1.00  0.00     0.049 A 
ATOM     57  C   UNL A   1      46.939  28.655  29.288  1.00  0.00     0.074 A 
ATOM     58  C   UNL A   1      41.191  31.168  30.035  1.00  0.00     0.029 A 
ATOM     59  N   UNL A   1      42.907  29.841  29.549  1.00  0.00    -0.354 N 
ATOM     60  N   UNL A   1      45.714  29.101  29.410  1.00  0.00    -0.248 NA
ATOM     61  C   UNL A   1      47.976  29.642  29.623  1.00  0.00     0.031 C 
ATOM     62  C   UNL A   1      42.375  31.861  30.311  1.00  0.00     0.029 A 
ATOM     63  C   UNL A   1      43.442  31.024  30.033  1.00  0.00     0.049 A 
ATOM     64  H   UNL A   1      43.433  29.060  29.259  1.00  0.00     0.167 HD
ATOM     65  C   UNL A   1      45.830  30.400  29.887  1.00  0.00     0.074 A 
ATOM     66  C   UNL A   1      47.245  30.670  30.033  1.00  0.00     0.031 C 
ATOM     67  C   UNL A   1      44.849  31.284  30.189  1.00  0.00     0.031 A 
BRANCH  54  68
ATOM     68  C   UNL A   1      39.167  29.146  29.073  1.00  0.00    -0.014 A 
ATOM     69  C   UNL A   1      38.390  28.889  30.215  1.00  0.00     0.009 A 
ATOM     70  C   UNL A   1      38.550  29.699  27.942  1.00  0.00     0.009 A 
ATOM     71  C   UNL A   1      37.017  29.147  30.209  1.00  0.00     0.001 A 
ATOM     72  C   UNL A   1      37.184  29.983  27.948  1.00  0.00     0.001 A 
ATOM     73  C   UNL A   1      36.417  29.699  29.077  1.00  0.00     0.000 A 
ENDBRANCH  54  68
BRANCH  55  74
ATOM     74  C   UNL A   1      48.869  26.988  28.820  1.00  0.00    -0.014 A 
ATOM     75  C   UNL A   1      49.560  26.532  29.954  1.00  0.00     0.009 A 
ATOM     76  C   UNL A   1      49.582  27.186  27.627  1.00  0.00     0.009 A 
ATOM     77  C   UNL A   1      50.939  26.315  29.905  1.00  0.00     0.001 A 
ATOM     78  C   UNL A   1      50.956  26.941  27.573  1.00  0.00     0.001 A 
ATOM     79  C   UNL A   1      51.635  26.518  28.714  1.00  0.00     0.000 A 
ENDBRANCH  55  74
BRANCH  67  80
ATOM     80  C   UNL A   1      45.266  32.604  30.772  1.00  0.00    -0.014 A 
ATOM     81  C   UNL A   1      45.508  33.723  29.961  1.00  0.00     0.009 A 
ATOM     82  C   UNL A   1      45.392  32.734  32.165  1.00  0.00     0.009 A 
ATOM     83  C   UNL A   1      45.902  34.936  30.531  1.00  0.00     0.001 A 
ATOM     84  C   UNL A   1      45.756  33.955  32.733  1.00  0.00     0.001 A 
ATOM     85  C   UNL A   1      46.021  35.052  31.915  1.00  0.00     0.000 A 
ENDBRANCH  67  80
ENDBRANCH  41  42
ENDBRANCH  33  36
ENDBRANCH  31  32
ENDBRANCH  30  31
ENDBRANCH  29  30
ENDBRANCH   3  29
TORSDOF 16
ENDMDL
MODEL 3
REMARK VINA RESULT:     -11.8      2.066      8.596
REMARK SMILES O=C(Cc1ccccc1C(=O)NCCCNC(=O)c1ccc(-c2c3nc(c(-c4ccccc4)c4ccc([nH]4)c(-c4ccccc4)c4nc(c(-c5ccccc5)c5ccc2[nH]5)C=C4)C=C3)cc1)Nc1cccc(OC[C@@H]2CCCO2)c1
REMARK SMILES IDX 10 1 11 2 12 3 9 5 4 6 5 7 6 8 8 9 7 10 3 11 2 12 1 13 67 14
REMARK SMILES IDX 68 16 69 17 80 18 70 19 72 20 71 21 73 22 74 23 75 24 76 25
REMARK SMILES IDX 79 26 77 27 78 28 13 29 14 30 15 31 16 32 17 33 18 35 19 36
REMARK SMILES IDX 20 37 66 38 21 39 65 40 22 41 23 42 24 43 59 44 25 45 64 46
REMARK SMILES IDX 58 47 60 48 26 49 63 50 57 51 56 52 27 54 49 55 34 56 48 57
REMARK SMILES IDX 35 58 38 59 47 60 61 61 36 62 37 63 46 65 62 66 39 67 28 68
REMARK SMILES IDX 29 69 33 70 30 71 32 72 31 73 50 74 51 75 55 76 52 77 54 78
REMARK SMILES IDX 53 79 40 80 41 81 45 82 42 83 44 84 43 85
REMARK H PARENT 12 4 67 15 16 34 60 53 38 64
REMARK Flexibility Score: inf
ROOT
ATOM      1  C   UNL A   1      30.891  26.580  25.803  1.00  0.00     0.251 C 
ATOM      2  O   UNL A   1      30.367  25.458  25.776  1.00  0.00    -0.269 OA
ATOM      3  N   UNL A   1      31.285  26.980  27.051  1.00  0.00    -0.352 N 
ATOM      4  H   UNL A   1      31.198  26.254  27.710  1.00  0.00     0.163 HD
ENDROOT
BRANCH   1   5
ATOM      5  C   UNL A   1      31.138  27.258  24.483  1.00  0.00     0.043 A 
ATOM      6  C   UNL A   1      32.278  27.304  23.653  1.00  0.00    -0.026 A 
ATOM      7  C   UNL A   1      32.247  28.119  22.488  1.00  0.00     0.005 A 
ATOM      8  C   UNL A   1      31.153  28.910  22.161  1.00  0.00     0.000 A 
ATOM      9  C   UNL A   1      30.035  28.073  24.110  1.00  0.00     0.014 A 
ATOM     10  C   UNL A   1      30.042  28.893  22.980  1.00  0.00     0.001 A 
BRANCH   6  11
ATOM     11  C   UNL A   1      33.609  26.656  23.894  1.00  0.00     0.136 C 
BRANCH  11  12
ATOM     12  C   UNL A   1      33.648  25.179  23.587  1.00  0.00     0.228 C 
ATOM     13  O   UNL A   1      34.015  24.775  22.491  1.00  0.00    -0.274 OA
ATOM     14  N   UNL A   1      33.272  24.361  24.642  1.00  0.00    -0.326 N 
ATOM     15  H   UNL A   1      32.726  24.739  25.368  1.00  0.00     0.169 HD
BRANCH  14  16
ATOM     16  C   UNL A   1      33.647  23.007  24.704  1.00  0.00     0.044 A 
ATOM     17  C   UNL A   1      34.942  22.662  25.077  1.00  0.00     0.026 A 
ATOM     18  C   UNL A   1      32.722  22.006  24.387  1.00  0.00     0.072 A 
ATOM     19  C   UNL A   1      35.267  21.315  25.242  1.00  0.00     0.006 A 
ATOM     20  C   UNL A   1      33.030  20.665  24.564  1.00  0.00     0.121 A 
ATOM     21  C   UNL A   1      34.309  20.325  25.002  1.00  0.00     0.046 A 
BRANCH  20  22
ATOM     22  O   UNL A   1      32.188  19.615  24.355  1.00  0.00    -0.491 OA
BRANCH  22  23
ATOM     23  C   UNL A   1      32.477  18.678  23.316  1.00  0.00     0.261 C 
BRANCH  23  24
ATOM     24  C   UNL A   1      32.797  17.242  23.776  1.00  0.00     0.156 C 
ATOM     25  C   UNL A   1      32.553  16.985  25.258  1.00  0.00     0.038 C 
ATOM     26  O   UNL A   1      34.144  16.834  23.487  1.00  0.00    -0.375 OA
ATOM     27  C   UNL A   1      33.560  15.908  25.575  1.00  0.00     0.031 C 
ATOM     28  C   UNL A   1      34.719  16.297  24.685  1.00  0.00     0.161 C 
ENDBRANCH  23  24
ENDBRANCH  22  23
ENDBRANCH  20  22
ENDBRANCH  14  16
ENDBRANCH  11  12
ENDBRANCH   6  11
ENDBRANCH   1   5
BRANCH   3  29
ATOM     29  C   UNL A   1      31.795  28.195  27.651  1.00  0.00     0.118 C 
BRANCH  29  30
ATOM     30  C   UNL A   1      33.293  28.333  27.334  1.00  0.00     0.042 C 
BRANCH  30  31
ATOM     31  C   UNL A   1      33.667  29.620  26.600  1.00  0.00     0.118 C 
BRANCH  31  32
ATOM     32  N   UNL A   1      33.722  30.754  27.509  1.00  0.00    -0.352 N 
ATOM     33  C   UNL A   1      34.621  31.092  28.491  1.00  0.00     0.251 C 
ATOM     34  H   UNL A   1      32.982  31.394  27.402  1.00  0.00     0.163 HD
ATOM     35  O   UNL A   1      34.286  31.948  29.309  1.00  0.00    -0.269 OA
BRANCH  33  36
ATOM     36  C   UNL A   1      35.972  30.475  28.612  1.00  0.00     0.039 A 
ATOM     37  C   UNL A   1      36.391  30.055  29.884  1.00  0.00     0.014 A 
ATOM     38  C   UNL A   1      36.878  30.400  27.553  1.00  0.00     0.014 A 
ATOM     39  C   UNL A   1      37.684  29.556  30.087  1.00  0.00     0.010 A 
ATOM     40  C   UNL A   1      38.141  29.816  27.738  1.00  0.00     0.010 A 
ATOM     41  C   UNL A   1      38.573  29.412  29.012  1.00  0.00    -0.014 A 
BRANCH  41  42
ATOM     42  C   UNL A   1      39.964  28.902  29.213  1.00  0.00     0.031 A 
ATOM     43  C   UNL A   1      41.036  29.811  29.766  1.00  0.00     0.074 A 
ATOM     44  C   UNL A   1      40.293  27.636  28.882  1.00  0.00     0.049 A 
ATOM     45  N   UNL A   1      42.310  29.568  29.959  1.00  0.00    -0.248 NA
ATOM     46  C   UNL A   1      40.624  31.169  30.153  1.00  0.00     0.031 C 
ATOM     47  C   UNL A   1      39.374  26.628  28.357  1.00  0.00     0.029 A 
ATOM     48  N   UNL A   1      41.505  26.984  28.920  1.00  0.00    -0.354 N 
ATOM     49  C   UNL A   1      42.846  30.738  30.483  1.00  0.00     0.074 A 
ATOM     50  C   UNL A   1      41.777  31.712  30.516  1.00  0.00     0.031 C 
ATOM     51  C   UNL A   1      40.053  25.499  28.096  1.00  0.00     0.029 A 
ATOM     52  C   UNL A   1      41.460  25.704  28.420  1.00  0.00     0.049 A 
ATOM     53  H   UNL A   1      42.326  27.396  29.272  1.00  0.00     0.167 HD
ATOM     54  C   UNL A   1      44.101  30.978  30.934  1.00  0.00     0.031 A 
ATOM     55  C   UNL A   1      42.434  24.794  28.231  1.00  0.00     0.031 A 
ATOM     56  C   UNL A   1      45.172  30.018  30.921  1.00  0.00     0.049 A 
ATOM     57  C   UNL A   1      43.837  25.107  28.666  1.00  0.00     0.074 A 
ATOM     58  C   UNL A   1      46.462  30.160  31.405  1.00  0.00     0.029 A 
ATOM     59  N   UNL A   1      45.080  28.739  30.397  1.00  0.00    -0.354 N 
ATOM     60  N   UNL A   1      44.304  26.197  29.224  1.00  0.00    -0.248 NA
ATOM     61  C   UNL A   1      44.840  24.049  28.478  1.00  0.00     0.031 C 
ATOM     62  C   UNL A   1      47.165  28.981  31.131  1.00  0.00     0.029 A 
ATOM     63  C   UNL A   1      46.296  28.088  30.527  1.00  0.00     0.049 A 
ATOM     64  H   UNL A   1      44.271  28.351  29.990  1.00  0.00     0.167 HD
ATOM     65  C   UNL A   1      45.639  25.936  29.503  1.00  0.00     0.074 A 
ATOM     66  C   UNL A   1      45.907  24.586  29.054  1.00  0.00     0.031 C 
ATOM     67  C   UNL A   1      46.555  26.742  30.092  1.00  0.00     0.031 A 
BRANCH  54  68
ATOM     68  C   UNL A   1      44.381  32.344  31.499  1.00  0.00    -0.014 A 
ATOM     69  C   UNL A   1      44.200  32.611  32.866  1.00  0.00     0.009 A 
ATOM     70  C   UNL A   1      44.872  33.362  30.667  1.00  0.00     0.009 A 
ATOM     71  C   UNL A   1      44.470  33.881  33.381  1.00  0.00     0.001 A 
ATOM     72  C   UNL A   1      45.168  34.622  31.189  1.00  0.00     0.001 A 
ATOM     73  C   UNL A   1      44.958  34.883  32.543  1.00  0.00     0.000 A 
ENDBRANCH  54  68
BRANCH  55  74
ATOM     74  C   UNL A   1      42.117  23.475  27.618  1.00  0.00    -0.014 A 
ATOM     75  C   UNL A   1      42.316  23.260  26.244  1.00  0.00     0.009 A 
ATOM     76  C   UNL A   1      41.588  22.435  28.398  1.00  0.00     0.009 A 
ATOM     77  C   UNL A   1      41.957  22.043  25.659  1.00  0.00     0.001 A 
ATOM     78  C   UNL A   1      41.256  21.210  27.814  1.00  0.00     0.001 A 
ATOM     79  C   UNL A   1      41.429  21.019  26.444  1.00  0.00     0.000 A 
ENDBRANCH  55  74
BRANCH  67  80
ATOM     80  C   UNL A   1      47.919  26.164  30.347  1.00  0.00    -0.014 A 
ATOM     81  C   UNL A   1      48.878  26.062  29.328  1.00  0.00     0.009 A 
ATOM     82  C   UNL A   1      48.255  25.737  31.643  1.00  0.00     0.009 A 
ATOM     83  C   UNL A   1      50.134  25.513  29.594  1.00  0.00     0.001 A 
ATOM     84  C   UNL A   1      49.521  25.217  31.912  1.00  0.00     0.001 A 
ATOM     85  C   UNL A   1      50.456  25.096  30.885  1.00  0.00     0.000 A 
ENDBRANCH  67  80
ENDBRANCH  41  42
ENDBRANCH  33  36
ENDBRANCH  31  32
ENDBRANCH  30  31
ENDBRANCH  29  30
ENDBRANCH   3  29
TORSDOF 16
ENDMDL
