MODEL 1
REMARK VINA RESULT:     -10.3      0.000      0.000
REMARK SMILES C[C@H](C(=O)NCCCNC(=O)c1ccc(-c2c3nc(c(-c4ccccc4)c4ccc([nH]4)c(-c4ccccc4)c4nc(c(-c5ccccc5)c5ccc2[nH]5)C=C4)C=C3)cc1)[C@H](C)[NH+]1CCN(S(C)(=O)=O)CC1
REMARK SMILES IDX 6 1 5 2 3 3 4 4 2 6 1 7 60 8 61 9 62 10 63 11 71 12 64 14
REMARK SMILES IDX 70 15 65 16 66 17 67 18 68 19 69 20 7 21 8 22 9 23 10 24
REMARK SMILES IDX 11 26 12 27 13 28 59 29 14 30 58 31 15 32 16 33 17 34 52 35
REMARK SMILES IDX 18 36 57 37 51 38 53 39 19 40 56 41 50 42 49 43 20 45 42 46
REMARK SMILES IDX 27 47 41 48 28 49 31 50 40 51 54 52 29 53 30 54 39 56 55 57
REMARK SMILES IDX 32 58 21 59 22 60 26 61 23 62 25 63 24 64 43 65 44 66 48 67
REMARK SMILES IDX 45 68 47 69 46 70 33 71 34 72 38 73 35 74 37 75 36 76
REMARK H PARENT 5 5 62 13 9 25 53 44 31 55
REMARK Flexibility Score: inf
ROOT
ATOM      1  C   UNL A   1      37.928  21.624  25.363  1.00  0.00     0.117 C 
ENDROOT
BRANCH   1   2
ATOM      2  N   UNL A   1      37.589  22.409  24.194  1.00  0.00    -0.356 N 
ATOM      3  C   UNL A   1      36.422  22.753  23.604  1.00  0.00     0.228 C 
ATOM      4  O   UNL A   1      36.579  23.089  22.417  1.00  0.00    -0.275 OA
ATOM      5  H   UNL A   1      38.377  22.771  23.728  1.00  0.00     0.163 HD
BRANCH   3   6
ATOM      6  C   UNL A   1      35.031  22.960  24.261  1.00  0.00     0.133 C 
ATOM      7  C   UNL A   1      34.663  21.615  24.942  1.00  0.00     0.024 C 
BRANCH   6   8
ATOM      8  C   UNL A   1      34.574  24.130  25.214  1.00  0.00     0.193 C 
ATOM      9  C   UNL A   1      33.593  23.529  26.248  1.00  0.00     0.076 C 
BRANCH   8  10
ATOM     10  N   UNL A   1      34.170  25.387  24.573  1.00  0.00    -0.330 N 
ATOM     11  C   UNL A   1      33.764  25.380  23.155  1.00  0.00     0.279 C 
ATOM     12  C   UNL A   1      33.374  26.280  25.440  1.00  0.00     0.279 C 
ATOM     13  H   UNL A   1      35.086  25.823  24.466  1.00  0.00     0.348 HD
ATOM     14  C   UNL A   1      32.285  25.641  22.819  1.00  0.00     0.163 C 
ATOM     15  C   UNL A   1      31.910  26.552  25.061  1.00  0.00     0.163 C 
ATOM     16  N   UNL A   1      31.755  26.758  23.613  1.00  0.00    -0.191 NA
BRANCH  16  17
ATOM     17  S   UNL A   1      31.472  28.258  22.940  1.00  0.00     0.211 S 
ATOM     18  C   UNL A   1      30.933  29.275  24.299  1.00  0.00     0.176 C 
ATOM     19  O   UNL A   1      32.744  28.785  22.501  1.00  0.00    -0.212 OA
ATOM     20  O   UNL A   1      30.355  28.142  22.023  1.00  0.00    -0.212 OA
ENDBRANCH  16  17
ENDBRANCH   8  10
ENDBRANCH   6   8
ENDBRANCH   3   6
ENDBRANCH   1   2
BRANCH   1  21
ATOM     21  C   UNL A   1      38.293  20.200  24.943  1.00  0.00     0.042 C 
BRANCH  21  22
ATOM     22  C   UNL A   1      38.882  19.263  25.986  1.00  0.00     0.118 C 
BRANCH  22  23
ATOM     23  N   UNL A   1      40.258  18.897  25.712  1.00  0.00    -0.352 N 
ATOM     24  C   UNL A   1      41.456  19.548  25.876  1.00  0.00     0.251 C 
ATOM     25  H   UNL A   1      40.353  17.996  25.328  1.00  0.00     0.163 HD
ATOM     26  O   UNL A   1      42.460  18.983  25.438  1.00  0.00    -0.269 OA
BRANCH  24  27
ATOM     27  C   UNL A   1      41.615  20.885  26.522  1.00  0.00     0.039 A 
ATOM     28  C   UNL A   1      42.059  21.943  25.710  1.00  0.00     0.014 A 
ATOM     29  C   UNL A   1      41.437  21.136  27.883  1.00  0.00     0.014 A 
ATOM     30  C   UNL A   1      42.312  23.211  26.247  1.00  0.00     0.010 A 
ATOM     31  C   UNL A   1      41.586  22.430  28.401  1.00  0.00     0.010 A 
ATOM     32  C   UNL A   1      42.065  23.476  27.601  1.00  0.00    -0.014 A 
BRANCH  32  33
ATOM     33  C   UNL A   1      42.379  24.809  28.194  1.00  0.00     0.031 A 
ATOM     34  C   UNL A   1      43.786  25.139  28.635  1.00  0.00     0.074 A 
ATOM     35  C   UNL A   1      41.409  25.733  28.343  1.00  0.00     0.049 A 
ATOM     36  N   UNL A   1      44.252  26.244  29.167  1.00  0.00    -0.248 NA
ATOM     37  C   UNL A   1      44.798  24.082  28.481  1.00  0.00     0.031 C 
ATOM     38  C   UNL A   1      40.000  25.547  27.993  1.00  0.00     0.029 A 
ATOM     39  N   UNL A   1      41.463  27.019  28.827  1.00  0.00    -0.354 N 
ATOM     40  C   UNL A   1      45.598  26.006  29.420  1.00  0.00     0.074 A 
ATOM     41  C   UNL A   1      45.860  24.634  29.047  1.00  0.00     0.031 C 
ATOM     42  C   UNL A   1      39.331  26.684  28.242  1.00  0.00     0.029 A 
ATOM     43  C   UNL A   1      40.251  27.667  28.805  1.00  0.00     0.049 A 
ATOM     44  H   UNL A   1      42.292  27.435  29.158  1.00  0.00     0.167 HD
ATOM     45  C   UNL A   1      46.545  26.854  29.892  1.00  0.00     0.031 A 
ATOM     46  C   UNL A   1      39.914  28.911  29.197  1.00  0.00     0.031 A 
ATOM     47  C   UNL A   1      46.296  28.222  30.263  1.00  0.00     0.049 A 
ATOM     48  C   UNL A   1      40.975  29.830  29.737  1.00  0.00     0.074 A 
ATOM     49  C   UNL A   1      47.197  29.171  30.717  1.00  0.00     0.029 A 
ATOM     50  N   UNL A   1      45.054  28.837  30.226  1.00  0.00    -0.354 N 
ATOM     51  N   UNL A   1      42.255  29.607  29.911  1.00  0.00    -0.248 NA
ATOM     52  C   UNL A   1      40.545  31.185  30.115  1.00  0.00     0.031 C 
ATOM     53  C   UNL A   1      46.489  30.342  31.009  1.00  0.00     0.029 A 
ATOM     54  C   UNL A   1      45.160  30.145  30.668  1.00  0.00     0.049 A 
ATOM     55  H   UNL A   1      44.220  28.406  29.929  1.00  0.00     0.167 HD
ATOM     56  C   UNL A   1      42.788  30.799  30.388  1.00  0.00     0.074 A 
ATOM     57  C   UNL A   1      41.696  31.748  30.455  1.00  0.00     0.031 C 
ATOM     58  C   UNL A   1      44.068  31.082  30.734  1.00  0.00     0.031 A 
BRANCH  45  59
ATOM     59  C   UNL A   1      47.945  26.315  30.040  1.00  0.00    -0.014 A 
ATOM     60  C   UNL A   1      48.392  25.769  31.256  1.00  0.00     0.009 A 
ATOM     61  C   UNL A   1      48.823  26.332  28.945  1.00  0.00     0.009 A 
ATOM     62  C   UNL A   1      49.701  25.300  31.386  1.00  0.00     0.001 A 
ATOM     63  C   UNL A   1      50.120  25.828  29.067  1.00  0.00     0.001 A 
ATOM     64  C   UNL A   1      50.563  25.326  30.291  1.00  0.00     0.000 A 
ENDBRANCH  45  59
BRANCH  46  65
ATOM     65  C   UNL A   1      38.502  29.370  29.080  1.00  0.00    -0.014 A 
ATOM     66  C   UNL A   1      37.630  29.301  30.178  1.00  0.00     0.009 A 
ATOM     67  C   UNL A   1      38.018  29.877  27.864  1.00  0.00     0.009 A 
ATOM     68  C   UNL A   1      36.297  29.699  30.051  1.00  0.00     0.001 A 
ATOM     69  C   UNL A   1      36.695  30.308  27.749  1.00  0.00     0.001 A 
ATOM     70  C   UNL A   1      35.832  30.208  28.839  1.00  0.00     0.000 A 
ENDBRANCH  46  65
BRANCH  58  71
ATOM     71  C   UNL A   1      44.369  32.491  31.172  1.00  0.00    -0.014 A 
ATOM     72  C   UNL A   1      44.315  32.872  32.522  1.00  0.00     0.009 A 
ATOM     73  C   UNL A   1      44.738  33.448  30.212  1.00  0.00     0.009 A 
ATOM     74  C   UNL A   1      44.578  34.192  32.895  1.00  0.00     0.001 A 
ATOM     75  C   UNL A   1      45.036  34.757  30.592  1.00  0.00     0.001 A 
ATOM     76  C   UNL A   1      44.944  35.132  31.930  1.00  0.00     0.000 A 
ENDBRANCH  58  71
ENDBRANCH  32  33
ENDBRANCH  24  27
ENDBRANCH  22  23
ENDBRANCH  21  22
ENDBRANCH   1  21
TORSDOF 13
ENDMDL
MODEL 2
REMARK VINA RESULT:     -10.2      2.985      7.750
REMARK SMILES C[C@H](C(=O)NCCCNC(=O)c1ccc(-c2c3nc(c(-c4ccccc4)c4ccc([nH]4)c(-c4ccccc4)c4nc(c(-c5ccccc5)c5ccc2[nH]5)C=C4)C=C3)cc1)[C@H](C)[NH+]1CCN(S(C)(=O)=O)CC1
REMARK SMILES IDX 6 1 5 2 3 3 4 4 2 6 1 7 60 8 61 9 62 10 63 11 71 12 64 14
REMARK SMILES IDX 70 15 65 16 66 17 67 18 68 19 69 20 7 21 8 22 9 23 10 24
REMARK SMILES IDX 11 26 12 27 13 28 59 29 14 30 58 31 15 32 16 33 17 34 52 35
REMARK SMILES IDX 18 36 57 37 51 38 53 39 19 40 56 41 50 42 49 43 20 45 42 46
REMARK SMILES IDX 27 47 41 48 28 49 31 50 40 51 54 52 29 53 30 54 39 56 55 57
REMARK SMILES IDX 32 58 21 59 22 60 26 61 23 62 25 63 24 64 43 65 44 66 48 67
REMARK SMILES IDX 45 68 47 69 46 70 33 71 34 72 38 73 35 74 37 75 36 76
REMARK H PARENT 5 5 62 13 9 25 53 44 31 55
REMARK Flexibility Score: inf
ROOT
ATOM      1  C   UNL A   1      35.111  24.608  24.881  1.00  0.00     0.117 C 
ENDROOT
BRANCH   1   2
ATOM      2  N   UNL A   1      34.399  24.673  23.620  1.00  0.00    -0.356 N 
ATOM      3  C   UNL A   1      33.265  24.104  23.155  1.00  0.00     0.228 C 
ATOM      4  O   UNL A   1      33.220  24.099  21.913  1.00  0.00    -0.275 OA
ATOM      5  H   UNL A   1      34.836  25.258  22.960  1.00  0.00     0.163 HD
BRANCH   3   6
ATOM      6  C   UNL A   1      32.004  23.673  23.950  1.00  0.00     0.133 C 
ATOM      7  C   UNL A   1      30.781  24.209  23.158  1.00  0.00     0.024 C 
BRANCH   6   8
ATOM      8  C   UNL A   1      31.643  22.236  24.490  1.00  0.00     0.193 C 
ATOM      9  C   UNL A   1      31.074  22.408  25.919  1.00  0.00     0.076 C 
BRANCH   8  10
ATOM     10  N   UNL A   1      32.652  21.187  24.303  1.00  0.00    -0.330 N 
ATOM     11  C   UNL A   1      33.173  20.463  25.478  1.00  0.00     0.279 C 
ATOM     12  C   UNL A   1      32.437  20.347  23.105  1.00  0.00     0.279 C 
ATOM     13  H   UNL A   1      33.466  21.769  24.109  1.00  0.00     0.348 HD
ATOM     14  C   UNL A   1      32.794  18.982  25.650  1.00  0.00     0.163 C 
ATOM     15  C   UNL A   1      32.095  18.863  23.306  1.00  0.00     0.163 C 
ATOM     16  N   UNL A   1      32.906  18.259  24.375  1.00  0.00    -0.191 NA
BRANCH  16  17
ATOM     17  S   UNL A   1      34.161  17.204  24.070  1.00  0.00     0.211 S 
ATOM     18  C   UNL A   1      33.918  15.862  25.215  1.00  0.00     0.176 C 
ATOM     19  O   UNL A   1      33.964  16.665  22.744  1.00  0.00    -0.212 OA
ATOM     20  O   UNL A   1      35.403  17.857  24.434  1.00  0.00    -0.212 OA
ENDBRANCH  16  17
ENDBRANCH   8  10
ENDBRANCH   6   8
ENDBRANCH   3   6
ENDBRANCH   1   2
BRANCH   1  21
ATOM     21  C   UNL A   1      36.213  23.551  24.799  1.00  0.00     0.042 C 
BRANCH  21  22
ATOM     22  C   UNL A   1      36.582  22.789  26.063  1.00  0.00     0.118 C 
BRANCH  22  23
ATOM     23  N   UNL A   1      37.901  22.189  26.002  1.00  0.00    -0.352 N 
ATOM     24  C   UNL A   1      39.160  22.648  26.304  1.00  0.00     0.251 C 
ATOM     25  H   UNL A   1      37.892  21.260  25.676  1.00  0.00     0.163 HD
ATOM     26  O   UNL A   1      40.102  21.901  26.038  1.00  0.00    -0.269 OA
BRANCH  24  27
ATOM     27  C   UNL A   1      39.455  23.983  26.904  1.00  0.00     0.039 A 
ATOM     28  C   UNL A   1      40.048  24.947  26.070  1.00  0.00     0.014 A 
ATOM     29  C   UNL A   1      39.264  24.310  28.247  1.00  0.00     0.014 A 
ATOM     30  C   UNL A   1      40.432  26.198  26.568  1.00  0.00     0.010 A 
ATOM     31  C   UNL A   1      39.549  25.599  28.721  1.00  0.00     0.010 A 
ATOM     32  C   UNL A   1      40.175  26.546  27.901  1.00  0.00    -0.014 A 
BRANCH  32  33
ATOM     33  C   UNL A   1      40.626  27.857  28.454  1.00  0.00     0.031 A 
ATOM     34  C   UNL A   1      39.637  28.979  28.669  1.00  0.00     0.074 A 
ATOM     35  C   UNL A   1      41.922  28.054  28.766  1.00  0.00     0.049 A 
ATOM     36  N   UNL A   1      39.840  30.185  29.142  1.00  0.00    -0.248 NA
ATOM     37  C   UNL A   1      38.242  28.721  28.279  1.00  0.00     0.031 C 
ATOM     38  C   UNL A   1      42.997  27.076  28.583  1.00  0.00     0.029 A 
ATOM     39  N   UNL A   1      42.558  29.147  29.308  1.00  0.00    -0.354 N 
ATOM     40  C   UNL A   1      38.606  30.826  29.092  1.00  0.00     0.074 A 
ATOM     41  C   UNL A   1      37.678  29.901  28.482  1.00  0.00     0.031 C 
ATOM     42  C   UNL A   1      44.148  27.599  29.035  1.00  0.00     0.029 A 
ATOM     43  C   UNL A   1      43.905  28.960  29.502  1.00  0.00     0.049 A 
ATOM     44  H   UNL A   1      42.091  29.983  29.534  1.00  0.00     0.167 HD
ATOM     45  C   UNL A   1      38.262  32.059  29.538  1.00  0.00     0.031 A 
ATOM     46  C   UNL A   1      44.845  29.791  29.995  1.00  0.00     0.031 A 
ATOM     47  C   UNL A   1      39.178  32.986  30.149  1.00  0.00     0.049 A 
ATOM     48  C   UNL A   1      44.446  31.162  30.465  1.00  0.00     0.074 A 
ATOM     49  C   UNL A   1      38.917  34.244  30.665  1.00  0.00     0.029 A 
ATOM     50  N   UNL A   1      40.534  32.756  30.324  1.00  0.00    -0.354 N 
ATOM     51  N   UNL A   1      43.263  31.727  30.467  1.00  0.00    -0.248 NA
ATOM     52  C   UNL A   1      45.515  32.005  31.024  1.00  0.00     0.031 C 
ATOM     53  C   UNL A   1      40.126  34.798  31.100  1.00  0.00     0.029 A 
ATOM     54  C   UNL A   1      41.126  33.856  30.922  1.00  0.00     0.049 A 
ATOM     55  H   UNL A   1      41.005  31.932  30.062  1.00  0.00     0.167 HD
ATOM     56  C   UNL A   1      43.438  32.976  31.053  1.00  0.00     0.074 A 
ATOM     57  C   UNL A   1      44.836  33.077  31.413  1.00  0.00     0.031 C 
ATOM     58  C   UNL A   1      42.520  33.949  31.275  1.00  0.00     0.031 A 
BRANCH  45  59
ATOM     59  C   UNL A   1      36.824  32.479  29.369  1.00  0.00    -0.014 A 
ATOM     60  C   UNL A   1      35.888  32.311  30.403  1.00  0.00     0.009 A 
ATOM     61  C   UNL A   1      36.402  33.069  28.167  1.00  0.00     0.009 A 
ATOM     62  C   UNL A   1      34.553  32.678  30.219  1.00  0.00     0.001 A 
ATOM     63  C   UNL A   1      35.075  33.469  27.999  1.00  0.00     0.001 A 
ATOM     64  C   UNL A   1      34.148  33.260  29.020  1.00  0.00     0.000 A 
ENDBRANCH  45  59
BRANCH  46  65
ATOM     65  C   UNL A   1      46.262  29.341  30.085  1.00  0.00    -0.014 A 
ATOM     66  C   UNL A   1      46.750  28.728  31.249  1.00  0.00     0.009 A 
ATOM     67  C   UNL A   1      47.136  29.530  29.004  1.00  0.00     0.009 A 
ATOM     68  C   UNL A   1      48.089  28.341  31.340  1.00  0.00     0.001 A 
ATOM     69  C   UNL A   1      48.466  29.110  29.083  1.00  0.00     0.001 A 
ATOM     70  C   UNL A   1      48.945  28.527  30.254  1.00  0.00     0.000 A 
ENDBRANCH  46  65
BRANCH  58  71
ATOM     71  C   UNL A   1      42.990  35.190  31.985  1.00  0.00    -0.014 A 
ATOM     72  C   UNL A   1      43.594  36.252  31.294  1.00  0.00     0.009 A 
ATOM     73  C   UNL A   1      42.798  35.307  33.372  1.00  0.00     0.009 A 
ATOM     74  C   UNL A   1      44.039  37.383  31.985  1.00  0.00     0.001 A 
ATOM     75  C   UNL A   1      43.210  36.452  34.053  1.00  0.00     0.001 A 
ATOM     76  C   UNL A   1      43.842  37.484  33.362  1.00  0.00     0.000 A 
ENDBRANCH  58  71
ENDBRANCH  32  33
ENDBRANCH  24  27
ENDBRANCH  22  23
ENDBRANCH  21  22
ENDBRANCH   1  21
TORSDOF 13
ENDMDL
MODEL 3
REMARK VINA RESULT:     -10.2      2.060      7.846
REMARK SMILES C[C@H](C(=O)NCCCNC(=O)c1ccc(-c2c3nc(c(-c4ccccc4)c4ccc([nH]4)c(-c4ccccc4)c4nc(c(-c5ccccc5)c5ccc2[nH]5)C=C4)C=C3)cc1)[C@H](C)[NH+]1CCN(S(C)(=O)=O)CC1
REMARK SMILES IDX 6 1 5 2 3 3 4 4 2 6 1 7 60 8 61 9 62 10 63 11 71 12 64 14
REMARK SMILES IDX 70 15 65 16 66 17 67 18 68 19 69 20 7 21 8 22 9 23 10 24
REMARK SMILES IDX 11 26 12 27 13 28 59 29 14 30 58 31 15 32 16 33 17 34 52 35
REMARK SMILES IDX 18 36 57 37 51 38 53 39 19 40 56 41 50 42 49 43 20 45 42 46
REMARK SMILES IDX 27 47 41 48 28 49 31 50 40 51 54 52 29 53 30 54 39 56 55 57
REMARK SMILES IDX 32 58 21 59 22 60 26 61 23 62 25 63 24 64 43 65 44 66 48 67
REMARK SMILES IDX 45 68 47 69 46 70 33 71 34 72 38 73 35 74 37 75 36 76
REMARK H PARENT 5 5 62 13 9 25 53 44 31 55
REMARK Flexibility Score: inf
ROOT
ATOM      1  C   UNL A   1      31.892  29.474  25.017  1.00  0.00     0.117 C 
ENDROOT
BRANCH   1   2
ATOM      2  N   UNL A   1      31.005  28.944  24.001  1.00  0.00    -0.356 N 
ATOM      3  C   UNL A   1      31.075  27.892  23.155  1.00  0.00     0.228 C 
ATOM      4  O   UNL A   1      30.305  28.020  22.187  1.00  0.00    -0.275 OA
ATOM      5  H   UNL A   1      30.173  29.460  23.907  1.00  0.00     0.163 HD
BRANCH   3   6
ATOM      6  C   UNL A   1      31.807  26.538  23.354  1.00  0.00     0.133 C 
ATOM      7  C   UNL A   1      30.721  25.434  23.257  1.00  0.00     0.024 C 
BRANCH   6   8
ATOM      8  C   UNL A   1      33.099  26.019  22.614  1.00  0.00     0.193 C 
ATOM      9  C   UNL A   1      32.676  25.589  21.190  1.00  0.00     0.076 C 
BRANCH   8  10
ATOM     10  N   UNL A   1      33.958  25.089  23.357  1.00  0.00    -0.330 N 
ATOM     11  C   UNL A   1      34.064  25.212  24.823  1.00  0.00     0.279 C 
ATOM     12  C   UNL A   1      33.922  23.699  22.855  1.00  0.00     0.279 C 
ATOM     13  H   UNL A   1      34.871  25.467  23.106  1.00  0.00     0.348 HD
ATOM     14  C   UNL A   1      33.441  24.107  25.695  1.00  0.00     0.163 C 
ATOM     15  C   UNL A   1      33.329  22.609  23.760  1.00  0.00     0.163 C 
ATOM     16  N   UNL A   1      33.755  22.775  25.158  1.00  0.00    -0.191 NA
BRANCH  16  17
ATOM     17  S   UNL A   1      34.879  21.778  25.884  1.00  0.00     0.211 S 
ATOM     18  C   UNL A   1      36.406  22.692  25.824  1.00  0.00     0.176 C 
ATOM     19  O   UNL A   1      34.517  21.656  27.277  1.00  0.00    -0.212 OA
ATOM     20  O   UNL A   1      35.051  20.604  25.051  1.00  0.00    -0.212 OA
ENDBRANCH  16  17
ENDBRANCH   8  10
ENDBRANCH   6   8
ENDBRANCH   3   6
ENDBRANCH   1   2
BRANCH   1  21
ATOM     21  C   UNL A   1      31.950  28.515  26.207  1.00  0.00     0.042 C 
BRANCH  21  22
ATOM     22  C   UNL A   1      33.052  28.702  27.237  1.00  0.00     0.118 C 
BRANCH  22  23
ATOM     23  N   UNL A   1      33.236  30.086  27.630  1.00  0.00    -0.352 N 
ATOM     24  C   UNL A   1      34.308  30.792  28.118  1.00  0.00     0.251 C 
ATOM     25  H   UNL A   1      32.424  30.632  27.527  1.00  0.00     0.163 HD
ATOM     26  O   UNL A   1      34.099  31.959  28.455  1.00  0.00    -0.269 OA
BRANCH  24  27
ATOM     27  C   UNL A   1      35.685  30.238  28.285  1.00  0.00     0.039 A 
ATOM     28  C   UNL A   1      36.016  29.705  29.542  1.00  0.00     0.014 A 
ATOM     29  C   UNL A   1      36.685  30.290  27.313  1.00  0.00     0.014 A 
ATOM     30  C   UNL A   1      37.308  29.237  29.813  1.00  0.00     0.010 A 
ATOM     31  C   UNL A   1      37.946  29.723  27.548  1.00  0.00     0.010 A 
ATOM     32  C   UNL A   1      38.289  29.227  28.812  1.00  0.00    -0.014 A 
BRANCH  32  33
ATOM     33  C   UNL A   1      39.682  28.778  29.105  1.00  0.00     0.031 A 
ATOM     34  C   UNL A   1      40.638  29.681  29.848  1.00  0.00     0.074 A 
ATOM     35  C   UNL A   1      40.102  27.560  28.707  1.00  0.00     0.049 A 
ATOM     36  N   UNL A   1      41.883  29.463  30.197  1.00  0.00    -0.248 NA
ATOM     37  C   UNL A   1      40.138  31.012  30.229  1.00  0.00     0.031 C 
ATOM     38  C   UNL A   1      39.302  26.593  27.952  1.00  0.00     0.029 A 
ATOM     39  N   UNL A   1      41.308  26.926  28.885  1.00  0.00    -0.354 N 
ATOM     40  C   UNL A   1      42.313  30.630  30.822  1.00  0.00     0.074 A 
ATOM     41  C   UNL A   1      41.221  31.574  30.744  1.00  0.00     0.031 C 
ATOM     42  C   UNL A   1      40.027  25.478  27.762  1.00  0.00     0.029 A 
ATOM     43  C   UNL A   1      41.353  25.663  28.343  1.00  0.00     0.049 A 
ATOM     44  H   UNL A   1      42.069  27.338  29.356  1.00  0.00     0.167 HD
ATOM     45  C   UNL A   1      43.495  30.891  31.432  1.00  0.00     0.031 A 
ATOM     46  C   UNL A   1      42.348  24.756  28.312  1.00  0.00     0.031 A 
ATOM     47  C   UNL A   1      44.587  29.958  31.517  1.00  0.00     0.049 A 
ATOM     48  C   UNL A   1      43.659  25.072  28.977  1.00  0.00     0.074 A 
ATOM     49  C   UNL A   1      45.811  30.116  32.145  1.00  0.00     0.029 A 
ATOM     50  N   UNL A   1      44.589  28.691  30.953  1.00  0.00    -0.354 N 
ATOM     51  N   UNL A   1      44.024  26.158  29.616  1.00  0.00    -0.248 NA
ATOM     52  C   UNL A   1      44.691  24.024  28.934  1.00  0.00     0.031 C 
ATOM     53  C   UNL A   1      46.575  28.967  31.912  1.00  0.00     0.029 A 
ATOM     54  C   UNL A   1      45.799  28.065  31.202  1.00  0.00     0.049 A 
ATOM     55  H   UNL A   1      43.840  28.296  30.451  1.00  0.00     0.167 HD
ATOM     56  C   UNL A   1      45.312  25.912  30.077  1.00  0.00     0.074 A 
ATOM     57  C   UNL A   1      45.656  24.568  29.662  1.00  0.00     0.031 C 
ATOM     58  C   UNL A   1      46.134  26.727  30.783  1.00  0.00     0.031 A 
BRANCH  45  59
ATOM     59  C   UNL A   1      43.667  32.254  32.051  1.00  0.00    -0.014 A 
ATOM     60  C   UNL A   1      43.313  32.499  33.389  1.00  0.00     0.009 A 
ATOM     61  C   UNL A   1      44.211  33.305  31.294  1.00  0.00     0.009 A 
ATOM     62  C   UNL A   1      43.451  33.775  33.938  1.00  0.00     0.001 A 
ATOM     63  C   UNL A   1      44.382  34.571  31.858  1.00  0.00     0.001 A 
ATOM     64  C   UNL A   1      43.989  34.809  33.174  1.00  0.00     0.000 A 
ENDBRANCH  45  59
BRANCH  46  65
ATOM     65  C   UNL A   1      42.139  23.446  27.634  1.00  0.00    -0.014 A 
ATOM     66  C   UNL A   1      41.561  22.366  28.320  1.00  0.00     0.009 A 
ATOM     67  C   UNL A   1      42.522  23.270  26.296  1.00  0.00     0.009 A 
ATOM     68  C   UNL A   1      41.401  21.129  27.688  1.00  0.00     0.001 A 
ATOM     69  C   UNL A   1      42.328  22.044  25.656  1.00  0.00     0.001 A 
ATOM     70  C   UNL A   1      41.779  20.971  26.355  1.00  0.00     0.000 A 
ENDBRANCH  46  65
BRANCH  58  71
ATOM     71  C   UNL A   1      47.469  26.169  31.198  1.00  0.00    -0.014 A 
ATOM     72  C   UNL A   1      48.570  26.163  30.326  1.00  0.00     0.009 A 
ATOM     73  C   UNL A   1      47.633  25.663  32.497  1.00  0.00     0.009 A 
ATOM     74  C   UNL A   1      49.791  25.618  30.732  1.00  0.00     0.001 A 
ATOM     75  C   UNL A   1      48.863  25.153  32.913  1.00  0.00     0.001 A 
ATOM     76  C   UNL A   1      49.938  25.119  32.026  1.00  0.00     0.000 A 
ENDBRANCH  58  71
ENDBRANCH  32  33
ENDBRANCH  24  27
ENDBRANCH  22  23
ENDBRANCH  21  22
ENDBRANCH   1  21
TORSDOF 13
ENDMDL
