MODEL 1
REMARK VINA RESULT:     -11.2      0.000      0.000
REMARK SMILES C[C@@H](C(=O)NCCCNC(=O)c1ccc(-c2c3nc(c(-c4ccccc4)c4ccc([nH]4)c(-c4ccccc4)c4nc(c(-c5ccccc5)c5ccc2[nH]5)C=C4)C=C3)cc1)c1ccc(C[C@H]2CCC[C@@H]2O)cc1Br
REMARK SMILES IDX 6 1 5 2 3 3 4 4 2 6 1 7 60 8 61 9 72 10 62 11 71 12 73 13
REMARK SMILES IDX 63 14 64 15 65 16 66 17 69 18 67 19 68 20 70 21 7 23 8 24
REMARK SMILES IDX 9 25 10 26 11 28 12 29 13 30 59 31 14 32 58 33 15 34 16 35
REMARK SMILES IDX 17 36 52 37 18 38 57 39 51 40 53 41 19 42 56 43 50 44 49 45
REMARK SMILES IDX 20 47 42 48 27 49 41 50 28 51 31 52 40 53 54 54 29 55 30 56
REMARK SMILES IDX 39 58 55 59 32 60 21 61 22 62 26 63 23 64 25 65 24 66 43 67
REMARK SMILES IDX 44 68 48 69 45 70 47 71 46 72 33 73 34 74 38 75 35 76 37 77
REMARK SMILES IDX 36 78
REMARK H PARENT 5 5 70 22 9 27 53 46 31 57
REMARK Flexibility Score: inf
ROOT
ATOM      1  C   UNL A   1      31.697  27.432  26.563  1.00  0.00     0.117 C 
ENDROOT
BRANCH   1   2
ATOM      2  N   UNL A   1      31.220  27.670  25.212  1.00  0.00    -0.356 N 
ATOM      3  C   UNL A   1      31.900  27.985  24.069  1.00  0.00     0.227 C 
ATOM      4  O   UNL A   1      31.218  28.425  23.140  1.00  0.00    -0.274 OA
ATOM      5  H   UNL A   1      30.245  27.592  25.102  1.00  0.00     0.163 HD
BRANCH   3   6
ATOM      6  C   UNL A   1      33.425  27.731  23.956  1.00  0.00     0.106 C 
ATOM      7  C   UNL A   1      33.987  28.594  22.834  1.00  0.00     0.023 C 
BRANCH   6   8
ATOM      8  C   UNL A   1      33.773  26.225  23.941  1.00  0.00    -0.022 A 
ATOM      9  C   UNL A   1      34.432  25.744  25.101  1.00  0.00     0.006 A 
ATOM     10  C   UNL A   1      33.572  25.282  22.914  1.00  0.00     0.022 A 
ATOM     11  C   UNL A   1      34.840  24.415  25.247  1.00  0.00     0.004 A 
ATOM     12  C   UNL A   1      34.038  23.959  23.049  1.00  0.00     0.019 A 
ATOM     13  Br  UNL A   1      32.708  25.571  21.241  1.00  0.00    -0.051 Br
ATOM     14  C   UNL A   1      34.693  23.517  24.199  1.00  0.00    -0.047 A 
BRANCH  14  15
ATOM     15  C   UNL A   1      35.244  22.114  24.263  1.00  0.00     0.041 C 
BRANCH  15  16
ATOM     16  C   UNL A   1      34.376  21.089  25.014  1.00  0.00     0.022 C 
ATOM     17  C   UNL A   1      32.859  21.350  25.004  1.00  0.00     0.007 C 
ATOM     18  C   UNL A   1      34.515  19.635  24.553  1.00  0.00     0.117 C 
ATOM     19  C   UNL A   1      32.193  19.971  24.936  1.00  0.00     0.003 C 
ATOM     20  C   UNL A   1      33.306  18.966  25.184  1.00  0.00     0.032 C 
BRANCH  18  21
ATOM     21  O   UNL A   1      35.716  19.045  25.013  1.00  0.00    -0.393 OA
ATOM     22  H   UNL A   1      36.395  19.730  25.118  1.00  0.00     0.210 HD
ENDBRANCH  18  21
ENDBRANCH  15  16
ENDBRANCH  14  15
ENDBRANCH   6   8
ENDBRANCH   3   6
ENDBRANCH   1   2
BRANCH   1  23
ATOM     23  C   UNL A   1      31.944  28.755  27.296  1.00  0.00     0.042 C 
BRANCH  23  24
ATOM     24  C   UNL A   1      33.418  29.123  27.440  1.00  0.00     0.118 C 
BRANCH  24  25
ATOM     25  N   UNL A   1      33.608  30.520  27.796  1.00  0.00    -0.352 N 
ATOM     26  C   UNL A   1      34.674  31.136  28.401  1.00  0.00     0.251 C 
ATOM     27  H   UNL A   1      32.857  31.114  27.567  1.00  0.00     0.163 HD
ATOM     28  O   UNL A   1      34.554  32.291  28.811  1.00  0.00    -0.269 OA
BRANCH  26  29
ATOM     29  C   UNL A   1      35.953  30.420  28.594  1.00  0.00     0.039 A 
ATOM     30  C   UNL A   1      36.860  30.369  27.532  1.00  0.00     0.014 A 
ATOM     31  C   UNL A   1      36.261  29.789  29.803  1.00  0.00     0.014 A 
ATOM     32  C   UNL A   1      38.108  29.766  27.709  1.00  0.00     0.010 A 
ATOM     33  C   UNL A   1      37.531  29.248  30.002  1.00  0.00     0.010 A 
ATOM     34  C   UNL A   1      38.474  29.248  28.963  1.00  0.00    -0.014 A 
BRANCH  34  35
ATOM     35  C   UNL A   1      39.859  28.776  29.222  1.00  0.00     0.031 A 
ATOM     36  C   UNL A   1      40.898  29.704  29.787  1.00  0.00     0.074 A 
ATOM     37  C   UNL A   1      40.197  27.518  28.870  1.00  0.00     0.049 A 
ATOM     38  N   UNL A   1      42.171  29.479  30.001  1.00  0.00    -0.248 NA
ATOM     39  C   UNL A   1      40.462  31.064  30.142  1.00  0.00     0.031 C 
ATOM     40  C   UNL A   1      39.290  26.531  28.278  1.00  0.00     0.029 A 
ATOM     41  N   UNL A   1      41.400  26.859  28.941  1.00  0.00    -0.354 N 
ATOM     42  C   UNL A   1      42.688  30.668  30.498  1.00  0.00     0.074 A 
ATOM     43  C   UNL A   1      41.601  31.623  30.528  1.00  0.00     0.031 C 
ATOM     44  C   UNL A   1      39.963  25.391  28.055  1.00  0.00     0.029 A 
ATOM     45  C   UNL A   1      41.358  25.580  28.436  1.00  0.00     0.049 A 
ATOM     46  H   UNL A   1      42.214  27.262  29.318  1.00  0.00     0.167 HD
ATOM     47  C   UNL A   1      43.954  30.936  30.902  1.00  0.00     0.031 A 
ATOM     48  C   UNL A   1      42.336  24.669  28.271  1.00  0.00     0.031 A 
ATOM     49  C   UNL A   1      45.031  29.983  30.882  1.00  0.00     0.049 A 
ATOM     50  C   UNL A   1      43.738  25.016  28.690  1.00  0.00     0.074 A 
ATOM     51  C   UNL A   1      46.326  30.142  31.347  1.00  0.00     0.029 A 
ATOM     52  N   UNL A   1      44.948  28.703  30.361  1.00  0.00    -0.354 N 
ATOM     53  N   UNL A   1      44.185  26.111  29.253  1.00  0.00    -0.248 NA
ATOM     54  C   UNL A   1      44.772  23.997  28.451  1.00  0.00     0.031 C 
ATOM     55  C   UNL A   1      47.046  28.985  31.040  1.00  0.00     0.029 A 
ATOM     56  C   UNL A   1      46.183  28.080  30.445  1.00  0.00     0.049 A 
ATOM     57  H   UNL A   1      44.133  28.295  29.987  1.00  0.00     0.167 HD
ATOM     58  C   UNL A   1      45.544  25.906  29.451  1.00  0.00     0.074 A 
ATOM     59  C   UNL A   1      45.843  24.571  28.979  1.00  0.00     0.031 C 
ATOM     60  C   UNL A   1      46.466  26.752  29.970  1.00  0.00     0.031 A 
BRANCH  47  61
ATOM     61  C   UNL A   1      44.264  32.323  31.391  1.00  0.00    -0.014 A 
ATOM     62  C   UNL A   1      44.199  32.648  32.755  1.00  0.00     0.009 A 
ATOM     63  C   UNL A   1      44.733  33.288  30.484  1.00  0.00     0.009 A 
ATOM     64  C   UNL A   1      44.584  33.915  33.198  1.00  0.00     0.001 A 
ATOM     65  C   UNL A   1      45.140  34.545  30.934  1.00  0.00     0.001 A 
ATOM     66  C   UNL A   1      45.062  34.859  32.289  1.00  0.00     0.000 A 
ENDBRANCH  47  61
BRANCH  48  67
ATOM     67  C   UNL A   1      42.044  23.351  27.644  1.00  0.00    -0.014 A 
ATOM     68  C   UNL A   1      42.205  23.161  26.263  1.00  0.00     0.009 A 
ATOM     69  C   UNL A   1      41.553  22.288  28.419  1.00  0.00     0.009 A 
ATOM     70  C   UNL A   1      41.839  21.953  25.666  1.00  0.00     0.001 A 
ATOM     71  C   UNL A   1      41.222  21.068  27.826  1.00  0.00     0.001 A 
ATOM     72  C   UNL A   1      41.350  20.907  26.447  1.00  0.00     0.000 A 
ENDBRANCH  48  67
BRANCH  60  73
ATOM     73  C   UNL A   1      47.880  26.253  30.070  1.00  0.00    -0.014 A 
ATOM     74  C   UNL A   1      48.755  26.330  28.975  1.00  0.00     0.009 A 
ATOM     75  C   UNL A   1      48.358  25.746  31.289  1.00  0.00     0.009 A 
ATOM     76  C   UNL A   1      50.071  25.879  29.089  1.00  0.00     0.001 A 
ATOM     77  C   UNL A   1      49.684  25.326  31.409  1.00  0.00     0.001 A 
ATOM     78  C   UNL A   1      50.536  25.385  30.308  1.00  0.00     0.000 A 
ENDBRANCH  60  73
ENDBRANCH  34  35
ENDBRANCH  26  29
ENDBRANCH  24  25
ENDBRANCH  23  24
ENDBRANCH   1  23
TORSDOF 14
ENDMDL
MODEL 2
REMARK VINA RESULT:     -11.2      2.600      7.916
REMARK SMILES C[C@@H](C(=O)NCCCNC(=O)c1ccc(-c2c3nc(c(-c4ccccc4)c4ccc([nH]4)c(-c4ccccc4)c4nc(c(-c5ccccc5)c5ccc2[nH]5)C=C4)C=C3)cc1)c1ccc(C[C@H]2CCC[C@@H]2O)cc1Br
REMARK SMILES IDX 6 1 5 2 3 3 4 4 2 6 1 7 60 8 61 9 72 10 62 11 71 12 73 13
REMARK SMILES IDX 63 14 64 15 65 16 66 17 69 18 67 19 68 20 70 21 7 23 8 24
REMARK SMILES IDX 9 25 10 26 11 28 12 29 13 30 59 31 14 32 58 33 15 34 16 35
REMARK SMILES IDX 17 36 52 37 18 38 57 39 51 40 53 41 19 42 56 43 50 44 49 45
REMARK SMILES IDX 20 47 42 48 27 49 41 50 28 51 31 52 40 53 54 54 29 55 30 56
REMARK SMILES IDX 39 58 55 59 32 60 21 61 22 62 26 63 23 64 25 65 24 66 43 67
REMARK SMILES IDX 44 68 48 69 45 70 47 71 46 72 33 73 34 74 38 75 35 76 37 77
REMARK SMILES IDX 36 78
REMARK H PARENT 5 5 70 22 9 27 53 46 31 57
REMARK Flexibility Score: inf
ROOT
ATOM      1  C   UNL A   1      36.473  20.510  25.399  1.00  0.00     0.117 C 
ENDROOT
BRANCH   1   2
ATOM      2  N   UNL A   1      36.501  21.801  26.062  1.00  0.00    -0.356 N 
ATOM      3  C   UNL A   1      36.059  23.026  25.648  1.00  0.00     0.227 C 
ATOM      4  O   UNL A   1      36.482  23.995  26.283  1.00  0.00    -0.274 OA
ATOM      5  H   UNL A   1      36.905  21.792  26.960  1.00  0.00     0.163 HD
BRANCH   3   6
ATOM      6  C   UNL A   1      35.038  23.151  24.488  1.00  0.00     0.106 C 
ATOM      7  C   UNL A   1      35.798  23.279  23.173  1.00  0.00     0.023 C 
BRANCH   6   8
ATOM      8  C   UNL A   1      33.937  24.197  24.781  1.00  0.00    -0.022 A 
ATOM      9  C   UNL A   1      33.994  25.374  23.993  1.00  0.00     0.006 A 
ATOM     10  C   UNL A   1      32.921  24.159  25.757  1.00  0.00     0.022 A 
ATOM     11  C   UNL A   1      33.093  26.432  24.141  1.00  0.00     0.004 A 
ATOM     12  C   UNL A   1      32.053  25.255  25.935  1.00  0.00     0.019 A 
ATOM     13  Br  UNL A   1      32.540  22.738  26.966  1.00  0.00    -0.051 Br
ATOM     14  C   UNL A   1      32.141  26.406  25.151  1.00  0.00    -0.047 A 
BRANCH  14  15
ATOM     15  C   UNL A   1      31.241  27.583  25.433  1.00  0.00     0.041 C 
BRANCH  15  16
ATOM     16  C   UNL A   1      31.823  28.662  26.364  1.00  0.00     0.022 C 
ATOM     17  C   UNL A   1      33.000  28.224  27.255  1.00  0.00     0.007 C 
ATOM     18  C   UNL A   1      32.320  29.936  25.676  1.00  0.00     0.117 C 
ATOM     19  C   UNL A   1      33.932  29.437  27.352  1.00  0.00     0.003 C 
ATOM     20  C   UNL A   1      33.152  30.600  26.760  1.00  0.00     0.032 C 
BRANCH  18  21
ATOM     21  O   UNL A   1      31.253  30.774  25.274  1.00  0.00    -0.393 OA
ATOM     22  H   UNL A   1      31.121  31.470  25.936  1.00  0.00     0.210 HD
ENDBRANCH  18  21
ENDBRANCH  15  16
ENDBRANCH  14  15
ENDBRANCH   6   8
ENDBRANCH   3   6
ENDBRANCH   1   2
BRANCH   1  23
ATOM     23  C   UNL A   1      37.853  20.157  24.833  1.00  0.00     0.042 C 
BRANCH  23  24
ATOM     24  C   UNL A   1      39.011  20.455  25.782  1.00  0.00     0.118 C 
BRANCH  24  25
ATOM     25  N   UNL A   1      39.966  19.361  25.853  1.00  0.00    -0.352 N 
ATOM     26  C   UNL A   1      41.320  19.387  26.069  1.00  0.00     0.251 C 
ATOM     27  H   UNL A   1      39.581  18.463  25.727  1.00  0.00     0.163 HD
ATOM     28  O   UNL A   1      41.984  18.369  25.881  1.00  0.00    -0.269 OA
BRANCH  26  29
ATOM     29  C   UNL A   1      41.994  20.632  26.497  1.00  0.00     0.039 A 
ATOM     30  C   UNL A   1      42.532  21.474  25.518  1.00  0.00     0.014 A 
ATOM     31  C   UNL A   1      42.111  20.972  27.847  1.00  0.00     0.014 A 
ATOM     32  C   UNL A   1      43.106  22.693  25.887  1.00  0.00     0.010 A 
ATOM     33  C   UNL A   1      42.622  22.218  28.210  1.00  0.00     0.010 A 
ATOM     34  C   UNL A   1      43.107  23.100  27.231  1.00  0.00    -0.014 A 
BRANCH  34  35
ATOM     35  C   UNL A   1      43.538  24.468  27.619  1.00  0.00     0.031 A 
ATOM     36  C   UNL A   1      42.530  25.521  27.988  1.00  0.00     0.074 A 
ATOM     37  C   UNL A   1      44.850  24.781  27.559  1.00  0.00     0.049 A 
ATOM     38  N   UNL A   1      42.729  26.783  28.274  1.00  0.00    -0.248 NA
ATOM     39  C   UNL A   1      41.117  25.112  28.025  1.00  0.00     0.031 C 
ATOM     40  C   UNL A   1      45.924  23.859  27.180  1.00  0.00     0.029 A 
ATOM     41  N   UNL A   1      45.502  25.965  27.799  1.00  0.00    -0.354 N 
ATOM     42  C   UNL A   1      41.470  27.322  28.508  1.00  0.00     0.074 A 
ATOM     43  C   UNL A   1      40.510  26.258  28.303  1.00  0.00     0.031 C 
ATOM     44  C   UNL A   1      47.099  24.507  27.227  1.00  0.00     0.029 A 
ATOM     45  C   UNL A   1      46.859  25.900  27.587  1.00  0.00     0.049 A 
ATOM     46  H   UNL A   1      45.042  26.783  28.096  1.00  0.00     0.167 HD
ATOM     47  C   UNL A   1      41.145  28.586  28.870  1.00  0.00     0.031 A 
ATOM     48  C   UNL A   1      47.804  26.858  27.648  1.00  0.00     0.031 A 
ATOM     49  C   UNL A   1      42.102  29.640  29.084  1.00  0.00     0.049 A 
ATOM     50  C   UNL A   1      47.402  28.261  28.011  1.00  0.00     0.074 A 
ATOM     51  C   UNL A   1      41.871  30.931  29.530  1.00  0.00     0.029 A 
ATOM     52  N   UNL A   1      43.463  29.534  28.856  1.00  0.00    -0.354 N 
ATOM     53  N   UNL A   1      46.219  28.726  28.329  1.00  0.00    -0.248 NA
ATOM     54  C   UNL A   1      48.470  29.273  28.024  1.00  0.00     0.031 C 
ATOM     55  C   UNL A   1      43.082  31.627  29.501  1.00  0.00     0.029 A 
ATOM     56  C   UNL A   1      44.077  30.751  29.102  1.00  0.00     0.049 A 
ATOM     57  H   UNL A   1      43.926  28.715  28.563  1.00  0.00     0.167 HD
ATOM     58  C   UNL A   1      46.403  30.076  28.596  1.00  0.00     0.074 A 
ATOM     59  C   UNL A   1      47.816  30.349  28.436  1.00  0.00     0.031 C 
ATOM     60  C   UNL A   1      45.483  31.009  28.936  1.00  0.00     0.031 A 
BRANCH  47  61
ATOM     61  C   UNL A   1      39.691  28.923  29.049  1.00  0.00    -0.014 A 
ATOM     62  C   UNL A   1      38.909  29.374  27.976  1.00  0.00     0.009 A 
ATOM     63  C   UNL A   1      39.073  28.679  30.287  1.00  0.00     0.009 A 
ATOM     64  C   UNL A   1      37.539  29.590  28.142  1.00  0.00     0.001 A 
ATOM     65  C   UNL A   1      37.699  28.871  30.443  1.00  0.00     0.001 A 
ATOM     66  C   UNL A   1      36.934  29.329  29.372  1.00  0.00     0.000 A 
ENDBRANCH  47  61
BRANCH  48  67
ATOM     67  C   UNL A   1      49.222  26.544  27.321  1.00  0.00    -0.014 A 
ATOM     68  C   UNL A   1      49.701  26.675  26.009  1.00  0.00     0.009 A 
ATOM     69  C   UNL A   1      50.090  26.062  28.312  1.00  0.00     0.009 A 
ATOM     70  C   UNL A   1      51.004  26.288  25.688  1.00  0.00     0.001 A 
ATOM     71  C   UNL A   1      51.405  25.711  27.997  1.00  0.00     0.001 A 
ATOM     72  C   UNL A   1      51.855  25.808  26.682  1.00  0.00     0.000 A 
ENDBRANCH  48  67
BRANCH  60  73
ATOM     73  C   UNL A   1      45.976  32.409  29.175  1.00  0.00    -0.014 A 
ATOM     74  C   UNL A   1      45.997  33.357  28.139  1.00  0.00     0.009 A 
ATOM     75  C   UNL A   1      46.379  32.799  30.462  1.00  0.00     0.009 A 
ATOM     76  C   UNL A   1      46.440  34.657  28.380  1.00  0.00     0.001 A 
ATOM     77  C   UNL A   1      46.792  34.109  30.708  1.00  0.00     0.001 A 
ATOM     78  C   UNL A   1      46.830  35.034  29.665  1.00  0.00     0.000 A 
ENDBRANCH  60  73
ENDBRANCH  34  35
ENDBRANCH  26  29
ENDBRANCH  24  25
ENDBRANCH  23  24
ENDBRANCH   1  23
TORSDOF 14
ENDMDL
MODEL 3
REMARK VINA RESULT:     -11.2      3.763      7.623
REMARK SMILES C[C@@H](C(=O)NCCCNC(=O)c1ccc(-c2c3nc(c(-c4ccccc4)c4ccc([nH]4)c(-c4ccccc4)c4nc(c(-c5ccccc5)c5ccc2[nH]5)C=C4)C=C3)cc1)c1ccc(C[C@H]2CCC[C@@H]2O)cc1Br
REMARK SMILES IDX 6 1 5 2 3 3 4 4 2 6 1 7 60 8 61 9 72 10 62 11 71 12 73 13
REMARK SMILES IDX 63 14 64 15 65 16 66 17 69 18 67 19 68 20 70 21 7 23 8 24
REMARK SMILES IDX 9 25 10 26 11 28 12 29 13 30 59 31 14 32 58 33 15 34 16 35
REMARK SMILES IDX 17 36 52 37 18 38 57 39 51 40 53 41 19 42 56 43 50 44 49 45
REMARK SMILES IDX 20 47 42 48 27 49 41 50 28 51 31 52 40 53 54 54 29 55 30 56
REMARK SMILES IDX 39 58 55 59 32 60 21 61 22 62 26 63 23 64 25 65 24 66 43 67
REMARK SMILES IDX 44 68 48 69 45 70 47 71 46 72 33 73 34 74 38 75 35 76 37 77
REMARK SMILES IDX 36 78
REMARK H PARENT 5 5 70 22 9 27 53 46 31 57
REMARK Flexibility Score: inf
ROOT
ATOM      1  C   UNL A   1      31.423  30.615  26.516  1.00  0.00     0.117 C 
ENDROOT
BRANCH   1   2
ATOM      2  N   UNL A   1      31.897  30.093  25.246  1.00  0.00    -0.356 N 
ATOM      3  C   UNL A   1      32.771  29.081  24.969  1.00  0.00     0.227 C 
ATOM      4  O   UNL A   1      33.218  29.054  23.820  1.00  0.00    -0.274 OA
ATOM      5  H   UNL A   1      31.525  30.544  24.454  1.00  0.00     0.163 HD
BRANCH   3   6
ATOM      6  C   UNL A   1      33.110  28.009  26.037  1.00  0.00     0.106 C 
ATOM      7  C   UNL A   1      34.311  28.482  26.847  1.00  0.00     0.023 C 
BRANCH   6   8
ATOM      8  C   UNL A   1      33.165  26.582  25.444  1.00  0.00    -0.022 A 
ATOM      9  C   UNL A   1      34.446  25.973  25.449  1.00  0.00     0.006 A 
ATOM     10  C   UNL A   1      32.130  25.830  24.855  1.00  0.00     0.022 A 
ATOM     11  C   UNL A   1      34.682  24.697  24.931  1.00  0.00     0.004 A 
ATOM     12  C   UNL A   1      32.391  24.567  24.285  1.00  0.00     0.019 A 
ATOM     13  Br  UNL A   1      30.297  26.323  24.696  1.00  0.00    -0.051 Br
ATOM     14  C   UNL A   1      33.666  23.998  24.296  1.00  0.00    -0.047 A 
BRANCH  14  15
ATOM     15  C   UNL A   1      33.910  22.681  23.603  1.00  0.00     0.041 C 
BRANCH  15  16
ATOM     16  C   UNL A   1      33.243  21.452  24.246  1.00  0.00     0.022 C 
ATOM     17  C   UNL A   1      32.342  20.611  23.323  1.00  0.00     0.007 C 
ATOM     18  C   UNL A   1      34.194  20.435  24.881  1.00  0.00     0.117 C 
ATOM     19  C   UNL A   1      32.535  19.154  23.758  1.00  0.00     0.003 C 
ATOM     20  C   UNL A   1      33.306  19.216  25.067  1.00  0.00     0.032 C 
BRANCH  18  21
ATOM     21  O   UNL A   1      34.701  20.884  26.123  1.00  0.00    -0.393 OA
ATOM     22  H   UNL A   1      35.271  20.200  26.508  1.00  0.00     0.210 HD
ENDBRANCH  18  21
ENDBRANCH  15  16
ENDBRANCH  14  15
ENDBRANCH   6   8
ENDBRANCH   3   6
ENDBRANCH   1   2
BRANCH   1  23
ATOM     23  C   UNL A   1      31.414  32.148  26.507  1.00  0.00     0.042 C 
BRANCH  23  24
ATOM     24  C   UNL A   1      32.555  32.783  27.296  1.00  0.00     0.118 C 
BRANCH  24  25
ATOM     25  N   UNL A   1      32.302  34.180  27.610  1.00  0.00    -0.352 N 
ATOM     26  C   UNL A   1      32.908  35.000  28.528  1.00  0.00     0.251 C 
ATOM     27  H   UNL A   1      31.586  34.603  27.081  1.00  0.00     0.163 HD
ATOM     28  O   UNL A   1      32.405  36.092  28.790  1.00  0.00    -0.269 OA
BRANCH  26  29
ATOM     29  C   UNL A   1      34.139  34.574  29.227  1.00  0.00     0.039 A 
ATOM     30  C   UNL A   1      34.053  34.202  30.572  1.00  0.00     0.014 A 
ATOM     31  C   UNL A   1      35.375  34.549  28.576  1.00  0.00     0.014 A 
ATOM     32  C   UNL A   1      35.184  33.722  31.236  1.00  0.00     0.010 A 
ATOM     33  C   UNL A   1      36.489  34.006  29.217  1.00  0.00     0.010 A 
ATOM     34  C   UNL A   1      36.399  33.569  30.548  1.00  0.00    -0.014 A 
BRANCH  34  35
ATOM     35  C   UNL A   1      37.558  32.886  31.181  1.00  0.00     0.031 A 
ATOM     36  C   UNL A   1      38.175  31.669  30.551  1.00  0.00     0.074 A 
ATOM     37  C   UNL A   1      38.003  33.327  32.376  1.00  0.00     0.049 A 
ATOM     38  N   UNL A   1      39.138  30.907  31.007  1.00  0.00    -0.248 NA
ATOM     39  C   UNL A   1      37.635  31.240  29.251  1.00  0.00     0.031 C 
ATOM     40  C   UNL A   1      37.465  34.476  33.110  1.00  0.00     0.029 A 
ATOM     41  N   UNL A   1      38.999  32.852  33.194  1.00  0.00    -0.354 N 
ATOM     42  C   UNL A   1      39.307  29.902  30.062  1.00  0.00     0.074 A 
ATOM     43  C   UNL A   1      38.329  30.133  29.021  1.00  0.00     0.031 C 
ATOM     44  C   UNL A   1      38.144  34.624  34.258  1.00  0.00     0.029 A 
ATOM     45  C   UNL A   1      39.128  33.553  34.370  1.00  0.00     0.049 A 
ATOM     46  H   UNL A   1      39.566  32.082  32.961  1.00  0.00     0.167 HD
ATOM     47  C   UNL A   1      40.202  28.885  30.061  1.00  0.00     0.031 A 
ATOM     48  C   UNL A   1      39.929  33.345  35.432  1.00  0.00     0.031 A 
ATOM     49  C   UNL A   1      41.181  28.664  31.092  1.00  0.00     0.049 A 
ATOM     50  C   UNL A   1      40.881  32.181  35.415  1.00  0.00     0.074 A 
ATOM     51  C   UNL A   1      42.181  27.707  31.135  1.00  0.00     0.029 A 
ATOM     52  N   UNL A   1      41.276  29.394  32.265  1.00  0.00    -0.354 N 
ATOM     53  N   UNL A   1      41.096  31.303  34.466  1.00  0.00    -0.248 NA
ATOM     54  C   UNL A   1      41.704  31.981  36.618  1.00  0.00     0.031 C 
ATOM     55  C   UNL A   1      42.834  27.810  32.365  1.00  0.00     0.029 A 
ATOM     56  C   UNL A   1      42.284  28.874  33.061  1.00  0.00     0.049 A 
ATOM     57  H   UNL A   1      40.712  30.166  32.499  1.00  0.00     0.167 HD
ATOM     58  C   UNL A   1      42.087  30.460  34.950  1.00  0.00     0.074 A 
ATOM     59  C   UNL A   1      42.456  30.949  36.261  1.00  0.00     0.031 C 
ATOM     60  C   UNL A   1      42.638  29.371  34.364  1.00  0.00     0.031 A 
BRANCH  47  61
ATOM     61  C   UNL A   1      40.169  27.912  28.916  1.00  0.00    -0.014 A 
ATOM     62  C   UNL A   1      40.890  28.148  27.736  1.00  0.00     0.009 A 
ATOM     63  C   UNL A   1      39.492  26.690  29.067  1.00  0.00     0.009 A 
ATOM     64  C   UNL A   1      40.922  27.186  26.723  1.00  0.00     0.001 A 
ATOM     65  C   UNL A   1      39.547  25.721  28.063  1.00  0.00     0.001 A 
ATOM     66  C   UNL A   1      40.258  25.971  26.892  1.00  0.00     0.000 A 
ENDBRANCH  47  61
BRANCH  48  67
ATOM     67  C   UNL A   1      39.847  34.230  36.626  1.00  0.00    -0.014 A 
ATOM     68  C   UNL A   1      40.632  35.389  36.717  1.00  0.00     0.009 A 
ATOM     69  C   UNL A   1      39.017  33.890  37.707  1.00  0.00     0.009 A 
ATOM     70  C   UNL A   1      40.623  36.163  37.880  1.00  0.00     0.001 A 
ATOM     71  C   UNL A   1      38.980  34.685  38.854  1.00  0.00     0.001 A 
ATOM     72  C   UNL A   1      39.796  35.812  38.946  1.00  0.00     0.000 A 
ENDBRANCH  48  67
BRANCH  60  73
ATOM     73  C   UNL A   1      43.710  28.644  35.128  1.00  0.00    -0.014 A 
ATOM     74  C   UNL A   1      43.396  27.556  35.959  1.00  0.00     0.009 A 
ATOM     75  C   UNL A   1      45.053  29.021  34.978  1.00  0.00     0.009 A 
ATOM     76  C   UNL A   1      44.404  26.881  36.647  1.00  0.00     0.001 A 
ATOM     77  C   UNL A   1      46.063  28.323  35.643  1.00  0.00     0.001 A 
ATOM     78  C   UNL A   1      45.737  27.260  36.484  1.00  0.00     0.000 A 
ENDBRANCH  60  73
ENDBRANCH  34  35
ENDBRANCH  26  29
ENDBRANCH  24  25
ENDBRANCH  23  24
ENDBRANCH   1  23
TORSDOF 14
ENDMDL
