MODEL 1
REMARK VINA RESULT:     -12.8      0.000      0.000
REMARK SMILES [NH3+][C@@H](Cc1cn(-c2nc(Cl)nc(N3CCOCC3)n2)c2ccccc12)C(=O)NCCCNC(=O)c1ccc(-c2c3nc(c(-c4ccccc4)c4ccc([nH]4)c(-c4ccccc4)c4nc(c(-c5ccccc5)c5ccc2[nH]5)C=C4)C=C3)cc1
REMARK SMILES IDX 29 1 28 2 26 3 27 4 2 6 1 7 3 11 4 12 5 13 25 14 6 15 20 16
REMARK SMILES IDX 24 17 21 18 23 19 22 20 7 21 8 22 19 23 9 24 12 25 10 26
REMARK SMILES IDX 11 27 13 28 14 29 18 30 15 31 17 32 16 33 30 34 31 35 32 36
REMARK SMILES IDX 33 37 34 39 35 40 36 41 82 42 37 43 81 44 38 45 39 46 40 47
REMARK SMILES IDX 75 48 41 49 80 50 74 51 76 52 42 53 79 54 73 55 72 56 43 58
REMARK SMILES IDX 65 59 50 60 64 61 51 62 54 63 63 64 77 65 52 66 53 67 62 69
REMARK SMILES IDX 78 70 55 71 44 72 45 73 49 74 46 75 48 76 47 77 66 78 67 79
REMARK SMILES IDX 71 80 68 81 70 82 69 83 56 84 57 85 61 86 58 87 60 88 59 89
REMARK H PARENT 28 5 1 8 1 9 1 10 32 38 76 57 54 68
REMARK Flexibility Score: inf
ROOT
ATOM      1  C   UNL A   1      32.781  30.478  27.309  1.00  0.00     0.118 C 
ENDROOT
BRANCH   1   2
ATOM      2  N   UNL A   1      32.300  30.021  26.034  1.00  0.00    -0.351 N 
ATOM      3  C   UNL A   1      31.587  28.880  25.770  1.00  0.00     0.278 C 
ATOM      4  O   UNL A   1      30.966  28.853  24.700  1.00  0.00    -0.268 OA
ATOM      5  H   UNL A   1      32.507  30.593  25.260  1.00  0.00     0.163 HD
BRANCH   3   6
ATOM      6  C   UNL A   1      31.570  27.638  26.715  1.00  0.00     0.275 C 
BRANCH   6   7
ATOM      7  N   UNL A   1      31.294  28.037  28.114  1.00  0.00    -0.347 N 
ATOM      8  H   UNL A   1      30.541  27.460  28.489  1.00  0.00     0.345 HD
ATOM      9  H   UNL A   1      31.016  29.018  28.139  1.00  0.00     0.345 HD
ATOM     10  H   UNL A   1      32.135  27.907  28.677  1.00  0.00     0.345 HD
ENDBRANCH   6   7
BRANCH   6  11
ATOM     11  C   UNL A   1      30.897  26.331  26.213  1.00  0.00     0.113 C 
BRANCH  11  12
ATOM     12  C   UNL A   1      31.638  25.417  25.273  1.00  0.00    -0.015 A 
ATOM     13  C   UNL A   1      32.358  24.298  25.653  1.00  0.00     0.099 A 
ATOM     14  C   UNL A   1      31.753  25.475  23.842  1.00  0.00     0.004 A 
ATOM     15  N   UNL A   1      33.103  23.845  24.581  1.00  0.00    -0.285 N 
ATOM     16  C   UNL A   1      32.788  24.604  23.466  1.00  0.00     0.056 A 
ATOM     17  C   UNL A   1      31.159  26.279  22.844  1.00  0.00     0.010 A 
ATOM     18  C   UNL A   1      33.278  24.558  22.149  1.00  0.00     0.027 A 
ATOM     19  C   UNL A   1      31.649  26.245  21.536  1.00  0.00     0.001 A 
ATOM     20  C   UNL A   1      32.704  25.405  21.199  1.00  0.00     0.002 A 
BRANCH  15  21
ATOM     21  C   UNL A   1      34.016  22.756  24.653  1.00  0.00     0.240 A 
ATOM     22  N   UNL A   1      35.276  22.979  25.017  1.00  0.00    -0.181 NA
ATOM     23  N   UNL A   1      33.499  21.553  24.403  1.00  0.00    -0.176 NA
ATOM     24  C   UNL A   1      35.938  21.845  25.229  1.00  0.00     0.228 A 
ATOM     25  C   UNL A   1      34.311  20.515  24.541  1.00  0.00     0.231 A 
ATOM     26  Cl  UNL A   1      37.521  21.944  25.846  1.00  0.00    -0.041 Cl
ATOM     27  N   UNL A   1      35.531  20.603  25.023  1.00  0.00    -0.182 NA
BRANCH  25  28
ATOM     28  N   UNL A   1      33.827  19.299  24.177  1.00  0.00    -0.336 N 
ATOM     29  C   UNL A   1      34.542  18.104  24.608  1.00  0.00     0.148 C 
ATOM     30  C   UNL A   1      32.431  19.108  23.830  1.00  0.00     0.148 C 
ATOM     31  C   UNL A   1      34.403  17.041  23.513  1.00  0.00     0.181 C 
ATOM     32  C   UNL A   1      32.388  18.029  22.734  1.00  0.00     0.181 C 
ATOM     33  O   UNL A   1      33.022  16.810  23.171  1.00  0.00    -0.378 OA
ENDBRANCH  25  28
ENDBRANCH  15  21
ENDBRANCH  11  12
ENDBRANCH   6  11
ENDBRANCH   3   6
ENDBRANCH   1   2
BRANCH   1  34
ATOM     34  C   UNL A   1      34.211  30.974  27.382  1.00  0.00     0.042 C 
BRANCH  34  35
ATOM     35  C   UNL A   1      34.445  32.285  28.122  1.00  0.00     0.118 C 
BRANCH  35  36
ATOM     36  N   UNL A   1      34.498  32.207  29.568  1.00  0.00    -0.352 N 
ATOM     37  C   UNL A   1      35.472  31.865  30.466  1.00  0.00     0.251 C 
ATOM     38  H   UNL A   1      33.647  32.453  29.998  1.00  0.00     0.163 HD
ATOM     39  O   UNL A   1      35.343  32.336  31.602  1.00  0.00    -0.269 OA
BRANCH  37  40
ATOM     40  C   UNL A   1      36.584  30.905  30.217  1.00  0.00     0.039 A 
ATOM     41  C   UNL A   1      36.530  29.528  30.415  1.00  0.00     0.014 A 
ATOM     42  C   UNL A   1      37.827  31.474  29.884  1.00  0.00     0.014 A 
ATOM     43  C   UNL A   1      37.701  28.767  30.418  1.00  0.00     0.010 A 
ATOM     44  C   UNL A   1      39.002  30.729  29.911  1.00  0.00     0.010 A 
ATOM     45  C   UNL A   1      38.943  29.376  30.222  1.00  0.00    -0.014 A 
BRANCH  45  46
ATOM     46  C   UNL A   1      40.138  28.532  30.180  1.00  0.00     0.031 A 
ATOM     47  C   UNL A   1      40.849  28.376  31.482  1.00  0.00     0.074 A 
ATOM     48  C   UNL A   1      40.500  27.772  29.127  1.00  0.00     0.049 A 
ATOM     49  N   UNL A   1      42.098  28.573  31.753  1.00  0.00    -0.248 NA
ATOM     50  C   UNL A   1      40.033  27.994  32.647  1.00  0.00     0.031 C 
ATOM     51  C   UNL A   1      39.731  27.512  27.908  1.00  0.00     0.029 A 
ATOM     52  N   UNL A   1      41.592  26.959  28.991  1.00  0.00    -0.354 N 
ATOM     53  C   UNL A   1      42.262  28.214  33.091  1.00  0.00     0.074 A 
ATOM     54  C   UNL A   1      40.945  27.961  33.616  1.00  0.00     0.031 C 
ATOM     55  C   UNL A   1      40.259  26.438  27.274  1.00  0.00     0.029 A 
ATOM     56  C   UNL A   1      41.469  26.027  27.970  1.00  0.00     0.049 A 
ATOM     57  H   UNL A   1      42.390  27.029  29.564  1.00  0.00     0.167 HD
ATOM     58  C   UNL A   1      43.482  27.980  33.648  1.00  0.00     0.031 A 
ATOM     59  C   UNL A   1      42.255  24.945  27.760  1.00  0.00     0.031 A 
ATOM     60  C   UNL A   1      44.553  28.519  32.860  1.00  0.00     0.049 A 
ATOM     61  C   UNL A   1      43.529  25.135  28.487  1.00  0.00     0.074 A 
ATOM     62  C   UNL A   1      44.974  29.781  32.503  1.00  0.00     0.029 A 
ATOM     63  N   UNL A   1      45.231  27.638  32.058  1.00  0.00    -0.354 N 
ATOM     64  N   UNL A   1      44.428  26.021  28.173  1.00  0.00    -0.248 NA
ATOM     65  C   UNL A   1      43.701  24.506  29.788  1.00  0.00     0.031 C 
ATOM     66  C   UNL A   1      45.592  29.625  31.229  1.00  0.00     0.029 A 
ATOM     67  C   UNL A   1      45.524  28.274  30.882  1.00  0.00     0.049 A 
ATOM     68  H   UNL A   1      45.466  26.710  32.289  1.00  0.00     0.167 HD
ATOM     69  C   UNL A   1      45.021  26.362  29.377  1.00  0.00     0.074 A 
ATOM     70  C   UNL A   1      44.655  25.292  30.295  1.00  0.00     0.031 C 
ATOM     71  C   UNL A   1      45.504  27.621  29.588  1.00  0.00     0.031 A 
BRANCH  58  72
ATOM     72  C   UNL A   1      43.736  26.962  34.735  1.00  0.00    -0.014 A 
ATOM     73  C   UNL A   1      43.912  27.304  36.088  1.00  0.00     0.009 A 
ATOM     74  C   UNL A   1      43.520  25.600  34.453  1.00  0.00     0.009 A 
ATOM     75  C   UNL A   1      43.862  26.348  37.108  1.00  0.00     0.001 A 
ATOM     76  C   UNL A   1      43.423  24.646  35.475  1.00  0.00     0.001 A 
ATOM     77  C   UNL A   1      43.590  25.022  36.803  1.00  0.00     0.000 A 
ENDBRANCH  58  72
BRANCH  59  78
ATOM     78  C   UNL A   1      41.874  23.627  27.209  1.00  0.00    -0.014 A 
ATOM     79  C   UNL A   1      41.010  22.785  27.932  1.00  0.00     0.009 A 
ATOM     80  C   UNL A   1      42.568  23.073  26.121  1.00  0.00     0.009 A 
ATOM     81  C   UNL A   1      40.871  21.432  27.607  1.00  0.00     0.001 A 
ATOM     82  C   UNL A   1      42.434  21.716  25.798  1.00  0.00     0.001 A 
ATOM     83  C   UNL A   1      41.598  20.893  26.551  1.00  0.00     0.000 A 
ENDBRANCH  59  78
BRANCH  71  84
ATOM     84  C   UNL A   1      45.734  28.507  28.389  1.00  0.00    -0.014 A 
ATOM     85  C   UNL A   1      47.020  28.546  27.829  1.00  0.00     0.009 A 
ATOM     86  C   UNL A   1      44.770  29.410  27.910  1.00  0.00     0.009 A 
ATOM     87  C   UNL A   1      47.337  29.463  26.824  1.00  0.00     0.001 A 
ATOM     88  C   UNL A   1      45.079  30.308  26.884  1.00  0.00     0.001 A 
ATOM     89  C   UNL A   1      46.365  30.340  26.349  1.00  0.00     0.000 A 
ENDBRANCH  71  84
ENDBRANCH  45  46
ENDBRANCH  37  40
ENDBRANCH  35  36
ENDBRANCH  34  35
ENDBRANCH   1  34
TORSDOF 15
ENDMDL
MODEL 2
REMARK VINA RESULT:     -12.7      3.167      8.819
REMARK SMILES [NH3+][C@@H](Cc1cn(-c2nc(Cl)nc(N3CCOCC3)n2)c2ccccc12)C(=O)NCCCNC(=O)c1ccc(-c2c3nc(c(-c4ccccc4)c4ccc([nH]4)c(-c4ccccc4)c4nc(c(-c5ccccc5)c5ccc2[nH]5)C=C4)C=C3)cc1
REMARK SMILES IDX 29 1 28 2 26 3 27 4 2 6 1 7 3 11 4 12 5 13 25 14 6 15 20 16
REMARK SMILES IDX 24 17 21 18 23 19 22 20 7 21 8 22 19 23 9 24 12 25 10 26
REMARK SMILES IDX 11 27 13 28 14 29 18 30 15 31 17 32 16 33 30 34 31 35 32 36
REMARK SMILES IDX 33 37 34 39 35 40 36 41 82 42 37 43 81 44 38 45 39 46 40 47
REMARK SMILES IDX 75 48 41 49 80 50 74 51 76 52 42 53 79 54 73 55 72 56 43 58
REMARK SMILES IDX 65 59 50 60 64 61 51 62 54 63 63 64 77 65 52 66 53 67 62 69
REMARK SMILES IDX 78 70 55 71 44 72 45 73 49 74 46 75 48 76 47 77 66 78 67 79
REMARK SMILES IDX 71 80 68 81 70 82 69 83 56 84 57 85 61 86 58 87 60 88 59 89
REMARK H PARENT 28 5 1 8 1 9 1 10 32 38 76 57 54 68
REMARK Flexibility Score: inf
ROOT
ATOM      1  C   UNL A   1      37.608  22.677  26.074  1.00  0.00     0.118 C 
ENDROOT
BRANCH   1   2
ATOM      2  N   UNL A   1      36.342  22.021  25.900  1.00  0.00    -0.351 N 
ATOM      3  C   UNL A   1      35.543  22.029  24.785  1.00  0.00     0.278 C 
ATOM      4  O   UNL A   1      34.698  21.128  24.705  1.00  0.00    -0.268 OA
ATOM      5  H   UNL A   1      36.009  21.505  26.669  1.00  0.00     0.163 HD
BRANCH   3   6
ATOM      6  C   UNL A   1      35.625  23.124  23.676  1.00  0.00     0.275 C 
BRANCH   6   7
ATOM      7  N   UNL A   1      36.821  22.931  22.824  1.00  0.00    -0.347 N 
ATOM      8  H   UNL A   1      36.538  22.891  21.845  1.00  0.00     0.345 HD
ATOM      9  H   UNL A   1      37.283  22.058  23.081  1.00  0.00     0.345 HD
ATOM     10  H   UNL A   1      37.465  23.710  22.962  1.00  0.00     0.345 HD
ENDBRANCH   6   7
BRANCH   6  11
ATOM     11  C   UNL A   1      34.316  23.555  22.958  1.00  0.00     0.113 C 
BRANCH  11  12
ATOM     12  C   UNL A   1      33.269  24.334  23.709  1.00  0.00    -0.015 A 
ATOM     13  C   UNL A   1      33.138  25.711  23.696  1.00  0.00     0.099 A 
ATOM     14  C   UNL A   1      32.208  23.859  24.555  1.00  0.00     0.004 A 
ATOM     15  N   UNL A   1      32.245  26.098  24.677  1.00  0.00    -0.285 N 
ATOM     16  C   UNL A   1      31.706  24.963  25.262  1.00  0.00     0.056 A 
ATOM     17  C   UNL A   1      31.711  22.577  24.876  1.00  0.00     0.010 A 
ATOM     18  C   UNL A   1      30.778  24.816  26.308  1.00  0.00     0.027 A 
ATOM     19  C   UNL A   1      30.796  22.423  25.921  1.00  0.00     0.001 A 
ATOM     20  C   UNL A   1      30.348  23.528  26.635  1.00  0.00     0.002 A 
BRANCH  15  21
ATOM     21  C   UNL A   1      31.941  27.454  24.984  1.00  0.00     0.240 A 
ATOM     22  N   UNL A   1      32.544  28.045  26.011  1.00  0.00    -0.181 NA
ATOM     23  N   UNL A   1      31.095  28.058  24.149  1.00  0.00    -0.176 NA
ATOM     24  C   UNL A   1      32.307  29.353  26.039  1.00  0.00     0.228 A 
ATOM     25  C   UNL A   1      30.858  29.343  24.367  1.00  0.00     0.231 A 
ATOM     26  Cl  UNL A   1      33.122  30.291  27.200  1.00  0.00    -0.041 Cl
ATOM     27  N   UNL A   1      31.499  30.059  25.265  1.00  0.00    -0.182 NA
BRANCH  25  28
ATOM     28  N   UNL A   1      29.913  29.938  23.595  1.00  0.00    -0.336 N 
ATOM     29  C   UNL A   1      29.394  31.238  24.000  1.00  0.00     0.148 C 
ATOM     30  C   UNL A   1      29.759  29.607  22.189  1.00  0.00     0.148 C 
ATOM     31  C   UNL A   1      27.920  31.316  23.590  1.00  0.00     0.181 C 
ATOM     32  C   UNL A   1      28.258  29.714  21.869  1.00  0.00     0.181 C 
ATOM     33  O   UNL A   1      27.743  31.022  22.190  1.00  0.00    -0.378 OA
ENDBRANCH  25  28
ENDBRANCH  15  21
ENDBRANCH  11  12
ENDBRANCH   6  11
ENDBRANCH   3   6
ENDBRANCH   1   2
BRANCH   1  34
ATOM     34  C   UNL A   1      38.861  21.845  25.883  1.00  0.00     0.042 C 
BRANCH  34  35
ATOM     35  C   UNL A   1      40.119  22.328  26.593  1.00  0.00     0.118 C 
BRANCH  35  36
ATOM     36  N   UNL A   1      41.281  22.558  25.757  1.00  0.00    -0.352 N 
ATOM     37  C   UNL A   1      42.346  23.413  25.825  1.00  0.00     0.251 C 
ATOM     38  H   UNL A   1      41.309  21.970  24.967  1.00  0.00     0.163 HD
ATOM     39  O   UNL A   1      43.366  23.048  25.228  1.00  0.00    -0.269 OA
BRANCH  37  40
ATOM     40  C   UNL A   1      42.336  24.766  26.451  1.00  0.00     0.039 A 
ATOM     41  C   UNL A   1      42.975  25.119  27.635  1.00  0.00     0.014 A 
ATOM     42  C   UNL A   1      41.491  25.717  25.849  1.00  0.00     0.014 A 
ATOM     43  C   UNL A   1      42.672  26.325  28.271  1.00  0.00     0.010 A 
ATOM     44  C   UNL A   1      41.163  26.909  26.487  1.00  0.00     0.010 A 
ATOM     45  C   UNL A   1      41.725  27.195  27.725  1.00  0.00    -0.014 A 
BRANCH  45  46
ATOM     46  C   UNL A   1      41.479  28.472  28.397  1.00  0.00     0.031 A 
ATOM     47  C   UNL A   1      42.531  29.509  28.190  1.00  0.00     0.074 A 
ATOM     48  C   UNL A   1      40.321  28.808  29.001  1.00  0.00     0.049 A 
ATOM     49  N   UNL A   1      43.177  30.198  29.074  1.00  0.00    -0.248 NA
ATOM     50  C   UNL A   1      42.947  29.771  26.802  1.00  0.00     0.031 C 
ATOM     51  C   UNL A   1      39.058  28.067  28.983  1.00  0.00     0.029 A 
ATOM     52  N   UNL A   1      39.999  29.965  29.655  1.00  0.00    -0.354 N 
ATOM     53  C   UNL A   1      43.988  31.078  28.358  1.00  0.00     0.074 A 
ATOM     54  C   UNL A   1      43.880  30.705  26.971  1.00  0.00     0.031 C 
ATOM     55  C   UNL A   1      38.060  28.888  29.385  1.00  0.00     0.029 A 
ATOM     56  C   UNL A   1      38.633  30.156  29.809  1.00  0.00     0.049 A 
ATOM     57  H   UNL A   1      40.673  30.604  29.985  1.00  0.00     0.167 HD
ATOM     58  C   UNL A   1      44.571  32.170  28.923  1.00  0.00     0.031 A 
ATOM     59  C   UNL A   1      38.010  31.300  30.179  1.00  0.00     0.031 A 
ATOM     60  C   UNL A   1      44.598  32.093  30.356  1.00  0.00     0.049 A 
ATOM     61  C   UNL A   1      38.996  32.188  30.832  1.00  0.00     0.074 A 
ATOM     62  C   UNL A   1      45.225  31.295  31.287  1.00  0.00     0.029 A 
ATOM     63  N   UNL A   1      43.633  32.797  31.029  1.00  0.00    -0.354 N 
ATOM     64  N   UNL A   1      39.545  31.951  31.987  1.00  0.00    -0.248 NA
ATOM     65  C   UNL A   1      39.615  33.250  30.054  1.00  0.00     0.031 C 
ATOM     66  C   UNL A   1      44.343  31.259  32.406  1.00  0.00     0.029 A 
ATOM     67  C   UNL A   1      43.231  32.048  32.101  1.00  0.00     0.049 A 
ATOM     68  H   UNL A   1      43.290  33.686  30.783  1.00  0.00     0.167 HD
ATOM     69  C   UNL A   1      40.801  32.527  31.905  1.00  0.00     0.074 A 
ATOM     70  C   UNL A   1      40.723  33.441  30.774  1.00  0.00     0.031 C 
ATOM     71  C   UNL A   1      41.863  31.991  32.575  1.00  0.00     0.031 A 
BRANCH  58  72
ATOM     72  C   UNL A   1      44.811  33.473  28.198  1.00  0.00    -0.014 A 
ATOM     73  C   UNL A   1      46.063  33.848  27.676  1.00  0.00     0.009 A 
ATOM     74  C   UNL A   1      43.702  34.230  27.776  1.00  0.00     0.009 A 
ATOM     75  C   UNL A   1      46.204  34.907  26.774  1.00  0.00     0.001 A 
ATOM     76  C   UNL A   1      43.831  35.262  26.837  1.00  0.00     0.001 A 
ATOM     77  C   UNL A   1      45.084  35.597  26.333  1.00  0.00     0.000 A 
ENDBRANCH  58  72
BRANCH  59  78
ATOM     78  C   UNL A   1      36.686  31.803  29.753  1.00  0.00    -0.014 A 
ATOM     79  C   UNL A   1      36.486  32.220  28.425  1.00  0.00     0.009 A 
ATOM     80  C   UNL A   1      35.704  32.138  30.700  1.00  0.00     0.009 A 
ATOM     81  C   UNL A   1      35.368  32.977  28.061  1.00  0.00     0.001 A 
ATOM     82  C   UNL A   1      34.588  32.902  30.337  1.00  0.00     0.001 A 
ATOM     83  C   UNL A   1      34.428  33.334  29.022  1.00  0.00     0.000 A 
ENDBRANCH  59  78
BRANCH  71  84
ATOM     84  C   UNL A   1      41.583  31.017  33.693  1.00  0.00    -0.014 A 
ATOM     85  C   UNL A   1      41.753  31.456  35.014  1.00  0.00     0.009 A 
ATOM     86  C   UNL A   1      41.318  29.655  33.471  1.00  0.00     0.009 A 
ATOM     87  C   UNL A   1      41.667  30.562  36.084  1.00  0.00     0.001 A 
ATOM     88  C   UNL A   1      41.203  28.765  34.544  1.00  0.00     0.001 A 
ATOM     89  C   UNL A   1      41.388  29.218  35.848  1.00  0.00     0.000 A 
ENDBRANCH  71  84
ENDBRANCH  45  46
ENDBRANCH  37  40
ENDBRANCH  35  36
ENDBRANCH  34  35
ENDBRANCH   1  34
TORSDOF 15
ENDMDL
MODEL 3
REMARK VINA RESULT:     -12.7      5.156      9.093
REMARK SMILES [NH3+][C@@H](Cc1cn(-c2nc(Cl)nc(N3CCOCC3)n2)c2ccccc12)C(=O)NCCCNC(=O)c1ccc(-c2c3nc(c(-c4ccccc4)c4ccc([nH]4)c(-c4ccccc4)c4nc(c(-c5ccccc5)c5ccc2[nH]5)C=C4)C=C3)cc1
REMARK SMILES IDX 29 1 28 2 26 3 27 4 2 6 1 7 3 11 4 12 5 13 25 14 6 15 20 16
REMARK SMILES IDX 24 17 21 18 23 19 22 20 7 21 8 22 19 23 9 24 12 25 10 26
REMARK SMILES IDX 11 27 13 28 14 29 18 30 15 31 17 32 16 33 30 34 31 35 32 36
REMARK SMILES IDX 33 37 34 39 35 40 36 41 82 42 37 43 81 44 38 45 39 46 40 47
REMARK SMILES IDX 75 48 41 49 80 50 74 51 76 52 42 53 79 54 73 55 72 56 43 58
REMARK SMILES IDX 65 59 50 60 64 61 51 62 54 63 63 64 77 65 52 66 53 67 62 69
REMARK SMILES IDX 78 70 55 71 44 72 45 73 49 74 46 75 48 76 47 77 66 78 67 79
REMARK SMILES IDX 71 80 68 81 70 82 69 83 56 84 57 85 61 86 58 87 60 88 59 89
REMARK H PARENT 28 5 1 8 1 9 1 10 32 38 76 57 54 68
REMARK Flexibility Score: inf
ROOT
ATOM      1  C   UNL A   1      40.584  34.455  35.661  1.00  0.00     0.118 C 
ENDROOT
BRANCH   1   2
ATOM      2  N   UNL A   1      39.753  33.966  36.726  1.00  0.00    -0.351 N 
ATOM      3  C   UNL A   1      39.428  32.662  37.001  1.00  0.00     0.278 C 
ATOM      4  O   UNL A   1      39.017  32.425  38.144  1.00  0.00    -0.268 OA
ATOM      5  H   UNL A   1      39.372  34.645  37.329  1.00  0.00     0.163 HD
BRANCH   3   6
ATOM      6  C   UNL A   1      39.508  31.515  35.946  1.00  0.00     0.275 C 
BRANCH   6   7
ATOM      7  N   UNL A   1      40.673  30.637  36.202  1.00  0.00    -0.347 N 
ATOM      8  H   UNL A   1      41.262  30.602  35.370  1.00  0.00     0.345 HD
ATOM      9  H   UNL A   1      40.347  29.697  36.428  1.00  0.00     0.345 HD
ATOM     10  H   UNL A   1      41.212  31.007  36.985  1.00  0.00     0.345 HD
ENDBRANCH   6   7
BRANCH   6  11
ATOM     11  C   UNL A   1      38.192  30.820  35.502  1.00  0.00     0.113 C 
BRANCH  11  12
ATOM     12  C   UNL A   1      37.802  30.809  34.047  1.00  0.00    -0.015 A 
ATOM     13  C   UNL A   1      37.076  31.799  33.410  1.00  0.00     0.099 A 
ATOM     14  C   UNL A   1      38.091  29.835  33.031  1.00  0.00     0.004 A 
ATOM     15  N   UNL A   1      36.692  31.354  32.159  1.00  0.00    -0.285 N 
ATOM     16  C   UNL A   1      37.260  30.111  31.933  1.00  0.00     0.056 A 
ATOM     17  C   UNL A   1      38.891  28.672  32.988  1.00  0.00     0.010 A 
ATOM     18  C   UNL A   1      37.163  29.237  30.836  1.00  0.00     0.027 A 
ATOM     19  C   UNL A   1      38.792  27.795  31.905  1.00  0.00     0.001 A 
ATOM     20  C   UNL A   1      37.928  28.069  30.851  1.00  0.00     0.002 A 
BRANCH  15  21
ATOM     21  C   UNL A   1      35.864  32.099  31.272  1.00  0.00     0.240 A 
ATOM     22  N   UNL A   1      35.692  31.674  30.023  1.00  0.00    -0.181 NA
ATOM     23  N   UNL A   1      35.259  33.161  31.803  1.00  0.00    -0.176 NA
ATOM     24  C   UNL A   1      34.743  32.359  29.393  1.00  0.00     0.228 A 
ATOM     25  C   UNL A   1      34.422  33.824  31.019  1.00  0.00     0.231 A 
ATOM     26  Cl  UNL A   1      34.288  31.852  27.835  1.00  0.00    -0.041 Cl
ATOM     27  N   UNL A   1      34.074  33.419  29.817  1.00  0.00    -0.182 NA
BRANCH  25  28
ATOM     28  N   UNL A   1      33.890  34.972  31.512  1.00  0.00    -0.336 N 
ATOM     29  C   UNL A   1      32.997  35.751  30.664  1.00  0.00     0.148 C 
ATOM     30  C   UNL A   1      33.762  35.200  32.941  1.00  0.00     0.148 C 
ATOM     31  C   UNL A   1      33.197  37.234  30.990  1.00  0.00     0.181 C 
ATOM     32  C   UNL A   1      33.975  36.706  33.172  1.00  0.00     0.181 C 
ATOM     33  O   UNL A   1      33.044  37.493  32.401  1.00  0.00    -0.378 OA
ENDBRANCH  25  28
ENDBRANCH  15  21
ENDBRANCH  11  12
ENDBRANCH   6  11
ENDBRANCH   3   6
ENDBRANCH   1   2
BRANCH   1  34
ATOM     34  C   UNL A   1      39.911  34.806  34.349  1.00  0.00     0.042 C 
BRANCH  34  35
ATOM     35  C   UNL A   1      40.178  33.876  33.172  1.00  0.00     0.118 C 
BRANCH  35  36
ATOM     36  N   UNL A   1      40.623  34.506  31.945  1.00  0.00    -0.352 N 
ATOM     37  C   UNL A   1      40.740  34.084  30.649  1.00  0.00     0.251 C 
ATOM     38  H   UNL A   1      40.902  35.442  32.072  1.00  0.00     0.163 HD
ATOM     39  O   UNL A   1      40.708  34.974  29.790  1.00  0.00    -0.269 OA
BRANCH  37  40
ATOM     40  C   UNL A   1      41.008  32.685  30.212  1.00  0.00     0.039 A 
ATOM     41  C   UNL A   1      40.075  31.653  30.168  1.00  0.00     0.014 A 
ATOM     42  C   UNL A   1      42.354  32.367  29.953  1.00  0.00     0.014 A 
ATOM     43  C   UNL A   1      40.491  30.329  30.013  1.00  0.00     0.010 A 
ATOM     44  C   UNL A   1      42.781  31.049  29.824  1.00  0.00     0.010 A 
ATOM     45  C   UNL A   1      41.849  30.022  29.897  1.00  0.00    -0.014 A 
BRANCH  45  46
ATOM     46  C   UNL A   1      42.235  28.626  29.681  1.00  0.00     0.031 A 
ATOM     47  C   UNL A   1      42.985  27.996  30.806  1.00  0.00     0.074 A 
ATOM     48  C   UNL A   1      41.803  27.863  28.657  1.00  0.00     0.049 A 
ATOM     49  N   UNL A   1      44.117  27.371  30.778  1.00  0.00    -0.248 NA
ATOM     50  C   UNL A   1      42.406  28.130  32.153  1.00  0.00     0.031 C 
ATOM     51  C   UNL A   1      40.776  28.197  27.667  1.00  0.00     0.029 A 
ATOM     52  N   UNL A   1      42.108  26.561  28.369  1.00  0.00    -0.354 N 
ATOM     53  C   UNL A   1      44.336  26.913  32.077  1.00  0.00     0.074 A 
ATOM     54  C   UNL A   1      43.305  27.491  32.899  1.00  0.00     0.031 C 
ATOM     55  C   UNL A   1      40.378  27.062  27.046  1.00  0.00     0.029 A 
ATOM     56  C   UNL A   1      41.210  25.958  27.500  1.00  0.00     0.049 A 
ATOM     57  H   UNL A   1      42.890  26.095  28.744  1.00  0.00     0.167 HD
ATOM     58  C   UNL A   1      45.252  25.951  32.375  1.00  0.00     0.031 A 
ATOM     59  C   UNL A   1      41.102  24.634  27.234  1.00  0.00     0.031 A 
ATOM     60  C   UNL A   1      46.208  25.763  31.323  1.00  0.00     0.049 A 
ATOM     61  C   UNL A   1      42.355  23.964  27.644  1.00  0.00     0.074 A 
ATOM     62  C   UNL A   1      47.211  26.520  30.757  1.00  0.00     0.029 A 
ATOM     63  N   UNL A   1      46.002  24.697  30.486  1.00  0.00    -0.354 N 
ATOM     64  N   UNL A   1      43.502  24.129  27.053  1.00  0.00    -0.248 NA
ATOM     65  C   UNL A   1      42.408  23.291  28.932  1.00  0.00     0.031 C 
ATOM     66  C   UNL A   1      47.287  26.089  29.401  1.00  0.00     0.029 A 
ATOM     67  C   UNL A   1      46.335  25.084  29.216  1.00  0.00     0.049 A 
ATOM     68  H   UNL A   1      45.671  23.809  30.752  1.00  0.00     0.167 HD
ATOM     69  C   UNL A   1      44.441  23.968  28.058  1.00  0.00     0.074 A 
ATOM     70  C   UNL A   1      43.728  23.298  29.137  1.00  0.00     0.031 C 
ATOM     71  C   UNL A   1      45.621  24.653  28.031  1.00  0.00     0.031 A 
BRANCH  58  72
ATOM     72  C   UNL A   1      45.081  24.933  33.478  1.00  0.00    -0.014 A 
ATOM     73  C   UNL A   1      45.496  25.153  34.805  1.00  0.00     0.009 A 
ATOM     74  C   UNL A   1      44.234  23.830  33.259  1.00  0.00     0.009 A 
ATOM     75  C   UNL A   1      45.081  24.332  35.858  1.00  0.00     0.001 A 
ATOM     76  C   UNL A   1      43.779  23.032  34.317  1.00  0.00     0.001 A 
ATOM     77  C   UNL A   1      44.200  23.287  35.618  1.00  0.00     0.000 A 
ENDBRANCH  58  72
BRANCH  59  78
ATOM     78  C   UNL A   1      39.884  23.859  26.916  1.00  0.00    -0.014 A 
ATOM     79  C   UNL A   1      39.988  22.512  26.524  1.00  0.00     0.009 A 
ATOM     80  C   UNL A   1      38.650  24.503  26.722  1.00  0.00     0.009 A 
ATOM     81  C   UNL A   1      38.916  21.844  25.926  1.00  0.00     0.001 A 
ATOM     82  C   UNL A   1      37.578  23.836  26.117  1.00  0.00     0.001 A 
ATOM     83  C   UNL A   1      37.716  22.511  25.705  1.00  0.00     0.000 A 
ENDBRANCH  59  78
BRANCH  71  84
ATOM     84  C   UNL A   1      46.054  25.277  26.727  1.00  0.00    -0.014 A 
ATOM     85  C   UNL A   1      47.106  24.676  26.019  1.00  0.00     0.009 A 
ATOM     86  C   UNL A   1      45.564  26.513  26.271  1.00  0.00     0.009 A 
ATOM     87  C   UNL A   1      47.658  25.293  24.895  1.00  0.00     0.001 A 
ATOM     88  C   UNL A   1      46.096  27.116  25.128  1.00  0.00     0.001 A 
ATOM     89  C   UNL A   1      47.150  26.510  24.447  1.00  0.00     0.000 A 
ENDBRANCH  71  84
ENDBRANCH  45  46
ENDBRANCH  37  40
ENDBRANCH  35  36
ENDBRANCH  34  35
ENDBRANCH   1  34
TORSDOF 15
ENDMDL
