MODEL 1
REMARK VINA RESULT:     -12.1      0.000      0.000
REMARK SMILES O=C(NCCCNC(=O)c1c(/C=C2/SC(=S)N=C2O)cnc2ccccc12)c1ccc(-c2c3nc(c(-c4ccccc4)c4ccc([nH]4)c(-c4ccccc4)c4nc(c(-c5ccccc5)c5ccc2[nH]5)C=C4)C=C3)cc1
REMARK SMILES IDX 5 1 4 2 3 3 1 4 2 5 28 7 29 8 75 9 30 10 74 11 31 12 32 13
REMARK SMILES IDX 33 14 68 15 34 16 73 17 67 18 69 19 35 20 72 21 66 22 65 23
REMARK SMILES IDX 36 25 58 26 43 27 57 28 44 29 47 30 56 31 70 32 45 33 46 34
REMARK SMILES IDX 55 36 71 37 48 38 37 39 38 40 42 41 39 42 41 43 40 44 59 45
REMARK SMILES IDX 60 46 64 47 61 48 63 49 62 50 49 51 50 52 54 53 51 54 53 55
REMARK SMILES IDX 52 56 6 57 7 58 8 59 9 61 10 62 11 63 27 64 20 65 22 66
REMARK SMILES IDX 26 67 21 68 23 69 25 70 24 71 12 72 13 73 14 74 18 75 15 76
REMARK SMILES IDX 17 77 16 78 19 79
REMARK H PARENT 3 6 69 24 47 35 7 60 19 80
REMARK Flexibility Score: inf
ROOT
ATOM      1  C   UNL A   1      37.614  19.666  24.951  1.00  0.00     0.042 C 
ENDROOT
BRANCH   1   2
ATOM      2  C   UNL A   1      38.746  20.218  25.803  1.00  0.00     0.118 C 
BRANCH   2   3
ATOM      3  N   UNL A   1      39.940  19.383  25.779  1.00  0.00    -0.352 N 
ATOM      4  O   UNL A   1      42.119  18.837  25.783  1.00  0.00    -0.269 OA
ATOM      5  C   UNL A   1      41.257  19.671  26.043  1.00  0.00     0.251 C 
ATOM      6  H   UNL A   1      39.773  18.445  25.530  1.00  0.00     0.163 HD
BRANCH   5   7
ATOM      7  C   UNL A   1      41.651  20.981  26.607  1.00  0.00     0.039 A 
ATOM      8  C   UNL A   1      41.668  21.198  27.982  1.00  0.00     0.014 A 
ATOM      9  C   UNL A   1      42.051  22.005  25.740  1.00  0.00     0.014 A 
ATOM     10  C   UNL A   1      41.891  22.474  28.481  1.00  0.00     0.010 A 
ATOM     11  C   UNL A   1      42.397  23.259  26.252  1.00  0.00     0.010 A 
ATOM     12  C   UNL A   1      42.283  23.515  27.626  1.00  0.00    -0.014 A 
BRANCH  12  13
ATOM     13  C   UNL A   1      42.635  24.832  28.214  1.00  0.00     0.031 A 
ATOM     14  C   UNL A   1      44.057  25.186  28.548  1.00  0.00     0.074 A 
ATOM     15  C   UNL A   1      41.652  25.734  28.404  1.00  0.00     0.049 A 
ATOM     16  N   UNL A   1      44.533  26.311  29.023  1.00  0.00    -0.248 NA
ATOM     17  C   UNL A   1      45.078  24.148  28.331  1.00  0.00     0.031 C 
ATOM     18  C   UNL A   1      40.231  25.506  28.121  1.00  0.00     0.029 A 
ATOM     19  N   UNL A   1      41.696  27.031  28.844  1.00  0.00    -0.354 N 
ATOM     20  C   UNL A   1      45.899  26.110  29.182  1.00  0.00     0.074 A 
ATOM     21  C   UNL A   1      46.174  24.749  28.776  1.00  0.00     0.031 C 
ATOM     22  C   UNL A   1      39.552  26.642  28.329  1.00  0.00     0.029 A 
ATOM     23  C   UNL A   1      40.473  27.654  28.832  1.00  0.00     0.049 A 
ATOM     24  H   UNL A   1      42.524  27.473  29.141  1.00  0.00     0.167 HD
ATOM     25  C   UNL A   1      46.836  26.983  29.624  1.00  0.00     0.031 A 
ATOM     26  C   UNL A   1      40.119  28.899  29.199  1.00  0.00     0.031 A 
ATOM     27  C   UNL A   1      46.559  28.337  30.027  1.00  0.00     0.049 A 
ATOM     28  C   UNL A   1      41.172  29.830  29.715  1.00  0.00     0.074 A 
ATOM     29  C   UNL A   1      47.447  29.308  30.459  1.00  0.00     0.029 A 
ATOM     30  N   UNL A   1      45.297  28.912  30.050  1.00  0.00    -0.354 N 
ATOM     31  N   UNL A   1      42.462  29.632  29.832  1.00  0.00    -0.248 NA
ATOM     32  C   UNL A   1      40.720  31.156  30.153  1.00  0.00     0.031 C 
ATOM     33  C   UNL A   1      46.717  30.452  30.795  1.00  0.00     0.029 A 
ATOM     34  C   UNL A   1      45.380  30.214  30.519  1.00  0.00     0.049 A 
ATOM     35  H   UNL A   1      44.466  28.462  29.775  1.00  0.00     0.167 HD
ATOM     36  C   UNL A   1      42.979  30.811  30.349  1.00  0.00     0.074 A 
ATOM     37  C   UNL A   1      41.866  31.727  30.498  1.00  0.00     0.031 C 
ATOM     38  C   UNL A   1      44.260  31.107  30.674  1.00  0.00     0.031 A 
BRANCH  25  39
ATOM     39  C   UNL A   1      48.253  26.486  29.728  1.00  0.00    -0.014 A 
ATOM     40  C   UNL A   1      49.170  26.666  28.682  1.00  0.00     0.009 A 
ATOM     41  C   UNL A   1      48.686  25.866  30.910  1.00  0.00     0.009 A 
ATOM     42  C   UNL A   1      50.484  26.204  28.805  1.00  0.00     0.001 A 
ATOM     43  C   UNL A   1      50.006  25.429  31.041  1.00  0.00     0.001 A 
ATOM     44  C   UNL A   1      50.901  25.591  29.985  1.00  0.00     0.000 A 
ENDBRANCH  25  39
BRANCH  26  45
ATOM     45  C   UNL A   1      38.697  29.317  29.104  1.00  0.00    -0.014 A 
ATOM     46  C   UNL A   1      38.174  29.807  27.898  1.00  0.00     0.009 A 
ATOM     47  C   UNL A   1      37.849  29.205  30.218  1.00  0.00     0.009 A 
ATOM     48  C   UNL A   1      36.834  30.189  27.814  1.00  0.00     0.001 A 
ATOM     49  C   UNL A   1      36.502  29.559  30.122  1.00  0.00     0.001 A 
ATOM     50  C   UNL A   1      35.998  30.058  28.923  1.00  0.00     0.000 A 
ENDBRANCH  26  45
BRANCH  38  51
ATOM     51  C   UNL A   1      44.523  32.486  31.207  1.00  0.00    -0.014 A 
ATOM     52  C   UNL A   1      44.484  32.751  32.584  1.00  0.00     0.009 A 
ATOM     53  C   UNL A   1      44.831  33.527  30.319  1.00  0.00     0.009 A 
ATOM     54  C   UNL A   1      44.715  34.043  33.060  1.00  0.00     0.001 A 
ATOM     55  C   UNL A   1      45.090  34.812  30.799  1.00  0.00     0.001 A 
ATOM     56  C   UNL A   1      45.021  35.070  32.167  1.00  0.00     0.000 A 
ENDBRANCH  38  51
ENDBRANCH  12  13
ENDBRANCH   5   7
ENDBRANCH   2   3
ENDBRANCH   1   2
BRANCH   1  57
ATOM     57  C   UNL A   1      36.543  20.684  24.608  1.00  0.00     0.118 C 
BRANCH  57  58
ATOM     58  N   UNL A   1      35.763  21.124  25.757  1.00  0.00    -0.352 N 
ATOM     59  C   UNL A   1      34.402  21.100  25.897  1.00  0.00     0.252 C 
ATOM     60  H   UNL A   1      36.272  21.481  26.519  1.00  0.00     0.163 HD
ATOM     61  O   UNL A   1      33.841  21.229  26.976  1.00  0.00    -0.269 OA
BRANCH  59  62
ATOM     62  C   UNL A   1      33.558  20.915  24.731  1.00  0.00     0.058 A 
ATOM     63  C   UNL A   1      33.106  22.027  24.016  1.00  0.00     0.007 A 
ATOM     64  C   UNL A   1      33.263  19.565  24.367  1.00  0.00     0.014 A 
ATOM     65  C   UNL A   1      32.352  21.676  22.893  1.00  0.00     0.120 A 
ATOM     66  C   UNL A   1      32.554  19.382  23.175  1.00  0.00     0.071 A 
ATOM     67  C   UNL A   1      33.682  18.417  25.094  1.00  0.00     0.011 A 
ATOM     68  N   UNL A   1      32.092  20.416  22.461  1.00  0.00    -0.256 NA
ATOM     69  C   UNL A   1      32.350  18.090  22.706  1.00  0.00     0.029 A 
ATOM     70  C   UNL A   1      33.468  17.132  24.609  1.00  0.00     0.001 A 
ATOM     71  C   UNL A   1      32.811  16.969  23.399  1.00  0.00     0.002 A 
BRANCH  63  72
ATOM     72  C   UNL A   1      33.440  23.477  24.141  1.00  0.00     0.031 C 
ATOM     73  C   UNL A   1      33.429  24.654  23.481  1.00  0.00     0.077 C 
ATOM     74  S   UNL A   1      33.791  26.087  24.477  1.00  0.00    -0.053 SA
ATOM     75  C   UNL A   1      33.118  25.259  22.160  1.00  0.00     0.227 C 
ATOM     76  C   UNL A   1      33.157  27.172  23.235  1.00  0.00     0.168 C 
ATOM     77  N   UNL A   1      32.948  26.536  22.042  1.00  0.00    -0.194 NA
ATOM     78  S   UNL A   1      32.855  28.786  23.545  1.00  0.00    -0.050 S 
BRANCH  75  79
ATOM     79  O   UNL A   1      33.090  24.552  21.041  1.00  0.00    -0.492 OA
ATOM     80  H   UNL A   1      33.862  24.474  20.516  1.00  0.00     0.295 HD
ENDBRANCH  75  79
ENDBRANCH  63  72
ENDBRANCH  59  62
ENDBRANCH  57  58
ENDBRANCH   1  57
TORSDOF 12
ENDMDL
MODEL 2
REMARK VINA RESULT:     -12.1      3.957      9.326
REMARK SMILES O=C(NCCCNC(=O)c1c(/C=C2/SC(=S)N=C2O)cnc2ccccc12)c1ccc(-c2c3nc(c(-c4ccccc4)c4ccc([nH]4)c(-c4ccccc4)c4nc(c(-c5ccccc5)c5ccc2[nH]5)C=C4)C=C3)cc1
REMARK SMILES IDX 5 1 4 2 3 3 1 4 2 5 28 7 29 8 75 9 30 10 74 11 31 12 32 13
REMARK SMILES IDX 33 14 68 15 34 16 73 17 67 18 69 19 35 20 72 21 66 22 65 23
REMARK SMILES IDX 36 25 58 26 43 27 57 28 44 29 47 30 56 31 70 32 45 33 46 34
REMARK SMILES IDX 55 36 71 37 48 38 37 39 38 40 42 41 39 42 41 43 40 44 59 45
REMARK SMILES IDX 60 46 64 47 61 48 63 49 62 50 49 51 50 52 54 53 51 54 53 55
REMARK SMILES IDX 52 56 6 57 7 58 8 59 9 61 10 62 11 63 27 64 20 65 22 66
REMARK SMILES IDX 26 67 21 68 23 69 25 70 24 71 12 72 13 73 14 74 18 75 15 76
REMARK SMILES IDX 17 77 16 78 19 79
REMARK H PARENT 3 6 69 24 47 35 7 60 19 80
REMARK Flexibility Score: inf
ROOT
ATOM      1  C   UNL A   1      31.373  31.635  26.294  1.00  0.00     0.042 C 
ENDROOT
BRANCH   1   2
ATOM      2  C   UNL A   1      32.643  32.176  26.930  1.00  0.00     0.118 C 
BRANCH   2   3
ATOM      3  N   UNL A   1      32.463  33.487  27.540  1.00  0.00    -0.352 N 
ATOM      4  O   UNL A   1      32.749  35.189  28.979  1.00  0.00    -0.269 OA
ATOM      5  C   UNL A   1      33.200  34.159  28.486  1.00  0.00     0.251 C 
ATOM      6  H   UNL A   1      31.674  33.980  27.217  1.00  0.00     0.163 HD
BRANCH   5   7
ATOM      7  C   UNL A   1      34.509  33.641  28.939  1.00  0.00     0.039 A 
ATOM      8  C   UNL A   1      35.694  34.043  28.327  1.00  0.00     0.014 A 
ATOM      9  C   UNL A   1      34.557  32.764  30.028  1.00  0.00     0.014 A 
ATOM     10  C   UNL A   1      36.892  33.431  28.665  1.00  0.00     0.010 A 
ATOM     11  C   UNL A   1      35.783  32.240  30.451  1.00  0.00     0.010 A 
ATOM     12  C   UNL A   1      36.958  32.540  29.748  1.00  0.00    -0.014 A 
BRANCH  12  13
ATOM     13  C   UNL A   1      38.281  32.005  30.157  1.00  0.00     0.031 A 
ATOM     14  C   UNL A   1      39.116  32.694  31.198  1.00  0.00     0.074 A 
ATOM     15  C   UNL A   1      38.704  30.851  29.605  1.00  0.00     0.049 A 
ATOM     16  N   UNL A   1      40.271  32.328  31.698  1.00  0.00    -0.248 NA
ATOM     17  C   UNL A   1      38.601  33.958  31.747  1.00  0.00     0.031 C 
ATOM     18  C   UNL A   1      37.982  30.090  28.580  1.00  0.00     0.029 A 
ATOM     19  N   UNL A   1      39.822  30.097  29.849  1.00  0.00    -0.354 N 
ATOM     20  C   UNL A   1      40.629  33.322  32.600  1.00  0.00     0.074 A 
ATOM     21  C   UNL A   1      39.582  34.320  32.563  1.00  0.00     0.031 C 
ATOM     22  C   UNL A   1      38.639  28.949  28.334  1.00  0.00     0.029 A 
ATOM     23  C   UNL A   1      39.865  28.932  29.123  1.00  0.00     0.049 A 
ATOM     24  H   UNL A   1      40.528  30.365  30.482  1.00  0.00     0.167 HD
ATOM     25  C   UNL A   1      41.729  33.394  33.388  1.00  0.00     0.031 A 
ATOM     26  C   UNL A   1      40.791  27.958  29.081  1.00  0.00     0.031 A 
ATOM     27  C   UNL A   1      42.769  32.398  33.422  1.00  0.00     0.049 A 
ATOM     28  C   UNL A   1      42.013  28.081  29.938  1.00  0.00     0.074 A 
ATOM     29  C   UNL A   1      43.907  32.366  34.211  1.00  0.00     0.029 A 
ATOM     30  N   UNL A   1      42.799  31.259  32.632  1.00  0.00    -0.354 N 
ATOM     31  N   UNL A   1      42.322  29.015  30.805  1.00  0.00    -0.248 NA
ATOM     32  C   UNL A   1      43.018  27.018  29.809  1.00  0.00     0.031 C 
ATOM     33  C   UNL A   1      44.653  31.237  33.859  1.00  0.00     0.029 A 
ATOM     34  C   UNL A   1      43.952  30.534  32.891  1.00  0.00     0.049 A 
ATOM     35  H   UNL A   1      42.106  31.004  31.982  1.00  0.00     0.167 HD
ATOM     36  C   UNL A   1      43.551  28.649  31.332  1.00  0.00     0.074 A 
ATOM     37  C   UNL A   1      43.918  27.394  30.707  1.00  0.00     0.031 C 
ATOM     38  C   UNL A   1      44.309  29.295  32.250  1.00  0.00     0.031 A 
BRANCH  25  39
ATOM     39  C   UNL A   1      41.883  34.613  34.256  1.00  0.00    -0.014 A 
ATOM     40  C   UNL A   1      41.404  34.637  35.575  1.00  0.00     0.009 A 
ATOM     41  C   UNL A   1      42.556  35.740  33.759  1.00  0.00     0.009 A 
ATOM     42  C   UNL A   1      41.567  35.778  36.366  1.00  0.00     0.001 A 
ATOM     43  C   UNL A   1      42.740  36.869  34.560  1.00  0.00     0.001 A 
ATOM     44  C   UNL A   1      42.238  36.889  35.860  1.00  0.00     0.000 A 
ENDBRANCH  25  39
BRANCH  26  45
ATOM     45  C   UNL A   1      40.597  26.796  28.176  1.00  0.00    -0.014 A 
ATOM     46  C   UNL A   1      39.917  25.652  28.617  1.00  0.00     0.009 A 
ATOM     47  C   UNL A   1      41.072  26.839  26.855  1.00  0.00     0.009 A 
ATOM     48  C   UNL A   1      39.729  24.568  27.757  1.00  0.00     0.001 A 
ATOM     49  C   UNL A   1      40.856  25.766  25.989  1.00  0.00     0.001 A 
ATOM     50  C   UNL A   1      40.192  24.628  26.443  1.00  0.00     0.000 A 
ENDBRANCH  26  45
BRANCH  38  51
ATOM     51  C   UNL A   1      45.603  28.642  32.641  1.00  0.00    -0.014 A 
ATOM     52  C   UNL A   1      46.799  28.943  31.972  1.00  0.00     0.009 A 
ATOM     53  C   UNL A   1      45.627  27.728  33.705  1.00  0.00     0.009 A 
ATOM     54  C   UNL A   1      47.990  28.314  32.338  1.00  0.00     0.001 A 
ATOM     55  C   UNL A   1      46.824  27.122  34.089  1.00  0.00     0.001 A 
ATOM     56  C   UNL A   1      48.001  27.408  33.399  1.00  0.00     0.000 A 
ENDBRANCH  38  51
ENDBRANCH  12  13
ENDBRANCH   5   7
ENDBRANCH   2   3
ENDBRANCH   1   2
BRANCH   1  57
ATOM     57  C   UNL A   1      31.386  30.136  26.060  1.00  0.00     0.118 C 
BRANCH  57  58
ATOM     58  N   UNL A   1      32.334  29.710  25.039  1.00  0.00    -0.352 N 
ATOM     59  C   UNL A   1      32.069  28.980  23.913  1.00  0.00     0.252 C 
ATOM     60  H   UNL A   1      33.271  29.976  25.175  1.00  0.00     0.163 HD
ATOM     61  O   UNL A   1      32.851  28.893  22.976  1.00  0.00    -0.269 OA
BRANCH  59  62
ATOM     62  C   UNL A   1      30.813  28.264  23.793  1.00  0.00     0.058 A 
ATOM     63  C   UNL A   1      30.712  26.953  24.265  1.00  0.00     0.007 A 
ATOM     64  C   UNL A   1      29.724  28.982  23.210  1.00  0.00     0.014 A 
ATOM     65  C   UNL A   1      29.425  26.426  24.124  1.00  0.00     0.120 A 
ATOM     66  C   UNL A   1      28.483  28.336  23.206  1.00  0.00     0.071 A 
ATOM     67  C   UNL A   1      29.807  30.304  22.692  1.00  0.00     0.011 A 
ATOM     68  N   UNL A   1      28.339  27.078  23.639  1.00  0.00    -0.256 NA
ATOM     69  C   UNL A   1      27.364  29.035  22.769  1.00  0.00     0.029 A 
ATOM     70  C   UNL A   1      28.676  30.986  22.258  1.00  0.00     0.001 A 
ATOM     71  C   UNL A   1      27.444  30.352  22.312  1.00  0.00     0.002 A 
BRANCH  63  72
ATOM     72  C   UNL A   1      31.671  26.111  25.040  1.00  0.00     0.031 C 
ATOM     73  C   UNL A   1      31.759  25.056  25.877  1.00  0.00     0.077 C 
ATOM     74  S   UNL A   1      33.414  24.472  26.193  1.00  0.00    -0.053 SA
ATOM     75  C   UNL A   1      30.930  24.069  26.615  1.00  0.00     0.227 C 
ATOM     76  C   UNL A   1      32.805  22.950  26.851  1.00  0.00     0.168 C 
ATOM     77  N   UNL A   1      31.456  22.982  27.083  1.00  0.00    -0.194 NA
ATOM     78  S   UNL A   1      33.810  21.645  27.129  1.00  0.00    -0.050 S 
BRANCH  75  79
ATOM     79  O   UNL A   1      29.658  24.284  26.910  1.00  0.00    -0.492 OA
ATOM     80  H   UNL A   1      29.369  25.146  27.139  1.00  0.00     0.295 HD
ENDBRANCH  75  79
ENDBRANCH  63  72
ENDBRANCH  59  62
ENDBRANCH  57  58
ENDBRANCH   1  57
TORSDOF 12
ENDMDL
MODEL 3
REMARK VINA RESULT:     -12.1      3.960      9.222
REMARK SMILES O=C(NCCCNC(=O)c1c(/C=C2/SC(=S)N=C2O)cnc2ccccc12)c1ccc(-c2c3nc(c(-c4ccccc4)c4ccc([nH]4)c(-c4ccccc4)c4nc(c(-c5ccccc5)c5ccc2[nH]5)C=C4)C=C3)cc1
REMARK SMILES IDX 5 1 4 2 3 3 1 4 2 5 28 7 29 8 75 9 30 10 74 11 31 12 32 13
REMARK SMILES IDX 33 14 68 15 34 16 73 17 67 18 69 19 35 20 72 21 66 22 65 23
REMARK SMILES IDX 36 25 58 26 43 27 57 28 44 29 47 30 56 31 70 32 45 33 46 34
REMARK SMILES IDX 55 36 71 37 48 38 37 39 38 40 42 41 39 42 41 43 40 44 59 45
REMARK SMILES IDX 60 46 64 47 61 48 63 49 62 50 49 51 50 52 54 53 51 54 53 55
REMARK SMILES IDX 52 56 6 57 7 58 8 59 9 61 10 62 11 63 27 64 20 65 22 66
REMARK SMILES IDX 26 67 21 68 23 69 25 70 24 71 12 72 13 73 14 74 18 75 15 76
REMARK SMILES IDX 17 77 16 78 19 79
REMARK H PARENT 3 6 69 24 47 35 7 60 19 80
REMARK Flexibility Score: inf
ROOT
ATOM      1  C   UNL A   1      31.315  31.624  26.435  1.00  0.00     0.042 C 
ENDROOT
BRANCH   1   2
ATOM      2  C   UNL A   1      32.627  32.255  26.872  1.00  0.00     0.118 C 
BRANCH   2   3
ATOM      3  N   UNL A   1      32.455  33.565  27.487  1.00  0.00    -0.352 N 
ATOM      4  O   UNL A   1      32.737  35.252  28.944  1.00  0.00    -0.269 OA
ATOM      5  C   UNL A   1      33.181  34.217  28.454  1.00  0.00     0.251 C 
ATOM      6  H   UNL A   1      31.682  34.073  27.150  1.00  0.00     0.163 HD
BRANCH   5   7
ATOM      7  C   UNL A   1      34.472  33.675  28.932  1.00  0.00     0.039 A 
ATOM      8  C   UNL A   1      35.667  33.985  28.288  1.00  0.00     0.014 A 
ATOM      9  C   UNL A   1      34.492  32.870  30.077  1.00  0.00     0.014 A 
ATOM     10  C   UNL A   1      36.841  33.345  28.658  1.00  0.00     0.010 A 
ATOM     11  C   UNL A   1      35.698  32.323  30.526  1.00  0.00     0.010 A 
ATOM     12  C   UNL A   1      36.878  32.526  29.797  1.00  0.00    -0.014 A 
BRANCH  12  13
ATOM     13  C   UNL A   1      38.181  31.962  30.233  1.00  0.00     0.031 A 
ATOM     14  C   UNL A   1      38.705  30.674  29.665  1.00  0.00     0.074 A 
ATOM     15  C   UNL A   1      38.915  32.658  31.123  1.00  0.00     0.049 A 
ATOM     16  N   UNL A   1      39.846  30.074  29.907  1.00  0.00    -0.248 NA
ATOM     17  C   UNL A   1      37.845  29.959  28.710  1.00  0.00     0.031 C 
ATOM     18  C   UNL A   1      38.510  33.920  31.749  1.00  0.00     0.029 A 
ATOM     19  N   UNL A   1      40.166  32.424  31.632  1.00  0.00    -0.354 N 
ATOM     20  C   UNL A   1      39.829  28.906  29.155  1.00  0.00     0.074 A 
ATOM     21  C   UNL A   1      38.558  28.867  28.466  1.00  0.00     0.031 C 
ATOM     22  C   UNL A   1      39.518  34.383  32.501  1.00  0.00     0.029 A 
ATOM     23  C   UNL A   1      40.608  33.415  32.474  1.00  0.00     0.049 A 
ATOM     24  H   UNL A   1      40.697  31.623  31.416  1.00  0.00     0.167 HD
ATOM     25  C   UNL A   1      40.789  27.955  29.049  1.00  0.00     0.031 A 
ATOM     26  C   UNL A   1      41.756  33.533  33.164  1.00  0.00     0.031 A 
ATOM     27  C   UNL A   1      42.054  27.998  29.736  1.00  0.00     0.049 A 
ATOM     28  C   UNL A   1      42.784  32.450  33.051  1.00  0.00     0.074 A 
ATOM     29  C   UNL A   1      43.104  27.097  29.667  1.00  0.00     0.029 A 
ATOM     30  N   UNL A   1      42.440  28.993  30.621  1.00  0.00    -0.354 N 
ATOM     31  N   UNL A   1      42.764  31.366  32.314  1.00  0.00    -0.248 NA
ATOM     32  C   UNL A   1      43.993  32.603  33.870  1.00  0.00     0.031 C 
ATOM     33  C   UNL A   1      44.102  27.519  30.551  1.00  0.00     0.029 A 
ATOM     34  C   UNL A   1      43.698  28.713  31.129  1.00  0.00     0.049 A 
ATOM     35  H   UNL A   1      41.899  29.782  30.855  1.00  0.00     0.167 HD
ATOM     36  C   UNL A   1      43.958  30.712  32.572  1.00  0.00     0.074 A 
ATOM     37  C   UNL A   1      44.692  31.534  33.513  1.00  0.00     0.031 C 
ATOM     38  C   UNL A   1      44.407  29.534  32.076  1.00  0.00     0.031 A 
BRANCH  25  39
ATOM     39  C   UNL A   1      40.492  26.765  28.178  1.00  0.00    -0.014 A 
ATOM     40  C   UNL A   1      39.734  25.683  28.651  1.00  0.00     0.009 A 
ATOM     41  C   UNL A   1      40.943  26.746  26.848  1.00  0.00     0.009 A 
ATOM     42  C   UNL A   1      39.462  24.592  27.820  1.00  0.00     0.001 A 
ATOM     43  C   UNL A   1      40.649  25.667  26.013  1.00  0.00     0.001 A 
ATOM     44  C   UNL A   1      39.916  24.588  26.502  1.00  0.00     0.000 A 
ENDBRANCH  25  39
BRANCH  26  45
ATOM     45  C   UNL A   1      41.974  34.718  34.033  1.00  0.00    -0.014 A 
ATOM     46  C   UNL A   1      41.613  34.687  35.387  1.00  0.00     0.009 A 
ATOM     47  C   UNL A   1      42.568  35.879  33.513  1.00  0.00     0.009 A 
ATOM     48  C   UNL A   1      41.830  35.801  36.201  1.00  0.00     0.001 A 
ATOM     49  C   UNL A   1      42.811  36.980  34.336  1.00  0.00     0.001 A 
ATOM     50  C   UNL A   1      42.435  36.943  35.676  1.00  0.00     0.000 A 
ENDBRANCH  26  45
BRANCH  38  51
ATOM     51  C   UNL A   1      45.763  29.079  32.533  1.00  0.00    -0.014 A 
ATOM     52  C   UNL A   1      46.926  29.464  31.849  1.00  0.00     0.009 A 
ATOM     53  C   UNL A   1      45.878  28.269  33.672  1.00  0.00     0.009 A 
ATOM     54  C   UNL A   1      48.177  29.018  32.279  1.00  0.00     0.001 A 
ATOM     55  C   UNL A   1      47.132  27.847  34.117  1.00  0.00     0.001 A 
ATOM     56  C   UNL A   1      48.278  28.214  33.414  1.00  0.00     0.000 A 
ENDBRANCH  38  51
ENDBRANCH  12  13
ENDBRANCH   5   7
ENDBRANCH   2   3
ENDBRANCH   1   2
BRANCH   1  57
ATOM     57  C   UNL A   1      31.395  30.128  26.197  1.00  0.00     0.118 C 
BRANCH  57  58
ATOM     58  N   UNL A   1      32.362  29.746  25.178  1.00  0.00    -0.352 N 
ATOM     59  C   UNL A   1      32.122  29.057  24.020  1.00  0.00     0.252 C 
ATOM     60  H   UNL A   1      33.295  30.013  25.339  1.00  0.00     0.163 HD
ATOM     61  O   UNL A   1      32.920  29.011  23.094  1.00  0.00    -0.269 OA
BRANCH  59  62
ATOM     62  C   UNL A   1      30.873  28.338  23.852  1.00  0.00     0.058 A 
ATOM     63  C   UNL A   1      30.770  27.012  24.281  1.00  0.00     0.007 A 
ATOM     64  C   UNL A   1      29.793  29.068  23.268  1.00  0.00     0.014 A 
ATOM     65  C   UNL A   1      29.490  26.483  24.097  1.00  0.00     0.120 A 
ATOM     66  C   UNL A   1      28.555  28.415  23.219  1.00  0.00     0.071 A 
ATOM     67  C   UNL A   1      29.878  30.405  22.793  1.00  0.00     0.011 A 
ATOM     68  N   UNL A   1      28.411  27.143  23.609  1.00  0.00    -0.256 NA
ATOM     69  C   UNL A   1      27.441  29.121  22.779  1.00  0.00     0.029 A 
ATOM     70  C   UNL A   1      28.752  31.094  22.356  1.00  0.00     0.001 A 
ATOM     71  C   UNL A   1      27.523  30.452  22.364  1.00  0.00     0.002 A 
BRANCH  63  72
ATOM     72  C   UNL A   1      31.719  26.153  25.051  1.00  0.00     0.031 C 
ATOM     73  C   UNL A   1      31.793  25.091  25.880  1.00  0.00     0.077 C 
ATOM     74  S   UNL A   1      33.439  24.484  26.192  1.00  0.00    -0.053 SA
ATOM     75  C   UNL A   1      30.951  24.109  26.611  1.00  0.00     0.227 C 
ATOM     76  C   UNL A   1      32.810  22.964  26.839  1.00  0.00     0.168 C 
ATOM     77  N   UNL A   1      31.462  23.013  27.071  1.00  0.00    -0.194 NA
ATOM     78  S   UNL A   1      33.798  21.644  27.108  1.00  0.00    -0.050 S 
BRANCH  75  79
ATOM     79  O   UNL A   1      29.681  24.339  26.907  1.00  0.00    -0.492 OA
ATOM     80  H   UNL A   1      29.336  25.208  26.849  1.00  0.00     0.295 HD
ENDBRANCH  75  79
ENDBRANCH  63  72
ENDBRANCH  59  62
ENDBRANCH  57  58
ENDBRANCH   1  57
TORSDOF 12
ENDMDL
