MODEL 1
REMARK VINA RESULT:     -11.4      0.000      0.000
REMARK SMILES C[C@@H](C(=O)NCCCNC(=O)c1ccc(-c2c3nc(c(-c4ccccc4)c4ccc([nH]4)c(-c4ccccc4)c4nc(c(-c5ccccc5)c5ccc2[nH]5)C=C4)C=C3)cc1)c1ccc(Cc2ccoc2)cc1F
REMARK SMILES IDX 6 1 5 2 3 3 4 4 2 6 1 7 60 8 61 9 71 10 62 11 70 12 72 13
REMARK SMILES IDX 63 14 64 15 65 16 66 17 69 18 67 19 68 20 7 21 8 22 9 23
REMARK SMILES IDX 10 24 11 26 12 27 13 28 59 29 14 30 58 31 15 32 16 33 17 34
REMARK SMILES IDX 52 35 18 36 57 37 51 38 53 39 19 40 56 41 50 42 49 43 20 45
REMARK SMILES IDX 42 46 27 47 41 48 28 49 31 50 40 51 54 52 29 53 30 54 39 56
REMARK SMILES IDX 55 57 32 58 21 59 22 60 26 61 23 62 25 63 24 64 43 65 44 66
REMARK SMILES IDX 48 67 45 68 47 69 46 70 33 71 34 72 38 73 35 74 37 75 36 76
REMARK H PARENT 5 5 9 25 53 44 31 55
REMARK Flexibility Score: inf
ROOT
ATOM      1  C   UNL A   1      33.565  28.448  24.680  1.00  0.00     0.117 C 
ENDROOT
BRANCH   1   2
ATOM      2  N   UNL A   1      33.964  27.774  23.459  1.00  0.00    -0.356 N 
ATOM      3  C   UNL A   1      33.405  26.720  22.794  1.00  0.00     0.227 C 
ATOM      4  O   UNL A   1      33.897  26.453  21.695  1.00  0.00    -0.274 OA
ATOM      5  H   UNL A   1      34.774  28.141  23.037  1.00  0.00     0.163 HD
BRANCH   3   6
ATOM      6  C   UNL A   1      32.197  25.974  23.388  1.00  0.00     0.108 C 
ATOM      7  C   UNL A   1      32.006  24.580  22.785  1.00  0.00     0.023 C 
BRANCH   6   8
ATOM      8  C   UNL A   1      30.893  26.754  23.263  1.00  0.00    -0.000 A 
ATOM      9  C   UNL A   1      30.839  27.919  22.485  1.00  0.00     0.008 A 
ATOM     10  C   UNL A   1      29.733  26.364  23.945  1.00  0.00     0.127 A 
ATOM     11  C   UNL A   1      29.655  28.660  22.393  1.00  0.00     0.004 A 
ATOM     12  C   UNL A   1      28.551  27.096  23.856  1.00  0.00     0.043 A 
ATOM     13  F   UNL A   1      29.747  25.275  24.727  1.00  0.00    -0.207 F 
ATOM     14  C   UNL A   1      28.497  28.259  23.077  1.00  0.00    -0.041 A 
BRANCH  14  15
ATOM     15  C   UNL A   1      27.220  29.055  22.966  1.00  0.00     0.074 C 
BRANCH  15  16
ATOM     16  C   UNL A   1      27.606  30.455  22.625  1.00  0.00    -0.005 A 
ATOM     17  C   UNL A   1      27.951  30.987  21.346  1.00  0.00     0.046 A 
ATOM     18  C   UNL A   1      27.646  31.537  23.484  1.00  0.00     0.198 A 
ATOM     19  C   UNL A   1      28.184  32.330  21.526  1.00  0.00     0.195 A 
ATOM     20  O   UNL A   1      27.996  32.671  22.824  1.00  0.00    -0.472 OA
ENDBRANCH  15  16
ENDBRANCH  14  15
ENDBRANCH   6   8
ENDBRANCH   3   6
ENDBRANCH   1   2
BRANCH   1  21
ATOM     21  C   UNL A   1      34.054  27.732  25.938  1.00  0.00     0.042 C 
BRANCH  21  22
ATOM     22  C   UNL A   1      33.394  28.178  27.241  1.00  0.00     0.118 C 
BRANCH  22  23
ATOM     23  N   UNL A   1      33.318  29.624  27.378  1.00  0.00    -0.352 N 
ATOM     24  C   UNL A   1      34.235  30.531  27.842  1.00  0.00     0.251 C 
ATOM     25  H   UNL A   1      32.464  30.018  27.087  1.00  0.00     0.163 HD
ATOM     26  O   UNL A   1      33.886  31.702  27.993  1.00  0.00    -0.269 OA
BRANCH  24  27
ATOM     27  C   UNL A   1      35.622  30.139  28.191  1.00  0.00     0.039 A 
ATOM     28  C   UNL A   1      35.863  29.651  29.481  1.00  0.00     0.014 A 
ATOM     29  C   UNL A   1      36.692  30.299  27.307  1.00  0.00     0.014 A 
ATOM     30  C   UNL A   1      37.154  29.280  29.863  1.00  0.00     0.010 A 
ATOM     31  C   UNL A   1      37.972  29.865  27.666  1.00  0.00     0.010 A 
ATOM     32  C   UNL A   1      38.217  29.356  28.949  1.00  0.00    -0.014 A 
BRANCH  32  33
ATOM     33  C   UNL A   1      39.576  28.896  29.336  1.00  0.00     0.031 A 
ATOM     34  C   UNL A   1      40.459  29.740  30.213  1.00  0.00     0.074 A 
ATOM     35  C   UNL A   1      40.029  27.713  28.876  1.00  0.00     0.049 A 
ATOM     36  N   UNL A   1      41.656  29.475  30.677  1.00  0.00    -0.248 NA
ATOM     37  C   UNL A   1      39.942  31.059  30.607  1.00  0.00     0.031 C 
ATOM     38  C   UNL A   1      39.297  26.817  27.980  1.00  0.00     0.029 A 
ATOM     39  N   UNL A   1      41.213  27.059  29.107  1.00  0.00    -0.354 N 
ATOM     40  C   UNL A   1      42.038  30.595  31.405  1.00  0.00     0.074 A 
ATOM     41  C   UNL A   1      40.964  31.559  31.287  1.00  0.00     0.031 C 
ATOM     42  C   UNL A   1      40.032  25.713  27.766  1.00  0.00     0.029 A 
ATOM     43  C   UNL A   1      41.294  25.835  28.487  1.00  0.00     0.049 A 
ATOM     44  H   UNL A   1      41.935  27.430  29.662  1.00  0.00     0.167 HD
ATOM     45  C   UNL A   1      43.167  30.798  32.123  1.00  0.00     0.031 A 
ATOM     46  C   UNL A   1      42.269  24.908  28.507  1.00  0.00     0.031 A 
ATOM     47  C   UNL A   1      44.235  29.841  32.255  1.00  0.00     0.049 A 
ATOM     48  C   UNL A   1      43.505  25.148  29.324  1.00  0.00     0.074 A 
ATOM     49  C   UNL A   1      45.393  29.937  33.008  1.00  0.00     0.029 A 
ATOM     50  N   UNL A   1      44.274  28.612  31.616  1.00  0.00    -0.354 N 
ATOM     51  N   UNL A   1      43.816  26.183  30.065  1.00  0.00    -0.248 NA
ATOM     52  C   UNL A   1      44.517  24.083  29.317  1.00  0.00     0.031 C 
ATOM     53  C   UNL A   1      46.152  28.780  32.794  1.00  0.00     0.029 A 
ATOM     54  C   UNL A   1      45.446  27.947  31.943  1.00  0.00     0.049 A 
ATOM     55  H   UNL A   1      43.574  28.263  31.019  1.00  0.00     0.167 HD
ATOM     56  C   UNL A   1      45.050  25.887  30.629  1.00  0.00     0.074 A 
ATOM     57  C   UNL A   1      45.420  24.568  30.159  1.00  0.00     0.031 C 
ATOM     58  C   UNL A   1      45.808  26.641  31.461  1.00  0.00     0.031 A 
BRANCH  45  59
ATOM     59  C   UNL A   1      43.309  32.119  32.825  1.00  0.00    -0.014 A 
ATOM     60  C   UNL A   1      43.913  33.215  32.189  1.00  0.00     0.009 A 
ATOM     61  C   UNL A   1      42.805  32.281  34.124  1.00  0.00     0.009 A 
ATOM     62  C   UNL A   1      44.040  34.437  32.853  1.00  0.00     0.001 A 
ATOM     63  C   UNL A   1      42.911  33.510  34.777  1.00  0.00     0.001 A 
ATOM     64  C   UNL A   1      43.536  34.584  34.145  1.00  0.00     0.000 A 
ENDBRANCH  45  59
BRANCH  46  65
ATOM     65  C   UNL A   1      42.099  23.641  27.751  1.00  0.00    -0.014 A 
ATOM     66  C   UNL A   1      42.514  23.553  26.414  1.00  0.00     0.009 A 
ATOM     67  C   UNL A   1      41.525  22.516  28.363  1.00  0.00     0.009 A 
ATOM     68  C   UNL A   1      42.335  22.368  25.696  1.00  0.00     0.001 A 
ATOM     69  C   UNL A   1      41.369  21.326  27.649  1.00  0.00     0.001 A 
ATOM     70  C   UNL A   1      41.767  21.255  26.315  1.00  0.00     0.000 A 
ENDBRANCH  46  65
BRANCH  58  71
ATOM     71  C   UNL A   1      47.105  26.045  31.927  1.00  0.00    -0.014 A 
ATOM     72  C   UNL A   1      48.284  26.203  31.182  1.00  0.00     0.009 A 
ATOM     73  C   UNL A   1      47.150  25.329  33.133  1.00  0.00     0.009 A 
ATOM     74  C   UNL A   1      49.476  25.625  31.620  1.00  0.00     0.001 A 
ATOM     75  C   UNL A   1      48.349  24.773  33.580  1.00  0.00     0.001 A 
ATOM     76  C   UNL A   1      49.509  24.912  32.819  1.00  0.00     0.000 A 
ENDBRANCH  58  71
ENDBRANCH  32  33
ENDBRANCH  24  27
ENDBRANCH  22  23
ENDBRANCH  21  22
ENDBRANCH   1  21
TORSDOF 13
ENDMDL
MODEL 2
REMARK VINA RESULT:     -11.4      2.510      7.090
REMARK SMILES C[C@@H](C(=O)NCCCNC(=O)c1ccc(-c2c3nc(c(-c4ccccc4)c4ccc([nH]4)c(-c4ccccc4)c4nc(c(-c5ccccc5)c5ccc2[nH]5)C=C4)C=C3)cc1)c1ccc(Cc2ccoc2)cc1F
REMARK SMILES IDX 6 1 5 2 3 3 4 4 2 6 1 7 60 8 61 9 71 10 62 11 70 12 72 13
REMARK SMILES IDX 63 14 64 15 65 16 66 17 69 18 67 19 68 20 7 21 8 22 9 23
REMARK SMILES IDX 10 24 11 26 12 27 13 28 59 29 14 30 58 31 15 32 16 33 17 34
REMARK SMILES IDX 52 35 18 36 57 37 51 38 53 39 19 40 56 41 50 42 49 43 20 45
REMARK SMILES IDX 42 46 27 47 41 48 28 49 31 50 40 51 54 52 29 53 30 54 39 56
REMARK SMILES IDX 55 57 32 58 21 59 22 60 26 61 23 62 25 63 24 64 43 65 44 66
REMARK SMILES IDX 48 67 45 68 47 69 46 70 33 71 34 72 38 73 35 74 37 75 36 76
REMARK H PARENT 5 5 9 25 53 44 31 55
REMARK Flexibility Score: inf
ROOT
ATOM      1  C   UNL A   1      34.480  24.326  24.933  1.00  0.00     0.117 C 
ENDROOT
BRANCH   1   2
ATOM      2  N   UNL A   1      33.928  25.324  25.829  1.00  0.00    -0.356 N 
ATOM      3  C   UNL A   1      33.276  26.497  25.571  1.00  0.00     0.227 C 
ATOM      4  O   UNL A   1      32.797  27.075  26.549  1.00  0.00    -0.274 OA
ATOM      5  H   UNL A   1      34.040  25.121  26.785  1.00  0.00     0.163 HD
BRANCH   3   6
ATOM      6  C   UNL A   1      33.120  27.001  24.125  1.00  0.00     0.108 C 
ATOM      7  C   UNL A   1      34.129  28.095  23.767  1.00  0.00     0.023 C 
BRANCH   6   8
ATOM      8  C   UNL A   1      31.713  27.500  23.815  1.00  0.00    -0.000 A 
ATOM      9  C   UNL A   1      31.443  28.875  23.776  1.00  0.00     0.008 A 
ATOM     10  C   UNL A   1      30.648  26.614  23.605  1.00  0.00     0.127 A 
ATOM     11  C   UNL A   1      30.147  29.339  23.528  1.00  0.00     0.004 A 
ATOM     12  C   UNL A   1      29.355  27.071  23.354  1.00  0.00     0.043 A 
ATOM     13  F   UNL A   1      30.852  25.290  23.666  1.00  0.00    -0.207 F 
ATOM     14  C   UNL A   1      29.087  28.445  23.314  1.00  0.00    -0.041 A 
BRANCH  14  15
ATOM     15  C   UNL A   1      27.693  28.951  23.036  1.00  0.00     0.074 C 
BRANCH  15  16
ATOM     16  C   UNL A   1      27.827  30.350  22.538  1.00  0.00    -0.005 A 
ATOM     17  C   UNL A   1      28.137  30.789  21.215  1.00  0.00     0.046 A 
ATOM     18  C   UNL A   1      27.616  31.511  23.258  1.00  0.00     0.198 A 
ATOM     19  C   UNL A   1      28.104  32.163  21.236  1.00  0.00     0.195 A 
ATOM     20  O   UNL A   1      27.783  32.608  22.476  1.00  0.00    -0.472 OA
ENDBRANCH  15  16
ENDBRANCH  14  15
ENDBRANCH   6   8
ENDBRANCH   3   6
ENDBRANCH   1   2
BRANCH   1  21
ATOM     21  C   UNL A   1      35.623  23.531  25.565  1.00  0.00     0.042 C 
BRANCH  21  22
ATOM     22  C   UNL A   1      36.980  23.685  24.881  1.00  0.00     0.118 C 
BRANCH  22  23
ATOM     23  N   UNL A   1      37.957  22.704  25.323  1.00  0.00    -0.352 N 
ATOM     24  C   UNL A   1      39.095  22.846  26.075  1.00  0.00     0.251 C 
ATOM     25  H   UNL A   1      37.771  21.782  25.034  1.00  0.00     0.163 HD
ATOM     26  O   UNL A   1      39.844  21.878  26.204  1.00  0.00    -0.269 OA
BRANCH  24  27
ATOM     27  C   UNL A   1      39.459  24.133  26.714  1.00  0.00     0.039 A 
ATOM     28  C   UNL A   1      39.020  24.365  28.023  1.00  0.00     0.014 A 
ATOM     29  C   UNL A   1      40.162  25.135  26.038  1.00  0.00     0.014 A 
ATOM     30  C   UNL A   1      39.326  25.567  28.665  1.00  0.00     0.010 A 
ATOM     31  C   UNL A   1      40.525  26.310  26.702  1.00  0.00     0.010 A 
ATOM     32  C   UNL A   1      40.107  26.540  28.021  1.00  0.00    -0.014 A 
BRANCH  32  33
ATOM     33  C   UNL A   1      40.489  27.788  28.731  1.00  0.00     0.031 A 
ATOM     34  C   UNL A   1      41.871  27.964  29.300  1.00  0.00     0.074 A 
ATOM     35  C   UNL A   1      39.576  28.767  28.884  1.00  0.00     0.049 A 
ATOM     36  N   UNL A   1      42.383  29.001  29.916  1.00  0.00    -0.248 NA
ATOM     37  C   UNL A   1      42.791  26.823  29.179  1.00  0.00     0.031 C 
ATOM     38  C   UNL A   1      38.187  28.710  28.426  1.00  0.00     0.029 A 
ATOM     39  N   UNL A   1      39.684  30.007  29.464  1.00  0.00    -0.354 N 
ATOM     40  C   UNL A   1      43.677  28.635  30.264  1.00  0.00     0.074 A 
ATOM     41  C   UNL A   1      43.858  27.266  29.828  1.00  0.00     0.031 C 
ATOM     42  C   UNL A   1      37.582  29.875  28.708  1.00  0.00     0.029 A 
ATOM     43  C   UNL A   1      38.531  30.750  29.389  1.00  0.00     0.049 A 
ATOM     44  H   UNL A   1      40.507  30.332  29.893  1.00  0.00     0.167 HD
ATOM     45  C   UNL A   1      44.635  29.373  30.871  1.00  0.00     0.031 A 
ATOM     46  C   UNL A   1      38.268  32.001  29.809  1.00  0.00     0.031 A 
ATOM     47  C   UNL A   1      44.468  30.737  31.297  1.00  0.00     0.049 A 
ATOM     48  C   UNL A   1      39.352  32.807  30.465  1.00  0.00     0.074 A 
ATOM     49  C   UNL A   1      45.401  31.585  31.872  1.00  0.00     0.029 A 
ATOM     50  N   UNL A   1      43.287  31.455  31.197  1.00  0.00    -0.354 N 
ATOM     51  N   UNL A   1      40.592  32.469  30.719  1.00  0.00    -0.248 NA
ATOM     52  C   UNL A   1      39.001  34.173  30.877  1.00  0.00     0.031 C 
ATOM     53  C   UNL A   1      44.774  32.803  32.153  1.00  0.00     0.029 A 
ATOM     54  C   UNL A   1      43.462  32.729  31.715  1.00  0.00     0.049 A 
ATOM     55  H   UNL A   1      42.448  31.112  30.814  1.00  0.00     0.167 HD
ATOM     56  C   UNL A   1      41.176  33.585  31.304  1.00  0.00     0.074 A 
ATOM     57  C   UNL A   1      40.160  34.616  31.347  1.00  0.00     0.031 C 
ATOM     58  C   UNL A   1      42.441  33.741  31.763  1.00  0.00     0.031 A 
BRANCH  45  59
ATOM     59  C   UNL A   1      45.962  28.712  31.117  1.00  0.00    -0.014 A 
ATOM     60  C   UNL A   1      46.212  28.009  32.306  1.00  0.00     0.009 A 
ATOM     61  C   UNL A   1      46.964  28.763  30.135  1.00  0.00     0.009 A 
ATOM     62  C   UNL A   1      47.449  27.400  32.522  1.00  0.00     0.001 A 
ATOM     63  C   UNL A   1      48.192  28.133  30.344  1.00  0.00     0.001 A 
ATOM     64  C   UNL A   1      48.437  27.460  31.540  1.00  0.00     0.000 A 
ENDBRANCH  45  59
BRANCH  46  65
ATOM     65  C   UNL A   1      36.922  32.588  29.588  1.00  0.00    -0.014 A 
ATOM     66  C   UNL A   1      36.623  33.242  28.384  1.00  0.00     0.009 A 
ATOM     67  C   UNL A   1      35.932  32.495  30.578  1.00  0.00     0.009 A 
ATOM     68  C   UNL A   1      35.365  33.813  28.184  1.00  0.00     0.001 A 
ATOM     69  C   UNL A   1      34.666  33.047  30.365  1.00  0.00     0.001 A 
ATOM     70  C   UNL A   1      34.386  33.712  29.172  1.00  0.00     0.000 A 
ENDBRANCH  46  65
BRANCH  58  71
ATOM     71  C   UNL A   1      42.795  35.083  32.336  1.00  0.00    -0.014 A 
ATOM     72  C   UNL A   1      43.489  36.036  31.574  1.00  0.00     0.009 A 
ATOM     73  C   UNL A   1      42.417  35.402  33.649  1.00  0.00     0.009 A 
ATOM     74  C   UNL A   1      43.828  37.271  32.130  1.00  0.00     0.001 A 
ATOM     75  C   UNL A   1      42.735  36.647  34.193  1.00  0.00     0.001 A 
ATOM     76  C   UNL A   1      43.449  37.576  33.437  1.00  0.00     0.000 A 
ENDBRANCH  58  71
ENDBRANCH  32  33
ENDBRANCH  24  27
ENDBRANCH  22  23
ENDBRANCH  21  22
ENDBRANCH   1  21
TORSDOF 13
ENDMDL
MODEL 3
REMARK VINA RESULT:     -11.4      2.370      4.596
REMARK SMILES C[C@@H](C(=O)NCCCNC(=O)c1ccc(-c2c3nc(c(-c4ccccc4)c4ccc([nH]4)c(-c4ccccc4)c4nc(c(-c5ccccc5)c5ccc2[nH]5)C=C4)C=C3)cc1)c1ccc(Cc2ccoc2)cc1F
REMARK SMILES IDX 6 1 5 2 3 3 4 4 2 6 1 7 60 8 61 9 71 10 62 11 70 12 72 13
REMARK SMILES IDX 63 14 64 15 65 16 66 17 69 18 67 19 68 20 7 21 8 22 9 23
REMARK SMILES IDX 10 24 11 26 12 27 13 28 59 29 14 30 58 31 15 32 16 33 17 34
REMARK SMILES IDX 52 35 18 36 57 37 51 38 53 39 19 40 56 41 50 42 49 43 20 45
REMARK SMILES IDX 42 46 27 47 41 48 28 49 31 50 40 51 54 52 29 53 30 54 39 56
REMARK SMILES IDX 55 57 32 58 21 59 22 60 26 61 23 62 25 63 24 64 43 65 44 66
REMARK SMILES IDX 48 67 45 68 47 69 46 70 33 71 34 72 38 73 35 74 37 75 36 76
REMARK H PARENT 5 5 9 25 53 44 31 55
REMARK Flexibility Score: inf
ROOT
ATOM      1  C   UNL A   1      32.847  28.996  24.778  1.00  0.00     0.117 C 
ENDROOT
BRANCH   1   2
ATOM      2  N   UNL A   1      31.934  27.872  24.691  1.00  0.00    -0.356 N 
ATOM      3  C   UNL A   1      32.099  26.620  24.169  1.00  0.00     0.227 C 
ATOM      4  O   UNL A   1      31.175  25.828  24.365  1.00  0.00    -0.274 OA
ATOM      5  H   UNL A   1      31.043  28.041  25.075  1.00  0.00     0.163 HD
BRANCH   3   6
ATOM      6  C   UNL A   1      33.401  26.245  23.439  1.00  0.00     0.108 C 
ATOM      7  C   UNL A   1      33.268  26.319  21.916  1.00  0.00     0.023 C 
BRANCH   6   8
ATOM      8  C   UNL A   1      33.927  24.868  23.827  1.00  0.00    -0.000 A 
ATOM      9  C   UNL A   1      33.972  23.836  22.880  1.00  0.00     0.008 A 
ATOM     10  C   UNL A   1      34.338  24.580  25.135  1.00  0.00     0.127 A 
ATOM     11  C   UNL A   1      34.421  22.560  23.238  1.00  0.00     0.004 A 
ATOM     12  C   UNL A   1      34.789  23.311  25.497  1.00  0.00     0.043 A 
ATOM     13  F   UNL A   1      34.282  25.526  26.083  1.00  0.00    -0.207 F 
ATOM     14  C   UNL A   1      34.834  22.280  24.550  1.00  0.00    -0.041 A 
BRANCH  14  15
ATOM     15  C   UNL A   1      35.327  20.906  24.928  1.00  0.00     0.074 C 
BRANCH  15  16
ATOM     16  C   UNL A   1      34.149  19.993  24.893  1.00  0.00    -0.005 A 
ATOM     17  C   UNL A   1      34.093  18.643  24.433  1.00  0.00     0.046 A 
ATOM     18  C   UNL A   1      32.876  20.262  25.362  1.00  0.00     0.198 A 
ATOM     19  C   UNL A   1      32.806  18.206  24.641  1.00  0.00     0.195 A 
ATOM     20  O   UNL A   1      32.062  19.187  25.210  1.00  0.00    -0.472 OA
ENDBRANCH  15  16
ENDBRANCH  14  15
ENDBRANCH   6   8
ENDBRANCH   3   6
ENDBRANCH   1   2
BRANCH   1  21
ATOM     21  C   UNL A   1      33.996  28.750  25.755  1.00  0.00     0.042 C 
BRANCH  21  22
ATOM     22  C   UNL A   1      33.614  28.796  27.234  1.00  0.00     0.118 C 
BRANCH  22  23
ATOM     23  N   UNL A   1      33.593  30.144  27.777  1.00  0.00    -0.352 N 
ATOM     24  C   UNL A   1      34.546  30.850  28.466  1.00  0.00     0.251 C 
ATOM     25  H   UNL A   1      32.753  30.634  27.624  1.00  0.00     0.163 HD
ATOM     26  O   UNL A   1      34.241  31.940  28.950  1.00  0.00    -0.269 OA
BRANCH  24  27
ATOM     27  C   UNL A   1      35.919  30.328  28.667  1.00  0.00     0.039 A 
ATOM     28  C   UNL A   1      36.828  30.445  27.608  1.00  0.00     0.014 A 
ATOM     29  C   UNL A   1      36.310  29.673  29.838  1.00  0.00     0.014 A 
ATOM     30  C   UNL A   1      38.130  29.958  27.742  1.00  0.00     0.010 A 
ATOM     31  C   UNL A   1      37.631  29.245  29.997  1.00  0.00     0.010 A 
ATOM     32  C   UNL A   1      38.553  29.378  28.949  1.00  0.00    -0.014 A 
BRANCH  32  33
ATOM     33  C   UNL A   1      39.959  28.924  29.113  1.00  0.00     0.031 A 
ATOM     34  C   UNL A   1      40.999  29.825  29.718  1.00  0.00     0.074 A 
ATOM     35  C   UNL A   1      40.307  27.692  28.691  1.00  0.00     0.049 A 
ATOM     36  N   UNL A   1      42.261  29.576  29.969  1.00  0.00    -0.248 NA
ATOM     37  C   UNL A   1      40.575  31.188  30.073  1.00  0.00     0.031 C 
ATOM     38  C   UNL A   1      39.412  26.733  28.043  1.00  0.00     0.029 A 
ATOM     39  N   UNL A   1      41.510  27.034  28.754  1.00  0.00    -0.354 N 
ATOM     40  C   UNL A   1      42.782  30.750  30.498  1.00  0.00     0.074 A 
ATOM     41  C   UNL A   1      41.711  31.724  30.494  1.00  0.00     0.031 C 
ATOM     42  C   UNL A   1      40.085  25.597  27.801  1.00  0.00     0.029 A 
ATOM     43  C   UNL A   1      41.463  25.755  28.252  1.00  0.00     0.049 A 
ATOM     44  H   UNL A   1      42.328  27.438  29.123  1.00  0.00     0.167 HD
ATOM     45  C   UNL A   1      44.030  30.992  30.964  1.00  0.00     0.031 A 
ATOM     46  C   UNL A   1      42.419  24.811  28.175  1.00  0.00     0.031 A 
ATOM     47  C   UNL A   1      45.097  30.027  30.982  1.00  0.00     0.049 A 
ATOM     48  C   UNL A   1      43.790  25.098  28.714  1.00  0.00     0.074 A 
ATOM     49  C   UNL A   1      46.380  30.165  31.486  1.00  0.00     0.029 A 
ATOM     50  N   UNL A   1      45.006  28.742  30.470  1.00  0.00    -0.354 N 
ATOM     51  N   UNL A   1      44.244  26.189  29.279  1.00  0.00    -0.248 NA
ATOM     52  C   UNL A   1      44.776  24.012  28.618  1.00  0.00     0.031 C 
ATOM     53  C   UNL A   1      47.076  28.975  31.246  1.00  0.00     0.029 A 
ATOM     54  C   UNL A   1      46.215  28.083  30.630  1.00  0.00     0.049 A 
ATOM     55  H   UNL A   1      44.202  28.355  30.054  1.00  0.00     0.167 HD
ATOM     56  C   UNL A   1      45.562  25.918  29.622  1.00  0.00     0.074 A 
ATOM     57  C   UNL A   1      45.827  24.552  29.221  1.00  0.00     0.031 C 
ATOM     58  C   UNL A   1      46.470  26.728  30.217  1.00  0.00     0.031 A 
BRANCH  45  59
ATOM     59  C   UNL A   1      44.312  32.370  31.494  1.00  0.00    -0.014 A 
ATOM     60  C   UNL A   1      44.777  33.390  30.649  1.00  0.00     0.009 A 
ATOM     61  C   UNL A   1      44.079  32.662  32.847  1.00  0.00     0.009 A 
ATOM     62  C   UNL A   1      45.036  34.665  31.154  1.00  0.00     0.001 A 
ATOM     63  C   UNL A   1      44.317  33.944  33.345  1.00  0.00     0.001 A 
ATOM     64  C   UNL A   1      44.803  34.942  32.501  1.00  0.00     0.000 A 
ENDBRANCH  45  59
BRANCH  46  65
ATOM     65  C   UNL A   1      42.100  23.483  27.593  1.00  0.00    -0.014 A 
ATOM     66  C   UNL A   1      42.427  23.197  26.259  1.00  0.00     0.009 A 
ATOM     67  C   UNL A   1      41.469  22.497  28.366  1.00  0.00     0.009 A 
ATOM     68  C   UNL A   1      42.108  21.956  25.704  1.00  0.00     0.001 A 
ATOM     69  C   UNL A   1      41.173  21.248  27.815  1.00  0.00     0.001 A 
ATOM     70  C   UNL A   1      41.485  20.982  26.483  1.00  0.00     0.000 A 
ENDBRANCH  46  65
BRANCH  58  71
ATOM     71  C   UNL A   1      47.829  26.147  30.482  1.00  0.00    -0.014 A 
ATOM     72  C   UNL A   1      48.188  25.701  31.763  1.00  0.00     0.009 A 
ATOM     73  C   UNL A   1      48.754  26.032  29.434  1.00  0.00     0.009 A 
ATOM     74  C   UNL A   1      49.463  25.182  31.996  1.00  0.00     0.001 A 
ATOM     75  C   UNL A   1      50.019  25.490  29.664  1.00  0.00     0.001 A 
ATOM     76  C   UNL A   1      50.377  25.075  30.947  1.00  0.00     0.000 A 
ENDBRANCH  58  71
ENDBRANCH  32  33
ENDBRANCH  24  27
ENDBRANCH  22  23
ENDBRANCH  21  22
ENDBRANCH   1  21
TORSDOF 13
ENDMDL
