MODEL 1
REMARK VINA RESULT:     -10.7      0.000      0.000
REMARK SMILES O=C(NCCCNC(=O)[C@H]1CCC(=O)N1Cc1ccco1)c1ccc(-c2c3nc(c(-c4ccccc4)c4ccc([nH]4)c(-c4ccccc4)c4nc(c(-c5ccccc5)c5ccc2[nH]5)C=C4)C=C3)cc1
REMARK SMILES IDX 5 1 4 2 3 3 1 4 2 5 22 7 23 8 69 9 24 10 68 11 25 12 26 13
REMARK SMILES IDX 27 14 62 15 28 16 67 17 61 18 63 19 29 20 66 21 60 22 59 23
REMARK SMILES IDX 30 25 52 26 37 27 51 28 38 29 41 30 50 31 64 32 39 33 40 34
REMARK SMILES IDX 49 36 65 37 42 38 31 39 32 40 36 41 33 42 35 43 34 44 53 45
REMARK SMILES IDX 54 46 58 47 55 48 57 49 56 50 43 51 44 52 48 53 45 54 47 55
REMARK SMILES IDX 46 56 6 57 7 58 8 59 9 61 10 62 11 63 15 64 12 65 13 66
REMARK SMILES IDX 14 67 16 68 17 69 18 70 21 71 19 72 20 73
REMARK H PARENT 3 6 63 24 41 35 7 60
REMARK Flexibility Score: inf
ROOT
ATOM      1  C   UNL A   1      37.893  19.789  24.692  1.00  0.00     0.042 C 
ENDROOT
BRANCH   1   2
ATOM      2  C   UNL A   1      38.925  20.179  25.747  1.00  0.00     0.118 C 
BRANCH   2   3
ATOM      3  N   UNL A   1      40.052  19.263  25.808  1.00  0.00    -0.352 N 
ATOM      4  O   UNL A   1      42.214  18.646  25.941  1.00  0.00    -0.269 OA
ATOM      5  C   UNL A   1      41.371  19.525  26.101  1.00  0.00     0.251 C 
ATOM      6  H   UNL A   1      39.842  18.321  25.611  1.00  0.00     0.163 HD
BRANCH   5   7
ATOM      7  C   UNL A   1      41.798  20.860  26.596  1.00  0.00     0.039 A 
ATOM      8  C   UNL A   1      42.203  21.867  25.717  1.00  0.00     0.014 A 
ATOM      9  C   UNL A   1      41.723  21.133  27.966  1.00  0.00     0.014 A 
ATOM     10  C   UNL A   1      42.630  23.099  26.215  1.00  0.00     0.010 A 
ATOM     11  C   UNL A   1      42.082  22.396  28.457  1.00  0.00     0.010 A 
ATOM     12  C   UNL A   1      42.554  23.391  27.588  1.00  0.00    -0.014 A 
BRANCH  12  13
ATOM     13  C   UNL A   1      42.875  24.765  28.072  1.00  0.00     0.031 A 
ATOM     14  C   UNL A   1      41.809  25.810  28.274  1.00  0.00     0.074 A 
ATOM     15  C   UNL A   1      44.161  25.074  28.340  1.00  0.00     0.049 A 
ATOM     16  N   UNL A   1      41.936  27.043  28.701  1.00  0.00    -0.248 NA
ATOM     17  C   UNL A   1      40.427  25.428  27.951  1.00  0.00     0.031 C 
ATOM     18  C   UNL A   1      45.300  24.168  28.164  1.00  0.00     0.029 A 
ATOM     19  N   UNL A   1      44.728  26.224  28.829  1.00  0.00    -0.354 N 
ATOM     20  C   UNL A   1      40.656  27.586  28.696  1.00  0.00     0.074 A 
ATOM     21  C   UNL A   1      39.772  26.559  28.185  1.00  0.00     0.031 C 
ATOM     22  C   UNL A   1      46.418  24.781  28.578  1.00  0.00     0.029 A 
ATOM     23  C   UNL A   1      46.090  26.142  28.987  1.00  0.00     0.049 A 
ATOM     24  H   UNL A   1      44.208  27.032  29.046  1.00  0.00     0.167 HD
ATOM     25  C   UNL A   1      40.251  28.819  29.091  1.00  0.00     0.031 A 
ATOM     26  C   UNL A   1      46.989  27.059  29.392  1.00  0.00     0.031 A 
ATOM     27  C   UNL A   1      41.128  29.852  29.584  1.00  0.00     0.049 A 
ATOM     28  C   UNL A   1      46.517  28.430  29.781  1.00  0.00     0.074 A 
ATOM     29  C   UNL A   1      40.802  31.127  30.018  1.00  0.00     0.029 A 
ATOM     30  N   UNL A   1      42.505  29.734  29.702  1.00  0.00    -0.354 N 
ATOM     31  N   UNL A   1      45.296  28.907  29.807  1.00  0.00    -0.248 NA
ATOM     32  C   UNL A   1      47.547  29.386  30.207  1.00  0.00     0.031 C 
ATOM     33  C   UNL A   1      41.985  31.797  30.349  1.00  0.00     0.029 A 
ATOM     34  C   UNL A   1      43.042  30.919  30.185  1.00  0.00     0.049 A 
ATOM     35  H   UNL A   1      43.024  28.929  29.478  1.00  0.00     0.167 HD
ATOM     36  C   UNL A   1      45.411  30.211  30.270  1.00  0.00     0.074 A 
ATOM     37  C   UNL A   1      46.815  30.437  30.543  1.00  0.00     0.031 C 
ATOM     38  C   UNL A   1      44.440  31.140  30.447  1.00  0.00     0.031 A 
BRANCH  25  39
ATOM     39  C   UNL A   1      38.779  29.134  29.001  1.00  0.00    -0.014 A 
ATOM     40  C   UNL A   1      37.939  28.993  30.116  1.00  0.00     0.009 A 
ATOM     41  C   UNL A   1      38.241  29.644  27.809  1.00  0.00     0.009 A 
ATOM     42  C   UNL A   1      36.585  29.329  30.032  1.00  0.00     0.001 A 
ATOM     43  C   UNL A   1      36.893  30.007  27.735  1.00  0.00     0.001 A 
ATOM     44  C   UNL A   1      36.065  29.842  28.844  1.00  0.00     0.000 A 
ENDBRANCH  25  39
BRANCH  26  45
ATOM     45  C   UNL A   1      48.437  26.719  29.423  1.00  0.00    -0.014 A 
ATOM     46  C   UNL A   1      49.262  26.972  28.316  1.00  0.00     0.009 A 
ATOM     47  C   UNL A   1      48.997  26.119  30.562  1.00  0.00     0.009 A 
ATOM     48  C   UNL A   1      50.607  26.597  28.337  1.00  0.00     0.001 A 
ATOM     49  C   UNL A   1      50.350  25.781  30.595  1.00  0.00     0.001 A 
ATOM     50  C   UNL A   1      51.152  26.007  29.477  1.00  0.00     0.000 A 
ENDBRANCH  26  45
BRANCH  38  51
ATOM     51  C   UNL A   1      44.866  32.475  30.996  1.00  0.00    -0.014 A 
ATOM     52  C   UNL A   1      45.280  33.518  30.150  1.00  0.00     0.009 A 
ATOM     53  C   UNL A   1      44.852  32.694  32.382  1.00  0.00     0.009 A 
ATOM     54  C   UNL A   1      45.718  34.731  30.685  1.00  0.00     0.001 A 
ATOM     55  C   UNL A   1      45.256  33.920  32.912  1.00  0.00     0.001 A 
ATOM     56  C   UNL A   1      45.702  34.932  32.065  1.00  0.00     0.000 A 
ENDBRANCH  38  51
ENDBRANCH  12  13
ENDBRANCH   5   7
ENDBRANCH   2   3
ENDBRANCH   1   2
BRANCH   1  57
ATOM     57  C   UNL A   1      36.432  20.117  25.011  1.00  0.00     0.117 C 
BRANCH  57  58
ATOM     58  N   UNL A   1      36.147  21.528  25.229  1.00  0.00    -0.354 N 
ATOM     59  C   UNL A   1      35.180  22.174  25.946  1.00  0.00     0.242 C 
ATOM     60  H   UNL A   1      36.772  22.135  24.770  1.00  0.00     0.163 HD
ATOM     61  O   UNL A   1      35.278  23.402  26.031  1.00  0.00    -0.273 OA
BRANCH  59  62
ATOM     62  C   UNL A   1      33.966  21.419  26.528  1.00  0.00     0.175 C 
ATOM     63  C   UNL A   1      33.449  22.128  27.793  1.00  0.00     0.045 C 
ATOM     64  N   UNL A   1      32.776  21.411  25.682  1.00  0.00    -0.323 N 
ATOM     65  C   UNL A   1      32.273  22.984  27.326  1.00  0.00     0.103 C 
ATOM     66  C   UNL A   1      31.759  22.235  26.132  1.00  0.00     0.223 C 
ATOM     67  O   UNL A   1      30.664  22.380  25.625  1.00  0.00    -0.275 OA
BRANCH  64  68
ATOM     68  C   UNL A   1      32.686  20.746  24.401  1.00  0.00     0.195 C 
BRANCH  68  69
ATOM     69  C   UNL A   1      32.877  19.273  24.553  1.00  0.00     0.123 A 
ATOM     70  C   UNL A   1      33.544  18.298  23.836  1.00  0.00     0.047 A 
ATOM     71  O   UNL A   1      32.274  18.701  25.639  1.00  0.00    -0.467 OA
ATOM     72  C   UNL A   1      33.378  17.084  24.538  1.00  0.00     0.042 A 
ATOM     73  C   UNL A   1      32.561  17.373  25.602  1.00  0.00     0.195 A 
ENDBRANCH  68  69
ENDBRANCH  64  68
ENDBRANCH  59  62
ENDBRANCH  57  58
ENDBRANCH   1  57
TORSDOF 12
ENDMDL
MODEL 2
REMARK VINA RESULT:     -10.6      1.058      6.161
REMARK SMILES O=C(NCCCNC(=O)[C@H]1CCC(=O)N1Cc1ccco1)c1ccc(-c2c3nc(c(-c4ccccc4)c4ccc([nH]4)c(-c4ccccc4)c4nc(c(-c5ccccc5)c5ccc2[nH]5)C=C4)C=C3)cc1
REMARK SMILES IDX 5 1 4 2 3 3 1 4 2 5 22 7 23 8 69 9 24 10 68 11 25 12 26 13
REMARK SMILES IDX 27 14 62 15 28 16 67 17 61 18 63 19 29 20 66 21 60 22 59 23
REMARK SMILES IDX 30 25 52 26 37 27 51 28 38 29 41 30 50 31 64 32 39 33 40 34
REMARK SMILES IDX 49 36 65 37 42 38 31 39 32 40 36 41 33 42 35 43 34 44 53 45
REMARK SMILES IDX 54 46 58 47 55 48 57 49 56 50 43 51 44 52 48 53 45 54 47 55
REMARK SMILES IDX 46 56 6 57 7 58 8 59 9 61 10 62 11 63 15 64 12 65 13 66
REMARK SMILES IDX 14 67 16 68 17 69 18 70 21 71 19 72 20 73
REMARK H PARENT 3 6 63 24 41 35 7 60
REMARK Flexibility Score: inf
ROOT
ATOM      1  C   UNL A   1      37.943  19.563  24.652  1.00  0.00     0.042 C 
ENDROOT
BRANCH   1   2
ATOM      2  C   UNL A   1      38.996  19.943  25.691  1.00  0.00     0.118 C 
BRANCH   2   3
ATOM      3  N   UNL A   1      40.083  18.983  25.779  1.00  0.00    -0.352 N 
ATOM      4  O   UNL A   1      42.219  18.276  25.871  1.00  0.00    -0.269 OA
ATOM      5  C   UNL A   1      41.424  19.204  25.994  1.00  0.00     0.251 C 
ATOM      6  H   UNL A   1      39.822  18.039  25.669  1.00  0.00     0.163 HD
BRANCH   5   7
ATOM      7  C   UNL A   1      41.931  20.552  26.359  1.00  0.00     0.039 A 
ATOM      8  C   UNL A   1      42.256  21.497  25.383  1.00  0.00     0.014 A 
ATOM      9  C   UNL A   1      42.017  20.904  27.711  1.00  0.00     0.014 A 
ATOM     10  C   UNL A   1      42.762  22.744  25.757  1.00  0.00     0.010 A 
ATOM     11  C   UNL A   1      42.456  22.183  28.084  1.00  0.00     0.010 A 
ATOM     12  C   UNL A   1      42.847  23.114  27.110  1.00  0.00    -0.014 A 
BRANCH  12  13
ATOM     13  C   UNL A   1      43.249  24.504  27.474  1.00  0.00     0.031 A 
ATOM     14  C   UNL A   1      44.686  24.955  27.433  1.00  0.00     0.074 A 
ATOM     15  C   UNL A   1      42.292  25.379  27.846  1.00  0.00     0.049 A 
ATOM     16  N   UNL A   1      45.185  26.136  27.710  1.00  0.00    -0.248 NA
ATOM     17  C   UNL A   1      45.691  23.958  27.037  1.00  0.00     0.031 C 
ATOM     18  C   UNL A   1      40.864  25.070  27.958  1.00  0.00     0.029 A 
ATOM     19  N   UNL A   1      42.369  26.707  28.186  1.00  0.00    -0.354 N 
ATOM     20  C   UNL A   1      46.559  26.025  27.526  1.00  0.00     0.074 A 
ATOM     21  C   UNL A   1      46.818  24.650  27.152  1.00  0.00     0.031 C 
ATOM     22  C   UNL A   1      40.198  26.183  28.297  1.00  0.00     0.029 A 
ATOM     23  C   UNL A   1      41.153  27.268  28.491  1.00  0.00     0.049 A 
ATOM     24  H   UNL A   1      43.216  27.209  28.210  1.00  0.00     0.167 HD
ATOM     25  C   UNL A   1      47.515  26.980  27.645  1.00  0.00     0.031 A 
ATOM     26  C   UNL A   1      40.831  28.508  28.904  1.00  0.00     0.031 A 
ATOM     27  C   UNL A   1      47.266  28.346  28.034  1.00  0.00     0.049 A 
ATOM     28  C   UNL A   1      41.916  29.532  29.069  1.00  0.00     0.074 A 
ATOM     29  C   UNL A   1      48.174  29.385  28.167  1.00  0.00     0.029 A 
ATOM     30  N   UNL A   1      46.021  28.865  28.358  1.00  0.00    -0.354 N 
ATOM     31  N   UNL A   1      43.203  29.416  28.851  1.00  0.00    -0.248 NA
ATOM     32  C   UNL A   1      41.501  30.865  29.530  1.00  0.00     0.031 C 
ATOM     33  C   UNL A   1      47.487  30.516  28.623  1.00  0.00     0.029 A 
ATOM     34  C   UNL A   1      46.142  30.202  28.709  1.00  0.00     0.049 A 
ATOM     35  H   UNL A   1      45.177  28.360  28.341  1.00  0.00     0.167 HD
ATOM     36  C   UNL A   1      43.747  30.663  29.127  1.00  0.00     0.074 A 
ATOM     37  C   UNL A   1      42.647  31.528  29.497  1.00  0.00     0.031 C 
ATOM     38  C   UNL A   1      45.044  31.055  29.084  1.00  0.00     0.031 A 
BRANCH  25  39
ATOM     39  C   UNL A   1      48.940  26.583  27.356  1.00  0.00    -0.014 A 
ATOM     40  C   UNL A   1      49.780  26.107  28.376  1.00  0.00     0.009 A 
ATOM     41  C   UNL A   1      49.427  26.616  26.040  1.00  0.00     0.009 A 
ATOM     42  C   UNL A   1      51.086  25.701  28.087  1.00  0.00     0.001 A 
ATOM     43  C   UNL A   1      50.723  26.182  25.750  1.00  0.00     0.001 A 
ATOM     44  C   UNL A   1      51.554  25.733  26.775  1.00  0.00     0.000 A 
ENDBRANCH  25  39
BRANCH  26  45
ATOM     45  C   UNL A   1      39.417  28.845  29.220  1.00  0.00    -0.014 A 
ATOM     46  C   UNL A   1      38.570  29.392  28.245  1.00  0.00     0.009 A 
ATOM     47  C   UNL A   1      38.914  28.636  30.514  1.00  0.00     0.009 A 
ATOM     48  C   UNL A   1      37.261  29.756  28.569  1.00  0.00     0.001 A 
ATOM     49  C   UNL A   1      37.594  28.964  30.826  1.00  0.00     0.001 A 
ATOM     50  C   UNL A   1      36.772  29.537  29.856  1.00  0.00     0.000 A 
ENDBRANCH  26  45
BRANCH  38  51
ATOM     51  C   UNL A   1      45.333  32.495  29.413  1.00  0.00    -0.014 A 
ATOM     52  C   UNL A   1      45.312  33.492  28.424  1.00  0.00     0.009 A 
ATOM     53  C   UNL A   1      45.629  32.860  30.736  1.00  0.00     0.009 A 
ATOM     54  C   UNL A   1      45.631  34.813  28.744  1.00  0.00     0.001 A 
ATOM     55  C   UNL A   1      45.913  34.188  31.060  1.00  0.00     0.001 A 
ATOM     56  C   UNL A   1      45.928  35.160  30.062  1.00  0.00     0.000 A 
ENDBRANCH  38  51
ENDBRANCH  12  13
ENDBRANCH   5   7
ENDBRANCH   2   3
ENDBRANCH   1   2
BRANCH   1  57
ATOM     57  C   UNL A   1      36.490  19.890  25.000  1.00  0.00     0.117 C 
BRANCH  57  58
ATOM     58  N   UNL A   1      36.157  21.308  25.004  1.00  0.00    -0.354 N 
ATOM     59  C   UNL A   1      35.178  22.025  25.632  1.00  0.00     0.242 C 
ATOM     60  H   UNL A   1      36.752  21.856  24.443  1.00  0.00     0.163 HD
ATOM     61  O   UNL A   1      35.232  23.253  25.524  1.00  0.00    -0.273 OA
BRANCH  59  62
ATOM     62  C   UNL A   1      34.001  21.328  26.348  1.00  0.00     0.175 C 
ATOM     63  C   UNL A   1      33.626  22.093  27.632  1.00  0.00     0.045 C 
ATOM     64  N   UNL A   1      32.738  21.336  25.617  1.00  0.00    -0.323 N 
ATOM     65  C   UNL A   1      32.439  22.973  27.248  1.00  0.00     0.103 C 
ATOM     66  C   UNL A   1      31.793  22.206  26.133  1.00  0.00     0.223 C 
ATOM     67  O   UNL A   1      30.660  22.373  25.725  1.00  0.00    -0.275 OA
BRANCH  64  68
ATOM     68  C   UNL A   1      32.507  20.636  24.373  1.00  0.00     0.195 C 
BRANCH  68  69
ATOM     69  C   UNL A   1      32.784  19.176  24.526  1.00  0.00     0.123 A 
ATOM     70  C   UNL A   1      33.555  18.254  23.844  1.00  0.00     0.047 A 
ATOM     71  O   UNL A   1      32.153  18.554  25.568  1.00  0.00    -0.467 OA
ATOM     72  C   UNL A   1      33.426  17.024  24.526  1.00  0.00     0.042 A 
ATOM     73  C   UNL A   1      32.528  17.248  25.539  1.00  0.00     0.195 A 
ENDBRANCH  68  69
ENDBRANCH  64  68
ENDBRANCH  59  62
ENDBRANCH  57  58
ENDBRANCH   1  57
TORSDOF 12
ENDMDL
MODEL 3
REMARK VINA RESULT:     -10.5      5.223      9.782
REMARK SMILES O=C(NCCCNC(=O)[C@H]1CCC(=O)N1Cc1ccco1)c1ccc(-c2c3nc(c(-c4ccccc4)c4ccc([nH]4)c(-c4ccccc4)c4nc(c(-c5ccccc5)c5ccc2[nH]5)C=C4)C=C3)cc1
REMARK SMILES IDX 5 1 4 2 3 3 1 4 2 5 22 7 23 8 69 9 24 10 68 11 25 12 26 13
REMARK SMILES IDX 27 14 62 15 28 16 67 17 61 18 63 19 29 20 66 21 60 22 59 23
REMARK SMILES IDX 30 25 52 26 37 27 51 28 38 29 41 30 50 31 64 32 39 33 40 34
REMARK SMILES IDX 49 36 65 37 42 38 31 39 32 40 36 41 33 42 35 43 34 44 53 45
REMARK SMILES IDX 54 46 58 47 55 48 57 49 56 50 43 51 44 52 48 53 45 54 47 55
REMARK SMILES IDX 46 56 6 57 7 58 8 59 9 61 10 62 11 63 15 64 12 65 13 66
REMARK SMILES IDX 14 67 16 68 17 69 18 70 21 71 19 72 20 73
REMARK H PARENT 3 6 63 24 41 35 7 60
REMARK Flexibility Score: inf
ROOT
ATOM      1  C   UNL A   1      31.274  31.826  26.787  1.00  0.00     0.042 C 
ENDROOT
BRANCH   1   2
ATOM      2  C   UNL A   1      32.576  32.590  27.015  1.00  0.00     0.118 C 
BRANCH   2   3
ATOM      3  N   UNL A   1      32.366  33.931  27.537  1.00  0.00    -0.352 N 
ATOM      4  O   UNL A   1      32.628  35.670  28.943  1.00  0.00    -0.269 OA
ATOM      5  C   UNL A   1      33.057  34.599  28.521  1.00  0.00     0.251 C 
ATOM      6  H   UNL A   1      31.624  34.432  27.126  1.00  0.00     0.163 HD
BRANCH   5   7
ATOM      7  C   UNL A   1      34.309  34.041  29.096  1.00  0.00     0.039 A 
ATOM      8  C   UNL A   1      34.283  33.139  30.162  1.00  0.00     0.014 A 
ATOM      9  C   UNL A   1      35.535  34.373  28.507  1.00  0.00     0.014 A 
ATOM     10  C   UNL A   1      35.477  32.658  30.701  1.00  0.00     0.010 A 
ATOM     11  C   UNL A   1      36.729  33.831  29.004  1.00  0.00     0.010 A 
ATOM     12  C   UNL A   1      36.715  32.977  30.116  1.00  0.00    -0.014 A 
BRANCH  12  13
ATOM     13  C   UNL A   1      37.961  32.330  30.621  1.00  0.00     0.031 A 
ATOM     14  C   UNL A   1      38.735  32.889  31.787  1.00  0.00     0.074 A 
ATOM     15  C   UNL A   1      38.402  31.209  30.014  1.00  0.00     0.049 A 
ATOM     16  N   UNL A   1      39.828  32.428  32.346  1.00  0.00    -0.248 NA
ATOM     17  C   UNL A   1      38.222  34.121  32.403  1.00  0.00     0.031 C 
ATOM     18  C   UNL A   1      37.767  30.573  28.855  1.00  0.00     0.029 A 
ATOM     19  N   UNL A   1      39.473  30.397  30.289  1.00  0.00    -0.354 N 
ATOM     20  C   UNL A   1      40.137  33.312  33.373  1.00  0.00     0.074 A 
ATOM     21  C   UNL A   1      39.137  34.359  33.336  1.00  0.00     0.031 C 
ATOM     22  C   UNL A   1      38.435  29.452  28.548  1.00  0.00     0.029 A 
ATOM     23  C   UNL A   1      39.580  29.321  29.441  1.00  0.00     0.049 A 
ATOM     24  H   UNL A   1      40.106  30.569  31.024  1.00  0.00     0.167 HD
ATOM     25  C   UNL A   1      41.151  33.253  34.273  1.00  0.00     0.031 A 
ATOM     26  C   UNL A   1      40.504  28.344  29.366  1.00  0.00     0.031 A 
ATOM     27  C   UNL A   1      42.160  32.224  34.305  1.00  0.00     0.049 A 
ATOM     28  C   UNL A   1      41.639  28.330  30.348  1.00  0.00     0.074 A 
ATOM     29  C   UNL A   1      43.218  32.079  35.189  1.00  0.00     0.029 A 
ATOM     30  N   UNL A   1      42.245  31.167  33.411  1.00  0.00    -0.354 N 
ATOM     31  N   UNL A   1      41.889  29.153  31.336  1.00  0.00    -0.248 NA
ATOM     32  C   UNL A   1      42.618  27.242  30.208  1.00  0.00     0.031 C 
ATOM     33  C   UNL A   1      43.971  30.967  34.799  1.00  0.00     0.029 A 
ATOM     34  C   UNL A   1      43.346  30.379  33.713  1.00  0.00     0.049 A 
ATOM     35  H   UNL A   1      41.616  31.000  32.672  1.00  0.00     0.167 HD
ATOM     36  C   UNL A   1      43.039  28.672  31.948  1.00  0.00     0.074 A 
ATOM     37  C   UNL A   1      43.419  27.468  31.239  1.00  0.00     0.031 C 
ATOM     38  C   UNL A   1      43.723  29.187  32.998  1.00  0.00     0.031 A 
BRANCH  25  39
ATOM     39  C   UNL A   1      41.232  34.346  35.308  1.00  0.00    -0.014 A 
ATOM     40  C   UNL A   1      41.935  35.534  35.055  1.00  0.00     0.009 A 
ATOM     41  C   UNL A   1      40.538  34.218  36.522  1.00  0.00     0.009 A 
ATOM     42  C   UNL A   1      41.966  36.558  36.006  1.00  0.00     0.001 A 
ATOM     43  C   UNL A   1      40.546  35.254  37.459  1.00  0.00     0.001 A 
ATOM     44  C   UNL A   1      41.267  36.419  37.204  1.00  0.00     0.000 A 
ENDBRANCH  25  39
BRANCH  26  45
ATOM     45  C   UNL A   1      40.410  27.311  28.300  1.00  0.00    -0.014 A 
ATOM     46  C   UNL A   1      39.718  26.110  28.518  1.00  0.00     0.009 A 
ATOM     47  C   UNL A   1      41.035  27.517  27.060  1.00  0.00     0.009 A 
ATOM     48  C   UNL A   1      39.685  25.124  27.530  1.00  0.00     0.001 A 
ATOM     49  C   UNL A   1      40.967  26.547  26.060  1.00  0.00     0.001 A 
ATOM     50  C   UNL A   1      40.303  25.345  26.300  1.00  0.00     0.000 A 
ENDBRANCH  26  45
BRANCH  38  51
ATOM     51  C   UNL A   1      44.933  28.422  33.464  1.00  0.00    -0.014 A 
ATOM     52  C   UNL A   1      46.214  28.697  32.957  1.00  0.00     0.009 A 
ATOM     53  C   UNL A   1      44.789  27.411  34.426  1.00  0.00     0.009 A 
ATOM     54  C   UNL A   1      47.315  27.941  33.368  1.00  0.00     0.001 A 
ATOM     55  C   UNL A   1      45.896  26.681  34.861  1.00  0.00     0.001 A 
ATOM     56  C   UNL A   1      47.155  26.937  34.321  1.00  0.00     0.000 A 
ENDBRANCH  38  51
ENDBRANCH  12  13
ENDBRANCH   5   7
ENDBRANCH   2   3
ENDBRANCH   1   2
BRANCH   1  57
ATOM     57  C   UNL A   1      31.271  30.808  25.645  1.00  0.00     0.117 C 
BRANCH  57  58
ATOM     58  N   UNL A   1      32.238  29.727  25.774  1.00  0.00    -0.354 N 
ATOM     59  C   UNL A   1      32.873  28.942  24.854  1.00  0.00     0.242 C 
ATOM     60  H   UNL A   1      32.480  29.521  26.706  1.00  0.00     0.163 HD
ATOM     61  O   UNL A   1      33.742  28.176  25.282  1.00  0.00    -0.273 OA
BRANCH  59  62
ATOM     62  C   UNL A   1      32.449  28.933  23.369  1.00  0.00     0.175 C 
ATOM     63  C   UNL A   1      33.639  28.540  22.474  1.00  0.00     0.045 C 
ATOM     64  N   UNL A   1      31.460  27.921  23.013  1.00  0.00    -0.323 N 
ATOM     65  C   UNL A   1      33.458  27.050  22.191  1.00  0.00     0.103 C 
ATOM     66  C   UNL A   1      31.973  26.863  22.283  1.00  0.00     0.223 C 
ATOM     67  O   UNL A   1      31.352  25.916  21.842  1.00  0.00    -0.275 OA
BRANCH  64  68
ATOM     68  C   UNL A   1      30.096  27.905  23.492  1.00  0.00     0.195 C 
BRANCH  68  69
ATOM     69  C   UNL A   1      29.306  29.017  22.883  1.00  0.00     0.123 A 
ATOM     70  C   UNL A   1      28.146  29.688  23.223  1.00  0.00     0.047 A 
ATOM     71  O   UNL A   1      29.798  29.530  21.715  1.00  0.00    -0.467 OA
ATOM     72  C   UNL A   1      27.945  30.686  22.244  1.00  0.00     0.042 A 
ATOM     73  C   UNL A   1      28.951  30.518  21.325  1.00  0.00     0.195 A 
ENDBRANCH  68  69
ENDBRANCH  64  68
ENDBRANCH  59  62
ENDBRANCH  57  58
ENDBRANCH   1  57
TORSDOF 12
ENDMDL
