MODEL 1
REMARK VINA RESULT:     -11.4      0.000      0.000
REMARK SMILES O=C(/C=C\c1ccc(OCc2ccc(Br)cc2)cc1)NCCCNC(=O)c1ccc(-c2c3nc(c(-c4ccccc4)c4ccc([nH]4)c(-c4ccccc4)c4nc(c(-c5ccccc5)c5ccc2[nH]5)C=C4)C=C3)cc1
REMARK SMILES IDX 21 1 20 2 1 3 2 4 3 6 4 7 5 8 6 9 19 10 7 11 18 12 8 13 9 14
REMARK SMILES IDX 10 15 11 16 12 17 17 18 13 19 16 20 14 21 15 22 22 23 23 24
REMARK SMILES IDX 24 25 25 26 26 28 27 29 28 30 74 31 29 32 73 33 30 34 31 35
REMARK SMILES IDX 32 36 67 37 33 38 72 39 66 40 68 41 34 42 71 43 65 44 64 45
REMARK SMILES IDX 35 47 57 48 42 49 56 50 43 51 46 52 55 53 69 54 44 55 45 56
REMARK SMILES IDX 54 58 70 59 47 60 36 61 37 62 41 63 38 64 40 65 39 66 58 67
REMARK SMILES IDX 59 68 63 69 60 70 62 71 61 72 48 73 49 74 53 75 50 76 52 77
REMARK SMILES IDX 51 78
REMARK H PARENT 20 5 24 27 68 46 46 57
REMARK Flexibility Score: inf
ROOT
ATOM      1  C   UNL A   1      32.973  35.332  31.731  1.00  0.00     0.118 C 
ENDROOT
BRANCH   1   2
ATOM      2  N   UNL A   1      33.747  35.184  30.505  1.00  0.00    -0.352 N 
ATOM      3  O   UNL A   1      34.230  32.972  30.826  1.00  0.00    -0.270 OA
ATOM      4  C   UNL A   1      34.397  34.021  30.212  1.00  0.00     0.244 C 
ATOM      5  H   UNL A   1      33.801  35.938  29.875  1.00  0.00     0.163 HD
BRANCH   4   6
ATOM      6  C   UNL A   1      35.295  34.034  29.031  1.00  0.00     0.072 C 
ATOM      7  C   UNL A   1      35.570  33.137  28.068  1.00  0.00     0.014 C 
BRANCH   7   8
ATOM      8  C   UNL A   1      35.091  31.770  27.841  1.00  0.00    -0.025 A 
ATOM      9  C   UNL A   1      33.750  31.583  27.498  1.00  0.00     0.012 A 
ATOM     10  C   UNL A   1      35.883  30.642  28.079  1.00  0.00     0.012 A 
ATOM     11  C   UNL A   1      33.248  30.301  27.267  1.00  0.00     0.047 A 
ATOM     12  C   UNL A   1      35.362  29.350  27.878  1.00  0.00     0.047 A 
ATOM     13  C   UNL A   1      34.072  29.185  27.380  1.00  0.00     0.119 A 
BRANCH  13  14
ATOM     14  O   UNL A   1      33.490  28.018  26.985  1.00  0.00    -0.489 OA
BRANCH  14  15
ATOM     15  C   UNL A   1      33.629  27.600  25.632  1.00  0.00     0.265 C 
BRANCH  15  16
ATOM     16  C   UNL A   1      33.381  26.132  25.355  1.00  0.00    -0.011 A 
ATOM     17  C   UNL A   1      31.695  25.488  25.362  1.00  0.00     0.008 A 
ATOM     18  C   UNL A   1      34.784  24.963  25.336  1.00  0.00     0.008 A 
ATOM     19  C   UNL A   1      31.386  23.702  25.226  1.00  0.00     0.016 A 
ATOM     20  C   UNL A   1      34.463  23.137  25.387  1.00  0.00     0.016 A 
ATOM     21  C   UNL A   1      32.771  22.539  25.247  1.00  0.00     0.017 A 
ATOM     22  Br  UNL A   1      32.450  20.698  24.993  1.00  0.00    -0.051 Br
ENDBRANCH  15  16
ENDBRANCH  14  15
ENDBRANCH  13  14
ENDBRANCH   7   8
ENDBRANCH   4   6
ENDBRANCH   1   2
BRANCH   1  23
ATOM     23  C   UNL A   1      33.696  36.230  32.716  1.00  0.00     0.042 C 
BRANCH  23  24
ATOM     24  C   UNL A   1      35.142  35.816  32.872  1.00  0.00     0.118 C 
BRANCH  24  25
ATOM     25  N   UNL A   1      35.391  34.688  33.822  1.00  0.00    -0.352 N 
ATOM     26  C   UNL A   1      36.341  33.447  33.969  1.00  0.00     0.251 C 
ATOM     27  H   UNL A   1      34.772  34.740  34.586  1.00  0.00     0.163 HD
ATOM     28  O   UNL A   1      35.994  33.326  35.203  1.00  0.00    -0.269 OA
BRANCH  26  29
ATOM     29  C   UNL A   1      37.627  32.382  32.623  1.00  0.00     0.039 A 
ATOM     30  C   UNL A   1      37.763  32.386  31.107  1.00  0.00     0.014 A 
ATOM     31  C   UNL A   1      38.761  31.377  32.943  1.00  0.00     0.014 A 
ATOM     32  C   UNL A   1      38.709  31.704  30.269  1.00  0.00     0.010 A 
ATOM     33  C   UNL A   1      39.730  30.762  32.167  1.00  0.00     0.010 A 
ATOM     34  C   UNL A   1      39.708  30.928  30.818  1.00  0.00    -0.014 A 
BRANCH  34  35
ATOM     35  C   UNL A   1      40.885  30.392  30.138  1.00  0.00     0.031 A 
ATOM     36  C   UNL A   1      42.022  31.305  29.794  1.00  0.00     0.074 A 
ATOM     37  C   UNL A   1      40.713  29.202  29.538  1.00  0.00     0.049 A 
ATOM     38  N   UNL A   1      43.082  31.054  29.077  1.00  0.00    -0.248 NA
ATOM     39  C   UNL A   1      41.926  32.704  30.261  1.00  0.00     0.031 C 
ATOM     40  C   UNL A   1      39.505  28.371  29.646  1.00  0.00     0.029 A 
ATOM     41  N   UNL A   1      41.514  28.514  28.677  1.00  0.00    -0.354 N 
ATOM     42  C   UNL A   1      43.791  32.245  29.031  1.00  0.00     0.074 A 
ATOM     43  C   UNL A   1      43.001  33.247  29.709  1.00  0.00     0.031 C 
ATOM     44  C   UNL A   1      39.671  27.259  28.917  1.00  0.00     0.029 A 
ATOM     45  C   UNL A   1      40.974  27.318  28.272  1.00  0.00     0.049 A 
ATOM     46  H   UNL A   1      42.393  28.839  28.376  1.00  0.00     0.167 HD
ATOM     47  C   UNL A   1      45.012  32.459  28.492  1.00  0.00     0.031 A 
ATOM     48  C   UNL A   1      41.494  26.373  27.475  1.00  0.00     0.031 A 
ATOM     49  C   UNL A   1      45.728  31.440  27.773  1.00  0.00     0.049 A 
ATOM     50  C   UNL A   1      42.867  26.615  26.922  1.00  0.00     0.074 A 
ATOM     51  C   UNL A   1      47.008  31.482  27.256  1.00  0.00     0.029 A 
ATOM     52  N   UNL A   1      45.200  30.196  27.449  1.00  0.00    -0.354 N 
ATOM     53  N   UNL A   1      43.633  27.674  27.049  1.00  0.00    -0.248 NA
ATOM     54  C   UNL A   1      43.458  25.528  26.139  1.00  0.00     0.031 C 
ATOM     55  C   UNL A   1      47.226  30.291  26.557  1.00  0.00     0.029 A 
ATOM     56  C   UNL A   1      46.116  29.473  26.708  1.00  0.00     0.049 A 
ATOM     57  H   UNL A   1      44.305  29.877  27.708  1.00  0.00     0.167 HD
ATOM     58  C   UNL A   1      44.812  27.370  26.389  1.00  0.00     0.074 A 
ATOM     59  C   UNL A   1      44.662  26.018  25.883  1.00  0.00     0.031 C 
ATOM     60  C   UNL A   1      45.919  28.133  26.213  1.00  0.00     0.031 A 
BRANCH  47  61
ATOM     61  C   UNL A   1      45.636  33.814  28.680  1.00  0.00    -0.014 A 
ATOM     62  C   UNL A   1      46.438  34.091  29.803  1.00  0.00     0.009 A 
ATOM     63  C   UNL A   1      45.467  34.815  27.713  1.00  0.00     0.009 A 
ATOM     64  C   UNL A   1      47.023  35.348  29.969  1.00  0.00     0.001 A 
ATOM     65  C   UNL A   1      46.082  36.061  27.865  1.00  0.00     0.001 A 
ATOM     66  C   UNL A   1      46.851  36.330  28.997  1.00  0.00     0.000 A 
ENDBRANCH  47  61
BRANCH  48  67
ATOM     67  C   UNL A   1      40.754  25.109  27.240  1.00  0.00    -0.014 A 
ATOM     68  C   UNL A   1      41.152  23.928  27.884  1.00  0.00     0.009 A 
ATOM     69  C   UNL A   1      39.625  25.079  26.407  1.00  0.00     0.009 A 
ATOM     70  C   UNL A   1      40.465  22.734  27.663  1.00  0.00     0.001 A 
ATOM     71  C   UNL A   1      38.917  23.890  26.215  1.00  0.00     0.001 A 
ATOM     72  C   UNL A   1      39.347  22.716  26.832  1.00  0.00     0.000 A 
ENDBRANCH  48  67
BRANCH  60  73
ATOM     73  C   UNL A   1      47.059  27.501  25.467  1.00  0.00    -0.014 A 
ATOM     74  C   UNL A   1      48.027  26.731  26.128  1.00  0.00     0.009 A 
ATOM     75  C   UNL A   1      47.132  27.645  24.073  1.00  0.00     0.009 A 
ATOM     76  C   UNL A   1      49.072  26.151  25.409  1.00  0.00     0.001 A 
ATOM     77  C   UNL A   1      48.151  27.027  23.353  1.00  0.00     0.001 A 
ATOM     78  C   UNL A   1      49.127  26.291  24.023  1.00  0.00     0.000 A 
ENDBRANCH  60  73
ENDBRANCH  34  35
ENDBRANCH  26  29
ENDBRANCH  24  25
ENDBRANCH  23  24
ENDBRANCH   1  23
TORSDOF 14
ENDMDL
MODEL 2
REMARK VINA RESULT:     -11.3      4.690     10.329
REMARK SMILES O=C(/C=C\c1ccc(OCc2ccc(Br)cc2)cc1)NCCCNC(=O)c1ccc(-c2c3nc(c(-c4ccccc4)c4ccc([nH]4)c(-c4ccccc4)c4nc(c(-c5ccccc5)c5ccc2[nH]5)C=C4)C=C3)cc1
REMARK SMILES IDX 21 1 20 2 1 3 2 4 3 6 4 7 5 8 6 9 19 10 7 11 18 12 8 13 9 14
REMARK SMILES IDX 10 15 11 16 12 17 17 18 13 19 16 20 14 21 15 22 22 23 23 24
REMARK SMILES IDX 24 25 25 26 26 28 27 29 28 30 74 31 29 32 73 33 30 34 31 35
REMARK SMILES IDX 32 36 67 37 33 38 72 39 66 40 68 41 34 42 71 43 65 44 64 45
REMARK SMILES IDX 35 47 57 48 42 49 56 50 43 51 46 52 55 53 69 54 44 55 45 56
REMARK SMILES IDX 54 58 70 59 47 60 36 61 37 62 41 63 38 64 40 65 39 66 58 67
REMARK SMILES IDX 59 68 63 69 60 70 62 71 61 72 48 73 49 74 53 75 50 76 52 77
REMARK SMILES IDX 51 78
REMARK H PARENT 20 5 24 27 68 46 46 57
REMARK Flexibility Score: inf
ROOT
ATOM      1  C   UNL A   1      40.589  19.565  26.146  1.00  0.00     0.118 C 
ENDROOT
BRANCH   1   2
ATOM      2  N   UNL A   1      40.171  20.911  26.517  1.00  0.00    -0.352 N 
ATOM      3  O   UNL A   1      38.241  20.879  25.291  1.00  0.00    -0.270 OA
ATOM      4  C   UNL A   1      39.064  21.488  25.966  1.00  0.00     0.244 C 
ATOM      5  H   UNL A   1      40.698  21.415  27.179  1.00  0.00     0.163 HD
BRANCH   4   6
ATOM      6  C   UNL A   1      38.828  22.919  26.279  1.00  0.00     0.072 C 
ATOM      7  C   UNL A   1      37.853  23.787  25.957  1.00  0.00     0.014 C 
BRANCH   7   8
ATOM      8  C   UNL A   1      36.649  23.642  25.134  1.00  0.00    -0.025 A 
ATOM      9  C   UNL A   1      36.795  23.226  23.808  1.00  0.00     0.012 A 
ATOM     10  C   UNL A   1      35.379  24.026  25.577  1.00  0.00     0.012 A 
ATOM     11  C   UNL A   1      35.677  23.069  22.985  1.00  0.00     0.047 A 
ATOM     12  C   UNL A   1      34.260  23.899  24.731  1.00  0.00     0.047 A 
ATOM     13  C   UNL A   1      34.399  23.330  23.468  1.00  0.00     0.119 A 
BRANCH  13  14
ATOM     14  O   UNL A   1      33.397  22.995  22.607  1.00  0.00    -0.489 OA
BRANCH  14  15
ATOM     15  C   UNL A   1      32.187  22.460  23.131  1.00  0.00     0.265 C 
BRANCH  15  16
ATOM     16  C   UNL A   1      32.230  21.011  23.570  1.00  0.00    -0.011 A 
ATOM     17  C   UNL A   1      32.651  20.601  25.277  1.00  0.00     0.008 A 
ATOM     18  C   UNL A   1      32.177  19.682  22.319  1.00  0.00     0.008 A 
ATOM     19  C   UNL A   1      32.899  18.872  25.779  1.00  0.00     0.016 A 
ATOM     20  C   UNL A   1      32.615  17.945  22.800  1.00  0.00     0.016 A 
ATOM     21  C   UNL A   1      32.886  17.558  24.537  1.00  0.00     0.017 A 
ATOM     22  Br  UNL A   1      33.033  15.757  25.078  1.00  0.00    -0.051 Br
ENDBRANCH  15  16
ENDBRANCH  14  15
ENDBRANCH  13  14
ENDBRANCH   7   8
ENDBRANCH   4   6
ENDBRANCH   1   2
BRANCH   1  23
ATOM     23  C   UNL A   1      42.075  19.530  25.845  1.00  0.00     0.042 C 
BRANCH  23  24
ATOM     24  C   UNL A   1      42.770  20.760  26.383  1.00  0.00     0.118 C 
BRANCH  24  25
ATOM     25  N   UNL A   1      43.027  21.844  25.385  1.00  0.00    -0.352 N 
ATOM     26  C   UNL A   1      43.057  23.413  25.318  1.00  0.00     0.251 C 
ATOM     27  H   UNL A   1      43.239  21.458  24.505  1.00  0.00     0.163 HD
ATOM     28  O   UNL A   1      43.662  23.353  24.181  1.00  0.00    -0.269 OA
BRANCH  26  29
ATOM     29  C   UNL A   1      42.325  24.978  26.588  1.00  0.00     0.039 A 
ATOM     30  C   UNL A   1      41.282  25.004  27.695  1.00  0.00     0.014 A 
ATOM     31  C   UNL A   1      42.766  26.461  26.666  1.00  0.00     0.014 A 
ATOM     32  C   UNL A   1      40.897  26.076  28.568  1.00  0.00     0.010 A 
ATOM     33  C   UNL A   1      42.467  27.494  27.539  1.00  0.00     0.010 A 
ATOM     34  C   UNL A   1      41.526  27.302  28.502  1.00  0.00    -0.014 A 
BRANCH  34  35
ATOM     35  C   UNL A   1      41.442  28.393  29.470  1.00  0.00     0.031 A 
ATOM     36  C   UNL A   1      42.273  28.343  30.716  1.00  0.00     0.074 A 
ATOM     37  C   UNL A   1      40.357  29.179  29.361  1.00  0.00     0.049 A 
ATOM     38  N   UNL A   1      42.239  29.136  31.751  1.00  0.00    -0.248 NA
ATOM     39  C   UNL A   1      43.223  27.219  30.847  1.00  0.00     0.031 C 
ATOM     40  C   UNL A   1      39.367  29.102  28.278  1.00  0.00     0.029 A 
ATOM     41  N   UNL A   1      39.870  30.146  30.188  1.00  0.00    -0.354 N 
ATOM     42  C   UNL A   1      43.176  28.629  32.639  1.00  0.00     0.074 A 
ATOM     43  C   UNL A   1      43.698  27.407  32.069  1.00  0.00     0.031 C 
ATOM     44  C   UNL A   1      38.417  30.023  28.485  1.00  0.00     0.029 A 
ATOM     45  C   UNL A   1      38.716  30.725  29.724  1.00  0.00     0.049 A 
ATOM     46  H   UNL A   1      40.303  30.405  31.034  1.00  0.00     0.167 HD
ATOM     47  C   UNL A   1      43.579  29.166  33.812  1.00  0.00     0.031 A 
ATOM     48  C   UNL A   1      37.994  31.727  30.248  1.00  0.00     0.031 A 
ATOM     49  C   UNL A   1      42.981  30.353  34.363  1.00  0.00     0.049 A 
ATOM     50  C   UNL A   1      38.483  32.335  31.528  1.00  0.00     0.074 A 
ATOM     51  C   UNL A   1      43.346  31.063  35.489  1.00  0.00     0.029 A 
ATOM     52  N   UNL A   1      41.864  30.984  33.829  1.00  0.00    -0.354 N 
ATOM     53  N   UNL A   1      39.505  31.980  32.273  1.00  0.00    -0.248 NA
ATOM     54  C   UNL A   1      37.740  33.494  32.029  1.00  0.00     0.031 C 
ATOM     55  C   UNL A   1      42.406  32.082  35.676  1.00  0.00     0.029 A 
ATOM     56  C   UNL A   1      41.504  32.057  34.621  1.00  0.00     0.049 A 
ATOM     57  H   UNL A   1      41.397  30.707  33.007  1.00  0.00     0.167 HD
ATOM     58  C   UNL A   1      39.548  32.891  33.316  1.00  0.00     0.074 A 
ATOM     59  C   UNL A   1      38.460  33.825  33.090  1.00  0.00     0.031 C 
ATOM     60  C   UNL A   1      40.404  32.955  34.366  1.00  0.00     0.031 A 
BRANCH  47  61
ATOM     61  C   UNL A   1      44.709  28.496  34.542  1.00  0.00    -0.014 A 
ATOM     62  C   UNL A   1      44.465  27.697  35.674  1.00  0.00     0.009 A 
ATOM     63  C   UNL A   1      46.027  28.619  34.079  1.00  0.00     0.009 A 
ATOM     64  C   UNL A   1      45.516  27.069  36.345  1.00  0.00     0.001 A 
ATOM     65  C   UNL A   1      47.073  27.961  34.732  1.00  0.00     0.001 A 
ATOM     66  C   UNL A   1      46.819  27.196  35.870  1.00  0.00     0.000 A 
ENDBRANCH  47  61
BRANCH  48  67
ATOM     67  C   UNL A   1      36.813  32.252  29.520  1.00  0.00    -0.014 A 
ATOM     68  C   UNL A   1      35.553  31.660  29.697  1.00  0.00     0.009 A 
ATOM     69  C   UNL A   1      36.923  33.369  28.678  1.00  0.00     0.009 A 
ATOM     70  C   UNL A   1      34.439  32.144  29.010  1.00  0.00     0.001 A 
ATOM     71  C   UNL A   1      35.800  33.875  28.020  1.00  0.00     0.001 A 
ATOM     72  C   UNL A   1      34.562  33.252  28.175  1.00  0.00     0.000 A 
ENDBRANCH  48  67
BRANCH  60  73
ATOM     73  C   UNL A   1      40.208  34.093  35.325  1.00  0.00    -0.014 A 
ATOM     74  C   UNL A   1      39.461  33.935  36.502  1.00  0.00     0.009 A 
ATOM     75  C   UNL A   1      40.822  35.327  35.063  1.00  0.00     0.009 A 
ATOM     76  C   UNL A   1      39.300  35.008  37.379  1.00  0.00     0.001 A 
ATOM     77  C   UNL A   1      40.695  36.382  35.963  1.00  0.00     0.001 A 
ATOM     78  C   UNL A   1      39.924  36.226  37.113  1.00  0.00     0.000 A 
ENDBRANCH  60  73
ENDBRANCH  34  35
ENDBRANCH  26  29
ENDBRANCH  24  25
ENDBRANCH  23  24
ENDBRANCH   1  23
TORSDOF 14
ENDMDL
MODEL 3
REMARK VINA RESULT:     -11.2      2.649      3.595
REMARK SMILES O=C(/C=C\c1ccc(OCc2ccc(Br)cc2)cc1)NCCCNC(=O)c1ccc(-c2c3nc(c(-c4ccccc4)c4ccc([nH]4)c(-c4ccccc4)c4nc(c(-c5ccccc5)c5ccc2[nH]5)C=C4)C=C3)cc1
REMARK SMILES IDX 21 1 20 2 1 3 2 4 3 6 4 7 5 8 6 9 19 10 7 11 18 12 8 13 9 14
REMARK SMILES IDX 10 15 11 16 12 17 17 18 13 19 16 20 14 21 15 22 22 23 23 24
REMARK SMILES IDX 24 25 25 26 26 28 27 29 28 30 74 31 29 32 73 33 30 34 31 35
REMARK SMILES IDX 32 36 67 37 33 38 72 39 66 40 68 41 34 42 71 43 65 44 64 45
REMARK SMILES IDX 35 47 57 48 42 49 56 50 43 51 46 52 55 53 69 54 44 55 45 56
REMARK SMILES IDX 54 58 70 59 47 60 36 61 37 62 41 63 38 64 40 65 39 66 58 67
REMARK SMILES IDX 59 68 63 69 60 70 62 71 61 72 48 73 49 74 53 75 50 76 52 77
REMARK SMILES IDX 51 78
REMARK H PARENT 20 5 24 27 68 46 46 57
REMARK Flexibility Score: inf
ROOT
ATOM      1  C   UNL A   1      33.674  33.743  28.178  1.00  0.00     0.118 C 
ENDROOT
BRANCH   1   2
ATOM      2  N   UNL A   1      34.526  32.582  27.948  1.00  0.00    -0.352 N 
ATOM      3  O   UNL A   1      32.840  31.225  27.211  1.00  0.00    -0.270 OA
ATOM      4  C   UNL A   1      34.002  31.380  27.572  1.00  0.00     0.244 C 
ATOM      5  H   UNL A   1      35.499  32.668  28.066  1.00  0.00     0.163 HD
BRANCH   4   6
ATOM      6  C   UNL A   1      34.932  30.225  27.537  1.00  0.00     0.072 C 
ATOM      7  C   UNL A   1      34.788  28.932  27.197  1.00  0.00     0.014 C 
BRANCH   7   8
ATOM      8  C   UNL A   1      33.622  28.163  26.752  1.00  0.00    -0.025 A 
ATOM      9  C   UNL A   1      32.453  28.227  27.513  1.00  0.00     0.012 A 
ATOM     10  C   UNL A   1      33.671  27.270  25.676  1.00  0.00     0.012 A 
ATOM     11  C   UNL A   1      31.314  27.516  27.127  1.00  0.00     0.047 A 
ATOM     12  C   UNL A   1      32.531  26.529  25.313  1.00  0.00     0.047 A 
ATOM     13  C   UNL A   1      31.325  26.726  25.982  1.00  0.00     0.119 A 
BRANCH  13  14
ATOM     14  O   UNL A   1      30.109  26.209  25.648  1.00  0.00    -0.489 OA
BRANCH  14  15
ATOM     15  C   UNL A   1      29.805  25.996  24.274  1.00  0.00     0.265 C 
BRANCH  15  16
ATOM     16  C   UNL A   1      29.417  27.224  23.476  1.00  0.00    -0.011 A 
ATOM     17  C   UNL A   1      30.698  28.228  22.693  1.00  0.00     0.008 A 
ATOM     18  C   UNL A   1      27.711  27.868  23.571  1.00  0.00     0.008 A 
ATOM     19  C   UNL A   1      30.277  29.806  21.896  1.00  0.00     0.016 A 
ATOM     20  C   UNL A   1      27.328  29.563  22.923  1.00  0.00     0.016 A 
ATOM     21  C   UNL A   1      28.598  30.466  22.023  1.00  0.00     0.017 A 
ATOM     22  Br  UNL A   1      28.142  32.047  21.102  1.00  0.00    -0.051 Br
ENDBRANCH  15  16
ENDBRANCH  14  15
ENDBRANCH  13  14
ENDBRANCH   7   8
ENDBRANCH   4   6
ENDBRANCH   1   2
BRANCH   1  23
ATOM     23  C   UNL A   1      34.408  34.795  28.986  1.00  0.00     0.042 C 
BRANCH  23  24
ATOM     24  C   UNL A   1      33.623  35.180  30.221  1.00  0.00     0.118 C 
BRANCH  24  25
ATOM     25  N   UNL A   1      33.661  34.191  31.343  1.00  0.00    -0.352 N 
ATOM     26  C   UNL A   1      34.605  33.069  31.905  1.00  0.00     0.251 C 
ATOM     27  H   UNL A   1      32.849  34.266  31.894  1.00  0.00     0.163 HD
ATOM     28  O   UNL A   1      33.930  33.051  33.003  1.00  0.00    -0.269 OA
BRANCH  26  29
ATOM     29  C   UNL A   1      36.282  31.991  31.114  1.00  0.00     0.039 A 
ATOM     30  C   UNL A   1      37.018  32.061  29.784  1.00  0.00     0.014 A 
ATOM     31  C   UNL A   1      37.150  30.900  31.789  1.00  0.00     0.014 A 
ATOM     32  C   UNL A   1      38.193  31.362  29.349  1.00  0.00     0.010 A 
ATOM     33  C   UNL A   1      38.325  30.263  31.424  1.00  0.00     0.010 A 
ATOM     34  C   UNL A   1      38.856  30.496  30.195  1.00  0.00    -0.014 A 
BRANCH  34  35
ATOM     35  C   UNL A   1      40.185  29.920  30.007  1.00  0.00     0.031 A 
ATOM     36  C   UNL A   1      41.387  30.814  30.011  1.00  0.00     0.074 A 
ATOM     37  C   UNL A   1      40.208  28.686  29.474  1.00  0.00     0.049 A 
ATOM     38  N   UNL A   1      42.625  30.517  29.726  1.00  0.00    -0.248 NA
ATOM     39  C   UNL A   1      41.162  32.243  30.311  1.00  0.00     0.031 C 
ATOM     40  C   UNL A   1      39.022  27.856  29.218  1.00  0.00     0.029 A 
ATOM     41  N   UNL A   1      41.244  27.941  28.998  1.00  0.00    -0.354 N 
ATOM     42  C   UNL A   1      43.328  31.707  29.841  1.00  0.00     0.074 A 
ATOM     43  C   UNL A   1      42.372  32.751  30.126  1.00  0.00     0.031 C 
ATOM     44  C   UNL A   1      39.409  26.694  28.677  1.00  0.00     0.029 A 
ATOM     45  C   UNL A   1      40.855  26.714  28.521  1.00  0.00     0.049 A 
ATOM     46  H   UNL A   1      42.179  28.249  28.997  1.00  0.00     0.167 HD
ATOM     47  C   UNL A   1      44.664  31.889  29.744  1.00  0.00     0.031 A 
ATOM     48  C   UNL A   1      41.601  25.715  28.025  1.00  0.00     0.031 A 
ATOM     49  C   UNL A   1      45.565  30.824  29.395  1.00  0.00     0.049 A 
ATOM     50  C   UNL A   1      43.085  25.925  27.966  1.00  0.00     0.074 A 
ATOM     51  C   UNL A   1      46.945  30.836  29.352  1.00  0.00     0.029 A 
ATOM     52  N   UNL A   1      45.159  29.555  29.001  1.00  0.00    -0.354 N 
ATOM     53  N   UNL A   1      43.779  26.997  28.272  1.00  0.00    -0.248 NA
ATOM     54  C   UNL A   1      43.890  24.786  27.519  1.00  0.00     0.031 C 
ATOM     55  C   UNL A   1      47.370  29.598  28.862  1.00  0.00     0.029 A 
ATOM     56  C   UNL A   1      46.260  28.785  28.679  1.00  0.00     0.049 A 
ATOM     57  H   UNL A   1      44.224  29.249  28.958  1.00  0.00     0.167 HD
ATOM     58  C   UNL A   1      45.108  26.653  28.085  1.00  0.00     0.074 A 
ATOM     59  C   UNL A   1      45.117  25.265  27.660  1.00  0.00     0.031 C 
ATOM     60  C   UNL A   1      46.222  27.409  28.248  1.00  0.00     0.031 A 
BRANCH  47  61
ATOM     61  C   UNL A   1      45.210  33.259  30.035  1.00  0.00    -0.014 A 
ATOM     62  C   UNL A   1      45.540  33.642  31.349  1.00  0.00     0.009 A 
ATOM     63  C   UNL A   1      45.444  34.168  28.993  1.00  0.00     0.009 A 
ATOM     64  C   UNL A   1      46.055  34.912  31.614  1.00  0.00     0.001 A 
ATOM     65  C   UNL A   1      45.992  35.426  29.257  1.00  0.00     0.001 A 
ATOM     66  C   UNL A   1      46.287  35.801  30.567  1.00  0.00     0.000 A 
ENDBRANCH  47  61
BRANCH  48  67
ATOM     67  C   UNL A   1      40.965  24.431  27.643  1.00  0.00    -0.014 A 
ATOM     68  C   UNL A   1      39.960  24.404  26.664  1.00  0.00     0.009 A 
ATOM     69  C   UNL A   1      41.381  23.221  28.220  1.00  0.00     0.009 A 
ATOM     70  C   UNL A   1      39.353  23.200  26.304  1.00  0.00     0.001 A 
ATOM     71  C   UNL A   1      40.797  22.013  27.832  1.00  0.00     0.001 A 
ATOM     72  C   UNL A   1      39.773  22.006  26.885  1.00  0.00     0.000 A 
ENDBRANCH  48  67
BRANCH  60  73
ATOM     73  C   UNL A   1      47.538  26.732  27.992  1.00  0.00    -0.014 A 
ATOM     74  C   UNL A   1      48.182  25.987  28.991  1.00  0.00     0.009 A 
ATOM     75  C   UNL A   1      48.112  26.806  26.714  1.00  0.00     0.009 A 
ATOM     76  C   UNL A   1      49.400  25.363  28.723  1.00  0.00     0.001 A 
ATOM     77  C   UNL A   1      49.306  26.144  26.438  1.00  0.00     0.001 A 
ATOM     78  C   UNL A   1      49.956  25.434  27.446  1.00  0.00     0.000 A 
ENDBRANCH  60  73
ENDBRANCH  34  35
ENDBRANCH  26  29
ENDBRANCH  24  25
ENDBRANCH  23  24
ENDBRANCH   1  23
TORSDOF 14
ENDMDL
