MODEL 1
REMARK VINA RESULT:     -11.4      0.000      0.000
REMARK SMILES O=C(NCCCNC(=O)[C@H]1[C@H]2C[C@@H]3[C@@H](OC(=O)[C@@H]31)[C@@H]2Sc1ccccc1)c1ccc(-c2c3nc(c(-c4ccccc4)c4ccc([nH]4)c(-c4ccccc4)c4nc(c(-c5ccccc5)c5ccc2[nH]5)C=C4)C=C3)cc1
REMARK SMILES IDX 5 1 4 2 3 3 1 4 2 5 27 7 28 8 74 9 29 10 73 11 30 12 31 13
REMARK SMILES IDX 32 14 67 15 33 16 72 17 66 18 68 19 34 20 71 21 65 22 64 23
REMARK SMILES IDX 35 25 57 26 42 27 56 28 43 29 46 30 55 31 69 32 44 33 45 34
REMARK SMILES IDX 54 36 70 37 47 38 36 39 37 40 41 41 38 42 40 43 39 44 58 45
REMARK SMILES IDX 59 46 63 47 60 48 62 49 61 50 48 51 49 52 53 53 50 54 52 55
REMARK SMILES IDX 51 56 6 57 7 58 8 59 9 61 10 62 11 63 18 64 12 65 19 66
REMARK SMILES IDX 13 67 16 68 14 69 15 70 17 71 20 72 21 73 22 74 26 75 23 76
REMARK SMILES IDX 25 77 24 78
REMARK H PARENT 3 6 68 24 46 35 7 60
REMARK Flexibility Score: inf
ROOT
ATOM      1  C   UNL A   1      34.013  28.664  25.739  1.00  0.00     0.042 C 
ENDROOT
BRANCH   1   2
ATOM      2  C   UNL A   1      34.117  28.629  27.249  1.00  0.00     0.118 C 
BRANCH   2   3
ATOM      3  N   UNL A   1      34.060  29.975  27.831  1.00  0.00    -0.352 N 
ATOM      4  O   UNL A   1      34.578  31.664  29.234  1.00  0.00    -0.269 OA
ATOM      5  C   UNL A   1      34.943  30.654  28.639  1.00  0.00     0.251 C 
ATOM      6  H   UNL A   1      33.247  30.480  27.602  1.00  0.00     0.163 HD
BRANCH   5   7
ATOM      7  C   UNL A   1      36.321  30.154  28.804  1.00  0.00     0.039 A 
ATOM      8  C   UNL A   1      37.245  30.374  27.792  1.00  0.00     0.014 A 
ATOM      9  C   UNL A   1      36.709  29.469  29.959  1.00  0.00     0.014 A 
ATOM     10  C   UNL A   1      38.437  29.682  27.789  1.00  0.00     0.010 A 
ATOM     11  C   UNL A   1      38.005  28.946  30.049  1.00  0.00     0.010 A 
ATOM     12  C   UNL A   1      38.867  29.017  28.945  1.00  0.00    -0.014 A 
BRANCH  12  13
ATOM     13  C   UNL A   1      40.264  28.519  28.961  1.00  0.00     0.031 A 
ATOM     14  C   UNL A   1      40.608  27.120  28.539  1.00  0.00     0.074 A 
ATOM     15  C   UNL A   1      41.238  29.399  29.276  1.00  0.00     0.049 A 
ATOM     16  N   UNL A   1      41.791  26.566  28.441  1.00  0.00    -0.248 NA
ATOM     17  C   UNL A   1      39.495  26.222  28.194  1.00  0.00     0.031 C 
ATOM     18  C   UNL A   1      41.017  30.788  29.701  1.00  0.00     0.029 A 
ATOM     19  N   UNL A   1      42.603  29.287  29.237  1.00  0.00    -0.354 N 
ATOM     20  C   UNL A   1      41.564  25.255  28.043  1.00  0.00     0.074 A 
ATOM     21  C   UNL A   1      40.131  25.084  27.947  1.00  0.00     0.031 C 
ATOM     22  C   UNL A   1      42.193  31.420  29.785  1.00  0.00     0.029 A 
ATOM     23  C   UNL A   1      43.255  30.457  29.544  1.00  0.00     0.049 A 
ATOM     24  H   UNL A   1      43.070  28.449  29.012  1.00  0.00     0.167 HD
ATOM     25  C   UNL A   1      42.474  24.287  27.776  1.00  0.00     0.031 A 
ATOM     26  C   UNL A   1      44.567  30.726  29.656  1.00  0.00     0.031 A 
ATOM     27  C   UNL A   1      43.899  24.468  27.885  1.00  0.00     0.049 A 
ATOM     28  C   UNL A   1      45.542  29.617  29.409  1.00  0.00     0.074 A 
ATOM     29  C   UNL A   1      44.906  23.549  27.647  1.00  0.00     0.029 A 
ATOM     30  N   UNL A   1      44.521  25.649  28.264  1.00  0.00    -0.354 N 
ATOM     31  N   UNL A   1      45.308  28.384  29.031  1.00  0.00    -0.248 NA
ATOM     32  C   UNL A   1      46.959  29.935  29.607  1.00  0.00     0.031 C 
ATOM     33  C   UNL A   1      46.132  24.156  27.934  1.00  0.00     0.029 A 
ATOM     34  C   UNL A   1      45.896  25.476  28.285  1.00  0.00     0.049 A 
ATOM     35  H   UNL A   1      44.054  26.487  28.487  1.00  0.00     0.167 HD
ATOM     36  C   UNL A   1      46.552  27.780  28.932  1.00  0.00     0.074 A 
ATOM     37  C   UNL A   1      47.535  28.796  29.253  1.00  0.00     0.031 C 
ATOM     38  C   UNL A   1      46.855  26.499  28.613  1.00  0.00     0.031 A 
BRANCH  25  39
ATOM     39  C   UNL A   1      41.954  22.935  27.366  1.00  0.00    -0.014 A 
ATOM     40  C   UNL A   1      41.980  22.518  26.025  1.00  0.00     0.009 A 
ATOM     41  C   UNL A   1      41.479  22.045  28.341  1.00  0.00     0.009 A 
ATOM     42  C   UNL A   1      41.514  21.250  25.668  1.00  0.00     0.001 A 
ATOM     43  C   UNL A   1      41.041  20.767  27.986  1.00  0.00     0.001 A 
ATOM     44  C   UNL A   1      41.051  20.374  26.649  1.00  0.00     0.000 A 
ENDBRANCH  25  39
BRANCH  26  45
ATOM     45  C   UNL A   1      45.019  32.077  30.084  1.00  0.00    -0.014 A 
ATOM     46  C   UNL A   1      45.078  32.426  31.440  1.00  0.00     0.009 A 
ATOM     47  C   UNL A   1      45.389  33.033  29.122  1.00  0.00     0.009 A 
ATOM     48  C   UNL A   1      45.462  33.714  31.821  1.00  0.00     0.001 A 
ATOM     49  C   UNL A   1      45.813  34.304  29.507  1.00  0.00     0.001 A 
ATOM     50  C   UNL A   1      45.834  34.650  30.855  1.00  0.00     0.000 A 
ENDBRANCH  26  45
BRANCH  38  51
ATOM     51  C   UNL A   1      48.315  26.148  28.560  1.00  0.00    -0.014 A 
ATOM     52  C   UNL A   1      49.010  25.732  29.707  1.00  0.00     0.009 A 
ATOM     53  C   UNL A   1      49.003  26.237  27.341  1.00  0.00     0.009 A 
ATOM     54  C   UNL A   1      50.378  25.460  29.643  1.00  0.00     0.001 A 
ATOM     55  C   UNL A   1      50.362  25.928  27.272  1.00  0.00     0.001 A 
ATOM     56  C   UNL A   1      51.051  25.554  28.424  1.00  0.00     0.000 A 
ENDBRANCH  38  51
ENDBRANCH  12  13
ENDBRANCH   5   7
ENDBRANCH   2   3
ENDBRANCH   1   2
BRANCH   1  57
ATOM     57  C   UNL A   1      32.671  29.210  25.314  1.00  0.00     0.117 C 
BRANCH  57  58
ATOM     58  N   UNL A   1      31.587  28.255  25.504  1.00  0.00    -0.356 N 
ATOM     59  C   UNL A   1      31.398  26.947  25.209  1.00  0.00     0.224 C 
ATOM     60  H   UNL A   1      30.807  28.655  25.954  1.00  0.00     0.163 HD
ATOM     61  O   UNL A   1      30.387  26.427  25.694  1.00  0.00    -0.275 OA
BRANCH  59  62
ATOM     62  C   UNL A   1      32.316  26.095  24.338  1.00  0.00     0.097 C 
ATOM     63  C   UNL A   1      32.265  24.563  24.489  1.00  0.00     0.020 C 
ATOM     64  C   UNL A   1      32.008  26.278  22.827  1.00  0.00     0.119 C 
ATOM     65  C   UNL A   1      31.057  24.244  23.585  1.00  0.00     0.014 C 
ATOM     66  C   UNL A   1      33.462  23.978  23.709  1.00  0.00     0.097 C 
ATOM     67  C   UNL A   1      31.657  24.864  22.361  1.00  0.00     0.047 C 
ATOM     68  C   UNL A   1      33.252  26.518  22.022  1.00  0.00     0.310 C 
ATOM     69  C   UNL A   1      33.046  24.249  22.241  1.00  0.00     0.194 C 
ATOM     70  O   UNL A   1      33.819  25.316  21.678  1.00  0.00    -0.461 OA
ATOM     71  O   UNL A   1      33.723  27.607  21.735  1.00  0.00    -0.252 OA
BRANCH  66  72
ATOM     72  S   UNL A   1      33.972  22.254  24.133  1.00  0.00    -0.119 SA
BRANCH  72  73
ATOM     73  C   UNL A   1      35.623  22.388  24.789  1.00  0.00     0.008 A 
ATOM     74  C   UNL A   1      36.507  21.303  24.718  1.00  0.00     0.015 A 
ATOM     75  C   UNL A   1      36.027  23.548  25.456  1.00  0.00     0.015 A 
ATOM     76  C   UNL A   1      37.794  21.400  25.260  1.00  0.00     0.001 A 
ATOM     77  C   UNL A   1      37.323  23.657  25.969  1.00  0.00     0.001 A 
ATOM     78  C   UNL A   1      38.206  22.583  25.870  1.00  0.00     0.000 A 
ENDBRANCH  72  73
ENDBRANCH  66  72
ENDBRANCH  59  62
ENDBRANCH  57  58
ENDBRANCH   1  57
TORSDOF 12
ENDMDL
MODEL 2
REMARK VINA RESULT:     -11.4      2.454      7.710
REMARK SMILES O=C(NCCCNC(=O)[C@H]1[C@H]2C[C@@H]3[C@@H](OC(=O)[C@@H]31)[C@@H]2Sc1ccccc1)c1ccc(-c2c3nc(c(-c4ccccc4)c4ccc([nH]4)c(-c4ccccc4)c4nc(c(-c5ccccc5)c5ccc2[nH]5)C=C4)C=C3)cc1
REMARK SMILES IDX 5 1 4 2 3 3 1 4 2 5 27 7 28 8 74 9 29 10 73 11 30 12 31 13
REMARK SMILES IDX 32 14 67 15 33 16 72 17 66 18 68 19 34 20 71 21 65 22 64 23
REMARK SMILES IDX 35 25 57 26 42 27 56 28 43 29 46 30 55 31 69 32 44 33 45 34
REMARK SMILES IDX 54 36 70 37 47 38 36 39 37 40 41 41 38 42 40 43 39 44 58 45
REMARK SMILES IDX 59 46 63 47 60 48 62 49 61 50 48 51 49 52 53 53 50 54 52 55
REMARK SMILES IDX 51 56 6 57 7 58 8 59 9 61 10 62 11 63 18 64 12 65 19 66
REMARK SMILES IDX 13 67 16 68 14 69 15 70 17 71 20 72 21 73 22 74 26 75 23 76
REMARK SMILES IDX 25 77 24 78
REMARK H PARENT 3 6 68 24 46 35 7 60
REMARK Flexibility Score: inf
ROOT
ATOM      1  C   UNL A   1      37.894  19.581  25.005  1.00  0.00     0.042 C 
ENDROOT
BRANCH   1   2
ATOM      2  C   UNL A   1      39.040  20.233  25.749  1.00  0.00     0.118 C 
BRANCH   2   3
ATOM      3  N   UNL A   1      40.209  19.351  25.831  1.00  0.00    -0.352 N 
ATOM      4  O   UNL A   1      42.389  18.771  25.804  1.00  0.00    -0.269 OA
ATOM      5  C   UNL A   1      41.541  19.625  26.044  1.00  0.00     0.251 C 
ATOM      6  H   UNL A   1      40.005  18.395  25.712  1.00  0.00     0.163 HD
BRANCH   5   7
ATOM      7  C   UNL A   1      41.947  20.952  26.543  1.00  0.00     0.039 A 
ATOM      8  C   UNL A   1      41.998  21.173  27.912  1.00  0.00     0.014 A 
ATOM      9  C   UNL A   1      42.282  21.985  25.662  1.00  0.00     0.014 A 
ATOM     10  C   UNL A   1      42.092  22.460  28.396  1.00  0.00     0.010 A 
ATOM     11  C   UNL A   1      42.592  23.252  26.170  1.00  0.00     0.010 A 
ATOM     12  C   UNL A   1      42.461  23.507  27.543  1.00  0.00    -0.014 A 
BRANCH  12  13
ATOM     13  C   UNL A   1      42.797  24.809  28.172  1.00  0.00     0.031 A 
ATOM     14  C   UNL A   1      44.214  25.185  28.497  1.00  0.00     0.074 A 
ATOM     15  C   UNL A   1      41.793  25.692  28.355  1.00  0.00     0.049 A 
ATOM     16  N   UNL A   1      44.664  26.312  28.989  1.00  0.00    -0.248 NA
ATOM     17  C   UNL A   1      45.257  24.176  28.255  1.00  0.00     0.031 C 
ATOM     18  C   UNL A   1      40.375  25.431  28.072  1.00  0.00     0.029 A 
ATOM     19  N   UNL A   1      41.805  26.999  28.765  1.00  0.00    -0.354 N 
ATOM     20  C   UNL A   1      46.035  26.143  29.132  1.00  0.00     0.074 A 
ATOM     21  C   UNL A   1      46.341  24.794  28.706  1.00  0.00     0.031 C 
ATOM     22  C   UNL A   1      39.677  26.562  28.221  1.00  0.00     0.029 A 
ATOM     23  C   UNL A   1      40.567  27.594  28.726  1.00  0.00     0.049 A 
ATOM     24  H   UNL A   1      42.621  27.465  29.060  1.00  0.00     0.167 HD
ATOM     25  C   UNL A   1      46.953  27.036  29.574  1.00  0.00     0.031 A 
ATOM     26  C   UNL A   1      40.175  28.826  29.090  1.00  0.00     0.031 A 
ATOM     27  C   UNL A   1      46.632  28.374  30.006  1.00  0.00     0.049 A 
ATOM     28  C   UNL A   1      41.206  29.769  29.627  1.00  0.00     0.074 A 
ATOM     29  C   UNL A   1      47.486  29.355  30.479  1.00  0.00     0.029 A 
ATOM     30  N   UNL A   1      45.356  28.919  30.015  1.00  0.00    -0.354 N 
ATOM     31  N   UNL A   1      42.499  29.591  29.753  1.00  0.00    -0.248 NA
ATOM     32  C   UNL A   1      40.725  31.080  30.075  1.00  0.00     0.031 C 
ATOM     33  C   UNL A   1      46.721  30.472  30.826  1.00  0.00     0.029 A 
ATOM     34  C   UNL A   1      45.397  30.215  30.505  1.00  0.00     0.049 A 
ATOM     35  H   UNL A   1      44.541  28.453  29.719  1.00  0.00     0.167 HD
ATOM     36  C   UNL A   1      42.990  30.775  30.282  1.00  0.00     0.074 A 
ATOM     37  C   UNL A   1      41.859  31.672  30.416  1.00  0.00     0.031 C 
ATOM     38  C   UNL A   1      44.260  31.088  30.635  1.00  0.00     0.031 A 
BRANCH  25  39
ATOM     39  C   UNL A   1      48.388  26.589  29.640  1.00  0.00    -0.014 A 
ATOM     40  C   UNL A   1      49.281  26.844  28.586  1.00  0.00     0.009 A 
ATOM     41  C   UNL A   1      48.868  25.948  30.793  1.00  0.00     0.009 A 
ATOM     42  C   UNL A   1      50.616  26.440  28.676  1.00  0.00     0.001 A 
ATOM     43  C   UNL A   1      50.209  25.572  30.892  1.00  0.00     0.001 A 
ATOM     44  C   UNL A   1      51.080  25.810  29.830  1.00  0.00     0.000 A 
ENDBRANCH  25  39
BRANCH  26  45
ATOM     45  C   UNL A   1      38.738  29.204  29.021  1.00  0.00    -0.014 A 
ATOM     46  C   UNL A   1      38.176  29.703  27.837  1.00  0.00     0.009 A 
ATOM     47  C   UNL A   1      37.919  29.073  30.155  1.00  0.00     0.009 A 
ATOM     48  C   UNL A   1      36.836  30.095  27.803  1.00  0.00     0.001 A 
ATOM     49  C   UNL A   1      36.570  29.425  30.106  1.00  0.00     0.001 A 
ATOM     50  C   UNL A   1      36.033  29.952  28.934  1.00  0.00     0.000 A 
ENDBRANCH  26  45
BRANCH  38  51
ATOM     51  C   UNL A   1      44.486  32.477  31.160  1.00  0.00    -0.014 A 
ATOM     52  C   UNL A   1      44.430  32.758  32.535  1.00  0.00     0.009 A 
ATOM     53  C   UNL A   1      44.761  33.520  30.263  1.00  0.00     0.009 A 
ATOM     54  C   UNL A   1      44.593  34.066  32.995  1.00  0.00     0.001 A 
ATOM     55  C   UNL A   1      44.962  34.819  30.728  1.00  0.00     0.001 A 
ATOM     56  C   UNL A   1      44.863  35.094  32.091  1.00  0.00     0.000 A 
ENDBRANCH  38  51
ENDBRANCH  12  13
ENDBRANCH   5   7
ENDBRANCH   2   3
ENDBRANCH   1   2
BRANCH   1  57
ATOM     57  C   UNL A   1      36.686  20.486  24.995  1.00  0.00     0.117 C 
BRANCH  57  58
ATOM     58  N   UNL A   1      36.806  21.578  24.036  1.00  0.00    -0.356 N 
ATOM     59  C   UNL A   1      36.037  22.636  23.686  1.00  0.00     0.224 C 
ATOM     60  H   UNL A   1      37.646  21.536  23.522  1.00  0.00     0.163 HD
ATOM     61  O   UNL A   1      36.568  23.460  22.933  1.00  0.00    -0.275 OA
BRANCH  59  62
ATOM     62  C   UNL A   1      34.600  22.872  24.137  1.00  0.00     0.097 C 
ATOM     63  C   UNL A   1      33.785  23.988  23.455  1.00  0.00     0.020 C 
ATOM     64  C   UNL A   1      33.706  21.627  23.888  1.00  0.00     0.119 C 
ATOM     65  C   UNL A   1      33.302  23.238  22.197  1.00  0.00     0.014 C 
ATOM     66  C   UNL A   1      32.492  24.188  24.274  1.00  0.00     0.097 C 
ATOM     67  C   UNL A   1      32.607  22.155  22.964  1.00  0.00     0.047 C 
ATOM     68  C   UNL A   1      32.886  21.270  25.093  1.00  0.00     0.310 C 
ATOM     69  C   UNL A   1      31.717  22.882  23.964  1.00  0.00     0.194 C 
ATOM     70  O   UNL A   1      31.724  22.002  25.095  1.00  0.00    -0.461 OA
ATOM     71  O   UNL A   1      33.200  20.478  25.967  1.00  0.00    -0.252 OA
BRANCH  66  72
ATOM     72  S   UNL A   1      31.587  25.780  24.030  1.00  0.00    -0.119 SA
BRANCH  72  73
ATOM     73  C   UNL A   1      32.150  26.858  25.330  1.00  0.00     0.008 A 
ATOM     74  C   UNL A   1      33.486  27.277  25.379  1.00  0.00     0.015 A 
ATOM     75  C   UNL A   1      31.285  27.232  26.364  1.00  0.00     0.015 A 
ATOM     76  C   UNL A   1      33.934  28.101  26.418  1.00  0.00     0.001 A 
ATOM     77  C   UNL A   1      31.725  28.079  27.385  1.00  0.00     0.001 A 
ATOM     78  C   UNL A   1      33.048  28.515  27.411  1.00  0.00     0.000 A 
ENDBRANCH  72  73
ENDBRANCH  66  72
ENDBRANCH  59  62
ENDBRANCH  57  58
ENDBRANCH   1  57
TORSDOF 12
ENDMDL
MODEL 3
REMARK VINA RESULT:     -11.3      3.242      7.313
REMARK SMILES O=C(NCCCNC(=O)[C@H]1[C@H]2C[C@@H]3[C@@H](OC(=O)[C@@H]31)[C@@H]2Sc1ccccc1)c1ccc(-c2c3nc(c(-c4ccccc4)c4ccc([nH]4)c(-c4ccccc4)c4nc(c(-c5ccccc5)c5ccc2[nH]5)C=C4)C=C3)cc1
REMARK SMILES IDX 5 1 4 2 3 3 1 4 2 5 27 7 28 8 74 9 29 10 73 11 30 12 31 13
REMARK SMILES IDX 32 14 67 15 33 16 72 17 66 18 68 19 34 20 71 21 65 22 64 23
REMARK SMILES IDX 35 25 57 26 42 27 56 28 43 29 46 30 55 31 69 32 44 33 45 34
REMARK SMILES IDX 54 36 70 37 47 38 36 39 37 40 41 41 38 42 40 43 39 44 58 45
REMARK SMILES IDX 59 46 63 47 60 48 62 49 61 50 48 51 49 52 53 53 50 54 52 55
REMARK SMILES IDX 51 56 6 57 7 58 8 59 9 61 10 62 11 63 18 64 12 65 19 66
REMARK SMILES IDX 13 67 16 68 14 69 15 70 17 71 20 72 21 73 22 74 26 75 23 76
REMARK SMILES IDX 25 77 24 78
REMARK H PARENT 3 6 68 24 46 35 7 60
REMARK Flexibility Score: inf
ROOT
ATOM      1  C   UNL A   1      31.209  31.154  25.828  1.00  0.00     0.042 C 
ENDROOT
BRANCH   1   2
ATOM      2  C   UNL A   1      32.202  31.533  26.906  1.00  0.00     0.118 C 
BRANCH   2   3
ATOM      3  N   UNL A   1      32.110  32.954  27.257  1.00  0.00    -0.352 N 
ATOM      4  O   UNL A   1      32.505  34.843  28.425  1.00  0.00    -0.269 OA
ATOM      5  C   UNL A   1      32.911  33.750  28.044  1.00  0.00     0.251 C 
ATOM      6  H   UNL A   1      31.340  33.420  26.859  1.00  0.00     0.163 HD
BRANCH   5   7
ATOM      7  C   UNL A   1      34.251  33.276  28.443  1.00  0.00     0.039 A 
ATOM      8  C   UNL A   1      34.357  32.286  29.410  1.00  0.00     0.014 A 
ATOM      9  C   UNL A   1      35.407  33.805  27.864  1.00  0.00     0.014 A 
ATOM     10  C   UNL A   1      35.576  32.033  30.001  1.00  0.00     0.010 A 
ATOM     11  C   UNL A   1      36.662  33.384  28.320  1.00  0.00     0.010 A 
ATOM     12  C   UNL A   1      36.753  32.520  29.421  1.00  0.00    -0.014 A 
BRANCH  12  13
ATOM     13  C   UNL A   1      38.037  31.999  29.951  1.00  0.00     0.031 A 
ATOM     14  C   UNL A   1      38.748  32.664  31.094  1.00  0.00     0.074 A 
ATOM     15  C   UNL A   1      38.503  30.842  29.435  1.00  0.00     0.049 A 
ATOM     16  N   UNL A   1      39.843  32.285  31.703  1.00  0.00    -0.248 NA
ATOM     17  C   UNL A   1      38.172  33.914  31.615  1.00  0.00     0.031 C 
ATOM     18  C   UNL A   1      37.890  30.107  28.320  1.00  0.00     0.029 A 
ATOM     19  N   UNL A   1      39.556  30.048  29.805  1.00  0.00    -0.354 N 
ATOM     20  C   UNL A   1      40.098  33.255  32.665  1.00  0.00     0.074 A 
ATOM     21  C   UNL A   1      39.062  34.257  32.538  1.00  0.00     0.031 C 
ATOM     22  C   UNL A   1      38.513  28.933  28.164  1.00  0.00     0.029 A 
ATOM     23  C   UNL A   1      39.642  28.884  29.080  1.00  0.00     0.049 A 
ATOM     24  H   UNL A   1      40.190  30.289  30.519  1.00  0.00     0.167 HD
ATOM     25  C   UNL A   1      41.103  33.298  33.572  1.00  0.00     0.031 A 
ATOM     26  C   UNL A   1      40.549  27.893  29.116  1.00  0.00     0.031 A 
ATOM     27  C   UNL A   1      42.135  32.297  33.680  1.00  0.00     0.049 A 
ATOM     28  C   UNL A   1      41.678  28.001  30.093  1.00  0.00     0.074 A 
ATOM     29  C   UNL A   1      43.203  32.251  34.559  1.00  0.00     0.029 A 
ATOM     30  N   UNL A   1      42.227  31.165  32.882  1.00  0.00    -0.354 N 
ATOM     31  N   UNL A   1      41.900  28.925  30.996  1.00  0.00    -0.248 NA
ATOM     32  C   UNL A   1      42.681  26.932  30.055  1.00  0.00     0.031 C 
ATOM     33  C   UNL A   1      43.971  31.122  34.257  1.00  0.00     0.029 A 
ATOM     34  C   UNL A   1      43.344  30.425  33.236  1.00  0.00     0.049 A 
ATOM     35  H   UNL A   1      41.592  30.924  32.170  1.00  0.00     0.167 HD
ATOM     36  C   UNL A   1      43.064  28.542  31.645  1.00  0.00     0.074 A 
ATOM     37  C   UNL A   1      43.476  27.283  31.055  1.00  0.00     0.031 C 
ATOM     38  C   UNL A   1      43.738  29.178  32.632  1.00  0.00     0.031 A 
BRANCH  25  39
ATOM     39  C   UNL A   1      41.153  34.479  34.503  1.00  0.00    -0.014 A 
ATOM     40  C   UNL A   1      40.506  34.453  35.750  1.00  0.00     0.009 A 
ATOM     41  C   UNL A   1      41.899  35.614  34.152  1.00  0.00     0.009 A 
ATOM     42  C   UNL A   1      40.583  35.552  36.610  1.00  0.00     0.001 A 
ATOM     43  C   UNL A   1      41.999  36.699  35.026  1.00  0.00     0.001 A 
ATOM     44  C   UNL A   1      41.334  36.671  36.251  1.00  0.00     0.000 A 
ENDBRANCH  25  39
BRANCH  26  45
ATOM     45  C   UNL A   1      40.457  26.760  28.157  1.00  0.00    -0.014 A 
ATOM     46  C   UNL A   1      41.097  26.812  26.910  1.00  0.00     0.009 A 
ATOM     47  C   UNL A   1      39.715  25.613  28.489  1.00  0.00     0.009 A 
ATOM     48  C   UNL A   1      40.962  25.758  26.004  1.00  0.00     0.001 A 
ATOM     49  C   UNL A   1      39.618  24.544  27.598  1.00  0.00     0.001 A 
ATOM     50  C   UNL A   1      40.228  24.624  26.350  1.00  0.00     0.000 A 
ENDBRANCH  26  45
BRANCH  38  51
ATOM     51  C   UNL A   1      44.967  28.491  33.157  1.00  0.00    -0.014 A 
ATOM     52  C   UNL A   1      46.237  28.752  32.618  1.00  0.00     0.009 A 
ATOM     53  C   UNL A   1      44.848  27.569  34.207  1.00  0.00     0.009 A 
ATOM     54  C   UNL A   1      47.357  28.063  33.088  1.00  0.00     0.001 A 
ATOM     55  C   UNL A   1      45.974  26.910  34.700  1.00  0.00     0.001 A 
ATOM     56  C   UNL A   1      47.225  27.147  34.131  1.00  0.00     0.000 A 
ENDBRANCH  38  51
ENDBRANCH  12  13
ENDBRANCH   5   7
ENDBRANCH   2   3
ENDBRANCH   1   2
BRANCH   1  57
ATOM     57  C   UNL A   1      31.501  29.769  25.302  1.00  0.00     0.117 C 
BRANCH  57  58
ATOM     58  N   UNL A   1      30.977  29.552  23.960  1.00  0.00    -0.356 N 
ATOM     59  C   UNL A   1      30.971  28.516  23.088  1.00  0.00     0.224 C 
ATOM     60  H   UNL A   1      30.518  30.348  23.602  1.00  0.00     0.163 HD
ATOM     61  O   UNL A   1      30.259  28.659  22.088  1.00  0.00    -0.275 OA
BRANCH  59  62
ATOM     62  C   UNL A   1      31.764  27.223  23.246  1.00  0.00     0.097 C 
ATOM     63  C   UNL A   1      31.582  26.396  24.533  1.00  0.00     0.020 C 
ATOM     64  C   UNL A   1      31.401  26.187  22.147  1.00  0.00     0.119 C 
ATOM     65  C   UNL A   1      30.306  25.608  24.168  1.00  0.00     0.014 C 
ATOM     66  C   UNL A   1      32.681  25.313  24.551  1.00  0.00     0.097 C 
ATOM     67  C   UNL A   1      30.900  24.982  22.945  1.00  0.00     0.047 C 
ATOM     68  C   UNL A   1      32.621  25.591  21.508  1.00  0.00     0.310 C 
ATOM     69  C   UNL A   1      32.220  24.376  23.406  1.00  0.00     0.194 C 
ATOM     70  O   UNL A   1      33.059  24.524  22.254  1.00  0.00    -0.461 OA
ATOM     71  O   UNL A   1      33.174  25.996  20.498  1.00  0.00    -0.252 OA
BRANCH  66  72
ATOM     72  S   UNL A   1      33.052  24.527  26.182  1.00  0.00    -0.119 SA
BRANCH  72  73
ATOM     73  C   UNL A   1      34.540  23.581  25.932  1.00  0.00     0.008 A 
ATOM     74  C   UNL A   1      35.713  24.203  25.485  1.00  0.00     0.015 A 
ATOM     75  C   UNL A   1      34.532  22.192  26.099  1.00  0.00     0.015 A 
ATOM     76  C   UNL A   1      36.873  23.453  25.261  1.00  0.00     0.001 A 
ATOM     77  C   UNL A   1      35.699  21.447  25.905  1.00  0.00     0.001 A 
ATOM     78  C   UNL A   1      36.869  22.078  25.488  1.00  0.00     0.000 A 
ENDBRANCH  72  73
ENDBRANCH  66  72
ENDBRANCH  59  62
ENDBRANCH  57  58
ENDBRANCH   1  57
TORSDOF 12
ENDMDL
