MODEL 1
REMARK VINA RESULT:     -11.8      0.000      0.000
REMARK SMILES CC(C)OC(=O)c1c(NC(=O)[C@H]2[C@@H](C(=O)NCCCNC(=O)c3ccc(-c4c5nc(c(-c6ccccc6)c6ccc([nH]6)c(-c6ccccc6)c6nc(c(-c7ccccc7)c7ccc4[nH]7)C=C6)C=C5)cc3)[C@@H]3C=C[C@H]2CC3)sc2c1CCC2
REMARK SMILES IDX 14 1 15 2 16 3 13 5 12 6 74 7 71 8 73 9 75 10 72 11 76 12
REMARK SMILES IDX 10 13 9 14 11 16 8 17 7 18 79 19 77 20 78 21 80 22 82 23
REMARK SMILES IDX 81 24 5 25 6 26 4 27 2 28 1 29 3 30 17 31 18 32 19 33 20 34
REMARK SMILES IDX 21 35 22 37 23 38 24 39 70 40 25 41 69 42 26 43 27 44 28 45
REMARK SMILES IDX 63 46 29 47 68 48 62 49 64 50 30 51 67 52 61 53 60 54 31 56
REMARK SMILES IDX 53 57 38 58 52 59 39 60 42 61 51 62 65 63 40 64 41 65 50 67
REMARK SMILES IDX 66 68 43 69 32 70 33 71 37 72 34 73 36 74 35 75 54 76 55 77
REMARK SMILES IDX 59 78 56 79 58 80 57 81 44 82 45 83 49 84 46 85 48 86 47 87
REMARK H PARENT 16 4 9 15 20 36 64 55 42 66
REMARK Flexibility Score: inf
ROOT
ATOM      1  C   UNL A   1      34.553  24.231  25.655  1.00  0.00     0.224 C 
ATOM      2  O   UNL A   1      34.042  25.013  26.469  1.00  0.00    -0.275 OA
ATOM      3  N   UNL A   1      35.890  24.065  25.777  1.00  0.00    -0.356 N 
ATOM      4  H   UNL A   1      36.242  24.401  26.633  1.00  0.00     0.163 HD
ENDROOT
BRANCH   1   5
ATOM      5  C   UNL A   1      33.701  23.656  24.529  1.00  0.00     0.098 C 
ATOM      6  C   UNL A   1      32.189  23.486  24.907  1.00  0.00     0.099 C 
ATOM      7  C   UNL A   1      31.689  22.054  24.526  1.00  0.00     0.025 C 
ATOM      8  C   UNL A   1      34.128  22.397  23.740  1.00  0.00     0.025 C 
ATOM      9  C   UNL A   1      31.867  21.935  23.030  1.00  0.00    -0.027 C 
ATOM     10  C   UNL A   1      32.598  20.983  25.165  1.00  0.00     0.009 C 
ATOM     11  C   UNL A   1      33.125  22.147  22.618  1.00  0.00    -0.027 C 
ATOM     12  C   UNL A   1      34.044  21.174  24.683  1.00  0.00     0.009 C 
BRANCH   6  13
ATOM     13  C   UNL A   1      31.665  23.801  26.304  1.00  0.00     0.229 C 
ATOM     14  N   UNL A   1      31.107  25.025  26.600  1.00  0.00    -0.317 N 
ATOM     15  H   UNL A   1      30.885  25.139  27.553  1.00  0.00     0.170 HD
ATOM     16  O   UNL A   1      31.667  22.937  27.186  1.00  0.00    -0.274 OA
BRANCH  14  17
ATOM     17  C   UNL A   1      30.796  26.134  25.817  1.00  0.00     0.110 A 
ATOM     18  C   UNL A   1      31.224  27.457  25.996  1.00  0.00     0.098 A 
ATOM     19  C   UNL A   1      30.836  28.245  24.866  1.00  0.00    -0.017 A 
ATOM     20  S   UNL A   1      29.657  26.049  24.535  1.00  0.00    -0.122 S 
ATOM     21  C   UNL A   1      30.120  27.519  23.961  1.00  0.00     0.011 A 
ATOM     22  C   UNL A   1      31.042  29.624  24.347  1.00  0.00     0.038 C 
ATOM     23  C   UNL A   1      29.811  28.206  22.696  1.00  0.00     0.047 C 
ATOM     24  C   UNL A   1      30.048  29.674  23.130  1.00  0.00     0.010 C 
BRANCH  18  25
ATOM     25  C   UNL A   1      31.999  27.888  27.152  1.00  0.00     0.341 C 
ATOM     26  O   UNL A   1      31.525  27.975  28.272  1.00  0.00    -0.246 OA
BRANCH  25  27
ATOM     27  O   UNL A   1      33.261  28.264  26.797  1.00  0.00    -0.459 OA
BRANCH  27  28
ATOM     28  C   UNL A   1      33.913  29.350  27.494  1.00  0.00     0.170 C 
ATOM     29  C   UNL A   1      35.423  29.409  27.274  1.00  0.00     0.052 C 
ATOM     30  C   UNL A   1      33.214  30.671  27.210  1.00  0.00     0.052 C 
ENDBRANCH  27  28
ENDBRANCH  25  27
ENDBRANCH  18  25
ENDBRANCH  14  17
ENDBRANCH   6  13
ENDBRANCH   1   5
BRANCH   3  31
ATOM     31  C   UNL A   1      36.920  23.501  24.925  1.00  0.00     0.117 C 
BRANCH  31  32
ATOM     32  C   UNL A   1      37.719  22.407  25.629  1.00  0.00     0.042 C 
BRANCH  32  33
ATOM     33  C   UNL A   1      38.842  23.022  26.438  1.00  0.00     0.118 C 
BRANCH  33  34
ATOM     34  N   UNL A   1      40.126  22.369  26.149  1.00  0.00    -0.352 N 
ATOM     35  C   UNL A   1      41.376  22.931  26.011  1.00  0.00     0.251 C 
ATOM     36  H   UNL A   1      40.087  21.392  26.036  1.00  0.00     0.163 HD
ATOM     37  O   UNL A   1      42.294  22.312  25.487  1.00  0.00    -0.269 OA
BRANCH  35  38
ATOM     38  C   UNL A   1      41.580  24.296  26.510  1.00  0.00     0.039 A 
ATOM     39  C   UNL A   1      41.128  25.399  25.788  1.00  0.00     0.014 A 
ATOM     40  C   UNL A   1      42.168  24.441  27.764  1.00  0.00     0.014 A 
ATOM     41  C   UNL A   1      41.197  26.650  26.387  1.00  0.00     0.010 A 
ATOM     42  C   UNL A   1      42.054  25.632  28.424  1.00  0.00     0.010 A 
ATOM     43  C   UNL A   1      41.635  26.750  27.720  1.00  0.00    -0.014 A 
BRANCH  43  44
ATOM     44  C   UNL A   1      41.520  28.002  28.449  1.00  0.00     0.031 A 
ATOM     45  C   UNL A   1      42.558  28.994  28.073  1.00  0.00     0.074 A 
ATOM     46  C   UNL A   1      40.466  28.311  29.234  1.00  0.00     0.049 A 
ATOM     47  N   UNL A   1      43.585  29.331  28.777  1.00  0.00    -0.248 NA
ATOM     48  C   UNL A   1      42.577  29.524  26.699  1.00  0.00     0.031 C 
ATOM     49  C   UNL A   1      39.221  27.560  29.435  1.00  0.00     0.029 A 
ATOM     50  N   UNL A   1      40.239  29.443  29.950  1.00  0.00    -0.354 N 
ATOM     51  C   UNL A   1      44.248  30.302  28.039  1.00  0.00     0.074 A 
ATOM     52  C   UNL A   1      43.719  30.218  26.702  1.00  0.00     0.031 C 
ATOM     53  C   UNL A   1      38.293  28.367  29.997  1.00  0.00     0.029 A 
ATOM     54  C   UNL A   1      38.919  29.629  30.345  1.00  0.00     0.049 A 
ATOM     55  H   UNL A   1      40.955  30.082  30.172  1.00  0.00     0.167 HD
ATOM     56  C   UNL A   1      44.954  31.282  28.669  1.00  0.00     0.031 A 
ATOM     57  C   UNL A   1      38.382  30.757  30.880  1.00  0.00     0.031 A 
ATOM     58  C   UNL A   1      45.158  30.962  30.064  1.00  0.00     0.049 A 
ATOM     59  C   UNL A   1      39.504  31.580  31.394  1.00  0.00     0.074 A 
ATOM     60  C   UNL A   1      45.722  29.898  30.741  1.00  0.00     0.029 A 
ATOM     61  N   UNL A   1      44.343  31.598  30.972  1.00  0.00    -0.354 N 
ATOM     62  N   UNL A   1      40.227  31.232  32.420  1.00  0.00    -0.248 NA
ATOM     63  C   UNL A   1      40.137  32.511  30.471  1.00  0.00     0.031 C 
ATOM     64  C   UNL A   1      44.843  29.657  31.839  1.00  0.00     0.029 A 
ATOM     65  C   UNL A   1      43.862  30.650  31.838  1.00  0.00     0.049 A 
ATOM     66  H   UNL A   1      44.141  32.562  30.996  1.00  0.00     0.167 HD
ATOM     67  C   UNL A   1      41.532  31.497  32.030  1.00  0.00     0.074 A 
ATOM     68  C   UNL A   1      41.408  32.368  30.858  1.00  0.00     0.031 C 
ATOM     69  C   UNL A   1      42.576  30.744  32.491  1.00  0.00     0.031 A 
BRANCH  56  70
ATOM     70  C   UNL A   1      45.035  32.704  28.169  1.00  0.00    -0.014 A 
ATOM     71  C   UNL A   1      46.302  33.311  28.094  1.00  0.00     0.009 A 
ATOM     72  C   UNL A   1      43.920  33.557  28.063  1.00  0.00     0.009 A 
ATOM     73  C   UNL A   1      46.442  34.701  28.025  1.00  0.00     0.001 A 
ATOM     74  C   UNL A   1      44.055  34.943  27.950  1.00  0.00     0.001 A 
ATOM     75  C   UNL A   1      45.317  35.518  27.966  1.00  0.00     0.000 A 
ENDBRANCH  56  70
BRANCH  57  76
ATOM     76  C   UNL A   1      37.009  31.298  30.746  1.00  0.00    -0.014 A 
ATOM     77  C   UNL A   1      36.173  31.435  31.869  1.00  0.00     0.009 A 
ATOM     78  C   UNL A   1      36.611  31.943  29.561  1.00  0.00     0.009 A 
ATOM     79  C   UNL A   1      35.012  32.222  31.818  1.00  0.00     0.001 A 
ATOM     80  C   UNL A   1      35.450  32.724  29.508  1.00  0.00     0.001 A 
ATOM     81  C   UNL A   1      34.660  32.878  30.641  1.00  0.00     0.000 A 
ENDBRANCH  57  76
BRANCH  69  82
ATOM     82  C   UNL A   1      42.321  29.775  33.622  1.00  0.00    -0.014 A 
ATOM     83  C   UNL A   1      42.391  30.120  34.985  1.00  0.00     0.009 A 
ATOM     84  C   UNL A   1      41.857  28.493  33.290  1.00  0.00     0.009 A 
ATOM     85  C   UNL A   1      42.047  29.194  35.977  1.00  0.00     0.001 A 
ATOM     86  C   UNL A   1      41.491  27.579  34.278  1.00  0.00     0.001 A 
ATOM     87  C   UNL A   1      41.597  27.924  35.622  1.00  0.00     0.000 A 
ENDBRANCH  69  82
ENDBRANCH  43  44
ENDBRANCH  35  38
ENDBRANCH  33  34
ENDBRANCH  32  33
ENDBRANCH  31  32
ENDBRANCH   3  31
TORSDOF 15
ENDMDL
MODEL 2
REMARK VINA RESULT:     -11.8      4.496     10.207
REMARK SMILES CC(C)OC(=O)c1c(NC(=O)[C@H]2[C@@H](C(=O)NCCCNC(=O)c3ccc(-c4c5nc(c(-c6ccccc6)c6ccc([nH]6)c(-c6ccccc6)c6nc(c(-c7ccccc7)c7ccc4[nH]7)C=C6)C=C5)cc3)[C@@H]3C=C[C@H]2CC3)sc2c1CCC2
REMARK SMILES IDX 14 1 15 2 16 3 13 5 12 6 74 7 71 8 73 9 75 10 72 11 76 12
REMARK SMILES IDX 10 13 9 14 11 16 8 17 7 18 79 19 77 20 78 21 80 22 82 23
REMARK SMILES IDX 81 24 5 25 6 26 4 27 2 28 1 29 3 30 17 31 18 32 19 33 20 34
REMARK SMILES IDX 21 35 22 37 23 38 24 39 70 40 25 41 69 42 26 43 27 44 28 45
REMARK SMILES IDX 63 46 29 47 68 48 62 49 64 50 30 51 67 52 61 53 60 54 31 56
REMARK SMILES IDX 53 57 38 58 52 59 39 60 42 61 51 62 65 63 40 64 41 65 50 67
REMARK SMILES IDX 66 68 43 69 32 70 33 71 37 72 34 73 36 74 35 75 54 76 55 77
REMARK SMILES IDX 59 78 56 79 58 80 57 81 44 82 45 83 49 84 46 85 48 86 47 87
REMARK H PARENT 16 4 9 15 20 36 64 55 42 66
REMARK Flexibility Score: inf
ROOT
ATOM      1  C   UNL A   1      38.937  34.345  33.420  1.00  0.00     0.224 C 
ATOM      2  O   UNL A   1      38.608  35.064  34.373  1.00  0.00    -0.275 OA
ATOM      3  N   UNL A   1      38.392  34.682  32.229  1.00  0.00    -0.356 N 
ATOM      4  H   UNL A   1      37.996  35.583  32.230  1.00  0.00     0.163 HD
ENDROOT
BRANCH   1   5
ATOM      5  C   UNL A   1      39.775  33.095  33.675  1.00  0.00     0.098 C 
ATOM      6  C   UNL A   1      38.936  31.864  34.164  1.00  0.00     0.099 C 
ATOM      7  C   UNL A   1      39.598  31.222  35.427  1.00  0.00     0.025 C 
ATOM      8  C   UNL A   1      41.073  33.138  34.512  1.00  0.00     0.025 C 
ATOM      9  C   UNL A   1      40.975  30.773  34.993  1.00  0.00    -0.027 C 
ATOM     10  C   UNL A   1      39.807  32.288  36.523  1.00  0.00     0.009 C 
ATOM     11  C   UNL A   1      41.728  31.760  34.486  1.00  0.00    -0.027 C 
ATOM     12  C   UNL A   1      40.699  33.417  35.987  1.00  0.00     0.009 C 
BRANCH   6  13
ATOM     13  C   UNL A   1      37.437  31.960  34.428  1.00  0.00     0.229 C 
ATOM     14  N   UNL A   1      36.518  31.558  33.485  1.00  0.00    -0.317 N 
ATOM     15  H   UNL A   1      35.584  31.748  33.736  1.00  0.00     0.170 HD
ATOM     16  O   UNL A   1      37.015  32.339  35.525  1.00  0.00    -0.274 OA
BRANCH  14  17
ATOM     17  C   UNL A   1      36.648  30.935  32.246  1.00  0.00     0.110 A 
ATOM     18  C   UNL A   1      36.033  31.293  31.038  1.00  0.00     0.098 A 
ATOM     19  C   UNL A   1      36.584  30.516  29.969  1.00  0.00    -0.017 A 
ATOM     20  S   UNL A   1      37.518  29.467  32.055  1.00  0.00    -0.122 S 
ATOM     21  C   UNL A   1      37.504  29.615  30.417  1.00  0.00     0.011 A 
ATOM     22  C   UNL A   1      36.497  30.445  28.486  1.00  0.00     0.038 C 
ATOM     23  C   UNL A   1      38.234  28.879  29.372  1.00  0.00     0.047 C 
ATOM     24  C   UNL A   1      37.288  29.124  28.170  1.00  0.00     0.010 C 
BRANCH  18  25
ATOM     25  C   UNL A   1      35.035  32.350  30.942  1.00  0.00     0.341 C 
ATOM     26  O   UNL A   1      34.104  32.455  31.721  1.00  0.00    -0.246 OA
BRANCH  25  27
ATOM     27  O   UNL A   1      35.228  33.121  29.832  1.00  0.00    -0.459 OA
BRANCH  27  28
ATOM     28  C   UNL A   1      34.090  33.596  29.078  1.00  0.00     0.170 C 
ATOM     29  C   UNL A   1      34.198  35.058  28.649  1.00  0.00     0.052 C 
ATOM     30  C   UNL A   1      33.773  32.655  27.925  1.00  0.00     0.052 C 
ENDBRANCH  27  28
ENDBRANCH  25  27
ENDBRANCH  18  25
ENDBRANCH  14  17
ENDBRANCH   6  13
ENDBRANCH   1   5
BRANCH   3  31
ATOM     31  C   UNL A   1      38.262  34.008  30.950  1.00  0.00     0.117 C 
BRANCH  31  32
ATOM     32  C   UNL A   1      38.640  34.913  29.779  1.00  0.00     0.042 C 
BRANCH  32  33
ATOM     33  C   UNL A   1      39.984  34.499  29.216  1.00  0.00     0.118 C 
BRANCH  33  34
ATOM     34  N   UNL A   1      41.071  34.803  30.155  1.00  0.00    -0.352 N 
ATOM     35  C   UNL A   1      41.922  33.940  30.811  1.00  0.00     0.251 C 
ATOM     36  H   UNL A   1      41.212  35.758  30.344  1.00  0.00     0.163 HD
ATOM     37  O   UNL A   1      42.578  34.310  31.776  1.00  0.00    -0.269 OA
BRANCH  35  38
ATOM     38  C   UNL A   1      42.018  32.560  30.322  1.00  0.00     0.039 A 
ATOM     39  C   UNL A   1      43.035  32.176  29.449  1.00  0.00     0.014 A 
ATOM     40  C   UNL A   1      41.107  31.635  30.825  1.00  0.00     0.014 A 
ATOM     41  C   UNL A   1      43.176  30.826  29.156  1.00  0.00     0.010 A 
ATOM     42  C   UNL A   1      41.367  30.299  30.696  1.00  0.00     0.010 A 
ATOM     43  C   UNL A   1      42.353  29.892  29.812  1.00  0.00    -0.014 A 
BRANCH  43  44
ATOM     44  C   UNL A   1      42.609  28.465  29.697  1.00  0.00     0.031 A 
ATOM     45  C   UNL A   1      43.246  27.888  30.907  1.00  0.00     0.074 A 
ATOM     46  C   UNL A   1      42.137  27.705  28.686  1.00  0.00     0.049 A 
ATOM     47  N   UNL A   1      44.477  27.526  31.025  1.00  0.00    -0.248 NA
ATOM     48  C   UNL A   1      42.500  27.890  32.178  1.00  0.00     0.031 C 
ATOM     49  C   UNL A   1      41.224  28.084  27.603  1.00  0.00     0.029 A 
ATOM     50  N   UNL A   1      42.295  26.372  28.478  1.00  0.00    -0.354 N 
ATOM     51  C   UNL A   1      44.604  27.023  32.313  1.00  0.00     0.074 A 
ATOM     52  C   UNL A   1      43.439  27.471  33.032  1.00  0.00     0.031 C 
ATOM     53  C   UNL A   1      40.720  26.970  27.025  1.00  0.00     0.029 A 
ATOM     54  C   UNL A   1      41.393  25.810  27.581  1.00  0.00     0.049 A 
ATOM     55  H   UNL A   1      42.995  25.845  28.926  1.00  0.00     0.167 HD
ATOM     56  C   UNL A   1      45.505  26.038  32.581  1.00  0.00     0.031 A 
ATOM     57  C   UNL A   1      41.193  24.487  27.351  1.00  0.00     0.031 A 
ATOM     58  C   UNL A   1      46.442  25.877  31.491  1.00  0.00     0.049 A 
ATOM     59  C   UNL A   1      42.387  23.765  27.856  1.00  0.00     0.074 A 
ATOM     60  C   UNL A   1      47.317  26.721  30.835  1.00  0.00     0.029 A 
ATOM     61  N   UNL A   1      46.226  24.818  30.639  1.00  0.00    -0.354 N 
ATOM     62  N   UNL A   1      43.561  23.859  27.300  1.00  0.00    -0.248 NA
ATOM     63  C   UNL A   1      42.388  23.358  29.253  1.00  0.00     0.031 C 
ATOM     64  C   UNL A   1      47.179  26.386  29.455  1.00  0.00     0.029 A 
ATOM     65  C   UNL A   1      46.322  25.290  29.355  1.00  0.00     0.049 A 
ATOM     66  H   UNL A   1      46.037  23.889  30.903  1.00  0.00     0.167 HD
ATOM     67  C   UNL A   1      44.438  24.003  28.365  1.00  0.00     0.074 A 
ATOM     68  C   UNL A   1      43.671  23.594  29.545  1.00  0.00     0.031 C 
ATOM     69  C   UNL A   1      45.590  24.729  28.242  1.00  0.00     0.031 A 
BRANCH  56  70
ATOM     70  C   UNL A   1      45.255  24.926  33.572  1.00  0.00    -0.014 A 
ATOM     71  C   UNL A   1      44.339  23.917  33.220  1.00  0.00     0.009 A 
ATOM     72  C   UNL A   1      45.634  24.989  34.926  1.00  0.00     0.009 A 
ATOM     73  C   UNL A   1      43.759  23.090  34.188  1.00  0.00     0.001 A 
ATOM     74  C   UNL A   1      45.090  24.136  35.889  1.00  0.00     0.001 A 
ATOM     75  C   UNL A   1      44.126  23.208  35.524  1.00  0.00     0.000 A 
ENDBRANCH  56  70
BRANCH  57  76
ATOM     76  C   UNL A   1      39.948  23.776  26.973  1.00  0.00    -0.014 A 
ATOM     77  C   UNL A   1      38.750  24.481  26.759  1.00  0.00     0.009 A 
ATOM     78  C   UNL A   1      39.996  22.436  26.548  1.00  0.00     0.009 A 
ATOM     79  C   UNL A   1      37.662  23.880  26.107  1.00  0.00     0.001 A 
ATOM     80  C   UNL A   1      38.909  21.835  25.900  1.00  0.00     0.001 A 
ATOM     81  C   UNL A   1      37.748  22.563  25.664  1.00  0.00     0.000 A 
ENDBRANCH  57  76
BRANCH  69  82
ATOM     82  C   UNL A   1      46.020  25.168  26.861  1.00  0.00    -0.014 A 
ATOM     83  C   UNL A   1      45.605  26.366  26.251  1.00  0.00     0.009 A 
ATOM     84  C   UNL A   1      46.996  24.400  26.208  1.00  0.00     0.009 A 
ATOM     85  C   UNL A   1      46.121  26.755  25.009  1.00  0.00     0.001 A 
ATOM     86  C   UNL A   1      47.529  24.799  24.983  1.00  0.00     0.001 A 
ATOM     87  C   UNL A   1      47.083  25.971  24.377  1.00  0.00     0.000 A 
ENDBRANCH  69  82
ENDBRANCH  43  44
ENDBRANCH  35  38
ENDBRANCH  33  34
ENDBRANCH  32  33
ENDBRANCH  31  32
ENDBRANCH   3  31
TORSDOF 15
ENDMDL
MODEL 3
REMARK VINA RESULT:     -11.6      2.282      7.750
REMARK SMILES CC(C)OC(=O)c1c(NC(=O)[C@H]2[C@@H](C(=O)NCCCNC(=O)c3ccc(-c4c5nc(c(-c6ccccc6)c6ccc([nH]6)c(-c6ccccc6)c6nc(c(-c7ccccc7)c7ccc4[nH]7)C=C6)C=C5)cc3)[C@@H]3C=C[C@H]2CC3)sc2c1CCC2
REMARK SMILES IDX 14 1 15 2 16 3 13 5 12 6 74 7 71 8 73 9 75 10 72 11 76 12
REMARK SMILES IDX 10 13 9 14 11 16 8 17 7 18 79 19 77 20 78 21 80 22 82 23
REMARK SMILES IDX 81 24 5 25 6 26 4 27 2 28 1 29 3 30 17 31 18 32 19 33 20 34
REMARK SMILES IDX 21 35 22 37 23 38 24 39 70 40 25 41 69 42 26 43 27 44 28 45
REMARK SMILES IDX 63 46 29 47 68 48 62 49 64 50 30 51 67 52 61 53 60 54 31 56
REMARK SMILES IDX 53 57 38 58 52 59 39 60 42 61 51 62 65 63 40 64 41 65 50 67
REMARK SMILES IDX 66 68 43 69 32 70 33 71 37 72 34 73 36 74 35 75 54 76 55 77
REMARK SMILES IDX 59 78 56 79 58 80 57 81 44 82 45 83 49 84 46 85 48 86 47 87
REMARK H PARENT 16 4 9 15 20 36 64 55 42 66
REMARK Flexibility Score: inf
ROOT
ATOM      1  C   UNL A   1      33.395  27.406  24.945  1.00  0.00     0.224 C 
ATOM      2  O   UNL A   1      34.413  26.706  24.862  1.00  0.00    -0.275 OA
ATOM      3  N   UNL A   1      33.603  28.682  25.343  1.00  0.00    -0.356 N 
ATOM      4  H   UNL A   1      34.549  28.951  25.289  1.00  0.00     0.163 HD
ENDROOT
BRANCH   1   5
ATOM      5  C   UNL A   1      32.024  26.765  24.749  1.00  0.00     0.098 C 
ATOM      6  C   UNL A   1      31.914  25.903  23.444  1.00  0.00     0.099 C 
ATOM      7  C   UNL A   1      30.624  26.285  22.647  1.00  0.00     0.025 C 
ATOM      8  C   UNL A   1      30.715  27.574  24.885  1.00  0.00     0.025 C 
ATOM      9  C   UNL A   1      29.462  25.986  23.566  1.00  0.00    -0.027 C 
ATOM     10  C   UNL A   1      30.593  27.803  22.374  1.00  0.00     0.009 C 
ATOM     11  C   UNL A   1      29.526  26.628  24.741  1.00  0.00    -0.027 C 
ATOM     12  C   UNL A   1      30.627  28.570  23.705  1.00  0.00     0.009 C 
BRANCH   6  13
ATOM     13  C   UNL A   1      33.060  25.799  22.444  1.00  0.00     0.229 C 
ATOM     14  N   UNL A   1      33.821  24.655  22.343  1.00  0.00    -0.317 N 
ATOM     15  H   UNL A   1      34.583  24.740  21.725  1.00  0.00     0.170 HD
ATOM     16  O   UNL A   1      33.288  26.718  21.651  1.00  0.00    -0.274 OA
BRANCH  14  17
ATOM     17  C   UNL A   1      33.725  23.403  22.945  1.00  0.00     0.110 A 
ATOM     18  C   UNL A   1      34.742  22.679  23.585  1.00  0.00     0.098 A 
ATOM     19  C   UNL A   1      34.181  21.533  24.233  1.00  0.00    -0.017 A 
ATOM     20  S   UNL A   1      32.296  22.456  22.848  1.00  0.00    -0.122 S 
ATOM     21  C   UNL A   1      32.840  21.428  24.010  1.00  0.00     0.011 A 
ATOM     22  C   UNL A   1      34.622  20.443  25.144  1.00  0.00     0.038 C 
ATOM     23  C   UNL A   1      32.152  20.366  24.763  1.00  0.00     0.047 C 
ATOM     24  C   UNL A   1      33.370  19.493  25.158  1.00  0.00     0.010 C 
BRANCH  18  25
ATOM     25  C   UNL A   1      36.132  23.116  23.604  1.00  0.00     0.341 C 
ATOM     26  O   UNL A   1      36.922  22.848  22.715  1.00  0.00    -0.246 OA
BRANCH  25  27
ATOM     27  O   UNL A   1      36.438  23.761  24.766  1.00  0.00    -0.459 OA
BRANCH  27  28
ATOM     28  C   UNL A   1      37.225  23.091  25.776  1.00  0.00     0.170 C 
ATOM     29  C   UNL A   1      37.957  21.850  25.269  1.00  0.00     0.052 C 
ATOM     30  C   UNL A   1      38.139  24.075  26.492  1.00  0.00     0.052 C 
ENDBRANCH  27  28
ENDBRANCH  25  27
ENDBRANCH  18  25
ENDBRANCH  14  17
ENDBRANCH   6  13
ENDBRANCH   1   5
BRANCH   3  31
ATOM     31  C   UNL A   1      32.740  29.742  25.831  1.00  0.00     0.117 C 
BRANCH  31  32
ATOM     32  C   UNL A   1      33.081  30.152  27.262  1.00  0.00     0.042 C 
BRANCH  32  33
ATOM     33  C   UNL A   1      34.029  31.334  27.251  1.00  0.00     0.118 C 
BRANCH  33  34
ATOM     34  N   UNL A   1      34.022  32.033  28.543  1.00  0.00    -0.352 N 
ATOM     35  C   UNL A   1      34.889  31.907  29.605  1.00  0.00     0.251 C 
ATOM     36  H   UNL A   1      33.294  32.684  28.667  1.00  0.00     0.163 HD
ATOM     37  O   UNL A   1      34.595  32.331  30.716  1.00  0.00    -0.269 OA
BRANCH  35  38
ATOM     38  C   UNL A   1      36.178  31.245  29.372  1.00  0.00     0.039 A 
ATOM     39  C   UNL A   1      37.360  31.981  29.295  1.00  0.00     0.014 A 
ATOM     40  C   UNL A   1      36.184  29.854  29.309  1.00  0.00     0.014 A 
ATOM     41  C   UNL A   1      38.562  31.289  29.243  1.00  0.00     0.010 A 
ATOM     42  C   UNL A   1      37.364  29.182  29.457  1.00  0.00     0.010 A 
ATOM     43  C   UNL A   1      38.554  29.887  29.356  1.00  0.00    -0.014 A 
BRANCH  43  44
ATOM     44  C   UNL A   1      39.793  29.145  29.521  1.00  0.00     0.031 A 
ATOM     45  C   UNL A   1      40.145  28.905  30.943  1.00  0.00     0.074 A 
ATOM     46  C   UNL A   1      40.450  28.560  28.497  1.00  0.00     0.049 A 
ATOM     47  N   UNL A   1      41.072  29.500  31.613  1.00  0.00    -0.248 NA
ATOM     48  C   UNL A   1      39.260  28.065  31.767  1.00  0.00     0.031 C 
ATOM     49  C   UNL A   1      40.041  28.443  27.093  1.00  0.00     0.029 A 
ATOM     50  N   UNL A   1      41.599  27.836  28.525  1.00  0.00    -0.354 N 
ATOM     51  C   UNL A   1      41.050  28.932  32.879  1.00  0.00     0.074 A 
ATOM     52  C   UNL A   1      39.795  28.232  32.980  1.00  0.00     0.031 C 
ATOM     53  C   UNL A   1      40.785  27.492  26.484  1.00  0.00     0.029 A 
ATOM     54  C   UNL A   1      41.823  27.052  27.398  1.00  0.00     0.049 A 
ATOM     55  H   UNL A   1      42.225  27.865  29.284  1.00  0.00     0.167 HD
ATOM     56  C   UNL A   1      42.193  28.843  33.613  1.00  0.00     0.031 A 
ATOM     57  C   UNL A   1      42.769  26.088  27.253  1.00  0.00     0.031 A 
ATOM     58  C   UNL A   1      43.239  29.667  33.050  1.00  0.00     0.049 A 
ATOM     59  C   UNL A   1      43.799  26.321  28.295  1.00  0.00     0.074 A 
ATOM     60  C   UNL A   1      43.354  31.008  32.739  1.00  0.00     0.029 A 
ATOM     61  N   UNL A   1      44.206  29.023  32.310  1.00  0.00    -0.354 N 
ATOM     62  N   UNL A   1      44.600  27.348  28.285  1.00  0.00    -0.248 NA
ATOM     63  C   UNL A   1      43.596  25.701  29.597  1.00  0.00     0.031 C 
ATOM     64  C   UNL A   1      44.021  31.034  31.478  1.00  0.00     0.029 A 
ATOM     65  C   UNL A   1      44.376  29.726  31.146  1.00  0.00     0.049 A 
ATOM     66  H   UNL A   1      44.689  28.206  32.571  1.00  0.00     0.167 HD
ATOM     67  C   UNL A   1      44.609  27.793  29.599  1.00  0.00     0.074 A 
ATOM     68  C   UNL A   1      44.048  26.687  30.378  1.00  0.00     0.031 C 
ATOM     69  C   UNL A   1      44.775  29.117  29.897  1.00  0.00     0.031 A 
BRANCH  56  70
ATOM     70  C   UNL A   1      42.513  27.678  34.520  1.00  0.00    -0.014 A 
ATOM     71  C   UNL A   1      43.039  26.509  33.940  1.00  0.00     0.009 A 
ATOM     72  C   UNL A   1      42.044  27.569  35.843  1.00  0.00     0.009 A 
ATOM     73  C   UNL A   1      42.998  25.281  34.609  1.00  0.00     0.001 A 
ATOM     74  C   UNL A   1      42.041  26.354  36.530  1.00  0.00     0.001 A 
ATOM     75  C   UNL A   1      42.488  25.202  35.900  1.00  0.00     0.000 A 
ENDBRANCH  56  70
BRANCH  57  76
ATOM     76  C   UNL A   1      42.720  24.835  26.463  1.00  0.00    -0.014 A 
ATOM     77  C   UNL A   1      43.817  24.429  25.684  1.00  0.00     0.009 A 
ATOM     78  C   UNL A   1      41.701  23.891  26.690  1.00  0.00     0.009 A 
ATOM     79  C   UNL A   1      43.911  23.118  25.191  1.00  0.00     0.001 A 
ATOM     80  C   UNL A   1      41.793  22.584  26.196  1.00  0.00     0.001 A 
ATOM     81  C   UNL A   1      42.906  22.192  25.461  1.00  0.00     0.000 A 
ENDBRANCH  57  76
BRANCH  69  82
ATOM     82  C   UNL A   1      45.195  30.057  28.791  1.00  0.00    -0.014 A 
ATOM     83  C   UNL A   1      46.534  30.321  28.447  1.00  0.00     0.009 A 
ATOM     84  C   UNL A   1      44.188  30.593  27.974  1.00  0.00     0.009 A 
ATOM     85  C   UNL A   1      46.846  31.129  27.348  1.00  0.00     0.001 A 
ATOM     86  C   UNL A   1      44.498  31.377  26.864  1.00  0.00     0.001 A 
ATOM     87  C   UNL A   1      45.827  31.656  26.556  1.00  0.00     0.000 A 
ENDBRANCH  69  82
ENDBRANCH  43  44
ENDBRANCH  35  38
ENDBRANCH  33  34
ENDBRANCH  32  33
ENDBRANCH  31  32
ENDBRANCH   3  31
TORSDOF 15
ENDMDL
