MODEL 1
REMARK VINA RESULT:     -10.2      0.000      0.000
REMARK SMILES CC(C)(Cn1ccnc1C(N)=S)C(=O)NCCCNC(=O)c1ccc(-c2c3nc(c(-c4ccccc4)c4ccc([nH]4)c(-c4ccccc4)c4nc(c(-c5ccccc5)c5ccc2[nH]5)C=C4)C=C3)cc1
REMARK SMILES IDX 16 1 15 2 13 3 14 4 2 6 1 7 3 8 4 9 5 10 6 11 9 12 7 13 8 14
REMARK SMILES IDX 10 15 12 16 11 17 17 20 18 21 19 22 20 23 21 25 22 26 23 27
REMARK SMILES IDX 69 28 24 29 68 30 25 31 26 32 27 33 62 34 28 35 67 36 61 37
REMARK SMILES IDX 63 38 29 39 66 40 60 41 59 42 30 44 52 45 37 46 51 47 38 48
REMARK SMILES IDX 41 49 50 50 64 51 39 52 40 53 49 55 65 56 42 57 31 58 32 59
REMARK SMILES IDX 36 60 33 61 35 62 34 63 53 64 54 65 58 66 55 67 57 68 56 69
REMARK SMILES IDX 43 70 44 71 48 72 45 73 47 74 46 75
REMARK H PARENT 15 5 11 18 11 19 19 24 63 43 41 54
REMARK Flexibility Score: inf
ROOT
ATOM      1  C   UNL A   1      33.537  30.078  26.750  1.00  0.00     0.117 C 
ENDROOT
BRANCH   1   2
ATOM      2  N   UNL A   1      32.416  29.411  27.398  1.00  0.00    -0.356 N 
ATOM      3  C   UNL A   1      31.835  28.188  27.244  1.00  0.00     0.227 C 
ATOM      4  O   UNL A   1      30.982  27.893  28.088  1.00  0.00    -0.274 OA
ATOM      5  H   UNL A   1      31.988  29.959  28.096  1.00  0.00     0.163 HD
BRANCH   3   6
ATOM      6  C   UNL A   1      32.178  27.224  26.097  1.00  0.00     0.061 C 
ATOM      7  C   UNL A   1      31.489  25.852  26.326  1.00  0.00     0.023 C 
ATOM      8  C   UNL A   1      33.693  26.921  26.128  1.00  0.00     0.023 C 
BRANCH   6   9
ATOM      9  C   UNL A   1      31.747  27.767  24.709  1.00  0.00     0.140 C 
BRANCH   9  10
ATOM     10  N   UNL A   1      32.695  27.743  23.598  1.00  0.00    -0.328 N 
ATOM     11  C   UNL A   1      33.461  28.794  23.158  1.00  0.00     0.108 A 
ATOM     12  C   UNL A   1      32.995  26.657  22.779  1.00  0.00     0.167 A 
ATOM     13  C   UNL A   1      34.063  28.367  22.004  1.00  0.00     0.131 A 
ATOM     14  N   UNL A   1      33.763  27.062  21.770  1.00  0.00    -0.235 NA
BRANCH  12  15
ATOM     15  C   UNL A   1      32.627  25.251  22.842  1.00  0.00     0.140 C 
ATOM     16  S   UNL A   1      33.589  24.022  23.414  1.00  0.00    -0.057 S 
BRANCH  15  17
ATOM     17  N   UNL A   1      31.403  24.956  22.302  1.00  0.00    -0.387 N 
ATOM     18  H   UNL A   1      30.899  25.650  21.819  1.00  0.00     0.157 HD
ATOM     19  H   UNL A   1      31.028  24.052  22.399  1.00  0.00     0.157 HD
ENDBRANCH  15  17
ENDBRANCH  12  15
ENDBRANCH   9  10
ENDBRANCH   6   9
ENDBRANCH   3   6
ENDBRANCH   1   2
BRANCH   1  20
ATOM     20  C   UNL A   1      34.803  30.159  27.604  1.00  0.00     0.042 C 
BRANCH  20  21
ATOM     21  C   UNL A   1      35.341  31.569  27.771  1.00  0.00     0.118 C 
BRANCH  21  22
ATOM     22  N   UNL A   1      34.812  32.264  28.944  1.00  0.00    -0.352 N 
ATOM     23  C   UNL A   1      35.161  32.076  30.268  1.00  0.00     0.251 C 
ATOM     24  H   UNL A   1      34.125  32.947  28.769  1.00  0.00     0.163 HD
ATOM     25  O   UNL A   1      34.458  32.501  31.174  1.00  0.00    -0.269 OA
BRANCH  23  26
ATOM     26  C   UNL A   1      36.386  31.311  30.567  1.00  0.00     0.039 A 
ATOM     27  C   UNL A   1      36.317  29.961  30.912  1.00  0.00     0.014 A 
ATOM     28  C   UNL A   1      37.614  31.937  30.392  1.00  0.00     0.014 A 
ATOM     29  C   UNL A   1      37.496  29.218  30.968  1.00  0.00     0.010 A 
ATOM     30  C   UNL A   1      38.754  31.171  30.296  1.00  0.00     0.010 A 
ATOM     31  C   UNL A   1      38.719  29.815  30.617  1.00  0.00    -0.014 A 
BRANCH  31  32
ATOM     32  C   UNL A   1      39.934  29.000  30.510  1.00  0.00     0.031 A 
ATOM     33  C   UNL A   1      40.690  28.736  31.771  1.00  0.00     0.074 A 
ATOM     34  C   UNL A   1      40.304  28.329  29.397  1.00  0.00     0.049 A 
ATOM     35  N   UNL A   1      41.906  29.081  32.047  1.00  0.00    -0.248 NA
ATOM     36  C   UNL A   1      40.006  28.036  32.869  1.00  0.00     0.031 C 
ATOM     37  C   UNL A   1      39.584  28.179  28.127  1.00  0.00     0.029 A 
ATOM     38  N   UNL A   1      41.384  27.515  29.227  1.00  0.00    -0.354 N 
ATOM     39  C   UNL A   1      42.205  28.524  33.288  1.00  0.00     0.074 A 
ATOM     40  C   UNL A   1      40.968  27.979  33.793  1.00  0.00     0.031 C 
ATOM     41  C   UNL A   1      40.095  27.134  27.442  1.00  0.00     0.029 A 
ATOM     42  C   UNL A   1      41.291  26.680  28.125  1.00  0.00     0.049 A 
ATOM     43  H   UNL A   1      42.161  27.519  29.832  1.00  0.00     0.167 HD
ATOM     44  C   UNL A   1      43.487  28.394  33.736  1.00  0.00     0.031 A 
ATOM     45  C   UNL A   1      42.124  25.669  27.792  1.00  0.00     0.031 A 
ATOM     46  C   UNL A   1      44.414  29.186  32.974  1.00  0.00     0.049 A 
ATOM     47  C   UNL A   1      43.416  25.913  28.469  1.00  0.00     0.074 A 
ATOM     48  C   UNL A   1      44.534  30.530  32.675  1.00  0.00     0.029 A 
ATOM     49  N   UNL A   1      45.225  28.538  32.073  1.00  0.00    -0.354 N 
ATOM     50  N   UNL A   1      44.209  26.901  28.165  1.00  0.00    -0.248 NA
ATOM     51  C   UNL A   1      43.654  25.301  29.766  1.00  0.00     0.031 C 
ATOM     52  C   UNL A   1      44.969  30.562  31.316  1.00  0.00     0.029 A 
ATOM     53  C   UNL A   1      45.138  29.240  30.898  1.00  0.00     0.049 A 
ATOM     54  H   UNL A   1      45.762  27.729  32.237  1.00  0.00     0.167 HD
ATOM     55  C   UNL A   1      44.733  27.320  29.379  1.00  0.00     0.074 A 
ATOM     56  C   UNL A   1      44.460  26.221  30.303  1.00  0.00     0.031 C 
ATOM     57  C   UNL A   1      45.082  28.625  29.590  1.00  0.00     0.031 A 
BRANCH  44  58
ATOM     58  C   UNL A   1      43.960  27.290  34.649  1.00  0.00    -0.014 A 
ATOM     59  C   UNL A   1      43.820  25.952  34.235  1.00  0.00     0.009 A 
ATOM     60  C   UNL A   1      44.278  27.506  36.002  1.00  0.00     0.009 A 
ATOM     61  C   UNL A   1      43.933  24.891  35.144  1.00  0.00     0.001 A 
ATOM     62  C   UNL A   1      44.435  26.447  36.902  1.00  0.00     0.001 A 
ATOM     63  C   UNL A   1      44.237  25.140  36.478  1.00  0.00     0.000 A 
ENDBRANCH  44  58
BRANCH  45  64
ATOM     64  C   UNL A   1      41.805  24.421  27.074  1.00  0.00    -0.014 A 
ATOM     65  C   UNL A   1      42.671  23.907  26.100  1.00  0.00     0.009 A 
ATOM     66  C   UNL A   1      40.752  23.598  27.519  1.00  0.00     0.009 A 
ATOM     67  C   UNL A   1      42.511  22.602  25.615  1.00  0.00     0.001 A 
ATOM     68  C   UNL A   1      40.588  22.299  27.031  1.00  0.00     0.001 A 
ATOM     69  C   UNL A   1      41.478  21.796  26.089  1.00  0.00     0.000 A 
ENDBRANCH  45  64
BRANCH  57  70
ATOM     70  C   UNL A   1      45.103  29.565  28.406  1.00  0.00    -0.014 A 
ATOM     71  C   UNL A   1      43.953  30.227  27.939  1.00  0.00     0.009 A 
ATOM     72  C   UNL A   1      46.341  29.922  27.850  1.00  0.00     0.009 A 
ATOM     73  C   UNL A   1      44.035  31.186  26.924  1.00  0.00     0.001 A 
ATOM     74  C   UNL A   1      46.427  30.897  26.853  1.00  0.00     0.001 A 
ATOM     75  C   UNL A   1      45.274  31.524  26.385  1.00  0.00     0.000 A 
ENDBRANCH  57  70
ENDBRANCH  31  32
ENDBRANCH  23  26
ENDBRANCH  21  22
ENDBRANCH  20  21
ENDBRANCH   1  20
TORSDOF 14
ENDMDL
MODEL 2
REMARK VINA RESULT:     -10.1      2.900      6.647
REMARK SMILES CC(C)(Cn1ccnc1C(N)=S)C(=O)NCCCNC(=O)c1ccc(-c2c3nc(c(-c4ccccc4)c4ccc([nH]4)c(-c4ccccc4)c4nc(c(-c5ccccc5)c5ccc2[nH]5)C=C4)C=C3)cc1
REMARK SMILES IDX 16 1 15 2 13 3 14 4 2 6 1 7 3 8 4 9 5 10 6 11 9 12 7 13 8 14
REMARK SMILES IDX 10 15 12 16 11 17 17 20 18 21 19 22 20 23 21 25 22 26 23 27
REMARK SMILES IDX 69 28 24 29 68 30 25 31 26 32 27 33 62 34 28 35 67 36 61 37
REMARK SMILES IDX 63 38 29 39 66 40 60 41 59 42 30 44 52 45 37 46 51 47 38 48
REMARK SMILES IDX 41 49 50 50 64 51 39 52 40 53 49 55 65 56 42 57 31 58 32 59
REMARK SMILES IDX 36 60 33 61 35 62 34 63 53 64 54 65 58 66 55 67 57 68 56 69
REMARK SMILES IDX 43 70 44 71 48 72 45 73 47 74 46 75
REMARK H PARENT 15 5 11 18 11 19 19 24 63 43 41 54
REMARK Flexibility Score: inf
ROOT
ATOM      1  C   UNL A   1      31.798  30.603  26.112  1.00  0.00     0.117 C 
ENDROOT
BRANCH   1   2
ATOM      2  N   UNL A   1      31.635  29.607  27.162  1.00  0.00    -0.356 N 
ATOM      3  C   UNL A   1      31.812  28.258  27.212  1.00  0.00     0.227 C 
ATOM      4  O   UNL A   1      31.726  27.749  28.334  1.00  0.00    -0.274 OA
ATOM      5  H   UNL A   1      31.335  29.991  28.018  1.00  0.00     0.163 HD
BRANCH   3   6
ATOM      6  C   UNL A   1      32.081  27.390  25.971  1.00  0.00     0.061 C 
ATOM      7  C   UNL A   1      32.490  25.956  26.398  1.00  0.00     0.023 C 
ATOM      8  C   UNL A   1      33.310  27.951  25.221  1.00  0.00     0.023 C 
BRANCH   6   9
ATOM      9  C   UNL A   1      30.851  27.294  25.030  1.00  0.00     0.140 C 
BRANCH   9  10
ATOM     10  N   UNL A   1      31.037  26.898  23.637  1.00  0.00    -0.328 N 
ATOM     11  C   UNL A   1      31.454  25.671  23.187  1.00  0.00     0.108 A 
ATOM     12  C   UNL A   1      30.829  27.689  22.508  1.00  0.00     0.167 A 
ATOM     13  C   UNL A   1      31.645  25.805  21.838  1.00  0.00     0.131 A 
ATOM     14  N   UNL A   1      31.273  27.048  21.430  1.00  0.00    -0.235 NA
BRANCH  12  15
ATOM     15  C   UNL A   1      30.250  29.011  22.333  1.00  0.00     0.140 C 
ATOM     16  S   UNL A   1      28.717  29.467  22.788  1.00  0.00    -0.057 S 
BRANCH  15  17
ATOM     17  N   UNL A   1      31.047  29.900  21.662  1.00  0.00    -0.387 N 
ATOM     18  H   UNL A   1      30.861  30.114  20.719  1.00  0.00     0.157 HD
ATOM     19  H   UNL A   1      31.808  30.324  22.122  1.00  0.00     0.157 HD
ENDBRANCH  15  17
ENDBRANCH  12  15
ENDBRANCH   9  10
ENDBRANCH   6   9
ENDBRANCH   3   6
ENDBRANCH   1   2
BRANCH   1  20
ATOM     20  C   UNL A   1      31.470  32.034  26.542  1.00  0.00     0.042 C 
BRANCH  20  21
ATOM     21  C   UNL A   1      32.598  32.722  27.292  1.00  0.00     0.118 C 
BRANCH  21  22
ATOM     22  N   UNL A   1      32.248  34.053  27.784  1.00  0.00    -0.352 N 
ATOM     23  C   UNL A   1      32.897  34.795  28.754  1.00  0.00     0.251 C 
ATOM     24  H   UNL A   1      31.455  34.472  27.377  1.00  0.00     0.163 HD
ATOM     25  O   UNL A   1      32.356  35.757  29.281  1.00  0.00    -0.269 OA
BRANCH  23  26
ATOM     26  C   UNL A   1      34.247  34.373  29.170  1.00  0.00     0.039 A 
ATOM     27  C   UNL A   1      34.422  33.509  30.252  1.00  0.00     0.014 A 
ATOM     28  C   UNL A   1      35.330  34.770  28.396  1.00  0.00     0.014 A 
ATOM     29  C   UNL A   1      35.683  32.957  30.477  1.00  0.00     0.010 A 
ATOM     30  C   UNL A   1      36.530  34.108  28.526  1.00  0.00     0.010 A 
ATOM     31  C   UNL A   1      36.735  33.224  29.585  1.00  0.00    -0.014 A 
BRANCH  31  32
ATOM     32  C   UNL A   1      38.013  32.516  29.717  1.00  0.00     0.031 A 
ATOM     33  C   UNL A   1      38.030  31.069  29.346  1.00  0.00     0.074 A 
ATOM     34  C   UNL A   1      39.195  33.120  29.968  1.00  0.00     0.049 A 
ATOM     35  N   UNL A   1      38.307  30.063  30.112  1.00  0.00    -0.248 NA
ATOM     36  C   UNL A   1      37.665  30.689  27.973  1.00  0.00     0.031 C 
ATOM     37  C   UNL A   1      39.496  34.552  30.071  1.00  0.00     0.029 A 
ATOM     38  N   UNL A   1      40.429  32.548  30.057  1.00  0.00    -0.354 N 
ATOM     39  C   UNL A   1      38.299  28.931  29.300  1.00  0.00     0.074 A 
ATOM     40  C   UNL A   1      37.799  29.361  28.016  1.00  0.00     0.031 C 
ATOM     41  C   UNL A   1      40.826  34.743  29.936  1.00  0.00     0.029 A 
ATOM     42  C   UNL A   1      41.477  33.447  29.940  1.00  0.00     0.049 A 
ATOM     43  H   UNL A   1      40.565  31.582  30.193  1.00  0.00     0.167 HD
ATOM     44  C   UNL A   1      38.871  27.756  29.688  1.00  0.00     0.031 A 
ATOM     45  C   UNL A   1      42.793  33.160  29.835  1.00  0.00     0.031 A 
ATOM     46  C   UNL A   1      39.147  27.722  31.099  1.00  0.00     0.049 A 
ATOM     47  C   UNL A   1      43.000  31.802  30.382  1.00  0.00     0.074 A 
ATOM     48  C   UNL A   1      38.388  27.862  32.245  1.00  0.00     0.029 A 
ATOM     49  N   UNL A   1      40.452  27.877  31.503  1.00  0.00    -0.354 N 
ATOM     50  N   UNL A   1      42.856  31.509  31.643  1.00  0.00    -0.248 NA
ATOM     51  C   UNL A   1      42.973  30.669  29.473  1.00  0.00     0.031 C 
ATOM     52  C   UNL A   1      39.216  28.607  33.138  1.00  0.00     0.029 A 
ATOM     53  C   UNL A   1      40.439  28.820  32.499  1.00  0.00     0.049 A 
ATOM     54  H   UNL A   1      41.240  27.407  31.147  1.00  0.00     0.167 HD
ATOM     55  C   UNL A   1      42.283  30.245  31.649  1.00  0.00     0.074 A 
ATOM     56  C   UNL A   1      42.502  29.730  30.299  1.00  0.00     0.031 C 
ATOM     57  C   UNL A   1      41.443  29.850  32.651  1.00  0.00     0.031 A 
BRANCH  44  58
ATOM     58  C   UNL A   1      39.495  26.762  28.740  1.00  0.00    -0.014 A 
ATOM     59  C   UNL A   1      40.450  27.211  27.807  1.00  0.00     0.009 A 
ATOM     60  C   UNL A   1      38.981  25.467  28.547  1.00  0.00     0.009 A 
ATOM     61  C   UNL A   1      40.821  26.426  26.706  1.00  0.00     0.001 A 
ATOM     62  C   UNL A   1      39.381  24.665  27.474  1.00  0.00     0.001 A 
ATOM     63  C   UNL A   1      40.282  25.155  26.539  1.00  0.00     0.000 A 
ENDBRANCH  44  58
BRANCH  45  64
ATOM     64  C   UNL A   1      43.839  33.920  29.126  1.00  0.00    -0.014 A 
ATOM     65  C   UNL A   1      43.831  34.028  27.729  1.00  0.00     0.009 A 
ATOM     66  C   UNL A   1      44.723  34.748  29.845  1.00  0.00     0.009 A 
ATOM     67  C   UNL A   1      44.652  34.958  27.077  1.00  0.00     0.001 A 
ATOM     68  C   UNL A   1      45.547  35.671  29.195  1.00  0.00     0.001 A 
ATOM     69  C   UNL A   1      45.499  35.786  27.811  1.00  0.00     0.000 A 
ENDBRANCH  45  64
BRANCH  57  70
ATOM     70  C   UNL A   1      41.322  30.727  33.877  1.00  0.00    -0.014 A 
ATOM     71  C   UNL A   1      40.521  31.882  33.911  1.00  0.00     0.009 A 
ATOM     72  C   UNL A   1      41.898  30.288  35.080  1.00  0.00     0.009 A 
ATOM     73  C   UNL A   1      40.333  32.596  35.099  1.00  0.00     0.001 A 
ATOM     74  C   UNL A   1      41.691  30.987  36.272  1.00  0.00     0.001 A 
ATOM     75  C   UNL A   1      40.915  32.144  36.281  1.00  0.00     0.000 A 
ENDBRANCH  57  70
ENDBRANCH  31  32
ENDBRANCH  23  26
ENDBRANCH  21  22
ENDBRANCH  20  21
ENDBRANCH   1  20
TORSDOF 14
ENDMDL
MODEL 3
REMARK VINA RESULT:     -10.1      4.350      5.876
REMARK SMILES CC(C)(Cn1ccnc1C(N)=S)C(=O)NCCCNC(=O)c1ccc(-c2c3nc(c(-c4ccccc4)c4ccc([nH]4)c(-c4ccccc4)c4nc(c(-c5ccccc5)c5ccc2[nH]5)C=C4)C=C3)cc1
REMARK SMILES IDX 16 1 15 2 13 3 14 4 2 6 1 7 3 8 4 9 5 10 6 11 9 12 7 13 8 14
REMARK SMILES IDX 10 15 12 16 11 17 17 20 18 21 19 22 20 23 21 25 22 26 23 27
REMARK SMILES IDX 69 28 24 29 68 30 25 31 26 32 27 33 62 34 28 35 67 36 61 37
REMARK SMILES IDX 63 38 29 39 66 40 60 41 59 42 30 44 52 45 37 46 51 47 38 48
REMARK SMILES IDX 41 49 50 50 64 51 39 52 40 53 49 55 65 56 42 57 31 58 32 59
REMARK SMILES IDX 36 60 33 61 35 62 34 63 53 64 54 65 58 66 55 67 57 68 56 69
REMARK SMILES IDX 43 70 44 71 48 72 45 73 47 74 46 75
REMARK H PARENT 15 5 11 18 11 19 19 24 63 43 41 54
REMARK Flexibility Score: inf
ROOT
ATOM      1  C   UNL A   1      36.702  32.636  32.440  1.00  0.00     0.117 C 
ENDROOT
BRANCH   1   2
ATOM      2  N   UNL A   1      36.402  31.596  31.465  1.00  0.00    -0.356 N 
ATOM      3  C   UNL A   1      35.912  31.613  30.195  1.00  0.00     0.227 C 
ATOM      4  O   UNL A   1      35.931  30.530  29.601  1.00  0.00    -0.274 OA
ATOM      5  H   UNL A   1      36.595  30.688  31.795  1.00  0.00     0.163 HD
BRANCH   3   6
ATOM      6  C   UNL A   1      35.344  32.873  29.520  1.00  0.00     0.061 C 
ATOM      7  C   UNL A   1      34.673  32.503  28.172  1.00  0.00     0.023 C 
ATOM      8  C   UNL A   1      36.512  33.812  29.142  1.00  0.00     0.023 C 
BRANCH   6   9
ATOM      9  C   UNL A   1      34.304  33.609  30.405  1.00  0.00     0.140 C 
BRANCH   9  10
ATOM     10  N   UNL A   1      33.771  34.898  29.974  1.00  0.00    -0.328 N 
ATOM     11  C   UNL A   1      33.652  35.339  28.679  1.00  0.00     0.108 A 
ATOM     12  C   UNL A   1      33.291  35.920  30.790  1.00  0.00     0.167 A 
ATOM     13  C   UNL A   1      33.268  36.651  28.759  1.00  0.00     0.131 A 
ATOM     14  N   UNL A   1      33.062  37.005  30.055  1.00  0.00    -0.235 NA
BRANCH  12  15
ATOM     15  C   UNL A   1      33.023  35.987  32.219  1.00  0.00     0.140 C 
ATOM     16  S   UNL A   1      34.007  36.693  33.358  1.00  0.00    -0.057 S 
BRANCH  15  17
ATOM     17  N   UNL A   1      31.888  35.333  32.619  1.00  0.00    -0.387 N 
ATOM     18  H   UNL A   1      31.006  35.648  32.315  1.00  0.00     0.157 HD
ATOM     19  H   UNL A   1      31.954  34.549  33.210  1.00  0.00     0.157 HD
ENDBRANCH  15  17
ENDBRANCH  12  15
ENDBRANCH   9  10
ENDBRANCH   6   9
ENDBRANCH   3   6
ENDBRANCH   1   2
BRANCH   1  20
ATOM     20  C   UNL A   1      37.821  32.280  33.419  1.00  0.00     0.042 C 
BRANCH  20  21
ATOM     21  C   UNL A   1      39.183  32.818  33.016  1.00  0.00     0.118 C 
BRANCH  21  22
ATOM     22  N   UNL A   1      39.124  33.840  31.971  1.00  0.00    -0.352 N 
ATOM     23  C   UNL A   1      39.743  33.823  30.735  1.00  0.00     0.251 C 
ATOM     24  H   UNL A   1      38.579  34.635  32.172  1.00  0.00     0.163 HD
ATOM     25  O   UNL A   1      39.856  34.843  30.071  1.00  0.00    -0.269 OA
BRANCH  23  26
ATOM     26  C   UNL A   1      40.303  32.548  30.250  1.00  0.00     0.039 A 
ATOM     27  C   UNL A   1      41.677  32.309  30.300  1.00  0.00     0.014 A 
ATOM     28  C   UNL A   1      39.423  31.553  29.843  1.00  0.00     0.014 A 
ATOM     29  C   UNL A   1      42.147  31.020  30.045  1.00  0.00     0.010 A 
ATOM     30  C   UNL A   1      39.872  30.255  29.746  1.00  0.00     0.010 A 
ATOM     31  C   UNL A   1      41.237  29.976  29.808  1.00  0.00    -0.014 A 
BRANCH  31  32
ATOM     32  C   UNL A   1      41.712  28.591  29.709  1.00  0.00     0.031 A 
ATOM     33  C   UNL A   1      42.405  28.023  30.903  1.00  0.00     0.074 A 
ATOM     34  C   UNL A   1      41.402  27.752  28.696  1.00  0.00     0.049 A 
ATOM     35  N   UNL A   1      43.623  27.593  30.976  1.00  0.00    -0.248 NA
ATOM     36  C   UNL A   1      41.672  27.954  32.177  1.00  0.00     0.031 C 
ATOM     37  C   UNL A   1      40.498  27.968  27.561  1.00  0.00     0.029 A 
ATOM     38  N   UNL A   1      41.758  26.444  28.550  1.00  0.00    -0.354 N 
ATOM     39  C   UNL A   1      43.781  27.061  32.254  1.00  0.00     0.074 A 
ATOM     40  C   UNL A   1      42.583  27.402  32.983  1.00  0.00     0.031 C 
ATOM     41  C   UNL A   1      40.169  26.778  27.016  1.00  0.00     0.029 A 
ATOM     42  C   UNL A   1      40.990  25.751  27.629  1.00  0.00     0.049 A 
ATOM     43  H   UNL A   1      42.495  26.029  29.055  1.00  0.00     0.167 HD
ATOM     44  C   UNL A   1      44.811  26.225  32.571  1.00  0.00     0.031 A 
ATOM     45  C   UNL A   1      41.004  24.422  27.387  1.00  0.00     0.031 A 
ATOM     46  C   UNL A   1      45.855  26.247  31.582  1.00  0.00     0.049 A 
ATOM     47  C   UNL A   1      42.302  23.895  27.862  1.00  0.00     0.074 A 
ATOM     48  C   UNL A   1      46.666  27.227  31.042  1.00  0.00     0.029 A 
ATOM     49  N   UNL A   1      45.951  25.178  30.723  1.00  0.00    -0.354 N 
ATOM     50  N   UNL A   1      43.441  24.188  27.302  1.00  0.00    -0.248 NA
ATOM     51  C   UNL A   1      42.391  23.361  29.210  1.00  0.00     0.031 C 
ATOM     52  C   UNL A   1      46.765  26.891  29.658  1.00  0.00     0.029 A 
ATOM     53  C   UNL A   1      46.057  25.704  29.461  1.00  0.00     0.049 A 
ATOM     54  H   UNL A   1      45.943  24.224  30.966  1.00  0.00     0.167 HD
ATOM     55  C   UNL A   1      44.335  24.300  28.357  1.00  0.00     0.074 A 
ATOM     56  C   UNL A   1      43.665  23.654  29.484  1.00  0.00     0.031 C 
ATOM     57  C   UNL A   1      45.404  25.149  28.296  1.00  0.00     0.031 A 
BRANCH  44  58
ATOM     58  C   UNL A   1      44.728  25.129  33.604  1.00  0.00    -0.014 A 
ATOM     59  C   UNL A   1      45.710  25.059  34.610  1.00  0.00     0.009 A 
ATOM     60  C   UNL A   1      43.887  24.010  33.460  1.00  0.00     0.009 A 
ATOM     61  C   UNL A   1      45.878  23.906  35.389  1.00  0.00     0.001 A 
ATOM     62  C   UNL A   1      44.025  22.874  34.265  1.00  0.00     0.001 A 
ATOM     63  C   UNL A   1      45.037  22.813  35.212  1.00  0.00     0.000 A 
ENDBRANCH  44  58
BRANCH  45  64
ATOM     64  C   UNL A   1      39.892  23.563  26.939  1.00  0.00    -0.014 A 
ATOM     65  C   UNL A   1      38.650  24.112  26.596  1.00  0.00     0.009 A 
ATOM     66  C   UNL A   1      40.127  22.212  26.615  1.00  0.00     0.009 A 
ATOM     67  C   UNL A   1      37.690  23.347  25.920  1.00  0.00     0.001 A 
ATOM     68  C   UNL A   1      39.167  21.447  25.948  1.00  0.00     0.001 A 
ATOM     69  C   UNL A   1      37.954  22.019  25.587  1.00  0.00     0.000 A 
ENDBRANCH  45  64
BRANCH  57  70
ATOM     70  C   UNL A   1      45.733  25.799  26.971  1.00  0.00    -0.014 A 
ATOM     71  C   UNL A   1      45.154  27.012  26.554  1.00  0.00     0.009 A 
ATOM     72  C   UNL A   1      46.773  25.264  26.197  1.00  0.00     0.009 A 
ATOM     73  C   UNL A   1      45.577  27.647  25.382  1.00  0.00     0.001 A 
ATOM     74  C   UNL A   1      47.213  25.911  25.038  1.00  0.00     0.001 A 
ATOM     75  C   UNL A   1      46.611  27.098  24.627  1.00  0.00     0.000 A 
ENDBRANCH  57  70
ENDBRANCH  31  32
ENDBRANCH  23  26
ENDBRANCH  21  22
ENDBRANCH  20  21
ENDBRANCH   1  20
TORSDOF 14
ENDMDL
