MODEL 1
REMARK VINA RESULT:     -10.6      0.000      0.000
REMARK SMILES C[C@@H]1CC[C@@H](C(=O)NCCCNC(=O)c2ccc(-c3c4nc(c(-c5ccccc5)c5ccc([nH]5)c(-c5ccccc5)c5nc(c(-c6ccccc6)c6ccc3[nH]6)C=C5)C=C4)cc2)[C@H](SCC[NH+](C)C)C1
REMARK SMILES IDX 9 1 8 2 6 3 7 4 5 6 1 7 2 8 3 9 70 10 4 11 63 12 64 13 65 14
REMARK SMILES IDX 66 15 67 16 68 17 69 18 10 20 11 21 12 22 13 23 14 25 15 26
REMARK SMILES IDX 16 27 62 28 17 29 61 30 18 31 19 32 20 33 55 34 21 35 60 36
REMARK SMILES IDX 54 37 56 38 22 39 59 40 53 41 52 42 23 44 45 45 30 46 44 47
REMARK SMILES IDX 31 48 34 49 43 50 57 51 32 52 33 53 42 55 58 56 35 57 24 58
REMARK SMILES IDX 25 59 29 60 26 61 28 62 27 63 46 64 47 65 51 66 48 67 50 68
REMARK SMILES IDX 49 69 36 70 37 71 41 72 38 73 40 74 39 75
REMARK H PARENT 8 5 67 19 12 24 56 43 34 54
REMARK Flexibility Score: inf
ROOT
ATOM      1  C   UNL A   1      31.341  30.856  25.871  1.00  0.00     0.117 C 
ENDROOT
BRANCH   1   2
ATOM      2  N   UNL A   1      32.198  29.990  26.645  1.00  0.00    -0.356 N 
ATOM      3  C   UNL A   1      32.375  28.651  26.645  1.00  0.00     0.224 C 
ATOM      4  O   UNL A   1      33.239  28.237  27.426  1.00  0.00    -0.275 OA
ATOM      5  H   UNL A   1      32.760  30.466  27.298  1.00  0.00     0.163 HD
BRANCH   3   6
ATOM      6  C   UNL A   1      31.508  27.683  25.805  1.00  0.00     0.091 C 
ATOM      7  C   UNL A   1      33.440  25.548  22.817  1.00  0.00     0.007 C 
ATOM      8  C   UNL A   1      33.640  26.454  24.034  1.00  0.00    -0.013 C 
ATOM      9  C   UNL A   1      33.264  25.781  25.369  1.00  0.00     0.004 C 
ATOM     10  C   UNL A   1      33.046  27.836  23.767  1.00  0.00     0.018 C 
ATOM     11  C   UNL A   1      32.093  26.321  26.204  1.00  0.00     0.015 C 
ATOM     12  C   UNL A   1      31.628  28.077  24.310  1.00  0.00     0.059 C 
BRANCH  12  13
ATOM     13  S   UNL A   1      30.421  27.913  22.860  1.00  0.00    -0.152 SA
BRANCH  13  14
ATOM     14  C   UNL A   1      29.208  29.286  22.666  1.00  0.00     0.131 C 
BRANCH  14  15
ATOM     15  C   UNL A   1      29.531  30.428  21.642  1.00  0.00     0.272 C 
BRANCH  15  16
ATOM     16  N   UNL A   1      29.129  31.812  21.976  1.00  0.00    -0.339 N 
ATOM     17  C   UNL A   1      28.113  32.346  21.061  1.00  0.00     0.332 C 
ATOM     18  C   UNL A   1      28.678  31.919  23.338  1.00  0.00     0.332 C 
ATOM     19  H   UNL A   1      29.968  32.382  21.863  1.00  0.00     0.347 HD
ENDBRANCH  15  16
ENDBRANCH  14  15
ENDBRANCH  13  14
ENDBRANCH  12  13
ENDBRANCH   3   6
ENDBRANCH   1   2
BRANCH   1  20
ATOM     20  C   UNL A   1      31.177  32.239  26.493  1.00  0.00     0.042 C 
BRANCH  20  21
ATOM     21  C   UNL A   1      32.422  32.814  27.173  1.00  0.00     0.118 C 
BRANCH  21  22
ATOM     22  N   UNL A   1      32.264  34.191  27.624  1.00  0.00    -0.352 N 
ATOM     23  C   UNL A   1      32.950  34.910  28.569  1.00  0.00     0.251 C 
ATOM     24  H   UNL A   1      31.542  34.688  27.175  1.00  0.00     0.163 HD
ATOM     25  O   UNL A   1      32.552  36.035  28.879  1.00  0.00    -0.269 OA
BRANCH  23  26
ATOM     26  C   UNL A   1      34.139  34.350  29.243  1.00  0.00     0.039 A 
ATOM     27  C   UNL A   1      33.971  33.699  30.470  1.00  0.00     0.014 A 
ATOM     28  C   UNL A   1      35.417  34.481  28.695  1.00  0.00     0.014 A 
ATOM     29  C   UNL A   1      35.070  33.121  31.108  1.00  0.00     0.010 A 
ATOM     30  C   UNL A   1      36.498  33.832  29.290  1.00  0.00     0.010 A 
ATOM     31  C   UNL A   1      36.338  33.146  30.503  1.00  0.00    -0.014 A 
BRANCH  31  32
ATOM     32  C   UNL A   1      37.496  32.453  31.125  1.00  0.00     0.031 A 
ATOM     33  C   UNL A   1      38.052  32.922  32.443  1.00  0.00     0.074 A 
ATOM     34  C   UNL A   1      38.082  31.425  30.477  1.00  0.00     0.049 A 
ATOM     35  N   UNL A   1      39.068  32.455  33.123  1.00  0.00    -0.248 NA
ATOM     36  C   UNL A   1      37.397  34.083  33.065  1.00  0.00     0.031 C 
ATOM     37  C   UNL A   1      37.669  30.899  29.174  1.00  0.00     0.029 A 
ATOM     38  N   UNL A   1      39.151  30.639  30.827  1.00  0.00    -0.354 N 
ATOM     39  C   UNL A   1      39.182  33.270  34.242  1.00  0.00     0.074 A 
ATOM     40  C   UNL A   1      38.169  34.295  34.122  1.00  0.00     0.031 C 
ATOM     41  C   UNL A   1      38.449  29.855  28.853  1.00  0.00     0.029 A 
ATOM     42  C   UNL A   1      39.445  29.665  29.902  1.00  0.00     0.049 A 
ATOM     43  H   UNL A   1      39.659  30.761  31.661  1.00  0.00     0.167 HD
ATOM     44  C   UNL A   1      40.036  33.164  35.288  1.00  0.00     0.031 A 
ATOM     45  C   UNL A   1      40.408  28.725  29.897  1.00  0.00     0.031 A 
ATOM     46  C   UNL A   1      41.043  32.142  35.409  1.00  0.00     0.049 A 
ATOM     47  C   UNL A   1      41.357  28.640  31.061  1.00  0.00     0.074 A 
ATOM     48  C   UNL A   1      41.922  31.920  36.455  1.00  0.00     0.029 A 
ATOM     49  N   UNL A   1      41.307  31.177  34.452  1.00  0.00    -0.354 N 
ATOM     50  N   UNL A   1      41.402  29.374  32.146  1.00  0.00    -0.248 NA
ATOM     51  C   UNL A   1      42.378  27.585  31.004  1.00  0.00     0.031 C 
ATOM     52  C   UNL A   1      42.759  30.857  36.102  1.00  0.00     0.029 A 
ATOM     53  C   UNL A   1      42.353  30.371  34.869  1.00  0.00     0.049 A 
ATOM     54  H   UNL A   1      40.822  31.077  33.600  1.00  0.00     0.167 HD
ATOM     55  C   UNL A   1      42.430  28.847  32.918  1.00  0.00     0.074 A 
ATOM     56  C   UNL A   1      42.972  27.724  32.181  1.00  0.00     0.031 C 
ATOM     57  C   UNL A   1      42.882  29.255  34.128  1.00  0.00     0.031 A 
BRANCH  44  58
ATOM     58  C   UNL A   1      39.924  34.191  36.383  1.00  0.00    -0.014 A 
ATOM     59  C   UNL A   1      40.624  35.407  36.317  1.00  0.00     0.009 A 
ATOM     60  C   UNL A   1      39.079  33.956  37.478  1.00  0.00     0.009 A 
ATOM     61  C   UNL A   1      40.512  36.346  37.346  1.00  0.00     0.001 A 
ATOM     62  C   UNL A   1      38.942  34.911  38.488  1.00  0.00     0.001 A 
ATOM     63  C   UNL A   1      39.667  36.100  38.426  1.00  0.00     0.000 A 
ENDBRANCH  44  58
BRANCH  45  64
ATOM     64  C   UNL A   1      40.515  27.772  28.760  1.00  0.00    -0.014 A 
ATOM     65  C   UNL A   1      41.267  28.101  27.621  1.00  0.00     0.009 A 
ATOM     66  C   UNL A   1      39.858  26.532  28.802  1.00  0.00     0.009 A 
ATOM     67  C   UNL A   1      41.333  27.222  26.537  1.00  0.00     0.001 A 
ATOM     68  C   UNL A   1      39.952  25.642  27.729  1.00  0.00     0.001 A 
ATOM     69  C   UNL A   1      40.679  25.993  26.593  1.00  0.00     0.000 A 
ENDBRANCH  45  64
BRANCH  57  70
ATOM     70  C   UNL A   1      43.985  28.451  34.761  1.00  0.00    -0.014 A 
ATOM     71  C   UNL A   1      45.336  28.781  34.574  1.00  0.00     0.009 A 
ATOM     72  C   UNL A   1      43.659  27.365  35.588  1.00  0.00     0.009 A 
ATOM     73  C   UNL A   1      46.338  28.015  35.174  1.00  0.00     0.001 A 
ATOM     74  C   UNL A   1      44.661  26.622  36.214  1.00  0.00     0.001 A 
ATOM     75  C   UNL A   1      46.000  26.941  35.998  1.00  0.00     0.000 A 
ENDBRANCH  57  70
ENDBRANCH  31  32
ENDBRANCH  23  26
ENDBRANCH  21  22
ENDBRANCH  20  21
ENDBRANCH   1  20
TORSDOF 14
ENDMDL
MODEL 2
REMARK VINA RESULT:     -10.5      0.393      6.177
REMARK SMILES C[C@@H]1CC[C@@H](C(=O)NCCCNC(=O)c2ccc(-c3c4nc(c(-c5ccccc5)c5ccc([nH]5)c(-c5ccccc5)c5nc(c(-c6ccccc6)c6ccc3[nH]6)C=C5)C=C4)cc2)[C@H](SCC[NH+](C)C)C1
REMARK SMILES IDX 9 1 8 2 6 3 7 4 5 6 1 7 2 8 3 9 70 10 4 11 63 12 64 13 65 14
REMARK SMILES IDX 66 15 67 16 68 17 69 18 10 20 11 21 12 22 13 23 14 25 15 26
REMARK SMILES IDX 16 27 62 28 17 29 61 30 18 31 19 32 20 33 55 34 21 35 60 36
REMARK SMILES IDX 54 37 56 38 22 39 59 40 53 41 52 42 23 44 45 45 30 46 44 47
REMARK SMILES IDX 31 48 34 49 43 50 57 51 32 52 33 53 42 55 58 56 35 57 24 58
REMARK SMILES IDX 25 59 29 60 26 61 28 62 27 63 46 64 47 65 51 66 48 67 50 68
REMARK SMILES IDX 49 69 36 70 37 71 41 72 38 73 40 74 39 75
REMARK H PARENT 8 5 67 19 12 24 56 43 34 54
REMARK Flexibility Score: inf
ROOT
ATOM      1  C   UNL A   1      31.558  30.817  25.884  1.00  0.00     0.117 C 
ENDROOT
BRANCH   1   2
ATOM      2  N   UNL A   1      32.528  29.993  26.566  1.00  0.00    -0.356 N 
ATOM      3  C   UNL A   1      32.744  28.660  26.572  1.00  0.00     0.224 C 
ATOM      4  O   UNL A   1      33.707  28.289  27.251  1.00  0.00    -0.275 OA
ATOM      5  H   UNL A   1      33.149  30.500  27.137  1.00  0.00     0.163 HD
BRANCH   3   6
ATOM      6  C   UNL A   1      31.812  27.649  25.863  1.00  0.00     0.091 C 
ATOM      7  C   UNL A   1      33.446  25.475  22.728  1.00  0.00     0.007 C 
ATOM      8  C   UNL A   1      33.760  26.419  23.890  1.00  0.00    -0.013 C 
ATOM      9  C   UNL A   1      33.556  25.777  25.276  1.00  0.00     0.004 C 
ATOM     10  C   UNL A   1      33.103  27.779  23.658  1.00  0.00     0.018 C 
ATOM     11  C   UNL A   1      32.474  26.313  26.226  1.00  0.00     0.015 C 
ATOM     12  C   UNL A   1      31.751  28.003  24.354  1.00  0.00     0.059 C 
BRANCH  12  13
ATOM     13  S   UNL A   1      30.391  27.770  23.056  1.00  0.00    -0.152 SA
BRANCH  13  14
ATOM     14  C   UNL A   1      29.263  29.206  22.809  1.00  0.00     0.131 C 
BRANCH  14  15
ATOM     15  C   UNL A   1      29.606  30.238  21.680  1.00  0.00     0.272 C 
BRANCH  15  16
ATOM     16  N   UNL A   1      29.203  31.649  21.866  1.00  0.00    -0.339 N 
ATOM     17  C   UNL A   1      28.179  32.080  20.906  1.00  0.00     0.332 C 
ATOM     18  C   UNL A   1      28.760  31.901  23.212  1.00  0.00     0.332 C 
ATOM     19  H   UNL A   1      30.039  32.205  21.688  1.00  0.00     0.347 HD
ENDBRANCH  15  16
ENDBRANCH  14  15
ENDBRANCH  13  14
ENDBRANCH  12  13
ENDBRANCH   3   6
ENDBRANCH   1   2
BRANCH   1  20
ATOM     20  C   UNL A   1      31.317  32.151  26.582  1.00  0.00     0.042 C 
BRANCH  20  21
ATOM     21  C   UNL A   1      32.552  32.812  27.200  1.00  0.00     0.118 C 
BRANCH  21  22
ATOM     22  N   UNL A   1      32.334  34.189  27.623  1.00  0.00    -0.352 N 
ATOM     23  C   UNL A   1      32.973  34.949  28.569  1.00  0.00     0.251 C 
ATOM     24  H   UNL A   1      31.604  34.651  27.151  1.00  0.00     0.163 HD
ATOM     25  O   UNL A   1      32.528  36.064  28.850  1.00  0.00    -0.269 OA
BRANCH  23  26
ATOM     26  C   UNL A   1      34.168  34.445  29.276  1.00  0.00     0.039 A 
ATOM     27  C   UNL A   1      34.009  33.882  30.546  1.00  0.00     0.014 A 
ATOM     28  C   UNL A   1      35.444  34.545  28.715  1.00  0.00     0.014 A 
ATOM     29  C   UNL A   1      35.114  33.357  31.219  1.00  0.00     0.010 A 
ATOM     30  C   UNL A   1      36.530  33.947  29.350  1.00  0.00     0.010 A 
ATOM     31  C   UNL A   1      36.379  33.347  30.609  1.00  0.00    -0.014 A 
BRANCH  31  32
ATOM     32  C   UNL A   1      37.544  32.707  31.274  1.00  0.00     0.031 A 
ATOM     33  C   UNL A   1      38.225  31.519  30.648  1.00  0.00     0.074 A 
ATOM     34  C   UNL A   1      37.960  33.164  32.472  1.00  0.00     0.049 A 
ATOM     35  N   UNL A   1      39.238  30.820  31.094  1.00  0.00    -0.248 NA
ATOM     36  C   UNL A   1      37.683  31.040  29.367  1.00  0.00     0.031 C 
ATOM     37  C   UNL A   1      37.359  34.280  33.208  1.00  0.00     0.029 A 
ATOM     38  N   UNL A   1      38.986  32.748  33.282  1.00  0.00    -0.354 N 
ATOM     39  C   UNL A   1      39.445  29.814  30.158  1.00  0.00     0.074 A 
ATOM     40  C   UNL A   1      38.417  29.957  29.150  1.00  0.00     0.031 C 
ATOM     41  C   UNL A   1      38.051  34.482  34.340  1.00  0.00     0.029 A 
ATOM     42  C   UNL A   1      39.113  33.487  34.435  1.00  0.00     0.049 A 
ATOM     43  H   UNL A   1      39.575  31.992  33.060  1.00  0.00     0.167 HD
ATOM     44  C   UNL A   1      40.414  28.868  30.125  1.00  0.00     0.031 A 
ATOM     45  C   UNL A   1      39.985  33.377  35.454  1.00  0.00     0.031 A 
ATOM     46  C   UNL A   1      41.438  28.726  31.127  1.00  0.00     0.049 A 
ATOM     47  C   UNL A   1      41.041  32.307  35.404  1.00  0.00     0.074 A 
ATOM     48  C   UNL A   1      42.495  27.833  31.157  1.00  0.00     0.029 A 
ATOM     49  N   UNL A   1      41.531  29.494  32.276  1.00  0.00    -0.354 N 
ATOM     50  N   UNL A   1      41.266  31.410  34.475  1.00  0.00    -0.248 NA
ATOM     51  C   UNL A   1      41.971  32.244  36.540  1.00  0.00     0.031 C 
ATOM     52  C   UNL A   1      43.191  28.021  32.355  1.00  0.00     0.029 A 
ATOM     53  C   UNL A   1      42.611  29.079  33.036  1.00  0.00     0.049 A 
ATOM     54  H   UNL A   1      40.918  30.228  32.517  1.00  0.00     0.167 HD
ATOM     55  C   UNL A   1      42.385  30.702  34.894  1.00  0.00     0.074 A 
ATOM     56  C   UNL A   1      42.799  31.283  36.155  1.00  0.00     0.031 C 
ATOM     57  C   UNL A   1      43.015  29.667  34.288  1.00  0.00     0.031 A 
BRANCH  44  58
ATOM     58  C   UNL A   1      40.405  27.903  28.970  1.00  0.00    -0.014 A 
ATOM     59  C   UNL A   1      39.686  26.698  29.032  1.00  0.00     0.009 A 
ATOM     60  C   UNL A   1      41.094  28.219  27.789  1.00  0.00     0.009 A 
ATOM     61  C   UNL A   1      39.694  25.811  27.951  1.00  0.00     0.001 A 
ATOM     62  C   UNL A   1      41.072  27.348  26.699  1.00  0.00     0.001 A 
ATOM     63  C   UNL A   1      40.381  26.140  26.785  1.00  0.00     0.000 A 
ENDBRANCH  44  58
BRANCH  45  64
ATOM     64  C   UNL A   1      39.913  34.318  36.604  1.00  0.00    -0.014 A 
ATOM     65  C   UNL A   1      39.235  33.958  37.779  1.00  0.00     0.009 A 
ATOM     66  C   UNL A   1      40.512  35.585  36.530  1.00  0.00     0.009 A 
ATOM     67  C   UNL A   1      39.132  34.859  38.842  1.00  0.00     0.001 A 
ATOM     68  C   UNL A   1      40.435  36.471  37.607  1.00  0.00     0.001 A 
ATOM     69  C   UNL A   1      39.735  36.112  38.757  1.00  0.00     0.000 A 
ENDBRANCH  45  64
BRANCH  57  70
ATOM     70  C   UNL A   1      44.251  29.127  34.952  1.00  0.00    -0.014 A 
ATOM     71  C   UNL A   1      44.192  28.062  35.864  1.00  0.00     0.009 A 
ATOM     72  C   UNL A   1      45.503  29.673  34.626  1.00  0.00     0.009 A 
ATOM     73  C   UNL A   1      45.358  27.582  36.465  1.00  0.00     0.001 A 
ATOM     74  C   UNL A   1      46.670  29.169  35.202  1.00  0.00     0.001 A 
ATOM     75  C   UNL A   1      46.596  28.131  36.129  1.00  0.00     0.000 A 
ENDBRANCH  57  70
ENDBRANCH  31  32
ENDBRANCH  23  26
ENDBRANCH  21  22
ENDBRANCH  20  21
ENDBRANCH   1  20
TORSDOF 14
ENDMDL
MODEL 3
REMARK VINA RESULT:     -10.5      6.268     10.579
REMARK SMILES C[C@@H]1CC[C@@H](C(=O)NCCCNC(=O)c2ccc(-c3c4nc(c(-c5ccccc5)c5ccc([nH]5)c(-c5ccccc5)c5nc(c(-c6ccccc6)c6ccc3[nH]6)C=C5)C=C4)cc2)[C@H](SCC[NH+](C)C)C1
REMARK SMILES IDX 9 1 8 2 6 3 7 4 5 6 1 7 2 8 3 9 70 10 4 11 63 12 64 13 65 14
REMARK SMILES IDX 66 15 67 16 68 17 69 18 10 20 11 21 12 22 13 23 14 25 15 26
REMARK SMILES IDX 16 27 62 28 17 29 61 30 18 31 19 32 20 33 55 34 21 35 60 36
REMARK SMILES IDX 54 37 56 38 22 39 59 40 53 41 52 42 23 44 45 45 30 46 44 47
REMARK SMILES IDX 31 48 34 49 43 50 57 51 32 52 33 53 42 55 58 56 35 57 24 58
REMARK SMILES IDX 25 59 29 60 26 61 28 62 27 63 46 64 47 65 51 66 48 67 50 68
REMARK SMILES IDX 49 69 36 70 37 71 41 72 38 73 40 74 39 75
REMARK H PARENT 8 5 67 19 12 24 56 43 34 54
REMARK Flexibility Score: inf
ROOT
ATOM      1  C   UNL A   1      36.688  20.341  25.006  1.00  0.00     0.117 C 
ENDROOT
BRANCH   1   2
ATOM      2  N   UNL A   1      36.990  21.716  25.324  1.00  0.00    -0.356 N 
ATOM      3  C   UNL A   1      36.291  22.860  25.164  1.00  0.00     0.224 C 
ATOM      4  O   UNL A   1      36.845  23.877  25.594  1.00  0.00    -0.275 OA
ATOM      5  H   UNL A   1      37.875  21.845  25.735  1.00  0.00     0.163 HD
BRANCH   3   6
ATOM      6  C   UNL A   1      34.937  22.927  24.418  1.00  0.00     0.091 C 
ATOM      7  C   UNL A   1      31.745  24.604  26.472  1.00  0.00     0.007 C 
ATOM      8  C   UNL A   1      33.258  24.381  26.482  1.00  0.00    -0.013 C 
ATOM      9  C   UNL A   1      34.004  25.178  25.393  1.00  0.00     0.004 C 
ATOM     10  C   UNL A   1      33.573  22.890  26.581  1.00  0.00     0.018 C 
ATOM     11  C   UNL A   1      34.743  24.441  24.265  1.00  0.00     0.015 C 
ATOM     12  C   UNL A   1      33.870  22.173  25.254  1.00  0.00     0.059 C 
BRANCH  12  13
ATOM     13  S   UNL A   1      32.310  21.223  24.752  1.00  0.00    -0.152 SA
BRANCH  13  14
ATOM     14  C   UNL A   1      32.557  19.451  24.311  1.00  0.00     0.131 C 
BRANCH  14  15
ATOM     15  C   UNL A   1      32.694  18.406  25.471  1.00  0.00     0.272 C 
BRANCH  15  16
ATOM     16  N   UNL A   1      33.702  17.332  25.339  1.00  0.00    -0.339 N 
ATOM     17  C   UNL A   1      33.138  15.993  25.548  1.00  0.00     0.332 C 
ATOM     18  C   UNL A   1      34.380  17.393  24.071  1.00  0.00     0.332 C 
ATOM     19  H   UNL A   1      34.382  17.493  26.082  1.00  0.00     0.347 HD
ENDBRANCH  15  16
ENDBRANCH  14  15
ENDBRANCH  13  14
ENDBRANCH  12  13
ENDBRANCH   3   6
ENDBRANCH   1   2
BRANCH   1  20
ATOM     20  C   UNL A   1      37.931  19.459  24.942  1.00  0.00     0.042 C 
BRANCH  20  21
ATOM     21  C   UNL A   1      39.146  19.965  25.724  1.00  0.00     0.118 C 
BRANCH  21  22
ATOM     22  N   UNL A   1      40.208  18.977  25.867  1.00  0.00    -0.352 N 
ATOM     23  C   UNL A   1      41.546  19.129  26.127  1.00  0.00     0.251 C 
ATOM     24  H   UNL A   1      39.914  18.043  25.759  1.00  0.00     0.163 HD
ATOM     25  O   UNL A   1      42.286  18.145  26.076  1.00  0.00    -0.269 OA
BRANCH  23  26
ATOM     26  C   UNL A   1      42.120  20.454  26.439  1.00  0.00     0.039 A 
ATOM     27  C   UNL A   1      42.510  21.281  25.381  1.00  0.00     0.014 A 
ATOM     28  C   UNL A   1      42.302  20.878  27.757  1.00  0.00     0.014 A 
ATOM     29  C   UNL A   1      43.014  22.556  25.644  1.00  0.00     0.010 A 
ATOM     30  C   UNL A   1      42.726  22.180  28.016  1.00  0.00     0.010 A 
ATOM     31  C   UNL A   1      43.088  23.034  26.963  1.00  0.00    -0.014 A 
BRANCH  31  32
ATOM     32  C   UNL A   1      43.533  24.422  27.250  1.00  0.00     0.031 A 
ATOM     33  C   UNL A   1      42.544  25.466  27.697  1.00  0.00     0.074 A 
ATOM     34  C   UNL A   1      44.825  24.759  27.061  1.00  0.00     0.049 A 
ATOM     35  N   UNL A   1      42.747  26.731  27.970  1.00  0.00    -0.248 NA
ATOM     36  C   UNL A   1      41.142  25.041  27.829  1.00  0.00     0.031 C 
ATOM     37  C   UNL A   1      45.876  23.854  26.589  1.00  0.00     0.029 A 
ATOM     38  N   UNL A   1      45.474  25.954  27.241  1.00  0.00    -0.354 N 
ATOM     39  C   UNL A   1      41.500  27.252  28.293  1.00  0.00     0.074 A 
ATOM     40  C   UNL A   1      40.540  26.184  28.125  1.00  0.00     0.031 C 
ATOM     41  C   UNL A   1      47.043  24.516  26.555  1.00  0.00     0.029 A 
ATOM     42  C   UNL A   1      46.818  25.900  26.956  1.00  0.00     0.049 A 
ATOM     43  H   UNL A   1      45.021  26.773  27.545  1.00  0.00     0.167 HD
ATOM     44  C   UNL A   1      41.183  28.500  28.712  1.00  0.00     0.031 A 
ATOM     45  C   UNL A   1      47.764  26.856  27.011  1.00  0.00     0.031 A 
ATOM     46  C   UNL A   1      42.139  29.564  28.881  1.00  0.00     0.049 A 
ATOM     47  C   UNL A   1      47.384  28.240  27.462  1.00  0.00     0.074 A 
ATOM     48  C   UNL A   1      41.925  30.848  29.350  1.00  0.00     0.029 A 
ATOM     49  N   UNL A   1      43.489  29.467  28.582  1.00  0.00    -0.354 N 
ATOM     50  N   UNL A   1      46.212  28.695  27.834  1.00  0.00    -0.248 NA
ATOM     51  C   UNL A   1      48.463  29.237  27.513  1.00  0.00     0.031 C 
ATOM     52  C   UNL A   1      43.134  31.547  29.277  1.00  0.00     0.029 A 
ATOM     53  C   UNL A   1      44.116  30.676  28.831  1.00  0.00     0.049 A 
ATOM     54  H   UNL A   1      43.936  28.657  28.243  1.00  0.00     0.167 HD
ATOM     55  C   UNL A   1      46.419  30.020  28.198  1.00  0.00     0.074 A 
ATOM     56  C   UNL A   1      47.831  30.288  28.016  1.00  0.00     0.031 C 
ATOM     57  C   UNL A   1      45.522  30.930  28.648  1.00  0.00     0.031 A 
BRANCH  44  58
ATOM     58  C   UNL A   1      39.736  28.788  29.009  1.00  0.00    -0.014 A 
ATOM     59  C   UNL A   1      39.210  28.625  30.301  1.00  0.00     0.009 A 
ATOM     60  C   UNL A   1      38.894  29.263  27.992  1.00  0.00     0.009 A 
ATOM     61  C   UNL A   1      37.862  28.891  30.557  1.00  0.00     0.001 A 
ATOM     62  C   UNL A   1      37.556  29.561  28.258  1.00  0.00     0.001 A 
ATOM     63  C   UNL A   1      37.039  29.364  29.537  1.00  0.00     0.000 A 
ENDBRANCH  44  58
BRANCH  45  64
ATOM     64  C   UNL A   1      49.171  26.536  26.649  1.00  0.00    -0.014 A 
ATOM     65  C   UNL A   1      50.073  26.080  27.621  1.00  0.00     0.009 A 
ATOM     66  C   UNL A   1      49.623  26.696  25.329  1.00  0.00     0.009 A 
ATOM     67  C   UNL A   1      51.405  25.819  27.288  1.00  0.00     0.001 A 
ATOM     68  C   UNL A   1      50.947  26.405  24.992  1.00  0.00     0.001 A 
ATOM     69  C   UNL A   1      51.839  25.978  25.973  1.00  0.00     0.000 A 
ENDBRANCH  45  64
BRANCH  57  70
ATOM     70  C   UNL A   1      46.046  32.288  29.025  1.00  0.00    -0.014 A 
ATOM     71  C   UNL A   1      46.521  32.561  30.318  1.00  0.00     0.009 A 
ATOM     72  C   UNL A   1      46.097  33.301  28.055  1.00  0.00     0.009 A 
ATOM     73  C   UNL A   1      47.001  33.833  30.639  1.00  0.00     0.001 A 
ATOM     74  C   UNL A   1      46.609  34.561  28.368  1.00  0.00     0.001 A 
ATOM     75  C   UNL A   1      47.051  34.829  29.663  1.00  0.00     0.000 A 
ENDBRANCH  57  70
ENDBRANCH  31  32
ENDBRANCH  23  26
ENDBRANCH  21  22
ENDBRANCH  20  21
ENDBRANCH   1  20
TORSDOF 14
ENDMDL
