MODEL 1
REMARK VINA RESULT:     -12.7      0.000      0.000
REMARK SMILES C[C@H](C(=O)NCCCNC(=O)c1ccc(-c2c3nc(c(-c4ccccc4)c4ccc([nH]4)c(-c4ccccc4)c4nc(c(-c5ccccc5)c5ccc2[nH]5)C=C4)C=C3)cc1)N1C(=O)C[C@@H](N2C(=O)/C(=C/c3ccccc3)SC2=S)C1=O
REMARK SMILES IDX 6 1 5 2 3 3 4 4 2 6 1 7 60 8 61 9 79 10 62 11 63 12 64 13
REMARK SMILES IDX 80 14 65 15 66 16 77 17 67 18 68 19 76 20 78 21 69 22 70 23
REMARK SMILES IDX 71 24 75 25 72 26 74 27 73 28 7 29 8 30 9 31 10 32 11 34
REMARK SMILES IDX 12 35 13 36 59 37 14 38 58 39 15 40 16 41 17 42 52 43 18 44
REMARK SMILES IDX 57 45 51 46 53 47 19 48 56 49 50 50 49 51 20 53 42 54 27 55
REMARK SMILES IDX 41 56 28 57 31 58 40 59 54 60 29 61 30 62 39 64 55 65 32 66
REMARK SMILES IDX 21 67 22 68 26 69 23 70 25 71 24 72 43 73 44 74 48 75 45 76
REMARK SMILES IDX 47 77 46 78 33 79 34 80 38 81 35 82 37 83 36 84
REMARK H PARENT 5 5 9 33 53 52 31 63
REMARK Flexibility Score: inf
ROOT
ATOM      1  C   UNL A   1      36.938  22.218  25.568  1.00  0.00     0.117 C 
ENDROOT
BRANCH   1   2
ATOM      2  N   UNL A   1      35.869  21.907  26.501  1.00  0.00    -0.354 N 
ATOM      3  C   UNL A   1      34.661  21.307  26.290  1.00  0.00     0.243 C 
ATOM      4  O   UNL A   1      33.895  21.246  27.255  1.00  0.00    -0.273 OA
ATOM      5  H   UNL A   1      36.043  22.173  27.433  1.00  0.00     0.163 HD
BRANCH   3   6
ATOM      6  C   UNL A   1      34.265  20.819  24.888  1.00  0.00     0.179 C 
ATOM      7  C   UNL A   1      33.650  19.421  24.955  1.00  0.00     0.042 C 
BRANCH   6   8
ATOM      8  N   UNL A   1      33.399  21.815  24.254  1.00  0.00    -0.268 N 
ATOM      9  C   UNL A   1      32.077  21.949  24.574  1.00  0.00     0.232 C 
ATOM     10  C   UNL A   1      33.800  22.744  23.330  1.00  0.00     0.253 C 
ATOM     11  O   UNL A   1      31.448  21.302  25.399  1.00  0.00    -0.274 OA
ATOM     12  C   UNL A   1      31.443  22.985  23.698  1.00  0.00     0.136 C 
ATOM     13  C   UNL A   1      32.626  23.657  23.028  1.00  0.00     0.191 C 
ATOM     14  O   UNL A   1      34.921  22.919  22.877  1.00  0.00    -0.272 OA
BRANCH  13  15
ATOM     15  N   UNL A   1      32.905  25.024  23.501  1.00  0.00    -0.280 N 
ATOM     16  C   UNL A   1      33.136  25.241  24.848  1.00  0.00     0.266 C 
ATOM     17  C   UNL A   1      32.940  26.143  22.693  1.00  0.00     0.149 C 
ATOM     18  O   UNL A   1      33.173  24.375  25.713  1.00  0.00    -0.268 OA
ATOM     19  C   UNL A   1      33.299  26.685  25.131  1.00  0.00     0.081 C 
ATOM     20  S   UNL A   1      33.249  27.576  23.668  1.00  0.00    -0.054 SA
ATOM     21  S   UNL A   1      32.674  26.240  21.050  1.00  0.00    -0.052 S 
ATOM     22  C   UNL A   1      33.427  27.132  26.387  1.00  0.00     0.029 C 
BRANCH  22  23
ATOM     23  C   UNL A   1      33.499  28.535  26.800  1.00  0.00    -0.024 A 
ATOM     24  C   UNL A   1      32.349  29.329  26.761  1.00  0.00     0.008 A 
ATOM     25  C   UNL A   1      34.720  29.110  27.177  1.00  0.00     0.008 A 
ATOM     26  C   UNL A   1      32.414  30.677  27.123  1.00  0.00     0.001 A 
ATOM     27  C   UNL A   1      34.783  30.455  27.538  1.00  0.00     0.001 A 
ATOM     28  C   UNL A   1      33.630  31.238  27.514  1.00  0.00     0.000 A 
ENDBRANCH  22  23
ENDBRANCH  13  15
ENDBRANCH   6   8
ENDBRANCH   3   6
ENDBRANCH   1   2
BRANCH   1  29
ATOM     29  C   UNL A   1      37.273  23.707  25.577  1.00  0.00     0.042 C 
BRANCH  29  30
ATOM     30  C   UNL A   1      38.373  24.087  26.563  1.00  0.00     0.118 C 
BRANCH  30  31
ATOM     31  N   UNL A   1      39.647  24.331  25.907  1.00  0.00    -0.352 N 
ATOM     32  C   UNL A   1      40.569  25.328  26.083  1.00  0.00     0.251 C 
ATOM     33  H   UNL A   1      39.887  23.669  25.219  1.00  0.00     0.163 HD
ATOM     34  O   UNL A   1      41.481  25.446  25.267  1.00  0.00    -0.269 OA
BRANCH  32  35
ATOM     35  C   UNL A   1      40.484  26.267  27.224  1.00  0.00     0.039 A 
ATOM     36  C   UNL A   1      41.190  27.471  27.137  1.00  0.00     0.014 A 
ATOM     37  C   UNL A   1      39.783  25.956  28.392  1.00  0.00     0.014 A 
ATOM     38  C   UNL A   1      41.158  28.374  28.200  1.00  0.00     0.010 A 
ATOM     39  C   UNL A   1      39.686  26.895  29.420  1.00  0.00     0.010 A 
ATOM     40  C   UNL A   1      40.381  28.110  29.340  1.00  0.00    -0.014 A 
BRANCH  40  41
ATOM     41  C   UNL A   1      40.287  29.114  30.429  1.00  0.00     0.031 A 
ATOM     42  C   UNL A   1      39.241  30.195  30.401  1.00  0.00     0.074 A 
ATOM     43  C   UNL A   1      41.164  29.055  31.451  1.00  0.00     0.049 A 
ATOM     44  N   UNL A   1      38.980  31.112  31.299  1.00  0.00    -0.248 NA
ATOM     45  C   UNL A   1      38.388  30.270  29.205  1.00  0.00     0.031 C 
ATOM     46  C   UNL A   1      42.256  28.086  31.571  1.00  0.00     0.029 A 
ATOM     47  N   UNL A   1      41.265  29.813  32.590  1.00  0.00    -0.354 N 
ATOM     48  C   UNL A   1      37.941  31.871  30.777  1.00  0.00     0.074 A 
ATOM     49  C   UNL A   1      37.657  31.345  29.460  1.00  0.00     0.031 C 
ATOM     50  C   UNL A   1      42.884  28.275  32.743  1.00  0.00     0.029 A 
ATOM     51  C   UNL A   1      42.266  29.401  33.436  1.00  0.00     0.049 A 
ATOM     52  H   UNL A   1      40.676  30.578  32.783  1.00  0.00     0.167 HD
ATOM     53  C   UNL A   1      37.268  32.899  31.349  1.00  0.00     0.031 A 
ATOM     54  C   UNL A   1      42.643  29.871  34.639  1.00  0.00     0.031 A 
ATOM     55  C   UNL A   1      37.555  33.427  32.658  1.00  0.00     0.049 A 
ATOM     56  C   UNL A   1      41.889  31.020  35.245  1.00  0.00     0.074 A 
ATOM     57  C   UNL A   1      36.898  34.434  33.345  1.00  0.00     0.029 A 
ATOM     58  N   UNL A   1      38.588  32.995  33.475  1.00  0.00    -0.354 N 
ATOM     59  N   UNL A   1      40.855  31.674  34.772  1.00  0.00    -0.248 NA
ATOM     60  C   UNL A   1      42.346  31.484  36.562  1.00  0.00     0.031 C 
ATOM     61  C   UNL A   1      37.573  34.652  34.552  1.00  0.00     0.029 A 
ATOM     62  C   UNL A   1      38.608  33.736  34.646  1.00  0.00     0.049 A 
ATOM     63  H   UNL A   1      39.217  32.270  33.256  1.00  0.00     0.167 HD
ATOM     64  C   UNL A   1      40.524  32.610  35.742  1.00  0.00     0.074 A 
ATOM     65  C   UNL A   1      41.448  32.419  36.841  1.00  0.00     0.031 C 
ATOM     66  C   UNL A   1      39.544  33.547  35.725  1.00  0.00     0.031 A 
BRANCH  53  67
ATOM     67  C   UNL A   1      36.157  33.530  30.552  1.00  0.00    -0.014 A 
ATOM     68  C   UNL A   1      36.371  33.998  29.245  1.00  0.00     0.009 A 
ATOM     69  C   UNL A   1      34.867  33.622  31.099  1.00  0.00     0.009 A 
ATOM     70  C   UNL A   1      35.329  34.580  28.520  1.00  0.00     0.001 A 
ATOM     71  C   UNL A   1      33.820  34.175  30.360  1.00  0.00     0.001 A 
ATOM     72  C   UNL A   1      34.053  34.663  29.075  1.00  0.00     0.000 A 
ENDBRANCH  53  67
BRANCH  54  73
ATOM     73  C   UNL A   1      43.781  29.242  35.361  1.00  0.00    -0.014 A 
ATOM     74  C   UNL A   1      45.094  29.695  35.160  1.00  0.00     0.009 A 
ATOM     75  C   UNL A   1      43.560  28.180  36.251  1.00  0.00     0.009 A 
ATOM     76  C   UNL A   1      46.164  29.076  35.811  1.00  0.00     0.001 A 
ATOM     77  C   UNL A   1      44.627  27.585  36.927  1.00  0.00     0.001 A 
ATOM     78  C   UNL A   1      45.929  28.027  36.698  1.00  0.00     0.000 A 
ENDBRANCH  54  73
BRANCH  66  79
ATOM     79  C   UNL A   1      39.414  34.418  36.944  1.00  0.00    -0.014 A 
ATOM     80  C   UNL A   1      39.912  35.731  36.963  1.00  0.00     0.009 A 
ATOM     81  C   UNL A   1      38.777  33.919  38.091  1.00  0.00     0.009 A 
ATOM     82  C   UNL A   1      39.822  36.505  38.121  1.00  0.00     0.001 A 
ATOM     83  C   UNL A   1      38.656  34.707  39.236  1.00  0.00     0.001 A 
ATOM     84  C   UNL A   1      39.192  35.994  39.255  1.00  0.00     0.000 A 
ENDBRANCH  66  79
ENDBRANCH  40  41
ENDBRANCH  32  35
ENDBRANCH  30  31
ENDBRANCH  29  30
ENDBRANCH   1  29
TORSDOF 13
ENDMDL
MODEL 2
REMARK VINA RESULT:     -12.6      2.361      8.010
REMARK SMILES C[C@H](C(=O)NCCCNC(=O)c1ccc(-c2c3nc(c(-c4ccccc4)c4ccc([nH]4)c(-c4ccccc4)c4nc(c(-c5ccccc5)c5ccc2[nH]5)C=C4)C=C3)cc1)N1C(=O)C[C@@H](N2C(=O)/C(=C/c3ccccc3)SC2=S)C1=O
REMARK SMILES IDX 6 1 5 2 3 3 4 4 2 6 1 7 60 8 61 9 79 10 62 11 63 12 64 13
REMARK SMILES IDX 80 14 65 15 66 16 77 17 67 18 68 19 76 20 78 21 69 22 70 23
REMARK SMILES IDX 71 24 75 25 72 26 74 27 73 28 7 29 8 30 9 31 10 32 11 34
REMARK SMILES IDX 12 35 13 36 59 37 14 38 58 39 15 40 16 41 17 42 52 43 18 44
REMARK SMILES IDX 57 45 51 46 53 47 19 48 56 49 50 50 49 51 20 53 42 54 27 55
REMARK SMILES IDX 41 56 28 57 31 58 40 59 54 60 29 61 30 62 39 64 55 65 32 66
REMARK SMILES IDX 21 67 22 68 26 69 23 70 25 71 24 72 43 73 44 74 48 75 45 76
REMARK SMILES IDX 47 77 46 78 33 79 34 80 38 81 35 82 37 83 36 84
REMARK H PARENT 5 5 9 33 53 52 31 63
REMARK Flexibility Score: inf
ROOT
ATOM      1  C   UNL A   1      31.355  30.790  25.985  1.00  0.00     0.117 C 
ENDROOT
BRANCH   1   2
ATOM      2  N   UNL A   1      32.632  30.197  26.343  1.00  0.00    -0.354 N 
ATOM      3  C   UNL A   1      33.355  29.220  25.723  1.00  0.00     0.243 C 
ATOM      4  O   UNL A   1      34.377  28.836  26.297  1.00  0.00    -0.273 OA
ATOM      5  H   UNL A   1      33.039  30.557  27.164  1.00  0.00     0.163 HD
BRANCH   3   6
ATOM      6  C   UNL A   1      32.851  28.583  24.418  1.00  0.00     0.179 C 
ATOM      7  C   UNL A   1      34.023  28.217  23.507  1.00  0.00     0.042 C 
BRANCH   6   8
ATOM      8  N   UNL A   1      31.974  27.455  24.736  1.00  0.00    -0.268 N 
ATOM      9  C   UNL A   1      30.705  27.349  24.238  1.00  0.00     0.232 C 
ATOM     10  C   UNL A   1      32.317  26.372  25.502  1.00  0.00     0.253 C 
ATOM     11  O   UNL A   1      30.139  28.129  23.485  1.00  0.00    -0.274 OA
ATOM     12  C   UNL A   1      30.033  26.140  24.812  1.00  0.00     0.136 C 
ATOM     13  C   UNL A   1      31.166  25.383  25.476  1.00  0.00     0.191 C 
ATOM     14  O   UNL A   1      33.387  26.144  26.044  1.00  0.00    -0.272 OA
BRANCH  13  15
ATOM     15  N   UNL A   1      31.568  24.147  24.783  1.00  0.00    -0.280 N 
ATOM     16  C   UNL A   1      31.553  22.947  25.474  1.00  0.00     0.266 C 
ATOM     17  C   UNL A   1      31.989  24.084  23.470  1.00  0.00     0.149 C 
ATOM     18  O   UNL A   1      31.188  22.797  26.632  1.00  0.00    -0.268 OA
ATOM     19  C   UNL A   1      32.080  21.847  24.635  1.00  0.00     0.081 C 
ATOM     20  S   UNL A   1      32.428  22.428  23.061  1.00  0.00    -0.054 SA
ATOM     21  S   UNL A   1      32.157  25.332  22.378  1.00  0.00    -0.052 S 
ATOM     22  C   UNL A   1      32.253  20.618  25.138  1.00  0.00     0.029 C 
BRANCH  22  23
ATOM     23  C   UNL A   1      32.852  19.478  24.441  1.00  0.00    -0.024 A 
ATOM     24  C   UNL A   1      32.153  18.856  23.402  1.00  0.00     0.008 A 
ATOM     25  C   UNL A   1      34.092  18.963  24.841  1.00  0.00     0.008 A 
ATOM     26  C   UNL A   1      32.702  17.748  22.752  1.00  0.00     0.001 A 
ATOM     27  C   UNL A   1      34.638  17.857  24.191  1.00  0.00     0.001 A 
ATOM     28  C   UNL A   1      33.945  17.252  23.145  1.00  0.00     0.000 A 
ENDBRANCH  22  23
ENDBRANCH  13  15
ENDBRANCH   6   8
ENDBRANCH   3   6
ENDBRANCH   1   2
BRANCH   1  29
ATOM     29  C   UNL A   1      31.248  32.230  26.483  1.00  0.00     0.042 C 
BRANCH  29  30
ATOM     30  C   UNL A   1      32.542  32.775  27.080  1.00  0.00     0.118 C 
BRANCH  30  31
ATOM     31  N   UNL A   1      32.379  34.112  27.626  1.00  0.00    -0.352 N 
ATOM     32  C   UNL A   1      33.028  34.746  28.653  1.00  0.00     0.251 C 
ATOM     33  H   UNL A   1      31.687  34.654  27.184  1.00  0.00     0.163 HD
ATOM     34  O   UNL A   1      32.580  35.810  29.073  1.00  0.00    -0.269 OA
BRANCH  32  35
ATOM     35  C   UNL A   1      34.245  34.172  29.270  1.00  0.00     0.039 A 
ATOM     36  C   UNL A   1      34.089  33.362  30.399  1.00  0.00     0.014 A 
ATOM     37  C   UNL A   1      35.527  34.468  28.800  1.00  0.00     0.014 A 
ATOM     38  C   UNL A   1      35.211  32.820  31.027  1.00  0.00     0.010 A 
ATOM     39  C   UNL A   1      36.642  33.861  29.380  1.00  0.00     0.010 A 
ATOM     40  C   UNL A   1      36.497  33.040  30.506  1.00  0.00    -0.014 A 
BRANCH  40  41
ATOM     41  C   UNL A   1      37.677  32.392  31.133  1.00  0.00     0.031 A 
ATOM     42  C   UNL A   1      38.195  32.851  32.469  1.00  0.00     0.074 A 
ATOM     43  C   UNL A   1      38.292  31.384  30.484  1.00  0.00     0.049 A 
ATOM     44  N   UNL A   1      39.173  32.355  33.186  1.00  0.00    -0.248 NA
ATOM     45  C   UNL A   1      37.547  34.026  33.072  1.00  0.00     0.031 C 
ATOM     46  C   UNL A   1      37.917  30.878  29.161  1.00  0.00     0.029 A 
ATOM     47  N   UNL A   1      39.350  30.593  30.856  1.00  0.00    -0.354 N 
ATOM     48  C   UNL A   1      39.259  33.158  34.318  1.00  0.00     0.074 A 
ATOM     49  C   UNL A   1      38.274  34.206  34.165  1.00  0.00     0.031 C 
ATOM     50  C   UNL A   1      38.698  29.830  28.855  1.00  0.00     0.029 A 
ATOM     51  C   UNL A   1      39.653  29.616  29.937  1.00  0.00     0.049 A 
ATOM     52  H   UNL A   1      39.844  30.714  31.698  1.00  0.00     0.167 HD
ATOM     53  C   UNL A   1      40.068  33.024  35.395  1.00  0.00     0.031 A 
ATOM     54  C   UNL A   1      40.590  28.651  29.965  1.00  0.00     0.031 A 
ATOM     55  C   UNL A   1      41.054  31.984  35.545  1.00  0.00     0.049 A 
ATOM     56  C   UNL A   1      41.483  28.532  31.167  1.00  0.00     0.074 A 
ATOM     57  C   UNL A   1      41.888  31.734  36.621  1.00  0.00     0.029 A 
ATOM     58  N   UNL A   1      41.343  31.026  34.585  1.00  0.00    -0.354 N 
ATOM     59  N   UNL A   1      41.496  29.250  32.264  1.00  0.00    -0.248 NA
ATOM     60  C   UNL A   1      42.482  27.454  31.138  1.00  0.00     0.031 C 
ATOM     61  C   UNL A   1      42.725  30.662  36.287  1.00  0.00     0.029 A 
ATOM     62  C   UNL A   1      42.365  30.202  35.031  1.00  0.00     0.049 A 
ATOM     63  H   UNL A   1      40.891  30.943  33.715  1.00  0.00     0.167 HD
ATOM     64  C   UNL A   1      42.486  28.698  33.065  1.00  0.00     0.074 A 
ATOM     65  C   UNL A   1      43.030  27.568  32.340  1.00  0.00     0.031 C 
ATOM     66  C   UNL A   1      42.910  29.092  34.292  1.00  0.00     0.031 A 
BRANCH  53  67
ATOM     67  C   UNL A   1      39.928  34.038  36.500  1.00  0.00    -0.014 A 
ATOM     68  C   UNL A   1      40.614  35.264  36.455  1.00  0.00     0.009 A 
ATOM     69  C   UNL A   1      39.068  33.784  37.579  1.00  0.00     0.009 A 
ATOM     70  C   UNL A   1      40.471  36.194  37.488  1.00  0.00     0.001 A 
ATOM     71  C   UNL A   1      38.903  34.729  38.594  1.00  0.00     0.001 A 
ATOM     72  C   UNL A   1      39.612  35.929  38.553  1.00  0.00     0.000 A 
ENDBRANCH  53  67
BRANCH  54  73
ATOM     73  C   UNL A   1      40.718  27.705  28.824  1.00  0.00    -0.014 A 
ATOM     74  C   UNL A   1      39.970  26.518  28.791  1.00  0.00     0.009 A 
ATOM     75  C   UNL A   1      41.596  27.982  27.765  1.00  0.00     0.009 A 
ATOM     76  C   UNL A   1      40.122  25.614  27.737  1.00  0.00     0.001 A 
ATOM     77  C   UNL A   1      41.722  27.093  26.696  1.00  0.00     0.001 A 
ATOM     78  C   UNL A   1      40.992  25.905  26.688  1.00  0.00     0.000 A 
ENDBRANCH  54  73
BRANCH  66  79
ATOM     79  C   UNL A   1      44.000  28.276  34.929  1.00  0.00    -0.014 A 
ATOM     80  C   UNL A   1      43.708  27.157  35.724  1.00  0.00     0.009 A 
ATOM     81  C   UNL A   1      45.344  28.630  34.726  1.00  0.00     0.009 A 
ATOM     82  C   UNL A   1      44.735  26.442  36.344  1.00  0.00     0.001 A 
ATOM     83  C   UNL A   1      46.370  27.892  35.317  1.00  0.00     0.001 A 
ATOM     84  C   UNL A   1      46.064  26.808  36.138  1.00  0.00     0.000 A 
ENDBRANCH  66  79
ENDBRANCH  40  41
ENDBRANCH  32  35
ENDBRANCH  30  31
ENDBRANCH  29  30
ENDBRANCH   1  29
TORSDOF 13
ENDMDL
MODEL 3
REMARK VINA RESULT:     -12.6      4.111      8.005
REMARK SMILES C[C@H](C(=O)NCCCNC(=O)c1ccc(-c2c3nc(c(-c4ccccc4)c4ccc([nH]4)c(-c4ccccc4)c4nc(c(-c5ccccc5)c5ccc2[nH]5)C=C4)C=C3)cc1)N1C(=O)C[C@@H](N2C(=O)/C(=C/c3ccccc3)SC2=S)C1=O
REMARK SMILES IDX 6 1 5 2 3 3 4 4 2 6 1 7 60 8 61 9 79 10 62 11 63 12 64 13
REMARK SMILES IDX 80 14 65 15 66 16 77 17 67 18 68 19 76 20 78 21 69 22 70 23
REMARK SMILES IDX 71 24 75 25 72 26 74 27 73 28 7 29 8 30 9 31 10 32 11 34
REMARK SMILES IDX 12 35 13 36 59 37 14 38 58 39 15 40 16 41 17 42 52 43 18 44
REMARK SMILES IDX 57 45 51 46 53 47 19 48 56 49 50 50 49 51 20 53 42 54 27 55
REMARK SMILES IDX 41 56 28 57 31 58 40 59 54 60 29 61 30 62 39 64 55 65 32 66
REMARK SMILES IDX 21 67 22 68 26 69 23 70 25 71 24 72 43 73 44 74 48 75 45 76
REMARK SMILES IDX 47 77 46 78 33 79 34 80 38 81 35 82 37 83 36 84
REMARK H PARENT 5 5 9 33 53 52 31 63
REMARK Flexibility Score: inf
ROOT
ATOM      1  C   UNL A   1      35.710  20.790  24.871  1.00  0.00     0.117 C 
ENDROOT
BRANCH   1   2
ATOM      2  N   UNL A   1      35.019  20.951  26.139  1.00  0.00    -0.354 N 
ATOM      3  C   UNL A   1      33.785  21.467  26.411  1.00  0.00     0.243 C 
ATOM      4  O   UNL A   1      33.476  21.569  27.601  1.00  0.00    -0.273 OA
ATOM      5  H   UNL A   1      35.522  20.639  26.926  1.00  0.00     0.163 HD
BRANCH   3   6
ATOM      6  C   UNL A   1      32.880  21.972  25.276  1.00  0.00     0.179 C 
ATOM      7  C   UNL A   1      31.425  22.052  25.739  1.00  0.00     0.042 C 
BRANCH   6   8
ATOM      8  N   UNL A   1      33.408  23.236  24.761  1.00  0.00    -0.268 N 
ATOM      9  C   UNL A   1      33.716  23.420  23.441  1.00  0.00     0.232 C 
ATOM     10  C   UNL A   1      33.604  24.375  25.496  1.00  0.00     0.253 C 
ATOM     11  O   UNL A   1      33.598  22.607  22.535  1.00  0.00    -0.274 OA
ATOM     12  C   UNL A   1      34.314  24.778  23.242  1.00  0.00     0.136 C 
ATOM     13  C   UNL A   1      34.042  25.483  24.557  1.00  0.00     0.191 C 
ATOM     14  O   UNL A   1      33.377  24.551  26.684  1.00  0.00    -0.272 OA
BRANCH  13  15
ATOM     15  N   UNL A   1      33.013  26.535  24.489  1.00  0.00    -0.280 N 
ATOM     16  C   UNL A   1      32.015  26.444  23.534  1.00  0.00     0.266 C 
ATOM     17  C   UNL A   1      32.967  27.644  25.308  1.00  0.00     0.149 C 
ATOM     18  O   UNL A   1      31.872  25.525  22.738  1.00  0.00    -0.268 OA
ATOM     19  C   UNL A   1      31.141  27.639  23.567  1.00  0.00     0.081 C 
ATOM     20  S   UNL A   1      31.612  28.672  24.851  1.00  0.00    -0.054 SA
ATOM     21  S   UNL A   1      34.023  28.074  26.525  1.00  0.00    -0.052 S 
ATOM     22  C   UNL A   1      30.172  27.811  22.658  1.00  0.00     0.029 C 
BRANCH  22  23
ATOM     23  C   UNL A   1      29.310  28.987  22.529  1.00  0.00    -0.024 A 
ATOM     24  C   UNL A   1      29.758  30.099  21.809  1.00  0.00     0.008 A 
ATOM     25  C   UNL A   1      28.065  29.039  23.169  1.00  0.00     0.008 A 
ATOM     26  C   UNL A   1      28.957  31.239  21.707  1.00  0.00     0.001 A 
ATOM     27  C   UNL A   1      27.266  30.177  23.065  1.00  0.00     0.001 A 
ATOM     28  C   UNL A   1      27.711  31.275  22.332  1.00  0.00     0.000 A 
ENDBRANCH  22  23
ENDBRANCH  13  15
ENDBRANCH   6   8
ENDBRANCH   3   6
ENDBRANCH   1   2
BRANCH   1  29
ATOM     29  C   UNL A   1      36.882  19.820  24.993  1.00  0.00     0.042 C 
BRANCH  29  30
ATOM     30  C   UNL A   1      38.218  20.498  25.280  1.00  0.00     0.118 C 
BRANCH  30  31
ATOM     31  N   UNL A   1      39.298  19.542  25.458  1.00  0.00    -0.352 N 
ATOM     32  C   UNL A   1      40.580  19.711  25.911  1.00  0.00     0.251 C 
ATOM     33  H   UNL A   1      39.070  18.616  25.212  1.00  0.00     0.163 HD
ATOM     34  O   UNL A   1      41.383  18.790  25.782  1.00  0.00    -0.269 OA
BRANCH  32  35
ATOM     35  C   UNL A   1      41.017  20.978  26.539  1.00  0.00     0.039 A 
ATOM     36  C   UNL A   1      41.528  21.980  25.710  1.00  0.00     0.014 A 
ATOM     37  C   UNL A   1      40.993  21.169  27.924  1.00  0.00     0.014 A 
ATOM     38  C   UNL A   1      41.975  23.180  26.262  1.00  0.00     0.010 A 
ATOM     39  C   UNL A   1      41.364  22.399  28.467  1.00  0.00     0.010 A 
ATOM     40  C   UNL A   1      41.869  23.415  27.644  1.00  0.00    -0.014 A 
BRANCH  40  41
ATOM     41  C   UNL A   1      42.271  24.727  28.211  1.00  0.00     0.031 A 
ATOM     42  C   UNL A   1      43.706  25.014  28.561  1.00  0.00     0.074 A 
ATOM     43  C   UNL A   1      41.327  25.665  28.422  1.00  0.00     0.049 A 
ATOM     44  N   UNL A   1      44.237  26.126  29.006  1.00  0.00    -0.248 NA
ATOM     45  C   UNL A   1      44.667  23.910  28.410  1.00  0.00     0.031 C 
ATOM     46  C   UNL A   1      39.894  25.493  28.170  1.00  0.00     0.029 A 
ATOM     47  N   UNL A   1      41.433  26.955  28.878  1.00  0.00    -0.354 N 
ATOM     48  C   UNL A   1      45.588  25.854  29.191  1.00  0.00     0.074 A 
ATOM     49  C   UNL A   1      45.784  24.458  28.865  1.00  0.00     0.031 C 
ATOM     50  C   UNL A   1      39.262  26.649  28.426  1.00  0.00     0.029 A 
ATOM     51  C   UNL A   1      40.235  27.629  28.897  1.00  0.00     0.049 A 
ATOM     52  H   UNL A   1      42.284  27.358  29.164  1.00  0.00     0.167 HD
ATOM     53  C   UNL A   1      46.579  26.694  29.575  1.00  0.00     0.031 A 
ATOM     54  C   UNL A   1      39.951  28.897  29.247  1.00  0.00     0.031 A 
ATOM     55  C   UNL A   1      46.382  28.083  29.905  1.00  0.00     0.049 A 
ATOM     56  C   UNL A   1      41.067  29.803  29.682  1.00  0.00     0.074 A 
ATOM     57  C   UNL A   1      47.331  29.028  30.257  1.00  0.00     0.029 A 
ATOM     58  N   UNL A   1      45.153  28.722  29.930  1.00  0.00    -0.354 N 
ATOM     59  N   UNL A   1      42.351  29.552  29.773  1.00  0.00    -0.248 NA
ATOM     60  C   UNL A   1      40.693  31.177  30.047  1.00  0.00     0.031 C 
ATOM     61  C   UNL A   1      46.667  30.223  30.556  1.00  0.00     0.029 A 
ATOM     62  C   UNL A   1      45.314  30.042  30.323  1.00  0.00     0.049 A 
ATOM     63  H   UNL A   1      44.292  28.302  29.704  1.00  0.00     0.167 HD
ATOM     64  C   UNL A   1      42.940  30.741  30.183  1.00  0.00     0.074 A 
ATOM     65  C   UNL A   1      41.877  31.718  30.294  1.00  0.00     0.031 C 
ATOM     66  C   UNL A   1      44.245  31.000  30.446  1.00  0.00     0.031 A 
BRANCH  53  67
ATOM     67  C   UNL A   1      47.971  26.128  29.669  1.00  0.00    -0.014 A 
ATOM     68  C   UNL A   1      48.767  25.952  28.524  1.00  0.00     0.009 A 
ATOM     69  C   UNL A   1      48.511  25.803  30.924  1.00  0.00     0.009 A 
ATOM     70  C   UNL A   1      50.057  25.427  28.631  1.00  0.00     0.001 A 
ATOM     71  C   UNL A   1      49.813  25.308  31.029  1.00  0.00     0.001 A 
ATOM     72  C   UNL A   1      50.581  25.111  29.883  1.00  0.00     0.000 A 
ENDBRANCH  53  67
BRANCH  54  73
ATOM     73  C   UNL A   1      38.550  29.391  29.182  1.00  0.00    -0.014 A 
ATOM     74  C   UNL A   1      38.053  29.979  28.009  1.00  0.00     0.009 A 
ATOM     75  C   UNL A   1      37.704  29.283  30.297  1.00  0.00     0.009 A 
ATOM     76  C   UNL A   1      36.748  30.477  27.964  1.00  0.00     0.001 A 
ATOM     77  C   UNL A   1      36.390  29.751  30.239  1.00  0.00     0.001 A 
ATOM     78  C   UNL A   1      35.917  30.357  29.076  1.00  0.00     0.000 A 
ENDBRANCH  54  73
BRANCH  66  79
ATOM     79  C   UNL A   1      44.589  32.404  30.858  1.00  0.00    -0.014 A 
ATOM     80  C   UNL A   1      44.899  33.391  29.908  1.00  0.00     0.009 A 
ATOM     81  C   UNL A   1      44.599  32.749  32.219  1.00  0.00     0.009 A 
ATOM     82  C   UNL A   1      45.262  34.676  30.315  1.00  0.00     0.001 A 
ATOM     83  C   UNL A   1      44.926  34.044  32.622  1.00  0.00     0.001 A 
ATOM     84  C   UNL A   1      45.272  35.003  31.670  1.00  0.00     0.000 A 
ENDBRANCH  66  79
ENDBRANCH  40  41
ENDBRANCH  32  35
ENDBRANCH  30  31
ENDBRANCH  29  30
ENDBRANCH   1  29
TORSDOF 13
ENDMDL
