MODEL 1
REMARK VINA RESULT:     -10.4      0.000      0.000
REMARK SMILES CC(C)CN(CC(N)=O)C(=O)N1CC[C@H](C(=O)NCCCNC(=O)c2ccc(-c3c4nc(c(-c5ccccc5)c5ccc([nH]5)c(-c5ccccc5)c5nc(c(-c6ccccc6)c6ccc3[nH]6)C=C5)C=C4)cc2)[C@@H]1C
REMARK SMILES IDX 19 1 18 2 16 3 17 4 15 6 12 7 13 8 73 9 14 10 74 11 10 12
REMARK SMILES IDX 11 13 5 14 4 15 2 16 1 17 3 18 6 19 7 20 8 21 9 22 20 25
REMARK SMILES IDX 21 26 22 27 23 28 24 30 25 31 26 32 72 33 27 34 71 35 28 36
REMARK SMILES IDX 29 37 30 38 65 39 31 40 70 41 64 42 66 43 32 44 69 45 63 46
REMARK SMILES IDX 62 47 33 49 55 50 40 51 54 52 41 53 44 54 53 55 67 56 42 57
REMARK SMILES IDX 43 58 52 60 68 61 45 62 34 63 35 64 39 65 36 66 38 67 37 68
REMARK SMILES IDX 56 69 57 70 61 71 58 72 60 73 59 74 46 75 47 76 51 77 48 78
REMARK SMILES IDX 50 79 49 80
REMARK H PARENT 18 5 8 23 8 24 22 29 66 48 44 59
REMARK Flexibility Score: inf
ROOT
ATOM      1  C   UNL A   1      36.864  20.663  24.657  1.00  0.00     0.117 C 
ENDROOT
BRANCH   1   2
ATOM      2  N   UNL A   1      35.663  20.578  25.475  1.00  0.00    -0.356 N 
ATOM      3  C   UNL A   1      34.421  21.099  25.336  1.00  0.00     0.225 C 
ATOM      4  O   UNL A   1      33.579  20.696  26.150  1.00  0.00    -0.275 OA
ATOM      5  H   UNL A   1      35.776  20.036  26.289  1.00  0.00     0.163 HD
BRANCH   3   6
ATOM      6  C   UNL A   1      34.010  22.182  24.340  1.00  0.00     0.102 C 
ATOM      7  N   UNL A   1      32.499  23.864  25.052  1.00  0.00    -0.321 N 
ATOM      8  C   UNL A   1      31.696  22.741  24.575  1.00  0.00     0.122 C 
ATOM      9  C   UNL A   1      33.924  23.660  24.751  1.00  0.00     0.096 C 
ATOM     10  C   UNL A   1      32.633  21.883  23.754  1.00  0.00     0.037 C 
ATOM     11  C   UNL A   1      34.974  24.064  25.781  1.00  0.00     0.032 C 
BRANCH   7  12
ATOM     12  C   UNL A   1      31.879  24.764  25.880  1.00  0.00     0.320 C 
ATOM     13  O   UNL A   1      31.478  24.370  26.979  1.00  0.00    -0.248 OA
BRANCH  12  14
ATOM     14  N   UNL A   1      31.603  26.037  25.437  1.00  0.00    -0.315 N 
BRANCH  14  15
ATOM     15  C   UNL A   1      31.525  27.098  26.454  1.00  0.00     0.125 C 
BRANCH  15  16
ATOM     16  C   UNL A   1      32.464  28.299  26.167  1.00  0.00     0.002 C 
ATOM     17  C   UNL A   1      32.236  29.491  27.102  1.00  0.00     0.009 C 
ATOM     18  C   UNL A   1      33.926  27.857  26.285  1.00  0.00     0.009 C 
ENDBRANCH  15  16
ENDBRANCH  14  15
BRANCH  14  19
ATOM     19  C   UNL A   1      31.259  26.435  24.071  1.00  0.00     0.221 C 
BRANCH  19  20
ATOM     20  C   UNL A   1      29.779  26.809  23.920  1.00  0.00     0.237 C 
ATOM     21  N   UNL A   1      28.882  25.891  24.392  1.00  0.00    -0.368 N 
ATOM     22  O   UNL A   1      29.373  27.861  23.435  1.00  0.00    -0.273 OA
ATOM     23  H   UNL A   1      29.202  25.046  24.782  1.00  0.00     0.159 HD
ATOM     24  H   UNL A   1      27.916  26.076  24.342  1.00  0.00     0.159 HD
ENDBRANCH  19  20
ENDBRANCH  14  19
ENDBRANCH  12  14
ENDBRANCH   7  12
ENDBRANCH   3   6
ENDBRANCH   1   2
BRANCH   1  25
ATOM     25  C   UNL A   1      37.886  19.596  24.979  1.00  0.00     0.042 C 
BRANCH  25  26
ATOM     26  C   UNL A   1      39.047  20.127  25.798  1.00  0.00     0.118 C 
BRANCH  26  27
ATOM     27  N   UNL A   1      40.224  19.264  25.786  1.00  0.00    -0.352 N 
ATOM     28  C   UNL A   1      41.542  19.544  26.060  1.00  0.00     0.251 C 
ATOM     29  H   UNL A   1      40.045  18.327  25.541  1.00  0.00     0.163 HD
ATOM     30  O   UNL A   1      42.408  18.693  25.878  1.00  0.00    -0.269 OA
BRANCH  28  31
ATOM     31  C   UNL A   1      41.922  20.884  26.550  1.00  0.00     0.039 A 
ATOM     32  C   UNL A   1      42.290  21.880  25.643  1.00  0.00     0.014 A 
ATOM     33  C   UNL A   1      41.887  21.166  27.914  1.00  0.00     0.014 A 
ATOM     34  C   UNL A   1      42.541  23.174  26.106  1.00  0.00     0.010 A 
ATOM     35  C   UNL A   1      41.960  22.478  28.346  1.00  0.00     0.010 A 
ATOM     36  C   UNL A   1      42.336  23.493  27.458  1.00  0.00    -0.014 A 
BRANCH  36  37
ATOM     37  C   UNL A   1      42.588  24.849  28.006  1.00  0.00     0.031 A 
ATOM     38  C   UNL A   1      43.986  25.215  28.446  1.00  0.00     0.074 A 
ATOM     39  C   UNL A   1      41.570  25.711  28.189  1.00  0.00     0.049 A 
ATOM     40  N   UNL A   1      44.406  26.286  29.069  1.00  0.00    -0.248 NA
ATOM     41  C   UNL A   1      45.044  24.216  28.204  1.00  0.00     0.031 C 
ATOM     42  C   UNL A   1      40.165  25.459  27.861  1.00  0.00     0.029 A 
ATOM     43  N   UNL A   1      41.565  26.982  28.706  1.00  0.00    -0.354 N 
ATOM     44  C   UNL A   1      45.753  26.063  29.329  1.00  0.00     0.074 A 
ATOM     45  C   UNL A   1      46.061  24.728  28.876  1.00  0.00     0.031 C 
ATOM     46  C   UNL A   1      39.443  26.558  28.140  1.00  0.00     0.029 A 
ATOM     47  C   UNL A   1      40.323  27.571  28.709  1.00  0.00     0.049 A 
ATOM     48  H   UNL A   1      42.374  27.431  29.042  1.00  0.00     0.167 HD
ATOM     49  C   UNL A   1      46.669  26.906  29.861  1.00  0.00     0.031 A 
ATOM     50  C   UNL A   1      39.943  28.795  29.124  1.00  0.00     0.031 A 
ATOM     51  C   UNL A   1      46.371  28.253  30.257  1.00  0.00     0.049 A 
ATOM     52  C   UNL A   1      40.984  29.729  29.680  1.00  0.00     0.074 A 
ATOM     53  C   UNL A   1      47.233  29.221  30.737  1.00  0.00     0.029 A 
ATOM     54  N   UNL A   1      45.110  28.824  30.202  1.00  0.00    -0.354 N 
ATOM     55  N   UNL A   1      42.267  29.527  29.859  1.00  0.00    -0.248 NA
ATOM     56  C   UNL A   1      40.524  31.068  30.071  1.00  0.00     0.031 C 
ATOM     57  C   UNL A   1      46.482  30.368  31.015  1.00  0.00     0.029 A 
ATOM     58  C   UNL A   1      45.166  30.131  30.650  1.00  0.00     0.049 A 
ATOM     59  H   UNL A   1      44.295  28.367  29.890  1.00  0.00     0.167 HD
ATOM     60  C   UNL A   1      42.775  30.724  30.348  1.00  0.00     0.074 A 
ATOM     61  C   UNL A   1      41.662  31.650  30.422  1.00  0.00     0.031 C 
ATOM     62  C   UNL A   1      44.046  31.034  30.702  1.00  0.00     0.031 A 
BRANCH  49  63
ATOM     63  C   UNL A   1      48.073  26.391  30.024  1.00  0.00    -0.014 A 
ATOM     64  C   UNL A   1      49.018  26.501  28.990  1.00  0.00     0.009 A 
ATOM     65  C   UNL A   1      48.462  25.795  31.233  1.00  0.00     0.009 A 
ATOM     66  C   UNL A   1      50.305  25.982  29.144  1.00  0.00     0.001 A 
ATOM     67  C   UNL A   1      49.762  25.309  31.400  1.00  0.00     0.001 A 
ATOM     68  C   UNL A   1      50.677  25.391  30.352  1.00  0.00     0.000 A 
ENDBRANCH  49  63
BRANCH  50  69
ATOM     69  C   UNL A   1      38.525  29.225  28.993  1.00  0.00    -0.014 A 
ATOM     70  C   UNL A   1      38.045  29.731  27.775  1.00  0.00     0.009 A 
ATOM     71  C   UNL A   1      37.645  29.142  30.083  1.00  0.00     0.009 A 
ATOM     72  C   UNL A   1      36.727  30.179  27.661  1.00  0.00     0.001 A 
ATOM     73  C   UNL A   1      36.318  29.560  29.958  1.00  0.00     0.001 A 
ATOM     74  C   UNL A   1      35.863  30.089  28.751  1.00  0.00     0.000 A 
ENDBRANCH  50  69
BRANCH  62  75
ATOM     75  C   UNL A   1      44.312  32.444  31.145  1.00  0.00    -0.014 A 
ATOM     76  C   UNL A   1      44.265  32.810  32.498  1.00  0.00     0.009 A 
ATOM     77  C   UNL A   1      44.656  33.412  30.187  1.00  0.00     0.009 A 
ATOM     78  C   UNL A   1      44.521  34.128  32.880  1.00  0.00     0.001 A 
ATOM     79  C   UNL A   1      44.945  34.720  30.575  1.00  0.00     0.001 A 
ATOM     80  C   UNL A   1      44.865  35.080  31.919  1.00  0.00     0.000 A 
ENDBRANCH  62  75
ENDBRANCH  36  37
ENDBRANCH  28  31
ENDBRANCH  26  27
ENDBRANCH  25  26
ENDBRANCH   1  25
TORSDOF 16
ENDMDL
MODEL 2
REMARK VINA RESULT:     -10.2      4.088      9.047
REMARK SMILES CC(C)CN(CC(N)=O)C(=O)N1CC[C@H](C(=O)NCCCNC(=O)c2ccc(-c3c4nc(c(-c5ccccc5)c5ccc([nH]5)c(-c5ccccc5)c5nc(c(-c6ccccc6)c6ccc3[nH]6)C=C5)C=C4)cc2)[C@@H]1C
REMARK SMILES IDX 19 1 18 2 16 3 17 4 15 6 12 7 13 8 73 9 14 10 74 11 10 12
REMARK SMILES IDX 11 13 5 14 4 15 2 16 1 17 3 18 6 19 7 20 8 21 9 22 20 25
REMARK SMILES IDX 21 26 22 27 23 28 24 30 25 31 26 32 72 33 27 34 71 35 28 36
REMARK SMILES IDX 29 37 30 38 65 39 31 40 70 41 64 42 66 43 32 44 69 45 63 46
REMARK SMILES IDX 62 47 33 49 55 50 40 51 54 52 41 53 44 54 53 55 67 56 42 57
REMARK SMILES IDX 43 58 52 60 68 61 45 62 34 63 35 64 39 65 36 66 38 67 37 68
REMARK SMILES IDX 56 69 57 70 61 71 58 72 60 73 59 74 46 75 47 76 51 77 48 78
REMARK SMILES IDX 50 79 49 80
REMARK H PARENT 18 5 8 23 8 24 22 29 66 48 44 59
REMARK Flexibility Score: inf
ROOT
ATOM      1  C   UNL A   1      31.402  30.452  26.094  1.00  0.00     0.117 C 
ENDROOT
BRANCH   1   2
ATOM      2  N   UNL A   1      31.243  30.167  24.675  1.00  0.00    -0.356 N 
ATOM      3  C   UNL A   1      30.983  29.026  23.994  1.00  0.00     0.225 C 
ATOM      4  O   UNL A   1      30.755  29.166  22.785  1.00  0.00    -0.275 OA
ATOM      5  H   UNL A   1      31.343  30.957  24.098  1.00  0.00     0.163 HD
BRANCH   3   6
ATOM      6  C   UNL A   1      31.037  27.610  24.565  1.00  0.00     0.102 C 
ATOM      7  N   UNL A   1      32.342  25.981  23.439  1.00  0.00    -0.321 N 
ATOM      8  C   UNL A   1      31.018  25.972  22.822  1.00  0.00     0.122 C 
ATOM      9  C   UNL A   1      32.356  26.825  24.644  1.00  0.00     0.096 C 
ATOM     10  C   UNL A   1      30.103  26.681  23.796  1.00  0.00     0.037 C 
ATOM     11  C   UNL A   1      33.568  27.706  24.929  1.00  0.00     0.032 C 
BRANCH   7  12
ATOM     12  C   UNL A   1      33.371  25.441  22.713  1.00  0.00     0.320 C 
ATOM     13  O   UNL A   1      33.653  25.954  21.626  1.00  0.00    -0.248 OA
BRANCH  12  14
ATOM     14  N   UNL A   1      33.983  24.283  23.133  1.00  0.00    -0.315 N 
BRANCH  14  15
ATOM     15  C   UNL A   1      35.068  24.417  24.118  1.00  0.00     0.125 C 
BRANCH  15  16
ATOM     16  C   UNL A   1      34.944  23.433  25.310  1.00  0.00     0.002 C 
ATOM     17  C   UNL A   1      36.264  23.207  26.056  1.00  0.00     0.009 C 
ATOM     18  C   UNL A   1      33.902  23.951  26.306  1.00  0.00     0.009 C 
ENDBRANCH  15  16
ENDBRANCH  14  15
BRANCH  14  19
ATOM     19  C   UNL A   1      33.752  22.933  22.616  1.00  0.00     0.221 C 
BRANCH  19  20
ATOM     20  C   UNL A   1      32.348  22.407  22.946  1.00  0.00     0.237 C 
ATOM     21  N   UNL A   1      31.778  21.598  22.003  1.00  0.00    -0.368 N 
ATOM     22  O   UNL A   1      31.742  22.649  23.986  1.00  0.00    -0.273 OA
ATOM     23  H   UNL A   1      32.260  21.401  21.168  1.00  0.00     0.159 HD
ATOM     24  H   UNL A   1      30.886  21.212  22.160  1.00  0.00     0.159 HD
ENDBRANCH  19  20
ENDBRANCH  14  19
ENDBRANCH  12  14
ENDBRANCH   7  12
ENDBRANCH   3   6
ENDBRANCH   1   2
BRANCH   1  25
ATOM     25  C   UNL A   1      31.191  31.910  26.439  1.00  0.00     0.042 C 
BRANCH  25  26
ATOM     26  C   UNL A   1      32.470  32.598  26.876  1.00  0.00     0.118 C 
BRANCH  26  27
ATOM     27  N   UNL A   1      32.261  33.922  27.454  1.00  0.00    -0.352 N 
ATOM     28  C   UNL A   1      32.940  34.580  28.454  1.00  0.00     0.251 C 
ATOM     29  H   UNL A   1      31.512  34.429  27.064  1.00  0.00     0.163 HD
ATOM     30  O   UNL A   1      32.529  35.656  28.878  1.00  0.00    -0.269 OA
BRANCH  28  31
ATOM     31  C   UNL A   1      34.153  33.974  29.040  1.00  0.00     0.039 A 
ATOM     32  C   UNL A   1      35.409  34.506  28.745  1.00  0.00     0.014 A 
ATOM     33  C   UNL A   1      34.044  32.891  29.909  1.00  0.00     0.014 A 
ATOM     34  C   UNL A   1      36.541  33.998  29.389  1.00  0.00     0.010 A 
ATOM     35  C   UNL A   1      35.132  32.512  30.674  1.00  0.00     0.010 A 
ATOM     36  C   UNL A   1      36.405  33.023  30.391  1.00  0.00    -0.014 A 
BRANCH  36  37
ATOM     37  C   UNL A   1      37.569  32.446  31.107  1.00  0.00     0.031 A 
ATOM     38  C   UNL A   1      38.298  31.273  30.496  1.00  0.00     0.074 A 
ATOM     39  C   UNL A   1      37.918  32.904  32.325  1.00  0.00     0.049 A 
ATOM     40  N   UNL A   1      39.251  30.533  31.003  1.00  0.00    -0.248 NA
ATOM     41  C   UNL A   1      37.857  30.837  29.158  1.00  0.00     0.031 C 
ATOM     42  C   UNL A   1      37.259  33.991  33.051  1.00  0.00     0.029 A 
ATOM     43  N   UNL A   1      38.920  32.502  33.171  1.00  0.00    -0.354 N 
ATOM     44  C   UNL A   1      39.481  29.529  30.069  1.00  0.00     0.074 A 
ATOM     45  C   UNL A   1      38.517  29.702  29.009  1.00  0.00     0.031 C 
ATOM     46  C   UNL A   1      37.904  34.201  34.212  1.00  0.00     0.029 A 
ATOM     47  C   UNL A   1      38.988  33.234  34.332  1.00  0.00     0.049 A 
ATOM     48  H   UNL A   1      39.533  31.759  32.966  1.00  0.00     0.167 HD
ATOM     49  C   UNL A   1      40.436  28.570  30.067  1.00  0.00     0.031 A 
ATOM     50  C   UNL A   1      39.835  33.134  35.374  1.00  0.00     0.031 A 
ATOM     51  C   UNL A   1      41.429  28.438  31.096  1.00  0.00     0.049 A 
ATOM     52  C   UNL A   1      40.912  32.082  35.336  1.00  0.00     0.074 A 
ATOM     53  C   UNL A   1      42.490  27.553  31.162  1.00  0.00     0.029 A 
ATOM     54  N   UNL A   1      41.489  29.229  32.232  1.00  0.00    -0.354 N 
ATOM     55  N   UNL A   1      41.158  31.182  34.415  1.00  0.00    -0.248 NA
ATOM     56  C   UNL A   1      41.840  32.049  36.475  1.00  0.00     0.031 C 
ATOM     57  C   UNL A   1      43.167  27.781  32.364  1.00  0.00     0.029 A 
ATOM     58  C   UNL A   1      42.563  28.846  33.014  1.00  0.00     0.049 A 
ATOM     59  H   UNL A   1      40.861  29.955  32.450  1.00  0.00     0.167 HD
ATOM     60  C   UNL A   1      42.290  30.501  34.844  1.00  0.00     0.074 A 
ATOM     61  C   UNL A   1      42.689  31.104  36.100  1.00  0.00     0.031 C 
ATOM     62  C   UNL A   1      42.945  29.471  34.254  1.00  0.00     0.031 A 
BRANCH  49  63
ATOM     63  C   UNL A   1      40.452  27.608  28.911  1.00  0.00    -0.014 A 
ATOM     64  C   UNL A   1      41.212  27.863  27.757  1.00  0.00     0.009 A 
ATOM     65  C   UNL A   1      39.702  26.424  28.977  1.00  0.00     0.009 A 
ATOM     66  C   UNL A   1      41.183  26.979  26.676  1.00  0.00     0.001 A 
ATOM     67  C   UNL A   1      39.703  25.522  27.910  1.00  0.00     0.001 A 
ATOM     68  C   UNL A   1      40.433  25.806  26.757  1.00  0.00     0.000 A 
ENDBRANCH  49  63
BRANCH  50  69
ATOM     69  C   UNL A   1      39.731  34.076  36.520  1.00  0.00    -0.014 A 
ATOM     70  C   UNL A   1      40.388  35.317  36.483  1.00  0.00     0.009 A 
ATOM     71  C   UNL A   1      38.985  33.742  37.661  1.00  0.00     0.009 A 
ATOM     72  C   UNL A   1      40.330  36.185  37.575  1.00  0.00     0.001 A 
ATOM     73  C   UNL A   1      38.902  34.625  38.740  1.00  0.00     0.001 A 
ATOM     74  C   UNL A   1      39.583  35.841  38.701  1.00  0.00     0.000 A 
ENDBRANCH  50  69
BRANCH  62  75
ATOM     75  C   UNL A   1      44.190  28.971  34.929  1.00  0.00    -0.014 A 
ATOM     76  C   UNL A   1      45.447  29.531  34.659  1.00  0.00     0.009 A 
ATOM     77  C   UNL A   1      44.089  27.947  35.884  1.00  0.00     0.009 A 
ATOM     78  C   UNL A   1      46.586  29.047  35.305  1.00  0.00     0.001 A 
ATOM     79  C   UNL A   1      45.224  27.489  36.553  1.00  0.00     0.001 A 
ATOM     80  C   UNL A   1      46.473  28.031  36.254  1.00  0.00     0.000 A 
ENDBRANCH  62  75
ENDBRANCH  36  37
ENDBRANCH  28  31
ENDBRANCH  26  27
ENDBRANCH  25  26
ENDBRANCH   1  25
TORSDOF 16
ENDMDL
MODEL 3
REMARK VINA RESULT:     -10.2      3.428      8.977
REMARK SMILES CC(C)CN(CC(N)=O)C(=O)N1CC[C@H](C(=O)NCCCNC(=O)c2ccc(-c3c4nc(c(-c5ccccc5)c5ccc([nH]5)c(-c5ccccc5)c5nc(c(-c6ccccc6)c6ccc3[nH]6)C=C5)C=C4)cc2)[C@@H]1C
REMARK SMILES IDX 19 1 18 2 16 3 17 4 15 6 12 7 13 8 73 9 14 10 74 11 10 12
REMARK SMILES IDX 11 13 5 14 4 15 2 16 1 17 3 18 6 19 7 20 8 21 9 22 20 25
REMARK SMILES IDX 21 26 22 27 23 28 24 30 25 31 26 32 72 33 27 34 71 35 28 36
REMARK SMILES IDX 29 37 30 38 65 39 31 40 70 41 64 42 66 43 32 44 69 45 63 46
REMARK SMILES IDX 62 47 33 49 55 50 40 51 54 52 41 53 44 54 53 55 67 56 42 57
REMARK SMILES IDX 43 58 52 60 68 61 45 62 34 63 35 64 39 65 36 66 38 67 37 68
REMARK SMILES IDX 56 69 57 70 61 71 58 72 60 73 59 74 46 75 47 76 51 77 48 78
REMARK SMILES IDX 50 79 49 80
REMARK H PARENT 18 5 8 23 8 24 22 29 66 48 44 59
REMARK Flexibility Score: inf
ROOT
ATOM      1  C   UNL A   1      31.774  30.202  26.269  1.00  0.00     0.117 C 
ENDROOT
BRANCH   1   2
ATOM      2  N   UNL A   1      31.937  29.945  24.846  1.00  0.00    -0.356 N 
ATOM      3  C   UNL A   1      31.688  28.859  24.076  1.00  0.00     0.225 C 
ATOM      4  O   UNL A   1      31.796  29.034  22.855  1.00  0.00    -0.275 OA
ATOM      5  H   UNL A   1      32.298  30.711  24.344  1.00  0.00     0.163 HD
BRANCH   3   6
ATOM      6  C   UNL A   1      31.381  27.452  24.586  1.00  0.00     0.102 C 
ATOM      7  N   UNL A   1      32.505  25.616  23.592  1.00  0.00    -0.321 N 
ATOM      8  C   UNL A   1      31.314  25.876  22.787  1.00  0.00     0.122 C 
ATOM      9  C   UNL A   1      32.497  26.423  24.822  1.00  0.00     0.096 C 
ATOM     10  C   UNL A   1      30.414  26.736  23.647  1.00  0.00     0.037 C 
ATOM     11  C   UNL A   1      33.798  27.043  25.320  1.00  0.00     0.032 C 
BRANCH   7  12
ATOM     12  C   UNL A   1      33.510  24.895  23.002  1.00  0.00     0.320 C 
ATOM     13  O   UNL A   1      34.015  25.335  21.964  1.00  0.00    -0.248 OA
BRANCH  12  14
ATOM     14  N   UNL A   1      33.850  23.653  23.487  1.00  0.00    -0.315 N 
BRANCH  14  15
ATOM     15  C   UNL A   1      32.958  22.533  23.148  1.00  0.00     0.125 C 
BRANCH  15  16
ATOM     16  C   UNL A   1      32.784  21.511  24.301  1.00  0.00     0.002 C 
ATOM     17  C   UNL A   1      31.649  21.867  25.267  1.00  0.00     0.009 C 
ATOM     18  C   UNL A   1      32.519  20.117  23.726  1.00  0.00     0.009 C 
ENDBRANCH  15  16
ENDBRANCH  14  15
BRANCH  14  19
ATOM     19  C   UNL A   1      34.946  23.342  24.406  1.00  0.00     0.221 C 
BRANCH  19  20
ATOM     20  C   UNL A   1      36.302  23.240  23.695  1.00  0.00     0.237 C 
ATOM     21  N   UNL A   1      37.403  23.444  24.481  1.00  0.00    -0.368 N 
ATOM     22  O   UNL A   1      36.445  22.972  22.506  1.00  0.00    -0.273 OA
ATOM     23  H   UNL A   1      37.293  23.660  25.435  1.00  0.00     0.159 HD
ATOM     24  H   UNL A   1      38.305  23.377  24.091  1.00  0.00     0.159 HD
ENDBRANCH  19  20
ENDBRANCH  14  19
ENDBRANCH  12  14
ENDBRANCH   7  12
ENDBRANCH   3   6
ENDBRANCH   1   2
BRANCH   1  25
ATOM     25  C   UNL A   1      31.522  31.658  26.591  1.00  0.00     0.042 C 
BRANCH  25  26
ATOM     26  C   UNL A   1      32.732  32.341  27.199  1.00  0.00     0.118 C 
BRANCH  26  27
ATOM     27  N   UNL A   1      32.493  33.725  27.596  1.00  0.00    -0.352 N 
ATOM     28  C   UNL A   1      33.160  34.527  28.493  1.00  0.00     0.251 C 
ATOM     29  H   UNL A   1      31.729  34.157  27.148  1.00  0.00     0.163 HD
ATOM     30  O   UNL A   1      32.724  35.640  28.773  1.00  0.00    -0.269 OA
BRANCH  28  31
ATOM     31  C   UNL A   1      34.390  34.035  29.145  1.00  0.00     0.039 A 
ATOM     32  C   UNL A   1      34.308  33.074  30.154  1.00  0.00     0.014 A 
ATOM     33  C   UNL A   1      35.635  34.508  28.735  1.00  0.00     0.014 A 
ATOM     34  C   UNL A   1      35.482  32.534  30.687  1.00  0.00     0.010 A 
ATOM     35  C   UNL A   1      36.784  33.849  29.133  1.00  0.00     0.010 A 
ATOM     36  C   UNL A   1      36.730  32.888  30.150  1.00  0.00    -0.014 A 
BRANCH  36  37
ATOM     37  C   UNL A   1      38.009  32.349  30.677  1.00  0.00     0.031 A 
ATOM     38  C   UNL A   1      38.586  31.097  30.062  1.00  0.00     0.074 A 
ATOM     39  C   UNL A   1      38.601  32.918  31.744  1.00  0.00     0.049 A 
ATOM     40  N   UNL A   1      39.613  30.382  30.444  1.00  0.00    -0.248 NA
ATOM     41  C   UNL A   1      37.879  30.541  28.892  1.00  0.00     0.031 C 
ATOM     42  C   UNL A   1      38.115  34.095  32.467  1.00  0.00     0.029 A 
ATOM     43  N   UNL A   1      39.749  32.572  32.411  1.00  0.00    -0.354 N 
ATOM     44  C   UNL A   1      39.638  29.281  29.595  1.00  0.00     0.074 A 
ATOM     45  C   UNL A   1      38.482  29.375  28.737  1.00  0.00     0.031 C 
ATOM     46  C   UNL A   1      38.983  34.401  33.446  1.00  0.00     0.029 A 
ATOM     47  C   UNL A   1      40.058  33.417  33.451  1.00  0.00     0.049 A 
ATOM     48  H   UNL A   1      40.300  31.793  32.169  1.00  0.00     0.167 HD
ATOM     49  C   UNL A   1      40.562  28.296  29.506  1.00  0.00     0.031 A 
ATOM     50  C   UNL A   1      41.097  33.396  34.307  1.00  0.00     0.031 A 
ATOM     51  C   UNL A   1      41.741  28.237  30.323  1.00  0.00     0.049 A 
ATOM     52  C   UNL A   1      42.132  32.312  34.168  1.00  0.00     0.074 A 
ATOM     53  C   UNL A   1      42.783  27.329  30.271  1.00  0.00     0.029 A 
ATOM     54  N   UNL A   1      42.038  29.138  31.334  1.00  0.00    -0.354 N 
ATOM     55  N   UNL A   1      42.177  31.314  33.318  1.00  0.00    -0.248 NA
ATOM     56  C   UNL A   1      43.270  32.365  35.096  1.00  0.00     0.031 C 
ATOM     57  C   UNL A   1      43.692  27.657  31.283  1.00  0.00     0.029 A 
ATOM     58  C   UNL A   1      43.244  28.803  31.922  1.00  0.00     0.049 A 
ATOM     59  H   UNL A   1      41.475  29.903  31.594  1.00  0.00     0.167 HD
ATOM     60  C   UNL A   1      43.364  30.644  33.583  1.00  0.00     0.074 A 
ATOM     61  C   UNL A   1      44.015  31.359  34.662  1.00  0.00     0.031 C 
ATOM     62  C   UNL A   1      43.875  29.538  32.987  1.00  0.00     0.031 A 
BRANCH  49  63
ATOM     63  C   UNL A   1      40.333  27.221  28.479  1.00  0.00    -0.014 A 
ATOM     64  C   UNL A   1      40.865  27.321  27.182  1.00  0.00     0.009 A 
ATOM     65  C   UNL A   1      39.582  26.084  28.814  1.00  0.00     0.009 A 
ATOM     66  C   UNL A   1      40.608  26.333  26.229  1.00  0.00     0.001 A 
ATOM     67  C   UNL A   1      39.357  25.078  27.870  1.00  0.00     0.001 A 
ATOM     68  C   UNL A   1      39.859  25.210  26.577  1.00  0.00     0.000 A 
ENDBRANCH  49  63
BRANCH  50  69
ATOM     69  C   UNL A   1      41.237  34.454  35.344  1.00  0.00    -0.014 A 
ATOM     70  C   UNL A   1      40.543  34.353  36.560  1.00  0.00     0.009 A 
ATOM     71  C   UNL A   1      42.054  35.573  35.123  1.00  0.00     0.009 A 
ATOM     72  C   UNL A   1      40.635  35.366  37.517  1.00  0.00     0.001 A 
ATOM     73  C   UNL A   1      42.170  36.571  36.095  1.00  0.00     0.001 A 
ATOM     74  C   UNL A   1      41.452  36.472  37.286  1.00  0.00     0.000 A 
ENDBRANCH  50  69
BRANCH  62  75
ATOM     75  C   UNL A   1      45.225  29.069  33.449  1.00  0.00    -0.014 A 
ATOM     76  C   UNL A   1      45.361  28.126  34.478  1.00  0.00     0.009 A 
ATOM     77  C   UNL A   1      46.377  29.554  32.809  1.00  0.00     0.009 A 
ATOM     78  C   UNL A   1      46.630  27.706  34.883  1.00  0.00     0.001 A 
ATOM     79  C   UNL A   1      47.641  29.107  33.193  1.00  0.00     0.001 A 
ATOM     80  C   UNL A   1      47.767  28.193  34.237  1.00  0.00     0.000 A 
ENDBRANCH  62  75
ENDBRANCH  36  37
ENDBRANCH  28  31
ENDBRANCH  26  27
ENDBRANCH  25  26
ENDBRANCH   1  25
TORSDOF 16
ENDMDL
