MODEL 1
REMARK VINA RESULT:     -12.4      0.000      0.000
REMARK SMILES CCCSc1nc2n(n1)[C@@H](c1ccccc1C(=O)NCCCNC(=O)c1ccc(-c3c4nc(c(-c5ccccc5)c5ccc([nH]5)c(-c5ccccc5)c5nc(c(-c6ccccc6)c6ccc3[nH]6)C=C5)C=C4)cc1)C(C(=O)Nc1cccc(C)c1C)=C(C)N2
REMARK SMILES IDX 20 1 19 2 17 3 18 4 16 6 11 7 12 8 13 9 15 10 14 11 10 12
REMARK SMILES IDX 5 13 6 14 9 15 7 16 8 17 88 18 86 19 74 21 87 22 4 23 3 24
REMARK SMILES IDX 2 25 1 26 75 27 76 28 77 29 78 31 79 32 84 33 80 34 82 35
REMARK SMILES IDX 85 36 81 37 83 38 21 39 22 40 23 41 24 42 25 44 26 45 27 46
REMARK SMILES IDX 73 47 28 48 72 49 29 50 30 51 31 52 66 53 32 54 71 55 65 56
REMARK SMILES IDX 67 57 33 58 70 59 64 60 63 61 34 63 56 64 41 65 55 66 42 67
REMARK SMILES IDX 45 68 54 69 68 70 43 71 44 72 53 74 69 75 46 76 35 77 36 78
REMARK SMILES IDX 40 79 37 80 39 81 38 82 57 83 58 84 62 85 59 86 61 87 60 88
REMARK SMILES IDX 47 89 48 90 52 91 49 92 51 93 50 94
REMARK H PARENT 19 5 88 20 77 30 23 43 67 62 45 73
REMARK Flexibility Score: inf
ROOT
ATOM      1  C   UNL A   1      31.692  29.085  27.285  1.00  0.00     0.118 C 
ENDROOT
BRANCH   1   2
ATOM      2  N   UNL A   1      31.643  27.830  26.545  1.00  0.00    -0.352 N 
ATOM      3  C   UNL A   1      32.204  27.132  25.516  1.00  0.00     0.251 C 
ATOM      4  O   UNL A   1      31.940  25.922  25.628  1.00  0.00    -0.269 OA
ATOM      5  H   UNL A   1      30.932  27.274  26.937  1.00  0.00     0.163 HD
BRANCH   3   6
ATOM      6  C   UNL A   1      32.971  27.555  24.278  1.00  0.00     0.045 A 
ATOM      7  C   UNL A   1      32.853  27.194  22.915  1.00  0.00    -0.006 A 
ATOM      8  C   UNL A   1      33.831  27.678  21.991  1.00  0.00     0.007 A 
ATOM      9  C   UNL A   1      34.858  28.541  22.364  1.00  0.00     0.000 A 
ATOM     10  C   UNL A   1      34.001  28.492  24.597  1.00  0.00     0.014 A 
ATOM     11  C   UNL A   1      34.920  28.982  23.667  1.00  0.00     0.001 A 
BRANCH   7  12
ATOM     12  C   UNL A   1      31.649  26.472  22.328  1.00  0.00     0.180 C 
ATOM     13  C   UNL A   1      28.719  28.287  23.067  1.00  0.00     0.210 A 
ATOM     14  N   UNL A   1      28.379  27.103  23.644  1.00  0.00    -0.185 NA
ATOM     15  N   UNL A   1      29.919  28.307  22.465  1.00  0.00    -0.141 NA
ATOM     16  C   UNL A   1      29.424  26.359  23.457  1.00  0.00     0.227 A 
ATOM     17  N   UNL A   1      30.367  27.062  22.766  1.00  0.00    -0.218 N 
ATOM     18  N   UNL A   1      29.654  25.095  23.828  1.00  0.00    -0.328 N 
ATOM     19  C   UNL A   1      30.764  24.375  23.427  1.00  0.00     0.026 C 
ATOM     20  H   UNL A   1      28.999  24.654  24.416  1.00  0.00     0.169 HD
ATOM     21  C   UNL A   1      31.673  24.954  22.605  1.00  0.00     0.065 C 
ATOM     22  C   UNL A   1      30.830  22.974  23.969  1.00  0.00     0.065 C 
BRANCH  13  23
ATOM     23  S   UNL A   1      27.628  29.637  23.134  1.00  0.00    -0.084 SA
BRANCH  23  24
ATOM     24  C   UNL A   1      28.308  30.680  21.792  1.00  0.00     0.078 C 
BRANCH  24  25
ATOM     25  C   UNL A   1      28.011  32.185  21.848  1.00  0.00     0.008 C 
ATOM     26  C   UNL A   1      28.828  32.997  22.845  1.00  0.00     0.005 C 
ENDBRANCH  24  25
ENDBRANCH  23  24
ENDBRANCH  13  23
BRANCH  21  27
ATOM     27  C   UNL A   1      32.774  24.203  21.960  1.00  0.00     0.255 C 
ATOM     28  O   UNL A   1      33.036  24.393  20.773  1.00  0.00    -0.269 OA
ATOM     29  N   UNL A   1      33.433  23.186  22.607  1.00  0.00    -0.322 N 
ATOM     30  H   UNL A   1      33.515  22.330  22.127  1.00  0.00     0.170 HD
BRANCH  29  31
ATOM     31  C   UNL A   1      34.008  23.252  23.895  1.00  0.00     0.044 A 
ATOM     32  C   UNL A   1      34.711  24.441  24.147  1.00  0.00     0.026 A 
ATOM     33  C   UNL A   1      33.887  22.278  24.905  1.00  0.00    -0.025 A 
ATOM     34  C   UNL A   1      35.183  24.735  25.419  1.00  0.00     0.002 A 
ATOM     35  C   UNL A   1      34.369  22.585  26.204  1.00  0.00    -0.046 A 
ATOM     36  C   UNL A   1      33.336  20.906  24.645  1.00  0.00     0.047 C 
ATOM     37  C   UNL A   1      34.985  23.824  26.447  1.00  0.00     0.004 A 
ATOM     38  C   UNL A   1      34.171  21.671  27.387  1.00  0.00     0.044 C 
ENDBRANCH  29  31
ENDBRANCH  21  27
ENDBRANCH   7  12
ENDBRANCH   3   6
ENDBRANCH   1   2
BRANCH   1  39
ATOM     39  C   UNL A   1      32.211  30.281  26.485  1.00  0.00     0.042 C 
BRANCH  39  40
ATOM     40  C   UNL A   1      33.023  31.263  27.335  1.00  0.00     0.118 C 
BRANCH  40  41
ATOM     41  N   UNL A   1      32.561  32.650  27.261  1.00  0.00    -0.352 N 
ATOM     42  C   UNL A   1      32.925  33.710  28.079  1.00  0.00     0.251 C 
ATOM     43  H   UNL A   1      31.916  32.855  26.545  1.00  0.00     0.163 HD
ATOM     44  O   UNL A   1      32.215  34.685  28.228  1.00  0.00    -0.269 OA
BRANCH  42  45
ATOM     45  C   UNL A   1      34.224  33.623  28.764  1.00  0.00     0.039 A 
ATOM     46  C   UNL A   1      34.361  32.886  29.942  1.00  0.00     0.014 A 
ATOM     47  C   UNL A   1      35.326  34.157  28.102  1.00  0.00     0.014 A 
ATOM     48  C   UNL A   1      35.642  32.553  30.370  1.00  0.00     0.010 A 
ATOM     49  C   UNL A   1      36.583  33.738  28.464  1.00  0.00     0.010 A 
ATOM     50  C   UNL A   1      36.749  32.925  29.587  1.00  0.00    -0.014 A 
BRANCH  50  51
ATOM     51  C   UNL A   1      38.033  32.253  29.790  1.00  0.00     0.031 A 
ATOM     52  C   UNL A   1      38.060  30.821  29.372  1.00  0.00     0.074 A 
ATOM     53  C   UNL A   1      39.194  32.893  30.039  1.00  0.00     0.049 A 
ATOM     54  N   UNL A   1      38.191  29.777  30.123  1.00  0.00    -0.248 NA
ATOM     55  C   UNL A   1      37.792  30.504  27.958  1.00  0.00     0.031 C 
ATOM     56  C   UNL A   1      39.427  34.338  30.119  1.00  0.00     0.029 A 
ATOM     57  N   UNL A   1      40.450  32.376  30.130  1.00  0.00    -0.354 N 
ATOM     58  C   UNL A   1      38.236  28.684  29.262  1.00  0.00     0.074 A 
ATOM     59  C   UNL A   1      37.795  29.169  27.979  1.00  0.00     0.031 C 
ATOM     60  C   UNL A   1      40.749  34.586  29.993  1.00  0.00     0.029 A 
ATOM     61  C   UNL A   1      41.459  33.321  30.012  1.00  0.00     0.049 A 
ATOM     62  H   UNL A   1      40.627  31.417  30.268  1.00  0.00     0.167 HD
ATOM     63  C   UNL A   1      38.893  27.538  29.604  1.00  0.00     0.031 A 
ATOM     64  C   UNL A   1      42.789  33.087  29.916  1.00  0.00     0.031 A 
ATOM     65  C   UNL A   1      39.202  27.508  31.014  1.00  0.00     0.049 A 
ATOM     66  C   UNL A   1      43.040  31.722  30.426  1.00  0.00     0.074 A 
ATOM     67  C   UNL A   1      38.475  27.599  32.183  1.00  0.00     0.029 A 
ATOM     68  N   UNL A   1      40.506  27.766  31.365  1.00  0.00    -0.354 N 
ATOM     69  N   UNL A   1      42.893  31.385  31.674  1.00  0.00    -0.248 NA
ATOM     70  C   UNL A   1      43.070  30.615  29.484  1.00  0.00     0.031 C 
ATOM     71  C   UNL A   1      39.289  28.375  33.063  1.00  0.00     0.029 A 
ATOM     72  C   UNL A   1      40.491  28.650  32.410  1.00  0.00     0.049 A 
ATOM     73  H   UNL A   1      41.308  27.383  30.941  1.00  0.00     0.167 HD
ATOM     74  C   UNL A   1      42.353  30.108  31.632  1.00  0.00     0.074 A 
ATOM     75  C   UNL A   1      42.623  29.636  30.276  1.00  0.00     0.031 C 
ATOM     76  C   UNL A   1      41.488  29.682  32.600  1.00  0.00     0.031 A 
BRANCH  63  77
ATOM     77  C   UNL A   1      39.668  26.685  28.616  1.00  0.00    -0.014 A 
ATOM     78  C   UNL A   1      40.666  27.304  27.837  1.00  0.00     0.009 A 
ATOM     79  C   UNL A   1      39.260  25.404  28.202  1.00  0.00     0.009 A 
ATOM     80  C   UNL A   1      41.132  26.726  26.648  1.00  0.00     0.001 A 
ATOM     81  C   UNL A   1      39.758  24.802  27.042  1.00  0.00     0.001 A 
ATOM     82  C   UNL A   1      40.665  25.481  26.244  1.00  0.00     0.000 A 
ENDBRANCH  63  77
BRANCH  64  83
ATOM     83  C   UNL A   1      43.835  33.894  29.259  1.00  0.00    -0.014 A 
ATOM     84  C   UNL A   1      44.127  33.714  27.899  1.00  0.00     0.009 A 
ATOM     85  C   UNL A   1      44.371  35.023  29.904  1.00  0.00     0.009 A 
ATOM     86  C   UNL A   1      44.891  34.656  27.199  1.00  0.00     0.001 A 
ATOM     87  C   UNL A   1      45.139  35.961  29.206  1.00  0.00     0.001 A 
ATOM     88  C   UNL A   1      45.383  35.785  27.849  1.00  0.00     0.000 A 
ENDBRANCH  64  83
BRANCH  76  89
ATOM     89  C   UNL A   1      41.379  30.504  33.862  1.00  0.00    -0.014 A 
ATOM     90  C   UNL A   1      42.155  30.267  35.011  1.00  0.00     0.009 A 
ATOM     91  C   UNL A   1      40.547  31.634  33.848  1.00  0.00     0.009 A 
ATOM     92  C   UNL A   1      42.061  31.104  36.128  1.00  0.00     0.001 A 
ATOM     93  C   UNL A   1      40.473  32.486  34.953  1.00  0.00     0.001 A 
ATOM     94  C   UNL A   1      41.220  32.214  36.096  1.00  0.00     0.000 A 
ENDBRANCH  76  89
ENDBRANCH  50  51
ENDBRANCH  42  45
ENDBRANCH  40  41
ENDBRANCH  39  40
ENDBRANCH   1  39
TORSDOF 16
ENDMDL
MODEL 2
REMARK VINA RESULT:     -12.1      2.912      6.477
REMARK SMILES CCCSc1nc2n(n1)[C@@H](c1ccccc1C(=O)NCCCNC(=O)c1ccc(-c3c4nc(c(-c5ccccc5)c5ccc([nH]5)c(-c5ccccc5)c5nc(c(-c6ccccc6)c6ccc3[nH]6)C=C5)C=C4)cc1)C(C(=O)Nc1cccc(C)c1C)=C(C)N2
REMARK SMILES IDX 20 1 19 2 17 3 18 4 16 6 11 7 12 8 13 9 15 10 14 11 10 12
REMARK SMILES IDX 5 13 6 14 9 15 7 16 8 17 88 18 86 19 74 21 87 22 4 23 3 24
REMARK SMILES IDX 2 25 1 26 75 27 76 28 77 29 78 31 79 32 84 33 80 34 82 35
REMARK SMILES IDX 85 36 81 37 83 38 21 39 22 40 23 41 24 42 25 44 26 45 27 46
REMARK SMILES IDX 73 47 28 48 72 49 29 50 30 51 31 52 66 53 32 54 71 55 65 56
REMARK SMILES IDX 67 57 33 58 70 59 64 60 63 61 34 63 56 64 41 65 55 66 42 67
REMARK SMILES IDX 45 68 54 69 68 70 43 71 44 72 53 74 69 75 46 76 35 77 36 78
REMARK SMILES IDX 40 79 37 80 39 81 38 82 57 83 58 84 62 85 59 86 61 87 60 88
REMARK SMILES IDX 47 89 48 90 52 91 49 92 51 93 50 94
REMARK H PARENT 19 5 88 20 77 30 23 43 67 62 45 73
REMARK Flexibility Score: inf
ROOT
ATOM      1  C   UNL A   1      34.206  27.939  25.497  1.00  0.00     0.118 C 
ENDROOT
BRANCH   1   2
ATOM      2  N   UNL A   1      34.029  27.894  24.051  1.00  0.00    -0.352 N 
ATOM      3  C   UNL A   1      33.343  27.286  23.040  1.00  0.00     0.251 C 
ATOM      4  O   UNL A   1      33.394  27.983  22.012  1.00  0.00    -0.269 OA
ATOM      5  H   UNL A   1      34.636  28.557  23.650  1.00  0.00     0.163 HD
BRANCH   3   6
ATOM      6  C   UNL A   1      32.647  25.944  22.926  1.00  0.00     0.045 A 
ATOM      7  C   UNL A   1      31.487  25.418  23.543  1.00  0.00    -0.006 A 
ATOM      8  C   UNL A   1      31.157  24.045  23.323  1.00  0.00     0.007 A 
ATOM      9  C   UNL A   1      31.893  23.220  22.477  1.00  0.00     0.000 A 
ATOM     10  C   UNL A   1      33.328  25.077  22.020  1.00  0.00     0.014 A 
ATOM     11  C   UNL A   1      32.962  23.749  21.790  1.00  0.00     0.001 A 
BRANCH   7  12
ATOM     12  C   UNL A   1      30.459  26.263  24.281  1.00  0.00     0.180 C 
ATOM     13  C   UNL A   1      29.995  29.308  22.568  1.00  0.00     0.210 A 
ATOM     14  N   UNL A   1      30.373  29.807  23.775  1.00  0.00    -0.185 NA
ATOM     15  N   UNL A   1      29.921  27.969  22.499  1.00  0.00    -0.141 NA
ATOM     16  C   UNL A   1      30.608  28.749  24.485  1.00  0.00     0.227 A 
ATOM     17  N   UNL A   1      30.359  27.634  23.739  1.00  0.00    -0.218 N 
ATOM     18  N   UNL A   1      31.022  28.640  25.752  1.00  0.00    -0.328 N 
ATOM     19  C   UNL A   1      31.087  27.437  26.430  1.00  0.00     0.026 C 
ATOM     20  H   UNL A   1      31.294  29.459  26.226  1.00  0.00     0.169 HD
ATOM     21  C   UNL A   1      30.703  26.298  25.806  1.00  0.00     0.065 C 
ATOM     22  C   UNL A   1      31.592  27.543  27.843  1.00  0.00     0.065 C 
BRANCH  13  23
ATOM     23  S   UNL A   1      29.640  30.383  21.250  1.00  0.00    -0.084 SA
BRANCH  23  24
ATOM     24  C   UNL A   1      28.006  31.019  21.773  1.00  0.00     0.078 C 
BRANCH  24  25
ATOM     25  C   UNL A   1      27.947  31.827  23.077  1.00  0.00     0.008 C 
ATOM     26  C   UNL A   1      28.742  33.126  23.102  1.00  0.00     0.005 C 
ENDBRANCH  24  25
ENDBRANCH  23  24
ENDBRANCH  13  23
BRANCH  21  27
ATOM     27  C   UNL A   1      30.539  25.005  26.509  1.00  0.00     0.255 C 
ATOM     28  O   UNL A   1      29.415  24.599  26.797  1.00  0.00    -0.269 OA
ATOM     29  N   UNL A   1      31.618  24.297  26.983  1.00  0.00    -0.322 N 
ATOM     30  H   UNL A   1      31.582  24.007  27.923  1.00  0.00     0.170 HD
BRANCH  29  31
ATOM     31  C   UNL A   1      32.772  23.945  26.249  1.00  0.00     0.044 A 
ATOM     32  C   UNL A   1      33.710  24.983  26.127  1.00  0.00     0.026 A 
ATOM     33  C   UNL A   1      33.049  22.678  25.704  1.00  0.00    -0.025 A 
ATOM     34  C   UNL A   1      34.968  24.746  25.589  1.00  0.00     0.002 A 
ATOM     35  C   UNL A   1      34.337  22.441  25.157  1.00  0.00    -0.046 A 
ATOM     36  C   UNL A   1      32.016  21.592  25.612  1.00  0.00     0.047 C 
ATOM     37  C   UNL A   1      35.288  23.475  25.136  1.00  0.00     0.004 A 
ATOM     38  C   UNL A   1      34.783  21.085  24.670  1.00  0.00     0.044 C 
ENDBRANCH  29  31
ENDBRANCH  21  27
ENDBRANCH   7  12
ENDBRANCH   3   6
ENDBRANCH   1   2
BRANCH   1  39
ATOM     39  C   UNL A   1      34.294  29.347  26.089  1.00  0.00     0.042 C 
BRANCH  39  40
ATOM     40  C   UNL A   1      34.745  29.354  27.552  1.00  0.00     0.118 C 
BRANCH  40  41
ATOM     41  N   UNL A   1      34.824  30.687  28.152  1.00  0.00    -0.352 N 
ATOM     42  C   UNL A   1      35.859  31.214  28.912  1.00  0.00     0.251 C 
ATOM     43  H   UNL A   1      34.052  31.279  27.998  1.00  0.00     0.163 HD
ATOM     44  O   UNL A   1      35.683  32.122  29.701  1.00  0.00    -0.269 OA
BRANCH  42  45
ATOM     45  C   UNL A   1      37.200  30.640  28.723  1.00  0.00     0.039 A 
ATOM     46  C   UNL A   1      38.324  31.256  29.277  1.00  0.00     0.014 A 
ATOM     47  C   UNL A   1      37.273  29.386  28.122  1.00  0.00     0.014 A 
ATOM     48  C   UNL A   1      39.504  30.526  29.364  1.00  0.00     0.010 A 
ATOM     49  C   UNL A   1      38.406  28.630  28.305  1.00  0.00     0.010 A 
ATOM     50  C   UNL A   1      39.519  29.187  28.938  1.00  0.00    -0.014 A 
BRANCH  50  51
ATOM     51  C   UNL A   1      40.594  28.300  29.384  1.00  0.00     0.031 A 
ATOM     52  C   UNL A   1      40.821  28.291  30.860  1.00  0.00     0.074 A 
ATOM     53  C   UNL A   1      41.151  27.337  28.622  1.00  0.00     0.049 A 
ATOM     54  N   UNL A   1      41.856  28.719  31.505  1.00  0.00    -0.248 NA
ATOM     55  C   UNL A   1      39.714  27.860  31.732  1.00  0.00     0.031 C 
ATOM     56  C   UNL A   1      40.795  26.953  27.253  1.00  0.00     0.029 A 
ATOM     57  N   UNL A   1      42.069  26.394  28.975  1.00  0.00    -0.354 N 
ATOM     58  C   UNL A   1      41.626  28.419  32.846  1.00  0.00     0.074 A 
ATOM     59  C   UNL A   1      40.230  28.076  32.944  1.00  0.00     0.031 C 
ATOM     60  C   UNL A   1      41.294  25.726  26.988  1.00  0.00     0.029 A 
ATOM     61  C   UNL A   1      42.150  25.328  28.090  1.00  0.00     0.049 A 
ATOM     62  H   UNL A   1      42.624  26.462  29.784  1.00  0.00     0.167 HD
ATOM     63  C   UNL A   1      42.658  28.210  33.713  1.00  0.00     0.031 A 
ATOM     64  C   UNL A   1      42.856  24.185  28.253  1.00  0.00     0.031 A 
ATOM     65  C   UNL A   1      43.914  28.659  33.157  1.00  0.00     0.049 A 
ATOM     66  C   UNL A   1      43.888  24.440  29.281  1.00  0.00     0.074 A 
ATOM     67  C   UNL A   1      44.399  29.850  32.657  1.00  0.00     0.029 A 
ATOM     68  N   UNL A   1      44.765  27.685  32.694  1.00  0.00    -0.354 N 
ATOM     69  N   UNL A   1      44.896  25.243  29.101  1.00  0.00    -0.248 NA
ATOM     70  C   UNL A   1      43.593  24.116  30.666  1.00  0.00     0.031 C 
ATOM     71  C   UNL A   1      45.208  29.477  31.542  1.00  0.00     0.029 A 
ATOM     72  C   UNL A   1      45.230  28.083  31.470  1.00  0.00     0.049 A 
ATOM     73  H   UNL A   1      45.000  26.849  33.160  1.00  0.00     0.167 HD
ATOM     74  C   UNL A   1      45.058  25.881  30.321  1.00  0.00     0.074 A 
ATOM     75  C   UNL A   1      44.334  25.045  31.277  1.00  0.00     0.031 C 
ATOM     76  C   UNL A   1      45.510  27.169  30.383  1.00  0.00     0.031 A 
BRANCH  63  77
ATOM     77  C   UNL A   1      42.621  27.189  34.836  1.00  0.00    -0.014 A 
ATOM     78  C   UNL A   1      42.817  25.831  34.511  1.00  0.00     0.009 A 
ATOM     79  C   UNL A   1      42.106  27.455  36.117  1.00  0.00     0.009 A 
ATOM     80  C   UNL A   1      42.403  24.805  35.370  1.00  0.00     0.001 A 
ATOM     81  C   UNL A   1      41.735  26.433  36.998  1.00  0.00     0.001 A 
ATOM     82  C   UNL A   1      41.848  25.108  36.608  1.00  0.00     0.000 A 
ENDBRANCH  63  77
BRANCH  64  83
ATOM     83  C   UNL A   1      42.595  22.840  27.707  1.00  0.00    -0.014 A 
ATOM     84  C   UNL A   1      41.437  22.135  28.066  1.00  0.00     0.009 A 
ATOM     85  C   UNL A   1      43.357  22.350  26.630  1.00  0.00     0.009 A 
ATOM     86  C   UNL A   1      41.030  21.007  27.342  1.00  0.00     0.001 A 
ATOM     87  C   UNL A   1      42.954  21.220  25.911  1.00  0.00     0.001 A 
ATOM     88  C   UNL A   1      41.780  20.559  26.257  1.00  0.00     0.000 A 
ENDBRANCH  64  83
BRANCH  76  89
ATOM     89  C   UNL A   1      46.116  27.766  29.135  1.00  0.00    -0.014 A 
ATOM     90  C   UNL A   1      45.355  28.353  28.109  1.00  0.00     0.009 A 
ATOM     91  C   UNL A   1      47.514  27.845  29.049  1.00  0.00     0.009 A 
ATOM     92  C   UNL A   1      45.974  28.952  27.007  1.00  0.00     0.001 A 
ATOM     93  C   UNL A   1      48.133  28.466  27.961  1.00  0.00     0.001 A 
ATOM     94  C   UNL A   1      47.363  29.009  26.935  1.00  0.00     0.000 A 
ENDBRANCH  76  89
ENDBRANCH  50  51
ENDBRANCH  42  45
ENDBRANCH  40  41
ENDBRANCH  39  40
ENDBRANCH   1  39
TORSDOF 16
ENDMDL
MODEL 3
REMARK VINA RESULT:     -12.1      5.425     11.052
REMARK SMILES CCCSc1nc2n(n1)[C@@H](c1ccccc1C(=O)NCCCNC(=O)c1ccc(-c3c4nc(c(-c5ccccc5)c5ccc([nH]5)c(-c5ccccc5)c5nc(c(-c6ccccc6)c6ccc3[nH]6)C=C5)C=C4)cc1)C(C(=O)Nc1cccc(C)c1C)=C(C)N2
REMARK SMILES IDX 20 1 19 2 17 3 18 4 16 6 11 7 12 8 13 9 15 10 14 11 10 12
REMARK SMILES IDX 5 13 6 14 9 15 7 16 8 17 88 18 86 19 74 21 87 22 4 23 3 24
REMARK SMILES IDX 2 25 1 26 75 27 76 28 77 29 78 31 79 32 84 33 80 34 82 35
REMARK SMILES IDX 85 36 81 37 83 38 21 39 22 40 23 41 24 42 25 44 26 45 27 46
REMARK SMILES IDX 73 47 28 48 72 49 29 50 30 51 31 52 66 53 32 54 71 55 65 56
REMARK SMILES IDX 67 57 33 58 70 59 64 60 63 61 34 63 56 64 41 65 55 66 42 67
REMARK SMILES IDX 45 68 54 69 68 70 43 71 44 72 53 74 69 75 46 76 35 77 36 78
REMARK SMILES IDX 40 79 37 80 39 81 38 82 57 83 58 84 62 85 59 86 61 87 60 88
REMARK SMILES IDX 47 89 48 90 52 91 49 92 51 93 50 94
REMARK H PARENT 19 5 88 20 77 30 23 43 67 62 45 73
REMARK Flexibility Score: inf
ROOT
ATOM      1  C   UNL A   1      44.143  31.911  26.568  1.00  0.00     0.118 C 
ENDROOT
BRANCH   1   2
ATOM      2  N   UNL A   1      43.594  30.645  26.100  1.00  0.00    -0.352 N 
ATOM      3  C   UNL A   1      43.013  29.477  26.501  1.00  0.00     0.251 C 
ATOM      4  O   UNL A   1      42.428  28.942  25.543  1.00  0.00    -0.269 OA
ATOM      5  H   UNL A   1      43.671  30.624  25.119  1.00  0.00     0.163 HD
BRANCH   3   6
ATOM      6  C   UNL A   1      43.031  28.711  27.809  1.00  0.00     0.045 A 
ATOM      7  C   UNL A   1      43.442  27.398  28.138  1.00  0.00    -0.006 A 
ATOM      8  C   UNL A   1      43.207  26.918  29.464  1.00  0.00     0.007 A 
ATOM      9  C   UNL A   1      42.648  27.710  30.463  1.00  0.00     0.000 A 
ATOM     10  C   UNL A   1      42.524  29.502  28.885  1.00  0.00     0.014 A 
ATOM     11  C   UNL A   1      42.341  29.022  30.183  1.00  0.00     0.001 A 
BRANCH   7  12
ATOM     12  C   UNL A   1      44.286  26.518  27.227  1.00  0.00     0.180 C 
ATOM     13  C   UNL A   1      42.589  23.489  26.621  1.00  0.00     0.210 A 
ATOM     14  N   UNL A   1      43.732  22.981  27.156  1.00  0.00    -0.185 NA
ATOM     15  N   UNL A   1      42.553  24.827  26.511  1.00  0.00    -0.141 NA
ATOM     16  C   UNL A   1      44.426  24.034  27.454  1.00  0.00     0.227 A 
ATOM     17  N   UNL A   1      43.736  25.153  27.091  1.00  0.00    -0.218 N 
ATOM     18  N   UNL A   1      45.635  24.134  28.019  1.00  0.00    -0.328 N 
ATOM     19  C   UNL A   1      46.321  25.328  28.140  1.00  0.00     0.026 C 
ATOM     20  H   UNL A   1      46.057  23.315  28.365  1.00  0.00     0.169 HD
ATOM     21  C   UNL A   1      45.768  26.467  27.658  1.00  0.00     0.065 C 
ATOM     22  C   UNL A   1      47.659  25.213  28.817  1.00  0.00     0.065 C 
BRANCH  13  23
ATOM     23  S   UNL A   1      41.306  22.425  26.130  1.00  0.00    -0.084 SA
BRANCH  23  24
ATOM     24  C   UNL A   1      39.947  23.034  27.193  1.00  0.00     0.078 C 
BRANCH  24  25
ATOM     25  C   UNL A   1      38.836  23.852  26.520  1.00  0.00     0.008 C 
ATOM     26  C   UNL A   1      37.770  23.057  25.776  1.00  0.00     0.005 C 
ENDBRANCH  24  25
ENDBRANCH  23  24
ENDBRANCH  13  23
BRANCH  21  27
ATOM     27  C   UNL A   1      46.508  27.745  27.554  1.00  0.00     0.255 C 
ATOM     28  O   UNL A   1      46.740  28.235  26.450  1.00  0.00    -0.269 OA
ATOM     29  N   UNL A   1      47.078  28.343  28.653  1.00  0.00    -0.322 N 
ATOM     30  H   UNL A   1      48.024  28.604  28.578  1.00  0.00     0.170 HD
BRANCH  29  31
ATOM     31  C   UNL A   1      46.433  28.621  29.878  1.00  0.00     0.044 A 
ATOM     32  C   UNL A   1      46.384  27.528  30.758  1.00  0.00     0.026 A 
ATOM     33  C   UNL A   1      45.909  29.866  30.272  1.00  0.00    -0.025 A 
ATOM     34  C   UNL A   1      45.943  27.685  32.065  1.00  0.00     0.002 A 
ATOM     35  C   UNL A   1      45.462  30.021  31.610  1.00  0.00    -0.046 A 
ATOM     36  C   UNL A   1      45.739  31.012  29.317  1.00  0.00     0.047 C 
ATOM     37  C   UNL A   1      45.514  28.932  32.495  1.00  0.00     0.004 A 
ATOM     38  C   UNL A   1      45.009  31.345  32.173  1.00  0.00     0.044 C 
ENDBRANCH  29  31
ENDBRANCH  21  27
ENDBRANCH   7  12
ENDBRANCH   3   6
ENDBRANCH   1   2
BRANCH   1  39
ATOM     39  C   UNL A   1      44.120  33.040  25.535  1.00  0.00     0.042 C 
BRANCH  39  40
ATOM     40  C   UNL A   1      43.690  34.385  26.127  1.00  0.00     0.118 C 
BRANCH  40  41
ATOM     41  N   UNL A   1      44.798  35.229  26.577  1.00  0.00    -0.352 N 
ATOM     42  C   UNL A   1      44.828  36.073  27.678  1.00  0.00     0.251 C 
ATOM     43  H   UNL A   1      45.618  35.194  26.033  1.00  0.00     0.163 HD
ATOM     44  O   UNL A   1      45.585  37.021  27.744  1.00  0.00    -0.269 OA
BRANCH  42  45
ATOM     45  C   UNL A   1      43.911  35.773  28.788  1.00  0.00     0.039 A 
ATOM     46  C   UNL A   1      42.686  36.434  28.899  1.00  0.00     0.014 A 
ATOM     47  C   UNL A   1      44.240  34.698  29.609  1.00  0.00     0.014 A 
ATOM     48  C   UNL A   1      41.720  35.900  29.744  1.00  0.00     0.010 A 
ATOM     49  C   UNL A   1      43.250  34.112  30.361  1.00  0.00     0.010 A 
ATOM     50  C   UNL A   1      41.984  34.697  30.422  1.00  0.00    -0.014 A 
BRANCH  50  51
ATOM     51  C   UNL A   1      40.873  33.922  30.975  1.00  0.00     0.031 A 
ATOM     52  C   UNL A   1      40.934  33.714  32.452  1.00  0.00     0.074 A 
ATOM     53  C   UNL A   1      39.727  33.660  30.315  1.00  0.00     0.049 A 
ATOM     54  N   UNL A   1      41.107  32.603  33.090  1.00  0.00    -0.248 NA
ATOM     55  C   UNL A   1      40.916  34.902  33.324  1.00  0.00     0.031 C 
ATOM     56  C   UNL A   1      39.337  34.105  28.974  1.00  0.00     0.029 A 
ATOM     57  N   UNL A   1      38.598  33.051  30.775  1.00  0.00    -0.354 N 
ATOM     58  C   UNL A   1      41.008  32.915  34.443  1.00  0.00     0.074 A 
ATOM     59  C   UNL A   1      41.086  34.351  34.528  1.00  0.00     0.031 C 
ATOM     60  C   UNL A   1      38.000  33.976  28.830  1.00  0.00     0.029 A 
ATOM     61  C   UNL A   1      37.478  33.274  29.988  1.00  0.00     0.049 A 
ATOM     62  H   UNL A   1      38.579  32.504  31.592  1.00  0.00     0.167 HD
ATOM     63  C   UNL A   1      40.594  31.989  35.356  1.00  0.00     0.031 A 
ATOM     64  C   UNL A   1      36.201  32.924  30.269  1.00  0.00     0.031 A 
ATOM     65  C   UNL A   1      40.616  30.656  34.802  1.00  0.00     0.049 A 
ATOM     66  C   UNL A   1      36.244  31.867  31.302  1.00  0.00     0.074 A 
ATOM     67  C   UNL A   1      41.570  29.848  34.217  1.00  0.00     0.029 A 
ATOM     68  N   UNL A   1      39.402  30.116  34.450  1.00  0.00    -0.354 N 
ATOM     69  N   UNL A   1      36.708  30.671  31.085  1.00  0.00    -0.248 NA
ATOM     70  C   UNL A   1      36.144  32.249  32.701  1.00  0.00     0.031 C 
ATOM     71  C   UNL A   1      40.883  29.174  33.163  1.00  0.00     0.029 A 
ATOM     72  C   UNL A   1      39.539  29.550  33.211  1.00  0.00     0.049 A 
ATOM     73  H   UNL A   1      38.580  30.131  34.992  1.00  0.00     0.167 HD
ATOM     74  C   UNL A   1      37.382  30.339  32.251  1.00  0.00     0.074 A 
ATOM     75  C   UNL A   1      36.876  31.276  33.251  1.00  0.00     0.031 C 
ATOM     76  C   UNL A   1      38.489  29.538  32.215  1.00  0.00     0.031 A 
BRANCH  63  77
ATOM     77  C   UNL A   1      39.732  32.322  36.561  1.00  0.00    -0.014 A 
ATOM     78  C   UNL A   1      38.359  32.563  36.353  1.00  0.00     0.009 A 
ATOM     79  C   UNL A   1      40.250  32.706  37.810  1.00  0.00     0.009 A 
ATOM     80  C   UNL A   1      37.587  33.260  37.292  1.00  0.00     0.001 A 
ATOM     81  C   UNL A   1      39.471  33.359  38.771  1.00  0.00     0.001 A 
ATOM     82  C   UNL A   1      38.149  33.671  38.495  1.00  0.00     0.000 A 
ENDBRANCH  63  77
BRANCH  64  83
ATOM     83  C   UNL A   1      34.941  33.555  29.832  1.00  0.00    -0.014 A 
ATOM     84  C   UNL A   1      34.350  34.573  30.595  1.00  0.00     0.009 A 
ATOM     85  C   UNL A   1      34.450  33.338  28.532  1.00  0.00     0.009 A 
ATOM     86  C   UNL A   1      33.336  35.376  30.057  1.00  0.00     0.001 A 
ATOM     87  C   UNL A   1      33.433  34.136  27.997  1.00  0.00     0.001 A 
ATOM     88  C   UNL A   1      32.890  35.167  28.755  1.00  0.00     0.000 A 
ENDBRANCH  64  83
BRANCH  76  89
ATOM     89  C   UNL A   1      38.773  28.782  30.940  1.00  0.00    -0.014 A 
ATOM     90  C   UNL A   1      38.879  27.381  30.877  1.00  0.00     0.009 A 
ATOM     91  C   UNL A   1      38.818  29.503  29.737  1.00  0.00     0.009 A 
ATOM     92  C   UNL A   1      39.075  26.728  29.655  1.00  0.00     0.001 A 
ATOM     93  C   UNL A   1      38.988  28.849  28.514  1.00  0.00     0.001 A 
ATOM     94  C   UNL A   1      39.128  27.464  28.474  1.00  0.00     0.000 A 
ENDBRANCH  76  89
ENDBRANCH  50  51
ENDBRANCH  42  45
ENDBRANCH  40  41
ENDBRANCH  39  40
ENDBRANCH   1  39
TORSDOF 16
ENDMDL
