MODEL 1
REMARK VINA RESULT:     -10.7      0.000      0.000
REMARK SMILES O=C(NCCCNC(=O)[C@H]1CC[C@@H](CNC(=O)[C@@H]2C[C@H]3CC[C@@H]2[NH2+]3)O1)c1ccc(-c2c3nc(c(-c4ccccc4)c4ccc([nH]4)c(-c4ccccc4)c4nc(c(-c5ccccc5)c5ccc2[nH]5)C=C4)C=C3)cc1
REMARK SMILES IDX 5 1 4 2 3 3 1 4 2 5 26 7 27 8 73 9 28 10 72 11 29 12 30 13
REMARK SMILES IDX 31 14 66 15 32 16 71 17 65 18 67 19 33 20 70 21 64 22 63 23
REMARK SMILES IDX 34 25 56 26 41 27 55 28 42 29 45 30 54 31 68 32 43 33 44 34
REMARK SMILES IDX 53 36 69 37 46 38 35 39 36 40 40 41 37 42 39 43 38 44 57 45
REMARK SMILES IDX 58 46 62 47 59 48 61 49 60 50 47 51 48 52 52 53 49 54 51 55
REMARK SMILES IDX 50 56 6 57 7 58 8 59 9 61 10 62 11 63 25 64 12 65 13 66
REMARK SMILES IDX 14 67 15 68 16 69 17 71 18 72 19 73 23 74 20 75 22 76 24 77
REMARK SMILES IDX 21 78
REMARK H PARENT 3 6 67 24 45 35 7 60 15 70 24 79 24 80
REMARK Flexibility Score: inf
ROOT
ATOM      1  C   UNL A   1      31.938  28.174  27.713  1.00  0.00     0.042 C 
ENDROOT
BRANCH   1   2
ATOM      2  C   UNL A   1      33.266  28.760  27.252  1.00  0.00     0.118 C 
BRANCH   2   3
ATOM      3  N   UNL A   1      33.349  30.194  27.497  1.00  0.00    -0.352 N 
ATOM      4  O   UNL A   1      34.146  32.104  28.384  1.00  0.00    -0.269 OA
ATOM      5  C   UNL A   1      34.348  30.924  28.085  1.00  0.00     0.251 C 
ATOM      6  H   UNL A   1      32.572  30.718  27.196  1.00  0.00     0.163 HD
BRANCH   5   7
ATOM      7  C   UNL A   1      35.664  30.315  28.370  1.00  0.00     0.039 A 
ATOM      8  C   UNL A   1      36.691  30.342  27.421  1.00  0.00     0.014 A 
ATOM      9  C   UNL A   1      35.898  29.769  29.636  1.00  0.00     0.014 A 
ATOM     10  C   UNL A   1      37.915  29.742  27.702  1.00  0.00     0.010 A 
ATOM     11  C   UNL A   1      37.152  29.233  29.944  1.00  0.00     0.010 A 
ATOM     12  C   UNL A   1      38.167  29.211  28.976  1.00  0.00    -0.014 A 
BRANCH  12  13
ATOM     13  C   UNL A   1      39.534  28.750  29.320  1.00  0.00     0.031 A 
ATOM     14  C   UNL A   1      40.059  27.430  28.835  1.00  0.00     0.074 A 
ATOM     15  C   UNL A   1      40.297  29.536  30.107  1.00  0.00     0.049 A 
ATOM     16  N   UNL A   1      41.215  26.867  29.081  1.00  0.00    -0.248 NA
ATOM     17  C   UNL A   1      39.173  26.633  27.971  1.00  0.00     0.031 C 
ATOM     18  C   UNL A   1      39.888  30.836  30.649  1.00  0.00     0.029 A 
ATOM     19  N   UNL A   1      41.567  29.362  30.590  1.00  0.00    -0.354 N 
ATOM     20  C   UNL A   1      41.191  25.643  28.423  1.00  0.00     0.074 A 
ATOM     21  C   UNL A   1      39.898  25.537  27.780  1.00  0.00     0.031 C 
ATOM     22  C   UNL A   1      40.894  31.349  31.370  1.00  0.00     0.029 A 
ATOM     23  C   UNL A   1      41.991  30.390  31.397  1.00  0.00     0.049 A 
ATOM     24  H   UNL A   1      42.122  28.576  30.380  1.00  0.00     0.167 HD
ATOM     25  C   UNL A   1      42.160  24.700  28.365  1.00  0.00     0.031 A 
ATOM     26  C   UNL A   1      43.123  30.533  32.111  1.00  0.00     0.031 A 
ATOM     27  C   UNL A   1      43.445  24.817  29.005  1.00  0.00     0.049 A 
ATOM     28  C   UNL A   1      44.155  29.446  32.064  1.00  0.00     0.074 A 
ATOM     29  C   UNL A   1      44.518  23.943  28.945  1.00  0.00     0.029 A 
ATOM     30  N   UNL A   1      43.826  25.862  29.833  1.00  0.00    -0.354 N 
ATOM     31  N   UNL A   1      44.148  28.331  31.374  1.00  0.00    -0.248 NA
ATOM     32  C   UNL A   1      45.351  29.632  32.897  1.00  0.00     0.031 C 
ATOM     33  C   UNL A   1      45.521  24.423  29.793  1.00  0.00     0.029 A 
ATOM     34  C   UNL A   1      45.098  25.627  30.331  1.00  0.00     0.049 A 
ATOM     35  H   UNL A   1      43.276  26.652  30.036  1.00  0.00     0.167 HD
ATOM     36  C   UNL A   1      45.341  27.691  31.679  1.00  0.00     0.074 A 
ATOM     37  C   UNL A   1      46.059  28.554  32.594  1.00  0.00     0.031 C 
ATOM     38  C   UNL A   1      45.797  26.492  31.245  1.00  0.00     0.031 A 
BRANCH  25  39
ATOM     39  C   UNL A   1      41.870  23.431  27.613  1.00  0.00    -0.014 A 
ATOM     40  C   UNL A   1      42.336  23.230  26.305  1.00  0.00     0.009 A 
ATOM     41  C   UNL A   1      41.193  22.384  28.260  1.00  0.00     0.009 A 
ATOM     42  C   UNL A   1      42.114  22.013  25.655  1.00  0.00     0.001 A 
ATOM     43  C   UNL A   1      40.994  21.161  27.618  1.00  0.00     0.001 A 
ATOM     44  C   UNL A   1      41.449  20.979  26.314  1.00  0.00     0.000 A 
ENDBRANCH  25  39
BRANCH  26  45
ATOM     45  C   UNL A   1      43.312  31.730  32.971  1.00  0.00    -0.014 A 
ATOM     46  C   UNL A   1      42.855  31.743  34.297  1.00  0.00     0.009 A 
ATOM     47  C   UNL A   1      43.944  32.876  32.461  1.00  0.00     0.009 A 
ATOM     48  C   UNL A   1      43.000  32.890  35.083  1.00  0.00     0.001 A 
ATOM     49  C   UNL A   1      44.119  34.008  33.259  1.00  0.00     0.001 A 
ATOM     50  C   UNL A   1      43.634  34.018  34.564  1.00  0.00     0.000 A 
ENDBRANCH  26  45
BRANCH  38  51
ATOM     51  C   UNL A   1      47.144  26.050  31.742  1.00  0.00    -0.014 A 
ATOM     52  C   UNL A   1      48.309  26.309  31.004  1.00  0.00     0.009 A 
ATOM     53  C   UNL A   1      47.252  25.407  32.985  1.00  0.00     0.009 A 
ATOM     54  C   UNL A   1      49.555  25.910  31.491  1.00  0.00     0.001 A 
ATOM     55  C   UNL A   1      48.501  25.036  33.483  1.00  0.00     0.001 A 
ATOM     56  C   UNL A   1      49.650  25.281  32.732  1.00  0.00     0.000 A 
ENDBRANCH  38  51
ENDBRANCH  12  13
ENDBRANCH   5   7
ENDBRANCH   2   3
ENDBRANCH   1   2
BRANCH   1  57
ATOM     57  C   UNL A   1      31.198  27.372  26.651  1.00  0.00     0.117 C 
BRANCH  57  58
ATOM     58  N   UNL A   1      31.608  25.980  26.639  1.00  0.00    -0.354 N 
ATOM     59  C   UNL A   1      31.765  25.153  25.562  1.00  0.00     0.249 C 
ATOM     60  H   UNL A   1      31.799  25.581  27.519  1.00  0.00     0.163 HD
ATOM     61  O   UNL A   1      32.040  23.970  25.770  1.00  0.00    -0.272 OA
BRANCH  59  62
ATOM     62  C   UNL A   1      31.618  25.744  24.148  1.00  0.00     0.207 C 
ATOM     63  C   UNL A   1      32.787  26.637  23.763  1.00  0.00     0.045 C 
ATOM     64  O   UNL A   1      31.575  24.686  23.178  1.00  0.00    -0.363 OA
ATOM     65  C   UNL A   1      33.738  25.653  23.129  1.00  0.00     0.037 C 
ATOM     66  C   UNL A   1      32.777  24.738  22.390  1.00  0.00     0.138 C 
BRANCH  66  67
ATOM     67  C   UNL A   1      33.373  23.358  22.073  1.00  0.00     0.147 C 
BRANCH  67  68
ATOM     68  N   UNL A   1      33.293  22.377  23.146  1.00  0.00    -0.353 N 
ATOM     69  C   UNL A   1      34.132  22.068  24.166  1.00  0.00     0.229 C 
ATOM     70  H   UNL A   1      32.473  21.834  23.127  1.00  0.00     0.163 HD
ATOM     71  O   UNL A   1      33.764  21.149  24.914  1.00  0.00    -0.275 OA
BRANCH  69  72
ATOM     72  C   UNL A   1      35.507  22.696  24.414  1.00  0.00     0.142 C 
ATOM     73  C   UNL A   1      36.775  21.985  23.930  1.00  0.00     0.084 C 
ATOM     74  C   UNL A   1      35.788  22.886  25.909  1.00  0.00     0.195 C 
ATOM     75  C   UNL A   1      37.541  21.734  25.246  1.00  0.00     0.183 C 
ATOM     76  C   UNL A   1      36.951  23.872  26.116  1.00  0.00     0.072 C 
ATOM     77  N   UNL A   1      36.447  21.606  26.221  1.00  0.00    -0.341 N 
ATOM     78  C   UNL A   1      38.179  23.032  25.739  1.00  0.00     0.071 C 
ATOM     79  H   UNL A   1      36.784  21.564  27.183  1.00  0.00     0.346 HD
ATOM     80  H   UNL A   1      35.872  20.766  26.159  1.00  0.00     0.346 HD
ENDBRANCH  69  72
ENDBRANCH  67  68
ENDBRANCH  66  67
ENDBRANCH  59  62
ENDBRANCH  57  58
ENDBRANCH   1  57
TORSDOF 13
ENDMDL
MODEL 2
REMARK VINA RESULT:     -10.6      2.079      7.589
REMARK SMILES O=C(NCCCNC(=O)[C@H]1CC[C@@H](CNC(=O)[C@@H]2C[C@H]3CC[C@@H]2[NH2+]3)O1)c1ccc(-c2c3nc(c(-c4ccccc4)c4ccc([nH]4)c(-c4ccccc4)c4nc(c(-c5ccccc5)c5ccc2[nH]5)C=C4)C=C3)cc1
REMARK SMILES IDX 5 1 4 2 3 3 1 4 2 5 26 7 27 8 73 9 28 10 72 11 29 12 30 13
REMARK SMILES IDX 31 14 66 15 32 16 71 17 65 18 67 19 33 20 70 21 64 22 63 23
REMARK SMILES IDX 34 25 56 26 41 27 55 28 42 29 45 30 54 31 68 32 43 33 44 34
REMARK SMILES IDX 53 36 69 37 46 38 35 39 36 40 40 41 37 42 39 43 38 44 57 45
REMARK SMILES IDX 58 46 62 47 59 48 61 49 60 50 47 51 48 52 52 53 49 54 51 55
REMARK SMILES IDX 50 56 6 57 7 58 8 59 9 61 10 62 11 63 25 64 12 65 13 66
REMARK SMILES IDX 14 67 15 68 16 69 17 71 18 72 19 73 23 74 20 75 22 76 24 77
REMARK SMILES IDX 21 78
REMARK H PARENT 3 6 67 24 45 35 7 60 15 70 24 79 24 80
REMARK Flexibility Score: inf
ROOT
ATOM      1  C   UNL A   1      37.290  20.091  24.681  1.00  0.00     0.042 C 
ENDROOT
BRANCH   1   2
ATOM      2  C   UNL A   1      38.486  20.592  25.480  1.00  0.00     0.118 C 
BRANCH   2   3
ATOM      3  N   UNL A   1      39.527  19.580  25.608  1.00  0.00    -0.352 N 
ATOM      4  O   UNL A   1      41.614  18.769  25.830  1.00  0.00    -0.269 OA
ATOM      5  C   UNL A   1      40.838  19.716  25.977  1.00  0.00     0.251 C 
ATOM      6  H   UNL A   1      39.246  18.660  25.397  1.00  0.00     0.163 HD
BRANCH   5   7
ATOM      7  C   UNL A   1      41.337  20.986  26.544  1.00  0.00     0.039 A 
ATOM      8  C   UNL A   1      41.854  21.989  25.719  1.00  0.00     0.014 A 
ATOM      9  C   UNL A   1      41.218  21.207  27.920  1.00  0.00     0.014 A 
ATOM     10  C   UNL A   1      42.340  23.169  26.277  1.00  0.00     0.010 A 
ATOM     11  C   UNL A   1      41.636  22.421  28.470  1.00  0.00     0.010 A 
ATOM     12  C   UNL A   1      42.206  23.409  27.652  1.00  0.00    -0.014 A 
BRANCH  12  13
ATOM     13  C   UNL A   1      42.551  24.743  28.200  1.00  0.00     0.031 A 
ATOM     14  C   UNL A   1      41.503  25.797  28.409  1.00  0.00     0.074 A 
ATOM     15  C   UNL A   1      43.843  25.003  28.485  1.00  0.00     0.049 A 
ATOM     16  N   UNL A   1      41.650  27.025  28.842  1.00  0.00    -0.248 NA
ATOM     17  C   UNL A   1      40.115  25.435  28.086  1.00  0.00     0.031 C 
ATOM     18  C   UNL A   1      44.951  24.060  28.311  1.00  0.00     0.029 A 
ATOM     19  N   UNL A   1      44.445  26.132  28.978  1.00  0.00    -0.354 N 
ATOM     20  C   UNL A   1      40.381  27.589  28.823  1.00  0.00     0.074 A 
ATOM     21  C   UNL A   1      39.477  26.577  28.320  1.00  0.00     0.031 C 
ATOM     22  C   UNL A   1      46.092  24.640  28.710  1.00  0.00     0.029 A 
ATOM     23  C   UNL A   1      45.808  26.014  29.104  1.00  0.00     0.049 A 
ATOM     24  H   UNL A   1      43.949  26.949  29.217  1.00  0.00     0.167 HD
ATOM     25  C   UNL A   1      40.011  28.839  29.191  1.00  0.00     0.031 A 
ATOM     26  C   UNL A   1      46.736  26.920  29.464  1.00  0.00     0.031 A 
ATOM     27  C   UNL A   1      40.918  29.839  29.693  1.00  0.00     0.049 A 
ATOM     28  C   UNL A   1      46.297  28.310  29.818  1.00  0.00     0.074 A 
ATOM     29  C   UNL A   1      40.624  31.110  30.157  1.00  0.00     0.029 A 
ATOM     30  N   UNL A   1      42.293  29.688  29.783  1.00  0.00    -0.354 N 
ATOM     31  N   UNL A   1      45.084  28.803  29.869  1.00  0.00    -0.248 NA
ATOM     32  C   UNL A   1      47.354  29.271  30.159  1.00  0.00     0.031 C 
ATOM     33  C   UNL A   1      41.827  31.754  30.460  1.00  0.00     0.029 A 
ATOM     34  C   UNL A   1      42.866  30.862  30.246  1.00  0.00     0.049 A 
ATOM     35  H   UNL A   1      42.788  28.870  29.553  1.00  0.00     0.167 HD
ATOM     36  C   UNL A   1      45.230  30.127  30.261  1.00  0.00     0.074 A 
ATOM     37  C   UNL A   1      46.647  30.351  30.461  1.00  0.00     0.031 C 
ATOM     38  C   UNL A   1      44.277  31.072  30.433  1.00  0.00     0.031 A 
BRANCH  25  39
ATOM     39  C   UNL A   1      38.566  29.224  29.036  1.00  0.00    -0.014 A 
ATOM     40  C   UNL A   1      37.674  29.177  30.117  1.00  0.00     0.009 A 
ATOM     41  C   UNL A   1      38.113  29.727  27.805  1.00  0.00     0.009 A 
ATOM     42  C   UNL A   1      36.354  29.609  29.964  1.00  0.00     0.001 A 
ATOM     43  C   UNL A   1      36.801  30.182  27.660  1.00  0.00     0.001 A 
ATOM     44  C   UNL A   1      35.922  30.116  28.738  1.00  0.00     0.000 A 
ENDBRANCH  25  39
BRANCH  26  45
ATOM     45  C   UNL A   1      48.176  26.552  29.456  1.00  0.00    -0.014 A 
ATOM     46  C   UNL A   1      48.964  26.755  28.313  1.00  0.00     0.009 A 
ATOM     47  C   UNL A   1      48.768  25.981  30.594  1.00  0.00     0.009 A 
ATOM     48  C   UNL A   1      50.306  26.365  28.302  1.00  0.00     0.001 A 
ATOM     49  C   UNL A   1      50.118  25.625  30.593  1.00  0.00     0.001 A 
ATOM     50  C   UNL A   1      50.881  25.806  29.442  1.00  0.00     0.000 A 
ENDBRANCH  26  45
BRANCH  38  51
ATOM     51  C   UNL A   1      44.734  32.434  30.875  1.00  0.00    -0.014 A 
ATOM     52  C   UNL A   1      45.025  33.439  29.939  1.00  0.00     0.009 A 
ATOM     53  C   UNL A   1      44.830  32.728  32.243  1.00  0.00     0.009 A 
ATOM     54  C   UNL A   1      45.428  34.705  30.367  1.00  0.00     0.001 A 
ATOM     55  C   UNL A   1      45.204  34.002  32.669  1.00  0.00     0.001 A 
ATOM     56  C   UNL A   1      45.510  34.987  31.730  1.00  0.00     0.000 A 
ENDBRANCH  38  51
ENDBRANCH  12  13
ENDBRANCH   5   7
ENDBRANCH   2   3
ENDBRANCH   1   2
BRANCH   1  57
ATOM     57  C   UNL A   1      35.985  20.818  24.974  1.00  0.00     0.117 C 
BRANCH  57  58
ATOM     58  N   UNL A   1      35.904  22.089  24.279  1.00  0.00    -0.354 N 
ATOM     59  C   UNL A   1      34.813  22.664  23.689  1.00  0.00     0.249 C 
ATOM     60  H   UNL A   1      36.742  22.603  24.227  1.00  0.00     0.163 HD
ATOM     61  O   UNL A   1      34.971  23.717  23.072  1.00  0.00    -0.272 OA
BRANCH  59  62
ATOM     62  C   UNL A   1      33.441  21.983  23.850  1.00  0.00     0.207 C 
ATOM     63  C   UNL A   1      32.853  22.175  25.240  1.00  0.00     0.045 C 
ATOM     64  O   UNL A   1      32.502  22.552  22.925  1.00  0.00    -0.363 OA
ATOM     65  C   UNL A   1      32.071  23.454  25.075  1.00  0.00     0.037 C 
ATOM     66  C   UNL A   1      31.517  23.290  23.670  1.00  0.00     0.138 C 
BRANCH  66  67
ATOM     67  C   UNL A   1      31.112  24.620  23.016  1.00  0.00     0.147 C 
BRANCH  67  68
ATOM     68  N   UNL A   1      32.188  25.357  22.369  1.00  0.00    -0.353 N 
ATOM     69  C   UNL A   1      32.950  26.405  22.772  1.00  0.00     0.229 C 
ATOM     70  H   UNL A   1      32.405  25.031  21.467  1.00  0.00     0.163 HD
ATOM     71  O   UNL A   1      33.791  26.812  21.956  1.00  0.00    -0.275 OA
BRANCH  69  72
ATOM     72  C   UNL A   1      32.801  27.162  24.095  1.00  0.00     0.142 C 
ATOM     73  C   UNL A   1      31.557  28.018  24.356  1.00  0.00     0.084 C 
ATOM     74  C   UNL A   1      33.940  28.164  24.312  1.00  0.00     0.195 C 
ATOM     75  C   UNL A   1      32.154  29.428  24.539  1.00  0.00     0.183 C 
ATOM     76  C   UNL A   1      34.003  28.595  25.788  1.00  0.00     0.072 C 
ATOM     77  N   UNL A   1      33.357  29.368  23.694  1.00  0.00    -0.341 N 
ATOM     78  C   UNL A   1      32.807  29.549  25.915  1.00  0.00     0.071 C 
ATOM     79  H   UNL A   1      33.951  30.190  23.802  1.00  0.00     0.346 HD
ATOM     80  H   UNL A   1      33.209  29.341  22.685  1.00  0.00     0.346 HD
ENDBRANCH  69  72
ENDBRANCH  67  68
ENDBRANCH  66  67
ENDBRANCH  59  62
ENDBRANCH  57  58
ENDBRANCH   1  57
TORSDOF 13
ENDMDL
MODEL 3
REMARK VINA RESULT:     -10.5      3.032      4.706
REMARK SMILES O=C(NCCCNC(=O)[C@H]1CC[C@@H](CNC(=O)[C@@H]2C[C@H]3CC[C@@H]2[NH2+]3)O1)c1ccc(-c2c3nc(c(-c4ccccc4)c4ccc([nH]4)c(-c4ccccc4)c4nc(c(-c5ccccc5)c5ccc2[nH]5)C=C4)C=C3)cc1
REMARK SMILES IDX 5 1 4 2 3 3 1 4 2 5 26 7 27 8 73 9 28 10 72 11 29 12 30 13
REMARK SMILES IDX 31 14 66 15 32 16 71 17 65 18 67 19 33 20 70 21 64 22 63 23
REMARK SMILES IDX 34 25 56 26 41 27 55 28 42 29 45 30 54 31 68 32 43 33 44 34
REMARK SMILES IDX 53 36 69 37 46 38 35 39 36 40 40 41 37 42 39 43 38 44 57 45
REMARK SMILES IDX 58 46 62 47 59 48 61 49 60 50 47 51 48 52 52 53 49 54 51 55
REMARK SMILES IDX 50 56 6 57 7 58 8 59 9 61 10 62 11 63 25 64 12 65 13 66
REMARK SMILES IDX 14 67 15 68 16 69 17 71 18 72 19 73 23 74 20 75 22 76 24 77
REMARK SMILES IDX 21 78
REMARK H PARENT 3 6 67 24 45 35 7 60 15 70 24 79 24 80
REMARK Flexibility Score: inf
ROOT
ATOM      1  C   UNL A   1      31.421  32.086  26.791  1.00  0.00     0.042 C 
ENDROOT
BRANCH   1   2
ATOM      2  C   UNL A   1      32.696  32.780  27.251  1.00  0.00     0.118 C 
BRANCH   2   3
ATOM      3  N   UNL A   1      32.452  34.152  27.677  1.00  0.00    -0.352 N 
ATOM      4  O   UNL A   1      32.563  35.959  29.016  1.00  0.00    -0.269 OA
ATOM      5  C   UNL A   1      33.046  34.876  28.677  1.00  0.00     0.251 C 
ATOM      6  H   UNL A   1      31.758  34.632  27.171  1.00  0.00     0.163 HD
BRANCH   5   7
ATOM      7  C   UNL A   1      34.257  34.373  29.358  1.00  0.00     0.039 A 
ATOM      8  C   UNL A   1      34.166  33.662  30.559  1.00  0.00     0.014 A 
ATOM      9  C   UNL A   1      35.503  34.553  28.748  1.00  0.00     0.014 A 
ATOM     10  C   UNL A   1      35.321  33.218  31.195  1.00  0.00     0.010 A 
ATOM     11  C   UNL A   1      36.656  34.041  29.349  1.00  0.00     0.010 A 
ATOM     12  C   UNL A   1      36.573  33.374  30.581  1.00  0.00    -0.014 A 
BRANCH  12  13
ATOM     13  C   UNL A   1      37.767  32.728  31.177  1.00  0.00     0.031 A 
ATOM     14  C   UNL A   1      38.394  31.515  30.552  1.00  0.00     0.074 A 
ATOM     15  C   UNL A   1      38.270  33.241  32.318  1.00  0.00     0.049 A 
ATOM     16  N   UNL A   1      39.416  30.812  30.973  1.00  0.00    -0.248 NA
ATOM     17  C   UNL A   1      37.796  31.021  29.302  1.00  0.00     0.031 C 
ATOM     18  C   UNL A   1      37.736  34.410  33.024  1.00  0.00     0.029 A 
ATOM     19  N   UNL A   1      39.335  32.849  33.087  1.00  0.00    -0.354 N 
ATOM     20  C   UNL A   1      39.571  29.781  30.054  1.00  0.00     0.074 A 
ATOM     21  C   UNL A   1      38.529  29.940  29.062  1.00  0.00     0.031 C 
ATOM     22  C   UNL A   1      38.488  34.653  34.107  1.00  0.00     0.029 A 
ATOM     23  C   UNL A   1      39.512  33.621  34.210  1.00  0.00     0.049 A 
ATOM     24  H   UNL A   1      39.916  32.088  32.858  1.00  0.00     0.167 HD
ATOM     25  C   UNL A   1      40.500  28.796  30.046  1.00  0.00     0.031 A 
ATOM     26  C   UNL A   1      40.381  33.496  35.231  1.00  0.00     0.031 A 
ATOM     27  C   UNL A   1      41.536  28.649  31.036  1.00  0.00     0.049 A 
ATOM     28  C   UNL A   1      41.364  32.363  35.214  1.00  0.00     0.074 A 
ATOM     29  C   UNL A   1      42.565  27.722  31.072  1.00  0.00     0.029 A 
ATOM     30  N   UNL A   1      41.667  29.436  32.169  1.00  0.00    -0.354 N 
ATOM     31  N   UNL A   1      41.547  31.444  34.299  1.00  0.00    -0.248 NA
ATOM     32  C   UNL A   1      42.257  32.247  36.375  1.00  0.00     0.031 C 
ATOM     33  C   UNL A   1      43.274  27.903  32.263  1.00  0.00     0.029 A 
ATOM     34  C   UNL A   1      42.727  28.983  32.938  1.00  0.00     0.049 A 
ATOM     35  H   UNL A   1      41.092  30.202  32.394  1.00  0.00     0.167 HD
ATOM     36  C   UNL A   1      42.585  30.648  34.765  1.00  0.00     0.074 A 
ATOM     37  C   UNL A   1      43.009  31.210  36.031  1.00  0.00     0.031 C 
ATOM     38  C   UNL A   1      43.133  29.548  34.197  1.00  0.00     0.031 A 
BRANCH  25  39
ATOM     39  C   UNL A   1      40.430  27.766  28.953  1.00  0.00    -0.014 A 
ATOM     40  C   UNL A   1      39.653  26.605  29.087  1.00  0.00     0.009 A 
ATOM     41  C   UNL A   1      41.084  28.007  27.734  1.00  0.00     0.009 A 
ATOM     42  C   UNL A   1      39.548  25.700  28.028  1.00  0.00     0.001 A 
ATOM     43  C   UNL A   1      40.958  27.114  26.669  1.00  0.00     0.001 A 
ATOM     44  C   UNL A   1      40.195  25.958  26.819  1.00  0.00     0.000 A 
ENDBRANCH  25  39
BRANCH  26  45
ATOM     45  C   UNL A   1      40.321  34.440  36.377  1.00  0.00    -0.014 A 
ATOM     46  C   UNL A   1      39.501  34.177  37.484  1.00  0.00     0.009 A 
ATOM     47  C   UNL A   1      41.079  35.622  36.361  1.00  0.00     0.009 A 
ATOM     48  C   UNL A   1      39.419  35.093  38.536  1.00  0.00     0.001 A 
ATOM     49  C   UNL A   1      41.023  36.518  37.430  1.00  0.00     0.001 A 
ATOM     50  C   UNL A   1      40.183  36.259  38.509  1.00  0.00     0.000 A 
ENDBRANCH  26  45
BRANCH  38  51
ATOM     51  C   UNL A   1      44.262  28.886  34.935  1.00  0.00    -0.014 A 
ATOM     52  C   UNL A   1      44.020  27.850  35.851  1.00  0.00     0.009 A 
ATOM     53  C   UNL A   1      45.586  29.274  34.677  1.00  0.00     0.009 A 
ATOM     54  C   UNL A   1      45.083  27.232  36.511  1.00  0.00     0.001 A 
ATOM     55  C   UNL A   1      46.648  28.634  35.317  1.00  0.00     0.001 A 
ATOM     56  C   UNL A   1      46.394  27.620  36.239  1.00  0.00     0.000 A 
ENDBRANCH  38  51
ENDBRANCH  12  13
ENDBRANCH   5   7
ENDBRANCH   2   3
ENDBRANCH   1   2
BRANCH   1  57
ATOM     57  C   UNL A   1      31.643  30.745  26.106  1.00  0.00     0.117 C 
BRANCH  57  58
ATOM     58  N   UNL A   1      31.609  29.642  27.047  1.00  0.00    -0.354 N 
ATOM     59  C   UNL A   1      31.612  28.300  26.780  1.00  0.00     0.249 C 
ATOM     60  H   UNL A   1      31.582  29.890  27.999  1.00  0.00     0.163 HD
ATOM     61  O   UNL A   1      31.493  27.518  27.724  1.00  0.00    -0.272 OA
BRANCH  59  62
ATOM     62  C   UNL A   1      31.792  27.837  25.323  1.00  0.00     0.207 C 
ATOM     63  C   UNL A   1      33.154  27.209  25.073  1.00  0.00     0.045 C 
ATOM     64  O   UNL A   1      30.814  26.834  25.005  1.00  0.00    -0.363 OA
ATOM     65  C   UNL A   1      32.891  25.756  25.383  1.00  0.00     0.037 C 
ATOM     66  C   UNL A   1      31.490  25.578  24.824  1.00  0.00     0.138 C 
BRANCH  66  67
ATOM     67  C   UNL A   1      30.743  24.377  25.426  1.00  0.00     0.147 C 
BRANCH  67  68
ATOM     68  N   UNL A   1      31.316  23.828  26.646  1.00  0.00    -0.353 N 
ATOM     69  C   UNL A   1      32.236  22.856  26.867  1.00  0.00     0.229 C 
ATOM     70  H   UNL A   1      30.969  24.241  27.468  1.00  0.00     0.163 HD
ATOM     71  O   UNL A   1      32.499  22.615  28.055  1.00  0.00    -0.275 OA
BRANCH  69  72
ATOM     72  C   UNL A   1      32.903  21.994  25.790  1.00  0.00     0.142 C 
ATOM     73  C   UNL A   1      32.087  20.939  25.035  1.00  0.00     0.084 C 
ATOM     74  C   UNL A   1      34.063  21.168  26.355  1.00  0.00     0.195 C 
ATOM     75  C   UNL A   1      32.816  19.630  25.400  1.00  0.00     0.183 C 
ATOM     76  C   UNL A   1      34.960  20.651  25.216  1.00  0.00     0.072 C 
ATOM     77  N   UNL A   1      33.353  19.935  26.735  1.00  0.00    -0.341 N 
ATOM     78  C   UNL A   1      34.120  19.516  24.613  1.00  0.00     0.071 C 
ATOM     79  H   UNL A   1      33.984  19.210  27.077  1.00  0.00     0.346 HD
ATOM     80  H   UNL A   1      32.679  20.009  27.496  1.00  0.00     0.346 HD
ENDBRANCH  69  72
ENDBRANCH  67  68
ENDBRANCH  66  67
ENDBRANCH  59  62
ENDBRANCH  57  58
ENDBRANCH   1  57
TORSDOF 13
ENDMDL
