MODEL 1
REMARK VINA RESULT:     -14.0      0.000      0.000
REMARK SMILES Cc1ccc(-c2cc(C(=O)NCCCNC(=O)c3ccc(-c4c5nc(c(-c6ccccc6)c6ccc([nH]6)c(-c6ccccc6)c6nc(c(-c7ccccc7)c7ccc4[nH]7)C=C6)C=C5)cc3)c3c(-c4cccc([N+](=O)[O-])c4)[nH]nc3n2)cc1
REMARK SMILES IDX 13 1 12 2 11 3 9 4 10 5 8 7 6 8 7 9 80 10 79 11 66 12 78 13
REMARK SMILES IDX 67 14 77 15 5 17 1 18 2 19 3 20 82 21 4 22 81 23 68 24 69 25
REMARK SMILES IDX 76 26 70 27 72 28 71 29 73 30 74 31 75 32 14 33 15 34 16 35
REMARK SMILES IDX 17 37 18 38 19 39 65 40 20 41 64 42 21 43 22 44 23 45 58 46
REMARK SMILES IDX 24 47 63 48 57 49 59 50 25 51 62 52 56 53 55 54 26 56 48 57
REMARK SMILES IDX 33 58 47 59 34 60 37 61 46 62 60 63 35 64 36 65 45 67 61 68
REMARK SMILES IDX 38 69 27 70 28 71 32 72 29 73 31 74 30 75 49 76 50 77 54 78
REMARK SMILES IDX 51 79 53 80 52 81 39 82 40 83 44 84 41 85 43 86 42 87
REMARK H PARENT 11 6 77 16 15 36 59 55 37 66
REMARK Flexibility Score: inf
ROOT
ATOM      1  C   UNL A   1      33.421  29.098  27.499  1.00  0.00     0.042 C 
ENDROOT
BRANCH   1   2
ATOM      2  C   UNL A   1      33.406  28.082  26.353  1.00  0.00     0.118 C 
BRANCH   2   3
ATOM      3  N   UNL A   1      32.426  27.019  26.555  1.00  0.00    -0.352 N 
ATOM      4  C   UNL A   1      32.313  25.701  26.167  1.00  0.00     0.252 C 
ATOM      5  O   UNL A   1      31.392  25.103  26.716  1.00  0.00    -0.269 OA
ATOM      6  H   UNL A   1      31.662  27.315  27.101  1.00  0.00     0.163 HD
BRANCH   4   7
ATOM      7  C   UNL A   1      33.196  25.014  25.186  1.00  0.00     0.055 A 
ATOM      8  C   UNL A   1      35.280  23.730  24.661  1.00  0.00     0.074 A 
ATOM      9  C   UNL A   1      34.417  24.432  25.538  1.00  0.00     0.043 A 
ATOM     10  N   UNL A   1      35.068  23.546  23.341  1.00  0.00    -0.226 NA
ATOM     11  C   UNL A   1      33.902  24.098  22.920  1.00  0.00     0.182 A 
ATOM     12  C   UNL A   1      32.997  24.819  23.799  1.00  0.00     0.059 A 
ATOM     13  N   UNL A   1      33.450  24.044  21.669  1.00  0.00    -0.154 NA
ATOM     14  C   UNL A   1      31.977  25.236  22.954  1.00  0.00     0.076 A 
ATOM     15  N   UNL A   1      32.297  24.719  21.720  1.00  0.00    -0.275 N 
ATOM     16  H   UNL A   1      31.718  24.836  20.932  1.00  0.00     0.190 HD
BRANCH   8  17
ATOM     17  C   UNL A   1      36.503  23.154  25.247  1.00  0.00     0.000 A 
ATOM     18  C   UNL A   1      40.438  21.804  26.439  1.00  0.00     0.044 C 
ATOM     19  C   UNL A   1      39.059  22.261  26.064  1.00  0.00    -0.051 A 
ATOM     20  C   UNL A   1      38.220  21.432  25.307  1.00  0.00     0.004 A 
ATOM     21  C   UNL A   1      38.598  23.519  26.452  1.00  0.00     0.004 A 
ATOM     22  C   UNL A   1      36.951  21.872  24.905  1.00  0.00     0.010 A 
ATOM     23  C   UNL A   1      37.334  23.955  26.055  1.00  0.00     0.010 A 
ENDBRANCH   8  17
BRANCH  14  24
ATOM     24  C   UNL A   1      30.789  26.064  23.102  1.00  0.00     0.007 A 
ATOM     25  C   UNL A   1      29.655  25.568  23.761  1.00  0.00     0.011 A 
ATOM     26  C   UNL A   1      30.794  27.379  22.623  1.00  0.00     0.096 A 
ATOM     27  C   UNL A   1      28.552  26.395  23.990  1.00  0.00     0.008 A 
ATOM     28  C   UNL A   1      29.702  28.214  22.891  1.00  0.00     0.270 A 
ATOM     29  C   UNL A   1      28.576  27.726  23.569  1.00  0.00     0.085 A 
BRANCH  28  30
ATOM     30  N   UNL A   1      29.762  29.626  22.502  1.00  0.00     0.062 N 
ATOM     31  O   UNL A   1      29.840  29.889  21.293  1.00  0.00    -0.258 OA
ATOM     32  O   UNL A   1      29.748  30.477  23.405  1.00  0.00    -0.258 OA
ENDBRANCH  28  30
ENDBRANCH  14  24
ENDBRANCH   4   7
ENDBRANCH   2   3
ENDBRANCH   1   2
BRANCH   1  33
ATOM     33  C   UNL A   1      34.014  30.440  27.110  1.00  0.00     0.118 C 
BRANCH  33  34
ATOM     34  N   UNL A   1      34.363  31.289  28.247  1.00  0.00    -0.352 N 
ATOM     35  C   UNL A   1      35.436  31.150  29.116  1.00  0.00     0.251 C 
ATOM     36  H   UNL A   1      33.764  32.050  28.419  1.00  0.00     0.163 HD
ATOM     37  O   UNL A   1      35.620  31.941  30.024  1.00  0.00    -0.269 OA
BRANCH  35  38
ATOM     38  C   UNL A   1      36.421  30.084  28.827  1.00  0.00     0.039 A 
ATOM     39  C   UNL A   1      36.695  29.166  29.843  1.00  0.00     0.014 A 
ATOM     40  C   UNL A   1      37.249  30.191  27.711  1.00  0.00     0.014 A 
ATOM     41  C   UNL A   1      37.939  28.545  29.867  1.00  0.00     0.010 A 
ATOM     42  C   UNL A   1      38.517  29.645  27.782  1.00  0.00     0.010 A 
ATOM     43  C   UNL A   1      38.884  28.885  28.898  1.00  0.00    -0.014 A 
BRANCH  43  44
ATOM     44  C   UNL A   1      40.303  28.588  29.048  1.00  0.00     0.031 A 
ATOM     45  C   UNL A   1      40.879  27.367  28.462  1.00  0.00     0.074 A 
ATOM     46  C   UNL A   1      41.115  29.413  29.744  1.00  0.00     0.049 A 
ATOM     47  N   UNL A   1      41.903  26.749  28.949  1.00  0.00    -0.248 NA
ATOM     48  C   UNL A   1      40.302  26.712  27.297  1.00  0.00     0.031 C 
ATOM     49  C   UNL A   1      42.573  29.377  29.816  1.00  0.00     0.029 A 
ATOM     50  N   UNL A   1      40.758  30.321  30.724  1.00  0.00    -0.354 N 
ATOM     51  C   UNL A   1      42.312  25.844  28.002  1.00  0.00     0.074 A 
ATOM     52  C   UNL A   1      41.228  25.782  27.047  1.00  0.00     0.031 C 
ATOM     53  C   UNL A   1      42.968  30.018  30.928  1.00  0.00     0.029 A 
ATOM     54  C   UNL A   1      41.780  30.382  31.678  1.00  0.00     0.049 A 
ATOM     55  H   UNL A   1      39.921  30.840  30.747  1.00  0.00     0.167 HD
ATOM     56  C   UNL A   1      43.585  25.357  28.037  1.00  0.00     0.031 A 
ATOM     57  C   UNL A   1      41.531  30.046  32.979  1.00  0.00     0.031 A 
ATOM     58  C   UNL A   1      44.343  25.828  29.199  1.00  0.00     0.049 A 
ATOM     59  C   UNL A   1      42.261  28.801  33.454  1.00  0.00     0.074 A 
ATOM     60  C   UNL A   1      45.375  26.737  29.386  1.00  0.00     0.029 A 
ATOM     61  N   UNL A   1      43.874  25.529  30.468  1.00  0.00    -0.354 N 
ATOM     62  N   UNL A   1      43.112  28.117  32.741  1.00  0.00    -0.248 NA
ATOM     63  C   UNL A   1      41.993  28.165  34.747  1.00  0.00     0.031 C 
ATOM     64  C   UNL A   1      45.525  26.965  30.785  1.00  0.00     0.029 A 
ATOM     65  C   UNL A   1      44.591  26.193  31.445  1.00  0.00     0.049 A 
ATOM     66  H   UNL A   1      43.123  24.919  30.650  1.00  0.00     0.167 HD
ATOM     67  C   UNL A   1      43.437  26.958  33.397  1.00  0.00     0.074 A 
ATOM     68  C   UNL A   1      42.722  27.040  34.658  1.00  0.00     0.031 C 
ATOM     69  C   UNL A   1      44.219  25.988  32.837  1.00  0.00     0.031 A 
BRANCH  56  70
ATOM     70  C   UNL A   1      44.209  24.664  26.849  1.00  0.00    -0.014 A 
ATOM     71  C   UNL A   1      44.011  23.286  26.657  1.00  0.00     0.009 A 
ATOM     72  C   UNL A   1      45.046  25.301  25.917  1.00  0.00     0.009 A 
ATOM     73  C   UNL A   1      44.702  22.567  25.673  1.00  0.00     0.001 A 
ATOM     74  C   UNL A   1      45.779  24.584  24.963  1.00  0.00     0.001 A 
ATOM     75  C   UNL A   1      45.618  23.211  24.851  1.00  0.00     0.000 A 
ENDBRANCH  56  70
BRANCH  57  76
ATOM     76  C   UNL A   1      40.169  30.464  33.421  1.00  0.00    -0.014 A 
ATOM     77  C   UNL A   1      39.927  31.845  33.576  1.00  0.00     0.009 A 
ATOM     78  C   UNL A   1      39.074  29.599  33.297  1.00  0.00     0.009 A 
ATOM     79  C   UNL A   1      38.632  32.360  33.461  1.00  0.00     0.001 A 
ATOM     80  C   UNL A   1      37.778  30.119  33.205  1.00  0.00     0.001 A 
ATOM     81  C   UNL A   1      37.562  31.497  33.241  1.00  0.00     0.000 A 
ENDBRANCH  57  76
BRANCH  69  82
ATOM     82  C   UNL A   1      44.657  24.722  33.531  1.00  0.00    -0.014 A 
ATOM     83  C   UNL A   1      45.986  24.461  33.895  1.00  0.00     0.009 A 
ATOM     84  C   UNL A   1      43.733  23.674  33.733  1.00  0.00     0.009 A 
ATOM     85  C   UNL A   1      46.353  23.253  34.506  1.00  0.00     0.001 A 
ATOM     86  C   UNL A   1      44.097  22.458  34.319  1.00  0.00     0.001 A 
ATOM     87  C   UNL A   1      45.407  22.254  34.722  1.00  0.00     0.000 A 
ENDBRANCH  69  82
ENDBRANCH  43  44
ENDBRANCH  35  38
ENDBRANCH  33  34
ENDBRANCH   1  33
TORSDOF 13
ENDMDL
MODEL 2
REMARK VINA RESULT:     -14.0      1.488      1.989
REMARK SMILES Cc1ccc(-c2cc(C(=O)NCCCNC(=O)c3ccc(-c4c5nc(c(-c6ccccc6)c6ccc([nH]6)c(-c6ccccc6)c6nc(c(-c7ccccc7)c7ccc4[nH]7)C=C6)C=C5)cc3)c3c(-c4cccc([N+](=O)[O-])c4)[nH]nc3n2)cc1
REMARK SMILES IDX 13 1 12 2 11 3 9 4 10 5 8 7 6 8 7 9 80 10 79 11 66 12 78 13
REMARK SMILES IDX 67 14 77 15 5 17 1 18 2 19 3 20 82 21 4 22 81 23 68 24 69 25
REMARK SMILES IDX 76 26 70 27 72 28 71 29 73 30 74 31 75 32 14 33 15 34 16 35
REMARK SMILES IDX 17 37 18 38 19 39 65 40 20 41 64 42 21 43 22 44 23 45 58 46
REMARK SMILES IDX 24 47 63 48 57 49 59 50 25 51 62 52 56 53 55 54 26 56 48 57
REMARK SMILES IDX 33 58 47 59 34 60 37 61 46 62 60 63 35 64 36 65 45 67 61 68
REMARK SMILES IDX 38 69 27 70 28 71 32 72 29 73 31 74 30 75 49 76 50 77 54 78
REMARK SMILES IDX 51 79 53 80 52 81 39 82 40 83 44 84 41 85 43 86 42 87
REMARK H PARENT 11 6 77 16 15 36 59 55 37 66
REMARK Flexibility Score: inf
ROOT
ATOM      1  C   UNL A   1      33.692  29.968  27.674  1.00  0.00     0.042 C 
ENDROOT
BRANCH   1   2
ATOM      2  C   UNL A   1      33.929  28.570  27.099  1.00  0.00     0.118 C 
BRANCH   2   3
ATOM      3  N   UNL A   1      32.709  27.771  27.036  1.00  0.00    -0.352 N 
ATOM      4  C   UNL A   1      32.299  26.657  26.335  1.00  0.00     0.252 C 
ATOM      5  O   UNL A   1      31.229  26.197  26.723  1.00  0.00    -0.269 OA
ATOM      6  H   UNL A   1      32.010  28.111  27.641  1.00  0.00     0.163 HD
BRANCH   4   7
ATOM      7  C   UNL A   1      33.042  26.027  25.210  1.00  0.00     0.055 A 
ATOM      8  C   UNL A   1      34.679  24.333  24.363  1.00  0.00     0.074 A 
ATOM      9  C   UNL A   1      33.972  24.999  25.394  1.00  0.00     0.043 A 
ATOM     10  N   UNL A   1      34.585  24.613  23.046  1.00  0.00    -0.226 NA
ATOM     11  C   UNL A   1      33.706  25.615  22.789  1.00  0.00     0.182 A 
ATOM     12  C   UNL A   1      32.965  26.312  23.826  1.00  0.00     0.059 A 
ATOM     13  N   UNL A   1      33.417  26.071  21.573  1.00  0.00    -0.154 NA
ATOM     14  C   UNL A   1      32.235  27.265  23.128  1.00  0.00     0.076 A 
ATOM     15  N   UNL A   1      32.530  27.045  21.803  1.00  0.00    -0.275 N 
ATOM     16  H   UNL A   1      32.117  27.566  21.076  1.00  0.00     0.190 HD
BRANCH   8  17
ATOM     17  C   UNL A   1      35.584  23.244  24.770  1.00  0.00     0.000 A 
ATOM     18  C   UNL A   1      38.506  20.097  25.302  1.00  0.00     0.044 C 
ATOM     19  C   UNL A   1      37.488  21.190  25.160  1.00  0.00    -0.051 A 
ATOM     20  C   UNL A   1      36.154  20.881  24.861  1.00  0.00     0.004 A 
ATOM     21  C   UNL A   1      37.857  22.527  25.311  1.00  0.00     0.004 A 
ATOM     22  C   UNL A   1      35.209  21.898  24.672  1.00  0.00     0.010 A 
ATOM     23  C   UNL A   1      36.915  23.538  25.126  1.00  0.00     0.010 A 
ENDBRANCH   8  17
BRANCH  14  24
ATOM     24  C   UNL A   1      31.350  28.360  23.497  1.00  0.00     0.007 A 
ATOM     25  C   UNL A   1      31.760  29.320  24.432  1.00  0.00     0.011 A 
ATOM     26  C   UNL A   1      30.100  28.482  22.880  1.00  0.00     0.096 A 
ATOM     27  C   UNL A   1      30.952  30.425  24.713  1.00  0.00     0.008 A 
ATOM     28  C   UNL A   1      29.313  29.612  23.135  1.00  0.00     0.270 A 
ATOM     29  C   UNL A   1      29.731  30.584  24.054  1.00  0.00     0.085 A 
BRANCH  28  30
ATOM     30  N   UNL A   1      28.063  29.802  22.392  1.00  0.00     0.062 N 
ATOM     31  O   UNL A   1      28.132  29.889  21.157  1.00  0.00    -0.258 OA
ATOM     32  O   UNL A   1      27.009  29.882  23.043  1.00  0.00    -0.258 OA
ENDBRANCH  28  30
ENDBRANCH  14  24
ENDBRANCH   4   7
ENDBRANCH   2   3
ENDBRANCH   1   2
BRANCH   1  33
ATOM     33  C   UNL A   1      34.750  30.978  27.268  1.00  0.00     0.118 C 
BRANCH  33  34
ATOM     34  N   UNL A   1      35.368  31.678  28.391  1.00  0.00    -0.352 N 
ATOM     35  C   UNL A   1      36.409  31.243  29.198  1.00  0.00     0.251 C 
ATOM     36  H   UNL A   1      35.000  32.566  28.602  1.00  0.00     0.163 HD
ATOM     37  O   UNL A   1      36.842  31.936  30.102  1.00  0.00    -0.269 OA
BRANCH  35  38
ATOM     38  C   UNL A   1      37.063  29.963  28.845  1.00  0.00     0.039 A 
ATOM     39  C   UNL A   1      37.257  29.034  29.869  1.00  0.00     0.014 A 
ATOM     40  C   UNL A   1      37.722  29.835  27.624  1.00  0.00     0.014 A 
ATOM     41  C   UNL A   1      38.310  28.131  29.764  1.00  0.00     0.010 A 
ATOM     42  C   UNL A   1      38.822  29.001  27.557  1.00  0.00     0.010 A 
ATOM     43  C   UNL A   1      39.157  28.206  28.658  1.00  0.00    -0.014 A 
BRANCH  43  44
ATOM     44  C   UNL A   1      40.473  27.579  28.634  1.00  0.00     0.031 A 
ATOM     45  C   UNL A   1      40.608  26.129  28.419  1.00  0.00     0.074 A 
ATOM     46  C   UNL A   1      41.593  28.308  28.830  1.00  0.00     0.049 A 
ATOM     47  N   UNL A   1      41.577  25.418  28.890  1.00  0.00    -0.248 NA
ATOM     48  C   UNL A   1      39.616  25.351  27.690  1.00  0.00     0.031 C 
ATOM     49  C   UNL A   1      42.978  27.885  28.634  1.00  0.00     0.029 A 
ATOM     50  N   UNL A   1      41.707  29.525  29.475  1.00  0.00    -0.354 N 
ATOM     51  C   UNL A   1      41.522  24.198  28.264  1.00  0.00     0.074 A 
ATOM     52  C   UNL A   1      40.231  24.168  27.614  1.00  0.00     0.031 C 
ATOM     53  C   UNL A   1      43.781  28.685  29.354  1.00  0.00     0.029 A 
ATOM     54  C   UNL A   1      42.940  29.572  30.136  1.00  0.00     0.049 A 
ATOM     55  H   UNL A   1      41.032  30.242  29.470  1.00  0.00     0.167 HD
ATOM     56  C   UNL A   1      42.630  23.405  28.229  1.00  0.00     0.031 A 
ATOM     57  C   UNL A   1      42.989  29.718  31.494  1.00  0.00     0.031 A 
ATOM     58  C   UNL A   1      43.754  23.962  28.986  1.00  0.00     0.049 A 
ATOM     59  C   UNL A   1      43.551  28.513  32.232  1.00  0.00     0.074 A 
ATOM     60  C   UNL A   1      44.960  24.557  28.644  1.00  0.00     0.029 A 
ATOM     61  N   UNL A   1      43.595  24.194  30.344  1.00  0.00    -0.354 N 
ATOM     62  N   UNL A   1      44.020  27.440  31.659  1.00  0.00    -0.248 NA
ATOM     63  C   UNL A   1      43.519  28.387  33.691  1.00  0.00     0.031 C 
ATOM     64  C   UNL A   1      45.527  25.133  29.819  1.00  0.00     0.029 A 
ATOM     65  C   UNL A   1      44.669  24.885  30.871  1.00  0.00     0.049 A 
ATOM     66  H   UNL A   1      42.814  23.902  30.867  1.00  0.00     0.167 HD
ATOM     67  C   UNL A   1      44.267  26.481  32.608  1.00  0.00     0.074 A 
ATOM     68  C   UNL A   1      43.953  27.128  33.869  1.00  0.00     0.031 C 
ATOM     69  C   UNL A   1      44.654  25.211  32.289  1.00  0.00     0.031 A 
BRANCH  56  70
ATOM     70  C   UNL A   1      42.754  22.248  27.268  1.00  0.00    -0.014 A 
ATOM     71  C   UNL A   1      42.005  21.078  27.477  1.00  0.00     0.009 A 
ATOM     72  C   UNL A   1      43.633  22.228  26.171  1.00  0.00     0.009 A 
ATOM     73  C   UNL A   1      42.209  19.920  26.715  1.00  0.00     0.001 A 
ATOM     74  C   UNL A   1      43.881  21.060  25.437  1.00  0.00     0.001 A 
ATOM     75  C   UNL A   1      43.177  19.899  25.720  1.00  0.00     0.000 A 
ENDBRANCH  56  70
BRANCH  57  76
ATOM     76  C   UNL A   1      41.912  30.612  32.008  1.00  0.00    -0.014 A 
ATOM     77  C   UNL A   1      42.092  32.004  31.859  1.00  0.00     0.009 A 
ATOM     78  C   UNL A   1      40.622  30.124  32.248  1.00  0.00     0.009 A 
ATOM     79  C   UNL A   1      40.991  32.864  31.805  1.00  0.00     0.001 A 
ATOM     80  C   UNL A   1      39.525  30.993  32.215  1.00  0.00     0.001 A 
ATOM     81  C   UNL A   1      39.705  32.351  31.949  1.00  0.00     0.000 A 
ENDBRANCH  57  76
BRANCH  69  82
ATOM     82  C   UNL A   1      44.997  24.134  33.290  1.00  0.00    -0.014 A 
ATOM     83  C   UNL A   1      46.257  24.013  33.893  1.00  0.00     0.009 A 
ATOM     84  C   UNL A   1      44.066  23.109  33.567  1.00  0.00     0.009 A 
ATOM     85  C   UNL A   1      46.540  22.973  34.790  1.00  0.00     0.001 A 
ATOM     86  C   UNL A   1      44.351  22.057  34.441  1.00  0.00     0.001 A 
ATOM     87  C   UNL A   1      45.586  21.998  35.067  1.00  0.00     0.000 A 
ENDBRANCH  69  82
ENDBRANCH  43  44
ENDBRANCH  35  38
ENDBRANCH  33  34
ENDBRANCH   1  33
TORSDOF 13
ENDMDL
MODEL 3
REMARK VINA RESULT:     -13.8      3.782      8.999
REMARK SMILES Cc1ccc(-c2cc(C(=O)NCCCNC(=O)c3ccc(-c4c5nc(c(-c6ccccc6)c6ccc([nH]6)c(-c6ccccc6)c6nc(c(-c7ccccc7)c7ccc4[nH]7)C=C6)C=C5)cc3)c3c(-c4cccc([N+](=O)[O-])c4)[nH]nc3n2)cc1
REMARK SMILES IDX 13 1 12 2 11 3 9 4 10 5 8 7 6 8 7 9 80 10 79 11 66 12 78 13
REMARK SMILES IDX 67 14 77 15 5 17 1 18 2 19 3 20 82 21 4 22 81 23 68 24 69 25
REMARK SMILES IDX 76 26 70 27 72 28 71 29 73 30 74 31 75 32 14 33 15 34 16 35
REMARK SMILES IDX 17 37 18 38 19 39 65 40 20 41 64 42 21 43 22 44 23 45 58 46
REMARK SMILES IDX 24 47 63 48 57 49 59 50 25 51 62 52 56 53 55 54 26 56 48 57
REMARK SMILES IDX 33 58 47 59 34 60 37 61 46 62 60 63 35 64 36 65 45 67 61 68
REMARK SMILES IDX 38 69 27 70 28 71 32 72 29 73 31 74 30 75 49 76 50 77 54 78
REMARK SMILES IDX 51 79 53 80 52 81 39 82 40 83 44 84 41 85 43 86 42 87
REMARK H PARENT 11 6 77 16 15 36 59 55 37 66
REMARK Flexibility Score: inf
ROOT
ATOM      1  C   UNL A   1      37.434  23.713  25.049  1.00  0.00     0.042 C 
ENDROOT
BRANCH   1   2
ATOM      2  C   UNL A   1      35.968  23.270  25.036  1.00  0.00     0.118 C 
BRANCH   2   3
ATOM      3  N   UNL A   1      35.251  23.730  23.851  1.00  0.00    -0.352 N 
ATOM      4  C   UNL A   1      34.215  24.607  23.608  1.00  0.00     0.252 C 
ATOM      5  O   UNL A   1      34.034  24.838  22.417  1.00  0.00    -0.269 OA
ATOM      6  H   UNL A   1      35.589  23.313  23.025  1.00  0.00     0.163 HD
BRANCH   4   7
ATOM      7  C   UNL A   1      33.367  25.245  24.651  1.00  0.00     0.055 A 
ATOM      8  C   UNL A   1      32.859  27.178  26.160  1.00  0.00     0.074 A 
ATOM      9  C   UNL A   1      33.649  26.501  25.198  1.00  0.00     0.043 A 
ATOM     10  N   UNL A   1      31.730  26.695  26.720  1.00  0.00    -0.226 NA
ATOM     11  C   UNL A   1      31.398  25.468  26.247  1.00  0.00     0.182 A 
ATOM     12  C   UNL A   1      32.186  24.754  25.257  1.00  0.00     0.059 A 
ATOM     13  N   UNL A   1      30.322  24.780  26.623  1.00  0.00    -0.154 NA
ATOM     14  C   UNL A   1      31.513  23.549  25.104  1.00  0.00     0.076 A 
ATOM     15  N   UNL A   1      30.409  23.647  25.918  1.00  0.00    -0.275 N 
ATOM     16  H   UNL A   1      29.731  22.935  25.978  1.00  0.00     0.190 HD
BRANCH   8  17
ATOM     17  C   UNL A   1      33.313  28.517  26.572  1.00  0.00     0.000 A 
ATOM     18  C   UNL A   1      34.574  32.205  28.454  1.00  0.00     0.044 C 
ATOM     19  C   UNL A   1      34.153  30.940  27.765  1.00  0.00    -0.051 A 
ATOM     20  C   UNL A   1      32.837  30.785  27.310  1.00  0.00     0.004 A 
ATOM     21  C   UNL A   1      35.061  29.898  27.579  1.00  0.00     0.004 A 
ATOM     22  C   UNL A   1      32.421  29.587  26.715  1.00  0.00     0.010 A 
ATOM     23  C   UNL A   1      34.647  28.706  26.984  1.00  0.00     0.010 A 
ENDBRANCH   8  17
BRANCH  14  24
ATOM     24  C   UNL A   1      31.753  22.321  24.361  1.00  0.00     0.007 A 
ATOM     25  C   UNL A   1      31.650  22.305  22.963  1.00  0.00     0.011 A 
ATOM     26  C   UNL A   1      32.133  21.159  25.042  1.00  0.00     0.096 A 
ATOM     27  C   UNL A   1      31.976  21.152  22.242  1.00  0.00     0.008 A 
ATOM     28  C   UNL A   1      32.497  20.021  24.312  1.00  0.00     0.270 A 
ATOM     29  C   UNL A   1      32.415  20.010  22.913  1.00  0.00     0.085 A 
BRANCH  28  30
ATOM     30  N   UNL A   1      33.018  18.847  25.020  1.00  0.00     0.062 N 
ATOM     31  O   UNL A   1      32.421  18.476  26.041  1.00  0.00    -0.258 OA
ATOM     32  O   UNL A   1      34.036  18.301  24.566  1.00  0.00    -0.258 OA
ENDBRANCH  28  30
ENDBRANCH  14  24
ENDBRANCH   4   7
ENDBRANCH   2   3
ENDBRANCH   1   2
BRANCH   1  33
ATOM     33  C   UNL A   1      38.039  23.762  26.440  1.00  0.00     0.118 C 
BRANCH  33  34
ATOM     34  N   UNL A   1      39.499  23.707  26.457  1.00  0.00    -0.352 N 
ATOM     35  C   UNL A   1      40.384  24.688  26.879  1.00  0.00     0.251 C 
ATOM     36  H   UNL A   1      39.904  22.872  26.127  1.00  0.00     0.163 HD
ATOM     37  O   UNL A   1      41.589  24.507  26.852  1.00  0.00    -0.269 OA
BRANCH  35  38
ATOM     38  C   UNL A   1      39.814  25.913  27.484  1.00  0.00     0.039 A 
ATOM     39  C   UNL A   1      39.927  27.102  26.760  1.00  0.00     0.014 A 
ATOM     40  C   UNL A   1      39.468  25.923  28.834  1.00  0.00     0.014 A 
ATOM     41  C   UNL A   1      39.953  28.307  27.452  1.00  0.00     0.010 A 
ATOM     42  C   UNL A   1      39.584  27.110  29.531  1.00  0.00     0.010 A 
ATOM     43  C   UNL A   1      39.902  28.288  28.847  1.00  0.00    -0.014 A 
BRANCH  43  44
ATOM     44  C   UNL A   1      40.292  29.432  29.662  1.00  0.00     0.031 A 
ATOM     45  C   UNL A   1      39.315  30.479  30.000  1.00  0.00     0.074 A 
ATOM     46  C   UNL A   1      41.560  29.567  30.106  1.00  0.00     0.049 A 
ATOM     47  N   UNL A   1      39.628  31.713  30.217  1.00  0.00    -0.248 NA
ATOM     48  C   UNL A   1      37.884  30.220  30.068  1.00  0.00     0.031 C 
ATOM     49  C   UNL A   1      42.064  30.524  31.089  1.00  0.00     0.029 A 
ATOM     50  N   UNL A   1      42.706  29.005  29.574  1.00  0.00    -0.354 N 
ATOM     51  C   UNL A   1      38.525  32.316  30.767  1.00  0.00     0.074 A 
ATOM     52  C   UNL A   1      37.441  31.383  30.554  1.00  0.00     0.031 C 
ATOM     53  C   UNL A   1      43.389  30.662  30.918  1.00  0.00     0.029 A 
ATOM     54  C   UNL A   1      43.769  29.900  29.744  1.00  0.00     0.049 A 
ATOM     55  H   UNL A   1      42.765  28.119  29.147  1.00  0.00     0.167 HD
ATOM     56  C   UNL A   1      38.669  33.468  31.481  1.00  0.00     0.031 A 
ATOM     57  C   UNL A   1      44.433  30.396  28.657  1.00  0.00     0.031 A 
ATOM     58  C   UNL A   1      40.045  33.970  31.480  1.00  0.00     0.049 A 
ATOM     59  C   UNL A   1      44.264  31.892  28.451  1.00  0.00     0.074 A 
ATOM     60  C   UNL A   1      41.065  34.021  32.419  1.00  0.00     0.029 A 
ATOM     61  N   UNL A   1      40.637  34.293  30.269  1.00  0.00    -0.354 N 
ATOM     62  N   UNL A   1      43.607  32.686  29.251  1.00  0.00    -0.248 NA
ATOM     63  C   UNL A   1      44.734  32.589  27.251  1.00  0.00     0.031 C 
ATOM     64  C   UNL A   1      42.271  34.394  31.756  1.00  0.00     0.029 A 
ATOM     65  C   UNL A   1      41.982  34.574  30.418  1.00  0.00     0.049 A 
ATOM     66  H   UNL A   1      40.158  34.321  29.409  1.00  0.00     0.167 HD
ATOM     67  C   UNL A   1      43.491  33.926  28.677  1.00  0.00     0.074 A 
ATOM     68  C   UNL A   1      44.226  33.821  27.430  1.00  0.00     0.031 C 
ATOM     69  C   UNL A   1      42.751  34.929  29.235  1.00  0.00     0.031 A 
BRANCH  56  70
ATOM     70  C   UNL A   1      37.588  33.977  32.404  1.00  0.00    -0.014 A 
ATOM     71  C   UNL A   1      37.681  33.748  33.788  1.00  0.00     0.009 A 
ATOM     72  C   UNL A   1      36.428  34.638  31.967  1.00  0.00     0.009 A 
ATOM     73  C   UNL A   1      36.629  34.049  34.662  1.00  0.00     0.001 A 
ATOM     74  C   UNL A   1      35.350  34.897  32.825  1.00  0.00     0.001 A 
ATOM     75  C   UNL A   1      35.446  34.587  34.173  1.00  0.00     0.000 A 
ENDBRANCH  56  70
BRANCH  57  76
ATOM     76  C   UNL A   1      44.565  29.389  27.565  1.00  0.00    -0.014 A 
ATOM     77  C   UNL A   1      45.572  28.410  27.697  1.00  0.00     0.009 A 
ATOM     78  C   UNL A   1      43.515  29.156  26.668  1.00  0.00     0.009 A 
ATOM     79  C   UNL A   1      45.452  27.172  27.059  1.00  0.00     0.001 A 
ATOM     80  C   UNL A   1      43.411  27.922  26.015  1.00  0.00     0.001 A 
ATOM     81  C   UNL A   1      44.352  26.918  26.245  1.00  0.00     0.000 A 
ENDBRANCH  57  76
BRANCH  69  82
ATOM     82  C   UNL A   1      42.633  36.328  28.681  1.00  0.00    -0.014 A 
ATOM     83  C   UNL A   1      42.006  36.626  27.463  1.00  0.00     0.009 A 
ATOM     84  C   UNL A   1      43.280  37.400  29.334  1.00  0.00     0.009 A 
ATOM     85  C   UNL A   1      41.953  37.939  26.970  1.00  0.00     0.001 A 
ATOM     86  C   UNL A   1      43.252  38.706  28.836  1.00  0.00     0.001 A 
ATOM     87  C   UNL A   1      42.572  38.978  27.659  1.00  0.00     0.000 A 
ENDBRANCH  69  82
ENDBRANCH  43  44
ENDBRANCH  35  38
ENDBRANCH  33  34
ENDBRANCH   1  33
TORSDOF 13
ENDMDL
