MODEL 1
REMARK VINA RESULT:     -11.1      0.000      0.000
REMARK SMILES Cc1cccc(OCC[N@H+]2CCO[C@@H](CC(=O)NCCCNC(=O)c3ccc(-c4c5nc(c(-c6ccccc6)c6ccc([nH]6)c(-c6ccccc6)c6nc(c(-c7ccccc7)c7ccc4[nH]7)C=C6)C=C5)cc3)C2)c1
REMARK SMILES IDX 16 1 17 2 18 3 15 5 14 6 10 7 11 8 73 9 12 11 13 12 9 13
REMARK SMILES IDX 8 14 7 15 6 16 1 17 2 18 3 19 74 20 4 21 5 22 19 23 20 24
REMARK SMILES IDX 21 25 22 26 23 27 24 29 25 30 26 31 72 32 27 33 71 34 28 35
REMARK SMILES IDX 29 36 30 37 65 38 31 39 70 40 64 41 66 42 32 43 69 44 63 45
REMARK SMILES IDX 62 46 33 48 55 49 40 50 54 51 41 52 44 53 53 54 67 55 42 56
REMARK SMILES IDX 43 57 52 59 68 60 45 61 34 62 35 63 39 64 36 65 38 66 37 67
REMARK SMILES IDX 56 68 57 69 61 70 58 71 60 72 59 73 46 74 47 75 51 76 48 77
REMARK SMILES IDX 50 78 49 79
REMARK H PARENT 18 4 10 10 22 28 66 47 44 58
REMARK Flexibility Score: inf
ROOT
ATOM      1  C   UNL A   1      32.026  28.285  27.323  1.00  0.00     0.222 C 
ATOM      2  O   UNL A   1      31.062  27.793  27.909  1.00  0.00    -0.275 OA
ATOM      3  N   UNL A   1      32.294  29.607  27.510  1.00  0.00    -0.356 N 
ATOM      4  H   UNL A   1      31.743  30.054  28.193  1.00  0.00     0.163 HD
ENDROOT
BRANCH   1   5
ATOM      5  C   UNL A   1      32.909  27.456  26.424  1.00  0.00     0.138 C 
BRANCH   5   6
ATOM      6  C   UNL A   1      32.650  27.589  24.925  1.00  0.00     0.182 C 
ATOM      7  N   UNL A   1      32.513  26.641  22.656  1.00  0.00    -0.328 N 
ATOM      8  C   UNL A   1      31.196  27.258  22.482  1.00  0.00     0.291 C 
ATOM      9  C   UNL A   1      32.751  26.309  24.069  1.00  0.00     0.295 C 
ATOM     10  H   UNL A   1      33.193  27.352  22.389  1.00  0.00     0.348 HD
ATOM     11  C   UNL A   1      31.089  28.498  23.385  1.00  0.00     0.222 C 
ATOM     12  O   UNL A   1      31.332  28.173  24.763  1.00  0.00    -0.366 OA
BRANCH   7  13
ATOM     13  C   UNL A   1      32.827  25.559  21.727  1.00  0.00     0.304 C 
BRANCH  13  14
ATOM     14  C   UNL A   1      33.124  24.260  22.506  1.00  0.00     0.290 C 
BRANCH  14  15
ATOM     15  O   UNL A   1      34.504  23.877  22.457  1.00  0.00    -0.488 OA
BRANCH  15  16
ATOM     16  C   UNL A   1      35.086  23.293  23.549  1.00  0.00     0.119 A 
ATOM     17  C   UNL A   1      34.446  21.853  27.021  1.00  0.00     0.044 C 
ATOM     18  C   UNL A   1      35.158  22.304  25.778  1.00  0.00    -0.047 A 
ATOM     19  C   UNL A   1      36.486  21.925  25.563  1.00  0.00     0.003 A 
ATOM     20  C   UNL A   1      34.475  23.013  24.773  1.00  0.00     0.049 A 
ATOM     21  C   UNL A   1      37.121  22.252  24.366  1.00  0.00     0.004 A 
ATOM     22  C   UNL A   1      36.421  22.927  23.365  1.00  0.00     0.046 A 
ENDBRANCH  15  16
ENDBRANCH  14  15
ENDBRANCH  13  14
ENDBRANCH   7  13
ENDBRANCH   5   6
ENDBRANCH   1   5
BRANCH   3  23
ATOM     23  C   UNL A   1      33.274  30.455  26.855  1.00  0.00     0.117 C 
BRANCH  23  24
ATOM     24  C   UNL A   1      34.491  30.680  27.750  1.00  0.00     0.042 C 
BRANCH  24  25
ATOM     25  C   UNL A   1      34.963  32.129  27.788  1.00  0.00     0.118 C 
BRANCH  25  26
ATOM     26  N   UNL A   1      34.001  32.962  28.513  1.00  0.00    -0.352 N 
ATOM     27  C   UNL A   1      34.186  33.787  29.604  1.00  0.00     0.251 C 
ATOM     28  H   UNL A   1      33.079  32.928  28.169  1.00  0.00     0.163 HD
ATOM     29  O   UNL A   1      33.293  34.492  30.040  1.00  0.00    -0.269 OA
BRANCH  27  30
ATOM     30  C   UNL A   1      35.548  33.866  30.151  1.00  0.00     0.039 A 
ATOM     31  C   UNL A   1      36.511  34.423  29.308  1.00  0.00     0.014 A 
ATOM     32  C   UNL A   1      35.883  33.037  31.223  1.00  0.00     0.014 A 
ATOM     33  C   UNL A   1      37.806  33.935  29.375  1.00  0.00     0.010 A 
ATOM     34  C   UNL A   1      37.172  32.534  31.270  1.00  0.00     0.010 A 
ATOM     35  C   UNL A   1      38.088  32.907  30.276  1.00  0.00    -0.014 A 
BRANCH  35  36
ATOM     36  C   UNL A   1      39.266  32.064  30.102  1.00  0.00     0.031 A 
ATOM     37  C   UNL A   1      39.103  30.657  29.708  1.00  0.00     0.074 A 
ATOM     38  C   UNL A   1      40.494  32.539  30.413  1.00  0.00     0.049 A 
ATOM     39  N   UNL A   1      39.919  29.714  30.040  1.00  0.00    -0.248 NA
ATOM     40  C   UNL A   1      37.922  30.184  28.995  1.00  0.00     0.031 C 
ATOM     41  C   UNL A   1      41.781  31.892  30.175  1.00  0.00     0.029 A 
ATOM     42  N   UNL A   1      40.793  33.615  31.255  1.00  0.00    -0.354 N 
ATOM     43  C   UNL A   1      39.536  28.586  29.359  1.00  0.00     0.074 A 
ATOM     44  C   UNL A   1      38.221  28.890  28.848  1.00  0.00     0.031 C 
ATOM     45  C   UNL A   1      42.681  32.392  31.038  1.00  0.00     0.029 A 
ATOM     46  C   UNL A   1      41.974  33.283  31.944  1.00  0.00     0.049 A 
ATOM     47  H   UNL A   1      40.275  34.447  31.348  1.00  0.00     0.167 HD
ATOM     48  C   UNL A   1      40.437  27.579  29.182  1.00  0.00     0.031 A 
ATOM     49  C   UNL A   1      42.018  33.211  33.304  1.00  0.00     0.031 A 
ATOM     50  C   UNL A   1      41.624  27.761  30.018  1.00  0.00     0.049 A 
ATOM     51  C   UNL A   1      42.405  31.849  33.839  1.00  0.00     0.074 A 
ATOM     52  C   UNL A   1      42.921  28.173  29.761  1.00  0.00     0.029 A 
ATOM     53  N   UNL A   1      41.479  27.767  31.402  1.00  0.00    -0.354 N 
ATOM     54  N   UNL A   1      42.429  30.760  33.124  1.00  0.00    -0.248 NA
ATOM     55  C   UNL A   1      42.727  31.601  35.243  1.00  0.00     0.031 C 
ATOM     56  C   UNL A   1      43.529  28.510  31.003  1.00  0.00     0.029 A 
ATOM     57  C   UNL A   1      42.614  28.265  32.013  1.00  0.00     0.049 A 
ATOM     58  H   UNL A   1      40.677  27.458  31.882  1.00  0.00     0.167 HD
ATOM     59  C   UNL A   1      42.691  29.686  33.934  1.00  0.00     0.074 A 
ATOM     60  C   UNL A   1      42.910  30.269  35.246  1.00  0.00     0.031 C 
ATOM     61  C   UNL A   1      42.663  28.405  33.464  1.00  0.00     0.031 A 
BRANCH  48  62
ATOM     62  C   UNL A   1      40.353  26.565  28.057  1.00  0.00    -0.014 A 
ATOM     63  C   UNL A   1      39.536  25.428  28.209  1.00  0.00     0.009 A 
ATOM     64  C   UNL A   1      41.125  26.597  26.882  1.00  0.00     0.009 A 
ATOM     65  C   UNL A   1      39.536  24.378  27.277  1.00  0.00     0.001 A 
ATOM     66  C   UNL A   1      41.129  25.557  25.943  1.00  0.00     0.001 A 
ATOM     67  C   UNL A   1      40.341  24.439  26.147  1.00  0.00     0.000 A 
ENDBRANCH  48  62
BRANCH  49  68
ATOM     68  C   UNL A   1      41.091  34.147  33.997  1.00  0.00    -0.014 A 
ATOM     69  C   UNL A   1      39.893  33.638  34.534  1.00  0.00     0.009 A 
ATOM     70  C   UNL A   1      41.517  35.421  34.396  1.00  0.00     0.009 A 
ATOM     71  C   UNL A   1      39.195  34.341  35.521  1.00  0.00     0.001 A 
ATOM     72  C   UNL A   1      40.812  36.124  35.380  1.00  0.00     0.001 A 
ATOM     73  C   UNL A   1      39.672  35.571  35.963  1.00  0.00     0.000 A 
ENDBRANCH  49  68
BRANCH  61  74
ATOM     74  C   UNL A   1      42.710  27.152  34.308  1.00  0.00    -0.014 A 
ATOM     75  C   UNL A   1      43.832  26.321  34.435  1.00  0.00     0.009 A 
ATOM     76  C   UNL A   1      41.605  26.849  35.135  1.00  0.00     0.009 A 
ATOM     77  C   UNL A   1      43.831  25.218  35.304  1.00  0.00     0.001 A 
ATOM     78  C   UNL A   1      41.617  25.780  36.035  1.00  0.00     0.001 A 
ATOM     79  C   UNL A   1      42.729  24.955  36.110  1.00  0.00     0.000 A 
ENDBRANCH  61  74
ENDBRANCH  35  36
ENDBRANCH  27  30
ENDBRANCH  25  26
ENDBRANCH  24  25
ENDBRANCH  23  24
ENDBRANCH   3  23
TORSDOF 15
ENDMDL
MODEL 2
REMARK VINA RESULT:     -11.0      3.099      8.422
REMARK SMILES Cc1cccc(OCC[N@H+]2CCO[C@@H](CC(=O)NCCCNC(=O)c3ccc(-c4c5nc(c(-c6ccccc6)c6ccc([nH]6)c(-c6ccccc6)c6nc(c(-c7ccccc7)c7ccc4[nH]7)C=C6)C=C5)cc3)C2)c1
REMARK SMILES IDX 16 1 17 2 18 3 15 5 14 6 10 7 11 8 73 9 12 11 13 12 9 13
REMARK SMILES IDX 8 14 7 15 6 16 1 17 2 18 3 19 74 20 4 21 5 22 19 23 20 24
REMARK SMILES IDX 21 25 22 26 23 27 24 29 25 30 26 31 72 32 27 33 71 34 28 35
REMARK SMILES IDX 29 36 30 37 65 38 31 39 70 40 64 41 66 42 32 43 69 44 63 45
REMARK SMILES IDX 62 46 33 48 55 49 40 50 54 51 41 52 44 53 53 54 67 55 42 56
REMARK SMILES IDX 43 57 52 59 68 60 45 61 34 62 35 63 39 64 36 65 38 66 37 67
REMARK SMILES IDX 56 68 57 69 61 70 58 71 60 72 59 73 46 74 47 75 51 76 48 77
REMARK SMILES IDX 50 78 49 79
REMARK H PARENT 18 4 10 10 22 28 66 47 44 58
REMARK Flexibility Score: inf
ROOT
ATOM      1  C   UNL A   1      36.645  22.893  24.275  1.00  0.00     0.222 C 
ATOM      2  O   UNL A   1      36.417  23.344  23.153  1.00  0.00    -0.275 OA
ATOM      3  N   UNL A   1      37.588  21.919  24.403  1.00  0.00    -0.356 N 
ATOM      4  H   UNL A   1      38.097  21.717  23.585  1.00  0.00     0.163 HD
ENDROOT
BRANCH   1   5
ATOM      5  C   UNL A   1      35.916  23.402  25.493  1.00  0.00     0.138 C 
BRANCH   5   6
ATOM      6  C   UNL A   1      34.630  22.663  25.861  1.00  0.00     0.182 C 
ATOM      7  N   UNL A   1      32.214  22.618  26.329  1.00  0.00    -0.328 N 
ATOM      8  C   UNL A   1      32.058  21.500  25.397  1.00  0.00     0.291 C 
ATOM      9  C   UNL A   1      33.328  23.487  25.920  1.00  0.00     0.295 C 
ATOM     10  H   UNL A   1      32.462  22.203  27.226  1.00  0.00     0.348 HD
ATOM     11  C   UNL A   1      33.381  20.723  25.304  1.00  0.00     0.222 C 
ATOM     12  O   UNL A   1      34.470  21.575  24.914  1.00  0.00    -0.366 OA
BRANCH   7  13
ATOM     13  C   UNL A   1      30.986  23.337  26.658  1.00  0.00     0.304 C 
BRANCH  13  14
ATOM     14  C   UNL A   1      30.989  24.728  25.989  1.00  0.00     0.290 C 
BRANCH  14  15
ATOM     15  O   UNL A   1      31.103  25.805  26.927  1.00  0.00    -0.488 OA
BRANCH  15  16
ATOM     16  C   UNL A   1      31.789  26.937  26.582  1.00  0.00     0.119 A 
ATOM     17  C   UNL A   1      33.901  28.594  23.874  1.00  0.00     0.044 C 
ATOM     18  C   UNL A   1      33.166  28.367  25.164  1.00  0.00    -0.047 A 
ATOM     19  C   UNL A   1      32.939  29.439  26.031  1.00  0.00     0.003 A 
ATOM     20  C   UNL A   1      32.608  27.111  25.465  1.00  0.00     0.049 A 
ATOM     21  C   UNL A   1      32.170  29.259  27.180  1.00  0.00     0.004 A 
ATOM     22  C   UNL A   1      31.595  28.015  27.448  1.00  0.00     0.046 A 
ENDBRANCH  15  16
ENDBRANCH  14  15
ENDBRANCH  13  14
ENDBRANCH   7  13
ENDBRANCH   5   6
ENDBRANCH   1   5
BRANCH   3  23
ATOM     23  C   UNL A   1      37.958  21.135  25.569  1.00  0.00     0.117 C 
BRANCH  23  24
ATOM     24  C   UNL A   1      39.329  21.552  26.099  1.00  0.00     0.042 C 
BRANCH  24  25
ATOM     25  C   UNL A   1      39.576  23.055  26.040  1.00  0.00     0.118 C 
BRANCH  25  26
ATOM     26  N   UNL A   1      40.892  23.380  26.593  1.00  0.00    -0.352 N 
ATOM     27  C   UNL A   1      41.332  24.527  27.221  1.00  0.00     0.251 C 
ATOM     28  H   UNL A   1      41.568  22.670  26.503  1.00  0.00     0.163 HD
ATOM     29  O   UNL A   1      42.445  24.610  27.711  1.00  0.00    -0.269 OA
BRANCH  27  30
ATOM     30  C   UNL A   1      40.355  25.615  27.374  1.00  0.00     0.039 A 
ATOM     31  C   UNL A   1      40.635  26.788  26.671  1.00  0.00     0.014 A 
ATOM     32  C   UNL A   1      39.501  25.592  28.478  1.00  0.00     0.014 A 
ATOM     33  C   UNL A   1      40.268  27.998  27.236  1.00  0.00     0.010 A 
ATOM     34  C   UNL A   1      39.158  26.803  29.052  1.00  0.00     0.010 A 
ATOM     35  C   UNL A   1      39.640  27.991  28.483  1.00  0.00    -0.014 A 
BRANCH  35  36
ATOM     36  C   UNL A   1      39.625  29.187  29.318  1.00  0.00     0.031 A 
ATOM     37  C   UNL A   1      38.660  30.260  29.036  1.00  0.00     0.074 A 
ATOM     38  C   UNL A   1      40.565  29.362  30.274  1.00  0.00     0.049 A 
ATOM     39  N   UNL A   1      38.872  31.508  29.286  1.00  0.00    -0.248 NA
ATOM     40  C   UNL A   1      37.409  30.011  28.329  1.00  0.00     0.031 C 
ATOM     41  C   UNL A   1      40.621  30.417  31.282  1.00  0.00     0.029 A 
ATOM     42  N   UNL A   1      41.816  28.740  30.349  1.00  0.00    -0.354 N 
ATOM     43  C   UNL A   1      37.699  32.177  29.045  1.00  0.00     0.074 A 
ATOM     44  C   UNL A   1      36.878  31.237  28.321  1.00  0.00     0.031 C 
ATOM     45  C   UNL A   1      41.893  30.559  31.688  1.00  0.00     0.029 A 
ATOM     46  C   UNL A   1      42.718  29.689  30.865  1.00  0.00     0.049 A 
ATOM     47  H   UNL A   1      42.026  27.813  30.090  1.00  0.00     0.167 HD
ATOM     48  C   UNL A   1      37.502  33.399  29.616  1.00  0.00     0.031 A 
ATOM     49  C   UNL A   1      43.820  30.085  30.169  1.00  0.00     0.031 A 
ATOM     50  C   UNL A   1      38.738  33.935  30.189  1.00  0.00     0.049 A 
ATOM     51  C   UNL A   1      43.857  31.566  29.858  1.00  0.00     0.074 A 
ATOM     52  C   UNL A   1      39.215  34.062  31.482  1.00  0.00     0.029 A 
ATOM     53  N   UNL A   1      39.816  34.189  29.348  1.00  0.00    -0.354 N 
ATOM     54  N   UNL A   1      42.834  32.365  29.976  1.00  0.00    -0.248 NA
ATOM     55  C   UNL A   1      45.035  32.245  29.321  1.00  0.00     0.031 C 
ATOM     56  C   UNL A   1      40.614  34.311  31.411  1.00  0.00     0.029 A 
ATOM     57  C   UNL A   1      40.975  34.373  30.077  1.00  0.00     0.049 A 
ATOM     58  H   UNL A   1      39.762  34.232  28.365  1.00  0.00     0.167 HD
ATOM     59  C   UNL A   1      43.163  33.605  29.493  1.00  0.00     0.074 A 
ATOM     60  C   UNL A   1      44.564  33.490  29.131  1.00  0.00     0.031 C 
ATOM     61  C   UNL A   1      42.241  34.607  29.392  1.00  0.00     0.031 A 
BRANCH  48  62
ATOM     62  C   UNL A   1      36.131  33.992  29.879  1.00  0.00    -0.014 A 
ATOM     63  C   UNL A   1      35.626  34.011  31.193  1.00  0.00     0.009 A 
ATOM     64  C   UNL A   1      35.241  34.441  28.886  1.00  0.00     0.009 A 
ATOM     65  C   UNL A   1      34.307  34.401  31.481  1.00  0.00     0.001 A 
ATOM     66  C   UNL A   1      33.926  34.836  29.162  1.00  0.00     0.001 A 
ATOM     67  C   UNL A   1      33.454  34.804  30.462  1.00  0.00     0.000 A 
ENDBRANCH  48  62
BRANCH  49  68
ATOM     68  C   UNL A   1      44.401  29.034  29.290  1.00  0.00    -0.014 A 
ATOM     69  C   UNL A   1      43.951  28.942  27.959  1.00  0.00     0.009 A 
ATOM     70  C   UNL A   1      45.577  28.361  29.648  1.00  0.00     0.009 A 
ATOM     71  C   UNL A   1      44.712  28.281  26.990  1.00  0.00     0.001 A 
ATOM     72  C   UNL A   1      46.332  27.696  28.676  1.00  0.00     0.001 A 
ATOM     73  C   UNL A   1      45.917  27.683  27.344  1.00  0.00     0.000 A 
ENDBRANCH  49  68
BRANCH  61  74
ATOM     74  C   UNL A   1      42.440  35.920  28.670  1.00  0.00    -0.014 A 
ATOM     75  C   UNL A   1      41.937  36.208  27.393  1.00  0.00     0.009 A 
ATOM     76  C   UNL A   1      43.058  36.987  29.358  1.00  0.00     0.009 A 
ATOM     77  C   UNL A   1      42.088  37.479  26.817  1.00  0.00     0.001 A 
ATOM     78  C   UNL A   1      43.168  38.267  28.808  1.00  0.00     0.001 A 
ATOM     79  C   UNL A   1      42.694  38.510  27.528  1.00  0.00     0.000 A 
ENDBRANCH  61  74
ENDBRANCH  35  36
ENDBRANCH  27  30
ENDBRANCH  25  26
ENDBRANCH  24  25
ENDBRANCH  23  24
ENDBRANCH   3  23
TORSDOF 15
ENDMDL
MODEL 3
REMARK VINA RESULT:     -11.0      0.910      1.391
REMARK SMILES Cc1cccc(OCC[N@H+]2CCO[C@@H](CC(=O)NCCCNC(=O)c3ccc(-c4c5nc(c(-c6ccccc6)c6ccc([nH]6)c(-c6ccccc6)c6nc(c(-c7ccccc7)c7ccc4[nH]7)C=C6)C=C5)cc3)C2)c1
REMARK SMILES IDX 16 1 17 2 18 3 15 5 14 6 10 7 11 8 73 9 12 11 13 12 9 13
REMARK SMILES IDX 8 14 7 15 6 16 1 17 2 18 3 19 74 20 4 21 5 22 19 23 20 24
REMARK SMILES IDX 21 25 22 26 23 27 24 29 25 30 26 31 72 32 27 33 71 34 28 35
REMARK SMILES IDX 29 36 30 37 65 38 31 39 70 40 64 41 66 42 32 43 69 44 63 45
REMARK SMILES IDX 62 46 33 48 55 49 40 50 54 51 41 52 44 53 53 54 67 55 42 56
REMARK SMILES IDX 43 57 52 59 68 60 45 61 34 62 35 63 39 64 36 65 38 66 37 67
REMARK SMILES IDX 56 68 57 69 61 70 58 71 60 72 59 73 46 74 47 75 51 76 48 77
REMARK SMILES IDX 50 78 49 79
REMARK H PARENT 18 4 10 10 22 28 66 47 44 58
REMARK Flexibility Score: inf
ROOT
ATOM      1  C   UNL A   1      32.056  28.265  27.347  1.00  0.00     0.222 C 
ATOM      2  O   UNL A   1      31.164  27.749  28.020  1.00  0.00    -0.275 OA
ATOM      3  N   UNL A   1      32.430  29.542  27.636  1.00  0.00    -0.356 N 
ATOM      4  H   UNL A   1      32.018  29.928  28.442  1.00  0.00     0.163 HD
ENDROOT
BRANCH   1   5
ATOM      5  C   UNL A   1      32.739  27.513  26.233  1.00  0.00     0.138 C 
BRANCH   5   6
ATOM      6  C   UNL A   1      32.208  27.775  24.825  1.00  0.00     0.182 C 
ATOM      7  N   UNL A   1      31.684  27.040  22.534  1.00  0.00    -0.328 N 
ATOM      8  C   UNL A   1      30.343  27.615  22.661  1.00  0.00     0.291 C 
ATOM      9  C   UNL A   1      32.183  26.586  23.841  1.00  0.00     0.295 C 
ATOM     10  H   UNL A   1      32.286  27.801  22.222  1.00  0.00     0.348 HD
ATOM     11  C   UNL A   1      30.372  28.759  23.688  1.00  0.00     0.222 C 
ATOM     12  O   UNL A   1      30.869  28.316  24.961  1.00  0.00    -0.366 OA
BRANCH   7  13
ATOM     13  C   UNL A   1      31.849  26.065  21.460  1.00  0.00     0.304 C 
BRANCH  13  14
ATOM     14  C   UNL A   1      33.232  25.387  21.566  1.00  0.00     0.290 C 
BRANCH  14  15
ATOM     15  O   UNL A   1      33.175  23.964  21.415  1.00  0.00    -0.488 OA
BRANCH  15  16
ATOM     16  C   UNL A   1      33.588  23.155  22.438  1.00  0.00     0.119 A 
ATOM     17  C   UNL A   1      36.488  22.316  24.767  1.00  0.00     0.044 C 
ATOM     18  C   UNL A   1      35.144  22.275  24.098  1.00  0.00    -0.047 A 
ATOM     19  C   UNL A   1      34.110  21.525  24.665  1.00  0.00     0.003 A 
ATOM     20  C   UNL A   1      34.878  23.066  22.966  1.00  0.00     0.049 A 
ATOM     21  C   UNL A   1      32.833  21.564  24.109  1.00  0.00     0.004 A 
ATOM     22  C   UNL A   1      32.575  22.378  23.005  1.00  0.00     0.046 A 
ENDBRANCH  15  16
ENDBRANCH  14  15
ENDBRANCH  13  14
ENDBRANCH   7  13
ENDBRANCH   5   6
ENDBRANCH   1   5
BRANCH   3  23
ATOM     23  C   UNL A   1      33.349  30.419  26.932  1.00  0.00     0.117 C 
BRANCH  23  24
ATOM     24  C   UNL A   1      34.771  30.270  27.470  1.00  0.00     0.042 C 
BRANCH  24  25
ATOM     25  C   UNL A   1      35.370  31.574  27.985  1.00  0.00     0.118 C 
BRANCH  25  26
ATOM     26  N   UNL A   1      34.322  32.436  28.537  1.00  0.00    -0.352 N 
ATOM     27  C   UNL A   1      34.384  33.370  29.551  1.00  0.00     0.251 C 
ATOM     28  H   UNL A   1      33.437  32.333  28.119  1.00  0.00     0.163 HD
ATOM     29  O   UNL A   1      33.435  34.078  29.835  1.00  0.00    -0.269 OA
BRANCH  27  30
ATOM     30  C   UNL A   1      35.688  33.553  30.204  1.00  0.00     0.039 A 
ATOM     31  C   UNL A   1      36.662  34.203  29.444  1.00  0.00     0.014 A 
ATOM     32  C   UNL A   1      36.009  32.738  31.291  1.00  0.00     0.014 A 
ATOM     33  C   UNL A   1      37.985  33.825  29.607  1.00  0.00     0.010 A 
ATOM     34  C   UNL A   1      37.328  32.345  31.433  1.00  0.00     0.010 A 
ATOM     35  C   UNL A   1      38.283  32.809  30.517  1.00  0.00    -0.014 A 
BRANCH  35  36
ATOM     36  C   UNL A   1      39.538  32.071  30.428  1.00  0.00     0.031 A 
ATOM     37  C   UNL A   1      39.561  30.748  29.787  1.00  0.00     0.074 A 
ATOM     38  C   UNL A   1      40.651  32.546  31.031  1.00  0.00     0.049 A 
ATOM     39  N   UNL A   1      40.382  29.804  30.106  1.00  0.00    -0.248 NA
ATOM     40  C   UNL A   1      38.563  30.346  28.804  1.00  0.00     0.031 C 
ATOM     41  C   UNL A   1      42.009  32.018  30.932  1.00  0.00     0.029 A 
ATOM     42  N   UNL A   1      40.712  33.473  32.077  1.00  0.00    -0.354 N 
ATOM     43  C   UNL A   1      40.215  28.793  29.192  1.00  0.00     0.074 A 
ATOM     44  C   UNL A   1      38.987  29.114  28.505  1.00  0.00     0.031 C 
ATOM     45  C   UNL A   1      42.703  32.405  32.014  1.00  0.00     0.029 A 
ATOM     46  C   UNL A   1      41.781  33.087  32.907  1.00  0.00     0.049 A 
ATOM     47  H   UNL A   1      40.120  34.249  32.207  1.00  0.00     0.167 HD
ATOM     48  C   UNL A   1      41.212  27.881  29.022  1.00  0.00     0.031 A 
ATOM     49  C   UNL A   1      41.596  32.782  34.223  1.00  0.00     0.031 A 
ATOM     50  C   UNL A   1      42.220  27.975  30.081  1.00  0.00     0.049 A 
ATOM     51  C   UNL A   1      41.995  31.369  34.592  1.00  0.00     0.074 A 
ATOM     52  C   UNL A   1      43.503  28.491  30.136  1.00  0.00     0.029 A 
ATOM     53  N   UNL A   1      41.839  27.732  31.397  1.00  0.00    -0.354 N 
ATOM     54  N   UNL A   1      42.230  30.424  33.726  1.00  0.00    -0.248 NA
ATOM     55  C   UNL A   1      42.090  30.897  35.972  1.00  0.00     0.031 C 
ATOM     56  C   UNL A   1      43.859  28.637  31.505  1.00  0.00     0.029 A 
ATOM     57  C   UNL A   1      42.807  28.174  32.277  1.00  0.00     0.049 A 
ATOM     58  H   UNL A   1      40.994  27.303  31.665  1.00  0.00     0.167 HD
ATOM     59  C   UNL A   1      42.436  29.240  34.385  1.00  0.00     0.074 A 
ATOM     60  C   UNL A   1      42.378  29.596  35.792  1.00  0.00     0.031 C 
ATOM     61  C   UNL A   1      42.594  28.061  33.716  1.00  0.00     0.031 A 
BRANCH  48  62
ATOM     62  C   UNL A   1      41.406  27.075  27.752  1.00  0.00    -0.014 A 
ATOM     63  C   UNL A   1      40.881  25.771  27.672  1.00  0.00     0.009 A 
ATOM     64  C   UNL A   1      42.181  27.479  26.650  1.00  0.00     0.009 A 
ATOM     65  C   UNL A   1      41.159  24.918  26.591  1.00  0.00     0.001 A 
ATOM     66  C   UNL A   1      42.461  26.639  25.565  1.00  0.00     0.001 A 
ATOM     67  C   UNL A   1      41.959  25.350  25.542  1.00  0.00     0.000 A 
ENDBRANCH  48  62
BRANCH  49  68
ATOM     68  C   UNL A   1      40.491  33.534  34.877  1.00  0.00    -0.014 A 
ATOM     69  C   UNL A   1      39.246  32.897  35.044  1.00  0.00     0.009 A 
ATOM     70  C   UNL A   1      40.744  34.710  35.596  1.00  0.00     0.009 A 
ATOM     71  C   UNL A   1      38.321  33.367  35.981  1.00  0.00     0.001 A 
ATOM     72  C   UNL A   1      39.813  35.180  36.529  1.00  0.00     0.001 A 
ATOM     73  C   UNL A   1      38.618  34.492  36.744  1.00  0.00     0.000 A 
ENDBRANCH  49  68
BRANCH  61  74
ATOM     74  C   UNL A   1      42.597  26.684  34.340  1.00  0.00    -0.014 A 
ATOM     75  C   UNL A   1      41.573  26.178  35.152  1.00  0.00     0.009 A 
ATOM     76  C   UNL A   1      43.628  25.783  33.993  1.00  0.00     0.009 A 
ATOM     77  C   UNL A   1      41.603  24.858  35.630  1.00  0.00     0.001 A 
ATOM     78  C   UNL A   1      43.638  24.455  34.428  1.00  0.00     0.001 A 
ATOM     79  C   UNL A   1      42.628  23.996  35.260  1.00  0.00     0.000 A 
ENDBRANCH  61  74
ENDBRANCH  35  36
ENDBRANCH  27  30
ENDBRANCH  25  26
ENDBRANCH  24  25
ENDBRANCH  23  24
ENDBRANCH   3  23
TORSDOF 15
ENDMDL
