MODEL 1
REMARK VINA RESULT:     -13.3      0.000      0.000
REMARK SMILES CCn1ncc(NC(=O)[C@@H]2CCCC[C@@H]2C(=O)NCCCNC(=O)c2ccc(-c3c4nc(c(-c5ccccc5)c5ccc([nH]5)c(-c5ccccc5)c5nc(c(-c6ccccc6)c6ccc3[nH]6)C=C5)C=C4)cc2)c1C(=O)Nc1cnn(C)c1C
REMARK SMILES IDX 19 1 18 2 16 3 17 4 15 6 10 7 11 8 12 9 14 10 13 11 8 12
REMARK SMILES IDX 7 13 9 15 6 16 3 17 4 18 73 19 5 20 2 21 1 22 74 23 75 24
REMARK SMILES IDX 76 25 77 27 78 28 82 29 79 30 80 31 83 32 81 33 20 34 21 35
REMARK SMILES IDX 22 36 23 37 24 39 25 40 26 41 72 42 27 43 71 44 28 45 29 46
REMARK SMILES IDX 30 47 65 48 31 49 70 50 64 51 66 52 32 53 69 54 63 55 62 56
REMARK SMILES IDX 33 58 55 59 40 60 54 61 41 62 44 63 53 64 67 65 42 66 43 67
REMARK SMILES IDX 52 69 68 70 45 71 34 72 35 73 39 74 36 75 38 76 37 77 56 78
REMARK SMILES IDX 57 79 61 80 58 81 60 82 59 83 46 84 47 85 51 86 48 87 50 88
REMARK SMILES IDX 49 89
REMARK H PARENT 18 5 7 14 76 26 22 38 66 57 44 68
REMARK Flexibility Score: inf
ROOT
ATOM      1  C   UNL A   1      37.355  20.680  24.555  1.00  0.00     0.117 C 
ENDROOT
BRANCH   1   2
ATOM      2  N   UNL A   1      37.083  21.729  25.517  1.00  0.00    -0.356 N 
ATOM      3  C   UNL A   1      35.950  22.455  25.716  1.00  0.00     0.223 C 
ATOM      4  O   UNL A   1      36.078  23.494  26.367  1.00  0.00    -0.275 OA
ATOM      5  H   UNL A   1      37.831  21.951  26.117  1.00  0.00     0.163 HD
BRANCH   3   6
ATOM      6  C   UNL A   1      34.592  21.955  25.177  1.00  0.00     0.091 C 
ATOM      7  C   UNL A   1      33.661  23.165  24.797  1.00  0.00     0.091 C 
ATOM      8  C   UNL A   1      33.475  23.993  26.064  1.00  0.00     0.014 C 
ATOM      9  C   UNL A   1      32.861  23.198  27.195  1.00  0.00     0.001 C 
ATOM     10  C   UNL A   1      33.809  21.132  26.237  1.00  0.00     0.014 C 
ATOM     11  C   UNL A   1      33.599  21.927  27.518  1.00  0.00     0.001 C 
BRANCH   7  12
ATOM     12  C   UNL A   1      34.097  23.915  23.536  1.00  0.00     0.228 C 
ATOM     13  N   UNL A   1      33.782  25.215  23.238  1.00  0.00    -0.322 N 
ATOM     14  H   UNL A   1      34.018  25.458  22.314  1.00  0.00     0.170 HD
ATOM     15  O   UNL A   1      34.749  23.310  22.670  1.00  0.00    -0.274 OA
BRANCH  13  16
ATOM     16  C   UNL A   1      33.208  26.274  23.938  1.00  0.00     0.092 A 
ATOM     17  N   UNL A   1      32.194  27.412  25.465  1.00  0.00    -0.258 N 
ATOM     18  N   UNL A   1      33.331  28.122  25.264  1.00  0.00    -0.178 NA
ATOM     19  C   UNL A   1      31.908  26.600  24.370  1.00  0.00     0.150 A 
ATOM     20  C   UNL A   1      33.991  27.366  24.390  1.00  0.00     0.162 A 
BRANCH  17  21
ATOM     21  C   UNL A   1      31.869  27.146  26.863  1.00  0.00     0.142 C 
ATOM     22  C   UNL A   1      31.515  28.393  27.649  1.00  0.00     0.029 C 
ENDBRANCH  17  21
BRANCH  19  23
ATOM     23  C   UNL A   1      30.631  26.077  23.875  1.00  0.00     0.276 C 
ATOM     24  O   UNL A   1      30.410  24.863  23.883  1.00  0.00    -0.267 OA
ATOM     25  N   UNL A   1      29.524  26.882  23.646  1.00  0.00    -0.318 N 
ATOM     26  H   UNL A   1      28.695  26.550  24.059  1.00  0.00     0.170 HD
BRANCH  25  27
ATOM     27  C   UNL A   1      29.373  28.059  22.947  1.00  0.00     0.082 A 
ATOM     28  C   UNL A   1      30.308  28.747  22.153  1.00  0.00     0.161 A 
ATOM     29  C   UNL A   1      28.196  28.786  22.818  1.00  0.00     0.059 A 
ATOM     30  N   UNL A   1      29.810  29.879  21.650  1.00  0.00    -0.179 NA
ATOM     31  N   UNL A   1      28.553  29.921  22.127  1.00  0.00    -0.271 N 
ATOM     32  C   UNL A   1      26.827  28.623  23.373  1.00  0.00     0.068 C 
ATOM     33  C   UNL A   1      27.798  31.148  21.977  1.00  0.00     0.174 C 
ENDBRANCH  25  27
ENDBRANCH  19  23
ENDBRANCH  13  16
ENDBRANCH   7  12
ENDBRANCH   3   6
ENDBRANCH   1   2
BRANCH   1  34
ATOM     34  C   UNL A   1      38.164  19.542  25.156  1.00  0.00     0.042 C 
BRANCH  34  35
ATOM     35  C   UNL A   1      39.450  20.021  25.788  1.00  0.00     0.118 C 
BRANCH  35  36
ATOM     36  N   UNL A   1      40.495  18.995  25.810  1.00  0.00    -0.352 N 
ATOM     37  C   UNL A   1      41.847  19.189  26.005  1.00  0.00     0.251 C 
ATOM     38  H   UNL A   1      40.201  18.065  25.670  1.00  0.00     0.163 HD
ATOM     39  O   UNL A   1      42.673  18.324  25.741  1.00  0.00    -0.269 OA
BRANCH  37  40
ATOM     40  C   UNL A   1      42.262  20.481  26.561  1.00  0.00     0.039 A 
ATOM     41  C   UNL A   1      42.796  21.492  25.757  1.00  0.00     0.014 A 
ATOM     42  C   UNL A   1      41.974  20.690  27.906  1.00  0.00     0.014 A 
ATOM     43  C   UNL A   1      42.975  22.756  26.310  1.00  0.00     0.010 A 
ATOM     44  C   UNL A   1      41.966  21.968  28.383  1.00  0.00     0.010 A 
ATOM     45  C   UNL A   1      42.545  22.982  27.621  1.00  0.00    -0.014 A 
BRANCH  45  46
ATOM     46  C   UNL A   1      42.647  24.286  28.259  1.00  0.00     0.031 A 
ATOM     47  C   UNL A   1      41.545  25.245  27.971  1.00  0.00     0.074 A 
ATOM     48  C   UNL A   1      43.496  24.442  29.298  1.00  0.00     0.049 A 
ATOM     49  N   UNL A   1      41.627  26.431  27.464  1.00  0.00    -0.248 NA
ATOM     50  C   UNL A   1      40.160  24.792  28.195  1.00  0.00     0.031 C 
ATOM     51  C   UNL A   1      44.360  23.421  29.918  1.00  0.00     0.029 A 
ATOM     52  N   UNL A   1      43.627  25.492  30.146  1.00  0.00    -0.354 N 
ATOM     53  C   UNL A   1      40.329  26.946  27.466  1.00  0.00     0.074 A 
ATOM     54  C   UNL A   1      39.458  25.837  27.755  1.00  0.00     0.031 C 
ATOM     55  C   UNL A   1      44.690  23.811  31.167  1.00  0.00     0.029 A 
ATOM     56  C   UNL A   1      44.229  25.172  31.356  1.00  0.00     0.049 A 
ATOM     57  H   UNL A   1      43.323  26.401  29.923  1.00  0.00     0.167 HD
ATOM     58  C   UNL A   1      40.087  28.289  27.474  1.00  0.00     0.031 A 
ATOM     59  C   UNL A   1      44.297  25.954  32.459  1.00  0.00     0.031 A 
ATOM     60  C   UNL A   1      41.277  29.040  27.168  1.00  0.00     0.049 A 
ATOM     61  C   UNL A   1      43.995  27.340  32.030  1.00  0.00     0.074 A 
ATOM     62  C   UNL A   1      42.125  29.127  26.085  1.00  0.00     0.029 A 
ATOM     63  N   UNL A   1      41.963  29.573  28.235  1.00  0.00    -0.354 N 
ATOM     64  N   UNL A   1      44.759  28.027  31.228  1.00  0.00    -0.248 NA
ATOM     65  C   UNL A   1      42.616  27.794  32.117  1.00  0.00     0.031 C 
ATOM     66  C   UNL A   1      43.427  29.253  26.654  1.00  0.00     0.029 A 
ATOM     67  C   UNL A   1      43.291  29.305  28.043  1.00  0.00     0.049 A 
ATOM     68  H   UNL A   1      41.569  30.057  28.996  1.00  0.00     0.167 HD
ATOM     69  C   UNL A   1      43.880  28.706  30.396  1.00  0.00     0.074 A 
ATOM     70  C   UNL A   1      42.582  28.613  31.062  1.00  0.00     0.031 C 
ATOM     71  C   UNL A   1      44.226  29.024  29.112  1.00  0.00     0.031 A 
BRANCH  58  72
ATOM     72  C   UNL A   1      38.904  28.945  28.153  1.00  0.00    -0.014 A 
ATOM     73  C   UNL A   1      38.712  28.720  29.532  1.00  0.00     0.009 A 
ATOM     74  C   UNL A   1      37.830  29.532  27.462  1.00  0.00     0.009 A 
ATOM     75  C   UNL A   1      37.485  28.979  30.154  1.00  0.00     0.001 A 
ATOM     76  C   UNL A   1      36.617  29.834  28.089  1.00  0.00     0.001 A 
ATOM     77  C   UNL A   1      36.433  29.527  29.428  1.00  0.00     0.000 A 
ENDBRANCH  58  72
BRANCH  59  78
ATOM     78  C   UNL A   1      44.349  25.538  33.873  1.00  0.00    -0.014 A 
ATOM     79  C   UNL A   1      43.180  25.201  34.571  1.00  0.00     0.009 A 
ATOM     80  C   UNL A   1      45.584  25.241  34.481  1.00  0.00     0.009 A 
ATOM     81  C   UNL A   1      43.246  24.567  35.820  1.00  0.00     0.001 A 
ATOM     82  C   UNL A   1      45.650  24.607  35.727  1.00  0.00     0.001 A 
ATOM     83  C   UNL A   1      44.479  24.259  36.391  1.00  0.00     0.000 A 
ENDBRANCH  59  78
BRANCH  71  84
ATOM     84  C   UNL A   1      45.657  28.804  28.684  1.00  0.00    -0.014 A 
ATOM     85  C   UNL A   1      46.651  29.791  28.810  1.00  0.00     0.009 A 
ATOM     86  C   UNL A   1      46.052  27.503  28.343  1.00  0.00     0.009 A 
ATOM     87  C   UNL A   1      47.999  29.484  28.596  1.00  0.00     0.001 A 
ATOM     88  C   UNL A   1      47.399  27.192  28.148  1.00  0.00     0.001 A 
ATOM     89  C   UNL A   1      48.372  28.181  28.274  1.00  0.00     0.000 A 
ENDBRANCH  71  84
ENDBRANCH  45  46
ENDBRANCH  37  40
ENDBRANCH  35  36
ENDBRANCH  34  35
ENDBRANCH   1  34
TORSDOF 15
ENDMDL
MODEL 2
REMARK VINA RESULT:     -13.0      3.994      9.405
REMARK SMILES CCn1ncc(NC(=O)[C@@H]2CCCC[C@@H]2C(=O)NCCCNC(=O)c2ccc(-c3c4nc(c(-c5ccccc5)c5ccc([nH]5)c(-c5ccccc5)c5nc(c(-c6ccccc6)c6ccc3[nH]6)C=C5)C=C4)cc2)c1C(=O)Nc1cnn(C)c1C
REMARK SMILES IDX 19 1 18 2 16 3 17 4 15 6 10 7 11 8 12 9 14 10 13 11 8 12
REMARK SMILES IDX 7 13 9 15 6 16 3 17 4 18 73 19 5 20 2 21 1 22 74 23 75 24
REMARK SMILES IDX 76 25 77 27 78 28 82 29 79 30 80 31 83 32 81 33 20 34 21 35
REMARK SMILES IDX 22 36 23 37 24 39 25 40 26 41 72 42 27 43 71 44 28 45 29 46
REMARK SMILES IDX 30 47 65 48 31 49 70 50 64 51 66 52 32 53 69 54 63 55 62 56
REMARK SMILES IDX 33 58 55 59 40 60 54 61 41 62 44 63 53 64 67 65 42 66 43 67
REMARK SMILES IDX 52 69 68 70 45 71 34 72 35 73 39 74 36 75 38 76 37 77 56 78
REMARK SMILES IDX 57 79 61 80 58 81 60 82 59 83 46 84 47 85 51 86 48 87 50 88
REMARK SMILES IDX 49 89
REMARK H PARENT 18 5 7 14 76 26 22 38 66 57 44 68
REMARK Flexibility Score: inf
ROOT
ATOM      1  C   UNL A   1      31.723  30.798  25.749  1.00  0.00     0.117 C 
ENDROOT
BRANCH   1   2
ATOM      2  N   UNL A   1      32.793  29.871  26.058  1.00  0.00    -0.356 N 
ATOM      3  C   UNL A   1      32.860  28.526  25.874  1.00  0.00     0.223 C 
ATOM      4  O   UNL A   1      33.734  27.932  26.509  1.00  0.00    -0.275 OA
ATOM      5  H   UNL A   1      33.593  30.277  26.465  1.00  0.00     0.163 HD
BRANCH   3   6
ATOM      6  C   UNL A   1      31.906  27.821  24.884  1.00  0.00     0.091 C 
ATOM      7  C   UNL A   1      32.116  26.262  24.919  1.00  0.00     0.091 C 
ATOM      8  C   UNL A   1      33.573  26.005  24.551  1.00  0.00     0.014 C 
ATOM      9  C   UNL A   1      33.934  26.549  23.186  1.00  0.00     0.001 C 
ATOM     10  C   UNL A   1      32.165  28.252  23.414  1.00  0.00     0.014 C 
ATOM     11  C   UNL A   1      33.611  28.007  23.006  1.00  0.00     0.001 C 
BRANCH   7  12
ATOM     12  C   UNL A   1      31.593  25.591  26.192  1.00  0.00     0.228 C 
ATOM     13  N   UNL A   1      31.973  24.357  26.651  1.00  0.00    -0.322 N 
ATOM     14  H   UNL A   1      31.406  24.039  27.391  1.00  0.00     0.170 HD
ATOM     15  O   UNL A   1      30.718  26.164  26.860  1.00  0.00    -0.274 OA
BRANCH  13  16
ATOM     16  C   UNL A   1      32.975  23.448  26.317  1.00  0.00     0.092 A 
ATOM     17  N   UNL A   1      34.607  22.484  25.289  1.00  0.00    -0.258 N 
ATOM     18  N   UNL A   1      35.052  22.547  26.569  1.00  0.00    -0.178 NA
ATOM     19  C   UNL A   1      33.219  22.584  25.232  1.00  0.00     0.150 A 
ATOM     20  C   UNL A   1      34.079  23.223  27.176  1.00  0.00     0.162 A 
BRANCH  17  21
ATOM     21  C   UNL A   1      35.561  22.934  24.280  1.00  0.00     0.142 C 
ATOM     22  C   UNL A   1      36.713  23.736  24.853  1.00  0.00     0.029 C 
ENDBRANCH  17  21
BRANCH  19  23
ATOM     23  C   UNL A   1      32.264  22.079  24.242  1.00  0.00     0.276 C 
ATOM     24  O   UNL A   1      31.482  22.853  23.681  1.00  0.00    -0.267 OA
ATOM     25  N   UNL A   1      32.360  20.817  23.675  1.00  0.00    -0.318 N 
ATOM     26  H   UNL A   1      32.305  20.812  22.692  1.00  0.00     0.170 HD
BRANCH  25  27
ATOM     27  C   UNL A   1      32.518  19.568  24.236  1.00  0.00     0.082 A 
ATOM     28  C   UNL A   1      32.608  19.208  25.593  1.00  0.00     0.161 A 
ATOM     29  C   UNL A   1      32.537  18.361  23.548  1.00  0.00     0.059 A 
ATOM     30  N   UNL A   1      32.786  17.896  25.757  1.00  0.00    -0.179 NA
ATOM     31  N   UNL A   1      32.816  17.411  24.502  1.00  0.00    -0.271 N 
ATOM     32  C   UNL A   1      32.467  18.004  22.106  1.00  0.00     0.068 C 
ATOM     33  C   UNL A   1      33.242  16.042  24.301  1.00  0.00     0.174 C 
ENDBRANCH  25  27
ENDBRANCH  19  23
ENDBRANCH  13  16
ENDBRANCH   7  12
ENDBRANCH   3   6
ENDBRANCH   1   2
BRANCH   1  34
ATOM     34  C   UNL A   1      31.464  31.778  26.881  1.00  0.00     0.042 C 
BRANCH  34  35
ATOM     35  C   UNL A   1      32.688  32.591  27.232  1.00  0.00     0.118 C 
BRANCH  35  36
ATOM     36  N   UNL A   1      32.374  33.974  27.594  1.00  0.00    -0.352 N 
ATOM     37  C   UNL A   1      32.993  34.743  28.558  1.00  0.00     0.251 C 
ATOM     38  H   UNL A   1      31.640  34.404  27.096  1.00  0.00     0.163 HD
ATOM     39  O   UNL A   1      32.498  35.781  28.980  1.00  0.00    -0.269 OA
BRANCH  37  40
ATOM     40  C   UNL A   1      34.290  34.272  29.056  1.00  0.00     0.039 A 
ATOM     41  C   UNL A   1      34.426  33.687  30.318  1.00  0.00     0.014 A 
ATOM     42  C   UNL A   1      35.347  34.321  28.153  1.00  0.00     0.014 A 
ATOM     43  C   UNL A   1      35.636  33.080  30.641  1.00  0.00     0.010 A 
ATOM     44  C   UNL A   1      36.451  33.559  28.395  1.00  0.00     0.010 A 
ATOM     45  C   UNL A   1      36.636  33.014  29.665  1.00  0.00    -0.014 A 
BRANCH  45  46
ATOM     46  C   UNL A   1      37.910  32.352  29.901  1.00  0.00     0.031 A 
ATOM     47  C   UNL A   1      37.988  30.919  29.503  1.00  0.00     0.074 A 
ATOM     48  C   UNL A   1      39.007  33.106  30.130  1.00  0.00     0.049 A 
ATOM     49  N   UNL A   1      38.289  29.899  30.237  1.00  0.00    -0.248 NA
ATOM     50  C   UNL A   1      37.596  30.563  28.128  1.00  0.00     0.031 C 
ATOM     51  C   UNL A   1      39.101  34.577  30.155  1.00  0.00     0.029 A 
ATOM     52  N   UNL A   1      40.308  32.727  30.197  1.00  0.00    -0.354 N 
ATOM     53  C   UNL A   1      38.298  28.794  29.384  1.00  0.00     0.074 A 
ATOM     54  C   UNL A   1      37.694  29.233  28.153  1.00  0.00     0.031 C 
ATOM     55  C   UNL A   1      40.383  34.949  29.951  1.00  0.00     0.029 A 
ATOM     56  C   UNL A   1      41.210  33.759  29.975  1.00  0.00     0.049 A 
ATOM     57  H   UNL A   1      40.586  31.803  30.386  1.00  0.00     0.167 HD
ATOM     58  C   UNL A   1      39.021  27.672  29.666  1.00  0.00     0.031 A 
ATOM     59  C   UNL A   1      42.544  33.639  29.773  1.00  0.00     0.031 A 
ATOM     60  C   UNL A   1      39.477  27.668  31.032  1.00  0.00     0.049 A 
ATOM     61  C   UNL A   1      42.935  32.286  30.234  1.00  0.00     0.074 A 
ATOM     62  C   UNL A   1      38.863  27.668  32.266  1.00  0.00     0.029 A 
ATOM     63  N   UNL A   1      40.776  28.064  31.250  1.00  0.00    -0.354 N 
ATOM     64  N   UNL A   1      42.868  31.903  31.478  1.00  0.00    -0.248 NA
ATOM     65  C   UNL A   1      42.957  31.213  29.253  1.00  0.00     0.031 C 
ATOM     66  C   UNL A   1      39.673  28.520  33.074  1.00  0.00     0.029 A 
ATOM     67  C   UNL A   1      40.767  28.932  32.309  1.00  0.00     0.049 A 
ATOM     68  H   UNL A   1      41.566  27.775  30.739  1.00  0.00     0.167 HD
ATOM     69  C   UNL A   1      42.407  30.596  31.423  1.00  0.00     0.074 A 
ATOM     70  C   UNL A   1      42.588  30.190  30.030  1.00  0.00     0.031 C 
ATOM     71  C   UNL A   1      41.656  30.068  32.435  1.00  0.00     0.031 A 
BRANCH  58  72
ATOM     72  C   UNL A   1      39.669  26.784  28.625  1.00  0.00    -0.014 A 
ATOM     73  C   UNL A   1      40.565  27.370  27.707  1.00  0.00     0.009 A 
ATOM     74  C   UNL A   1      39.237  25.479  28.329  1.00  0.00     0.009 A 
ATOM     75  C   UNL A   1      40.925  26.723  26.519  1.00  0.00     0.001 A 
ATOM     76  C   UNL A   1      39.630  24.812  27.164  1.00  0.00     0.001 A 
ATOM     77  C   UNL A   1      40.448  25.446  26.243  1.00  0.00     0.000 A 
ENDBRANCH  58  72
BRANCH  59  78
ATOM     78  C   UNL A   1      43.430  34.511  28.979  1.00  0.00    -0.014 A 
ATOM     79  C   UNL A   1      44.737  34.793  29.403  1.00  0.00     0.009 A 
ATOM     80  C   UNL A   1      43.070  34.884  27.669  1.00  0.00     0.009 A 
ATOM     81  C   UNL A   1      45.657  35.402  28.538  1.00  0.00     0.001 A 
ATOM     82  C   UNL A   1      43.989  35.492  26.806  1.00  0.00     0.001 A 
ATOM     83  C   UNL A   1      45.287  35.739  27.238  1.00  0.00     0.000 A 
ENDBRANCH  59  78
BRANCH  71  84
ATOM     84  C   UNL A   1      41.511  30.868  33.708  1.00  0.00    -0.014 A 
ATOM     85  C   UNL A   1      40.520  31.852  33.880  1.00  0.00     0.009 A 
ATOM     86  C   UNL A   1      42.254  30.471  34.827  1.00  0.00     0.009 A 
ATOM     87  C   UNL A   1      40.287  32.423  35.136  1.00  0.00     0.001 A 
ATOM     88  C   UNL A   1      42.008  31.027  36.084  1.00  0.00     0.001 A 
ATOM     89  C   UNL A   1      41.025  32.002  36.239  1.00  0.00     0.000 A 
ENDBRANCH  71  84
ENDBRANCH  45  46
ENDBRANCH  37  40
ENDBRANCH  35  36
ENDBRANCH  34  35
ENDBRANCH   1  34
TORSDOF 15
ENDMDL
MODEL 3
REMARK VINA RESULT:     -12.6      3.856      9.496
REMARK SMILES CCn1ncc(NC(=O)[C@@H]2CCCC[C@@H]2C(=O)NCCCNC(=O)c2ccc(-c3c4nc(c(-c5ccccc5)c5ccc([nH]5)c(-c5ccccc5)c5nc(c(-c6ccccc6)c6ccc3[nH]6)C=C5)C=C4)cc2)c1C(=O)Nc1cnn(C)c1C
REMARK SMILES IDX 19 1 18 2 16 3 17 4 15 6 10 7 11 8 12 9 14 10 13 11 8 12
REMARK SMILES IDX 7 13 9 15 6 16 3 17 4 18 73 19 5 20 2 21 1 22 74 23 75 24
REMARK SMILES IDX 76 25 77 27 78 28 82 29 79 30 80 31 83 32 81 33 20 34 21 35
REMARK SMILES IDX 22 36 23 37 24 39 25 40 26 41 72 42 27 43 71 44 28 45 29 46
REMARK SMILES IDX 30 47 65 48 31 49 70 50 64 51 66 52 32 53 69 54 63 55 62 56
REMARK SMILES IDX 33 58 55 59 40 60 54 61 41 62 44 63 53 64 67 65 42 66 43 67
REMARK SMILES IDX 52 69 68 70 45 71 34 72 35 73 39 74 36 75 38 76 37 77 56 78
REMARK SMILES IDX 57 79 61 80 58 81 60 82 59 83 46 84 47 85 51 86 48 87 50 88
REMARK SMILES IDX 49 89
REMARK H PARENT 18 5 7 14 76 26 22 38 66 57 44 68
REMARK Flexibility Score: inf
ROOT
ATOM      1  C   UNL A   1      31.602  30.457  26.453  1.00  0.00     0.117 C 
ENDROOT
BRANCH   1   2
ATOM      2  N   UNL A   1      32.362  30.068  25.283  1.00  0.00    -0.356 N 
ATOM      3  C   UNL A   1      32.398  28.879  24.623  1.00  0.00     0.223 C 
ATOM      4  O   UNL A   1      33.355  28.705  23.866  1.00  0.00    -0.275 OA
ATOM      5  H   UNL A   1      32.942  30.770  24.908  1.00  0.00     0.163 HD
BRANCH   3   6
ATOM      6  C   UNL A   1      31.264  27.846  24.805  1.00  0.00     0.091 C 
ATOM      7  C   UNL A   1      31.805  26.382  24.608  1.00  0.00     0.091 C 
ATOM      8  C   UNL A   1      32.387  26.312  23.201  1.00  0.00     0.014 C 
ATOM      9  C   UNL A   1      31.368  26.639  22.132  1.00  0.00     0.001 C 
ATOM     10  C   UNL A   1      30.133  28.027  23.755  1.00  0.00     0.014 C 
ATOM     11  C   UNL A   1      30.675  27.959  22.334  1.00  0.00     0.001 C 
BRANCH   7  12
ATOM     12  C   UNL A   1      32.693  25.886  25.752  1.00  0.00     0.228 C 
ATOM     13  N   UNL A   1      32.925  24.572  26.064  1.00  0.00    -0.322 N 
ATOM     14  H   UNL A   1      33.389  24.465  26.926  1.00  0.00     0.170 HD
ATOM     15  O   UNL A   1      33.224  26.717  26.507  1.00  0.00    -0.274 OA
BRANCH  13  16
ATOM     16  C   UNL A   1      32.658  23.352  25.447  1.00  0.00     0.092 A 
ATOM     17  N   UNL A   1      32.834  21.304  24.795  1.00  0.00    -0.258 N 
ATOM     18  N   UNL A   1      31.581  21.349  25.310  1.00  0.00    -0.178 NA
ATOM     19  C   UNL A   1      33.285  22.576  24.453  1.00  0.00     0.150 A 
ATOM     20  C   UNL A   1      31.515  22.588  25.792  1.00  0.00     0.162 A 
BRANCH  17  21
ATOM     21  C   UNL A   1      33.646  20.176  25.241  1.00  0.00     0.142 C 
ATOM     22  C   UNL A   1      32.853  18.898  25.432  1.00  0.00     0.029 C 
ENDBRANCH  17  21
BRANCH  19  23
ATOM     23  C   UNL A   1      34.264  23.006  23.450  1.00  0.00     0.276 C 
ATOM     24  O   UNL A   1      33.973  22.991  22.250  1.00  0.00    -0.267 OA
ATOM     25  N   UNL A   1      35.420  23.702  23.773  1.00  0.00    -0.318 N 
ATOM     26  H   UNL A   1      35.563  24.515  23.236  1.00  0.00     0.170 HD
BRANCH  25  27
ATOM     27  C   UNL A   1      36.404  23.464  24.707  1.00  0.00     0.082 A 
ATOM     28  C   UNL A   1      36.863  24.294  25.746  1.00  0.00     0.161 A 
ATOM     29  C   UNL A   1      37.109  22.277  24.865  1.00  0.00     0.059 A 
ATOM     30  N   UNL A   1      37.856  23.735  26.439  1.00  0.00    -0.179 NA
ATOM     31  N   UNL A   1      38.041  22.543  25.841  1.00  0.00    -0.271 N 
ATOM     32  C   UNL A   1      37.114  20.984  24.130  1.00  0.00     0.068 C 
ATOM     33  C   UNL A   1      39.216  21.772  26.187  1.00  0.00     0.174 C 
ENDBRANCH  25  27
ENDBRANCH  19  23
ENDBRANCH  13  16
ENDBRANCH   7  12
ENDBRANCH   3   6
ENDBRANCH   1   2
BRANCH   1  34
ATOM     34  C   UNL A   1      31.405  31.961  26.539  1.00  0.00     0.042 C 
BRANCH  34  35
ATOM     35  C   UNL A   1      32.534  32.649  27.270  1.00  0.00     0.118 C 
BRANCH  35  36
ATOM     36  N   UNL A   1      32.246  34.050  27.583  1.00  0.00    -0.352 N 
ATOM     37  C   UNL A   1      32.897  34.848  28.500  1.00  0.00     0.251 C 
ATOM     38  H   UNL A   1      31.507  34.469  27.085  1.00  0.00     0.163 HD
ATOM     39  O   UNL A   1      32.425  35.909  28.891  1.00  0.00    -0.269 OA
BRANCH  37  40
ATOM     40  C   UNL A   1      34.199  34.380  28.988  1.00  0.00     0.039 A 
ATOM     41  C   UNL A   1      34.354  33.831  30.263  1.00  0.00     0.014 A 
ATOM     42  C   UNL A   1      35.239  34.393  28.064  1.00  0.00     0.014 A 
ATOM     43  C   UNL A   1      35.564  33.222  30.582  1.00  0.00     0.010 A 
ATOM     44  C   UNL A   1      36.342  33.629  28.308  1.00  0.00     0.010 A 
ATOM     45  C   UNL A   1      36.545  33.119  29.590  1.00  0.00    -0.014 A 
BRANCH  45  46
ATOM     46  C   UNL A   1      37.818  32.453  29.821  1.00  0.00     0.031 A 
ATOM     47  C   UNL A   1      37.900  31.029  29.393  1.00  0.00     0.074 A 
ATOM     48  C   UNL A   1      38.913  33.203  30.075  1.00  0.00     0.049 A 
ATOM     49  N   UNL A   1      38.195  29.993  30.107  1.00  0.00    -0.248 NA
ATOM     50  C   UNL A   1      37.519  30.703  28.007  1.00  0.00     0.031 C 
ATOM     51  C   UNL A   1      39.006  34.672  30.133  1.00  0.00     0.029 A 
ATOM     52  N   UNL A   1      40.213  32.823  30.143  1.00  0.00    -0.354 N 
ATOM     53  C   UNL A   1      38.212  28.907  29.230  1.00  0.00     0.074 A 
ATOM     54  C   UNL A   1      37.617  29.373  28.004  1.00  0.00     0.031 C 
ATOM     55  C   UNL A   1      40.288  35.049  29.947  1.00  0.00     0.029 A 
ATOM     56  C   UNL A   1      41.117  33.860  29.952  1.00  0.00     0.049 A 
ATOM     57  H   UNL A   1      40.490  31.894  30.315  1.00  0.00     0.167 HD
ATOM     58  C   UNL A   1      38.934  27.779  29.492  1.00  0.00     0.031 A 
ATOM     59  C   UNL A   1      42.452  33.744  29.758  1.00  0.00     0.031 A 
ATOM     60  C   UNL A   1      39.379  27.746  30.861  1.00  0.00     0.049 A 
ATOM     61  C   UNL A   1      42.840  32.382  30.192  1.00  0.00     0.074 A 
ATOM     62  C   UNL A   1      38.755  27.719  32.091  1.00  0.00     0.029 A 
ATOM     63  N   UNL A   1      40.676  28.138  31.099  1.00  0.00    -0.354 N 
ATOM     64  N   UNL A   1      42.763  31.972  31.427  1.00  0.00    -0.248 NA
ATOM     65  C   UNL A   1      42.871  31.331  29.188  1.00  0.00     0.031 C 
ATOM     66  C   UNL A   1      39.559  28.553  32.923  1.00  0.00     0.029 A 
ATOM     67  C   UNL A   1      40.659  28.983  32.176  1.00  0.00     0.049 A 
ATOM     68  H   UNL A   1      41.470  27.861  30.588  1.00  0.00     0.167 HD
ATOM     69  C   UNL A   1      42.304  30.666  31.339  1.00  0.00     0.074 A 
ATOM     70  C   UNL A   1      42.497  30.291  29.939  1.00  0.00     0.031 C 
ATOM     71  C   UNL A   1      41.546  30.116  32.334  1.00  0.00     0.031 A 
BRANCH  58  72
ATOM     72  C   UNL A   1      39.591  26.915  28.438  1.00  0.00    -0.014 A 
ATOM     73  C   UNL A   1      39.784  25.547  28.717  1.00  0.00     0.009 A 
ATOM     74  C   UNL A   1      40.270  27.425  27.317  1.00  0.00     0.009 A 
ATOM     75  C   UNL A   1      40.680  24.766  27.976  1.00  0.00     0.001 A 
ATOM     76  C   UNL A   1      41.131  26.637  26.548  1.00  0.00     0.001 A 
ATOM     77  C   UNL A   1      41.363  25.316  26.897  1.00  0.00     0.000 A 
ENDBRANCH  58  72
BRANCH  59  78
ATOM     78  C   UNL A   1      43.344  34.634  28.989  1.00  0.00    -0.014 A 
ATOM     79  C   UNL A   1      43.736  34.311  27.682  1.00  0.00     0.009 A 
ATOM     80  C   UNL A   1      43.626  35.933  29.457  1.00  0.00     0.009 A 
ATOM     81  C   UNL A   1      44.365  35.261  26.865  1.00  0.00     0.001 A 
ATOM     82  C   UNL A   1      44.253  36.881  28.642  1.00  0.00     0.001 A 
ATOM     83  C   UNL A   1      44.611  36.548  27.341  1.00  0.00     0.000 A 
ENDBRANCH  59  78
BRANCH  71  84
ATOM     84  C   UNL A   1      41.390  30.888  33.622  1.00  0.00    -0.014 A 
ATOM     85  C   UNL A   1      40.393  31.863  33.810  1.00  0.00     0.009 A 
ATOM     86  C   UNL A   1      42.130  30.471  34.737  1.00  0.00     0.009 A 
ATOM     87  C   UNL A   1      40.150  32.406  35.077  1.00  0.00     0.001 A 
ATOM     88  C   UNL A   1      41.875  30.999  36.004  1.00  0.00     0.001 A 
ATOM     89  C   UNL A   1      40.886  31.966  36.174  1.00  0.00     0.000 A 
ENDBRANCH  71  84
ENDBRANCH  45  46
ENDBRANCH  37  40
ENDBRANCH  35  36
ENDBRANCH  34  35
ENDBRANCH   1  34
TORSDOF 15
ENDMDL
