MODEL 1
REMARK VINA RESULT:     -11.3      0.000      0.000
REMARK SMILES Cc1ncccc1Oc1ccc(C(=O)NCCCNC(=O)c2ccc(-c3c4nc(c(-c5ccccc5)c5ccc([nH]5)c(-c5ccccc5)c5nc(c(-c6ccccc6)c6ccc3[nH]6)C=C5)C=C4)cc2)cc1Cl
REMARK SMILES IDX 17 1 16 2 15 3 13 4 14 5 12 7 9 8 10 9 71 10 11 11 70 12
REMARK SMILES IDX 72 13 8 14 7 15 1 16 2 17 3 18 4 19 6 20 5 21 18 22 19 23
REMARK SMILES IDX 20 24 21 26 22 27 23 28 69 29 24 30 68 31 25 32 26 33 27 34
REMARK SMILES IDX 62 35 28 36 67 37 61 38 63 39 29 40 66 41 60 42 59 43 30 45
REMARK SMILES IDX 52 46 37 47 51 48 38 49 41 50 50 51 64 52 39 53 40 54 49 56
REMARK SMILES IDX 65 57 42 58 31 59 32 60 36 61 33 62 35 63 34 64 53 65 54 66
REMARK SMILES IDX 58 67 55 68 57 69 56 70 43 71 44 72 48 73 45 74 47 75 46 76
REMARK H PARENT 15 6 19 25 63 44 41 55
REMARK Flexibility Score: inf
ROOT
ATOM      1  C   UNL A   1      38.227  19.527  24.890  1.00  0.00     0.042 C 
ENDROOT
BRANCH   1   2
ATOM      2  C   UNL A   1      37.159  20.606  24.714  1.00  0.00     0.118 C 
BRANCH   2   3
ATOM      3  N   UNL A   1      35.840  20.096  25.049  1.00  0.00    -0.352 N 
ATOM      4  C   UNL A   1      34.617  20.709  25.139  1.00  0.00     0.251 C 
ATOM      5  O   UNL A   1      33.633  20.017  25.392  1.00  0.00    -0.269 OA
ATOM      6  H   UNL A   1      35.821  19.132  25.247  1.00  0.00     0.163 HD
BRANCH   4   7
ATOM      7  C   UNL A   1      34.430  22.155  24.864  1.00  0.00     0.041 A 
ATOM      8  C   UNL A   1      33.941  24.892  24.592  1.00  0.00     0.146 A 
ATOM      9  C   UNL A   1      34.612  24.417  25.720  1.00  0.00     0.049 A 
ATOM     10  C   UNL A   1      33.647  24.024  23.537  1.00  0.00     0.084 A 
ATOM     11  C   UNL A   1      34.840  23.050  25.863  1.00  0.00     0.018 A 
ATOM     12  C   UNL A   1      33.899  22.656  23.672  1.00  0.00     0.038 A 
ATOM     13  Cl  UNL A   1      32.946  24.583  22.062  1.00  0.00    -0.080 Cl
BRANCH   8  14
ATOM     14  O   UNL A   1      33.669  26.231  24.557  1.00  0.00    -0.454 OA
BRANCH  14  15
ATOM     15  C   UNL A   1      32.910  26.811  25.551  1.00  0.00     0.148 A 
ATOM     16  C   UNL A   1      30.711  25.472  25.405  1.00  0.00     0.071 C 
ATOM     17  C   UNL A   1      31.608  26.521  25.984  1.00  0.00     0.080 A 
ATOM     18  N   UNL A   1      31.025  27.201  27.015  1.00  0.00    -0.258 NA
ATOM     19  C   UNL A   1      31.737  28.156  27.644  1.00  0.00     0.111 A 
ATOM     20  C   UNL A   1      33.617  27.804  26.244  1.00  0.00     0.050 A 
ATOM     21  C   UNL A   1      33.030  28.488  27.302  1.00  0.00     0.024 A 
ENDBRANCH  14  15
ENDBRANCH   8  14
ENDBRANCH   4   7
ENDBRANCH   2   3
ENDBRANCH   1   2
BRANCH   1  22
ATOM     22  C   UNL A   1      39.207  19.813  26.025  1.00  0.00     0.118 C 
BRANCH  22  23
ATOM     23  N   UNL A   1      40.480  19.137  25.837  1.00  0.00    -0.352 N 
ATOM     24  C   UNL A   1      41.761  19.620  25.921  1.00  0.00     0.251 C 
ATOM     25  H   UNL A   1      40.412  18.181  25.614  1.00  0.00     0.163 HD
ATOM     26  O   UNL A   1      42.690  18.917  25.532  1.00  0.00    -0.269 OA
BRANCH  24  27
ATOM     27  C   UNL A   1      42.044  20.974  26.456  1.00  0.00     0.039 A 
ATOM     28  C   UNL A   1      41.974  21.164  27.839  1.00  0.00     0.014 A 
ATOM     29  C   UNL A   1      42.308  22.063  25.620  1.00  0.00     0.014 A 
ATOM     30  C   UNL A   1      42.198  22.430  28.383  1.00  0.00     0.010 A 
ATOM     31  C   UNL A   1      42.601  23.313  26.169  1.00  0.00     0.010 A 
ATOM     32  C   UNL A   1      42.534  23.513  27.554  1.00  0.00    -0.014 A 
BRANCH  32  33
ATOM     33  C   UNL A   1      42.806  24.851  28.139  1.00  0.00     0.031 A 
ATOM     34  C   UNL A   1      44.201  25.247  28.542  1.00  0.00     0.074 A 
ATOM     35  C   UNL A   1      41.786  25.712  28.326  1.00  0.00     0.049 A 
ATOM     36  N   UNL A   1      44.628  26.386  29.027  1.00  0.00    -0.248 NA
ATOM     37  C   UNL A   1      45.251  24.225  28.400  1.00  0.00     0.031 C 
ATOM     38  C   UNL A   1      40.380  25.435  28.026  1.00  0.00     0.029 A 
ATOM     39  N   UNL A   1      41.778  26.998  28.803  1.00  0.00    -0.354 N 
ATOM     40  C   UNL A   1      45.987  26.214  29.260  1.00  0.00     0.074 A 
ATOM     41  C   UNL A   1      46.305  24.847  28.908  1.00  0.00     0.031 C 
ATOM     42  C   UNL A   1      39.651  26.532  28.288  1.00  0.00     0.029 A 
ATOM     43  C   UNL A   1      40.533  27.577  28.797  1.00  0.00     0.049 A 
ATOM     44  H   UNL A   1      42.587  27.461  29.121  1.00  0.00     0.167 HD
ATOM     45  C   UNL A   1      46.895  27.116  29.706  1.00  0.00     0.031 A 
ATOM     46  C   UNL A   1      40.145  28.818  29.149  1.00  0.00     0.031 A 
ATOM     47  C   UNL A   1      46.585  28.480  30.046  1.00  0.00     0.049 A 
ATOM     48  C   UNL A   1      41.173  29.807  29.617  1.00  0.00     0.074 A 
ATOM     49  C   UNL A   1      47.446  29.484  30.458  1.00  0.00     0.029 A 
ATOM     50  N   UNL A   1      45.314  29.031  30.014  1.00  0.00    -0.354 N 
ATOM     51  N   UNL A   1      42.467  29.648  29.761  1.00  0.00    -0.248 NA
ATOM     52  C   UNL A   1      40.688  31.153  29.950  1.00  0.00     0.031 C 
ATOM     53  C   UNL A   1      46.687  30.633  30.712  1.00  0.00     0.029 A 
ATOM     54  C   UNL A   1      45.364  30.357  30.412  1.00  0.00     0.049 A 
ATOM     55  H   UNL A   1      44.497  28.551  29.748  1.00  0.00     0.167 HD
ATOM     56  C   UNL A   1      42.953  30.881  30.177  1.00  0.00     0.074 A 
ATOM     57  C   UNL A   1      41.819  31.780  30.242  1.00  0.00     0.031 C 
ATOM     58  C   UNL A   1      44.225  31.236  30.478  1.00  0.00     0.031 A 
BRANCH  45  59
ATOM     59  C   UNL A   1      48.316  26.648  29.855  1.00  0.00    -0.014 A 
ATOM     60  C   UNL A   1      48.757  26.029  31.035  1.00  0.00     0.009 A 
ATOM     61  C   UNL A   1      49.219  26.800  28.791  1.00  0.00     0.009 A 
ATOM     62  C   UNL A   1      50.083  25.607  31.160  1.00  0.00     0.001 A 
ATOM     63  C   UNL A   1      50.536  26.352  28.908  1.00  0.00     0.001 A 
ATOM     64  C   UNL A   1      50.969  25.765  30.097  1.00  0.00     0.000 A 
ENDBRANCH  45  59
BRANCH  46  65
ATOM     65  C   UNL A   1      38.716  29.209  29.029  1.00  0.00    -0.014 A 
ATOM     66  C   UNL A   1      37.860  29.116  30.138  1.00  0.00     0.009 A 
ATOM     67  C   UNL A   1      38.202  29.673  27.809  1.00  0.00     0.009 A 
ATOM     68  C   UNL A   1      36.511  29.457  30.020  1.00  0.00     0.001 A 
ATOM     69  C   UNL A   1      36.859  30.039  27.701  1.00  0.00     0.001 A 
ATOM     70  C   UNL A   1      36.012  29.922  28.804  1.00  0.00     0.000 A 
ENDBRANCH  46  65
BRANCH  58  71
ATOM     71  C   UNL A   1      44.456  32.667  30.877  1.00  0.00    -0.014 A 
ATOM     72  C   UNL A   1      44.377  33.070  32.220  1.00  0.00     0.009 A 
ATOM     73  C   UNL A   1      44.766  33.620  29.896  1.00  0.00     0.009 A 
ATOM     74  C   UNL A   1      44.562  34.410  32.565  1.00  0.00     0.001 A 
ATOM     75  C   UNL A   1      44.977  34.954  30.247  1.00  0.00     0.001 A 
ATOM     76  C   UNL A   1      44.863  35.350  31.579  1.00  0.00     0.000 A 
ENDBRANCH  58  71
ENDBRANCH  32  33
ENDBRANCH  24  27
ENDBRANCH  22  23
ENDBRANCH   1  22
TORSDOF 12
ENDMDL
MODEL 2
REMARK VINA RESULT:     -11.2      3.222      8.966
REMARK SMILES Cc1ncccc1Oc1ccc(C(=O)NCCCNC(=O)c2ccc(-c3c4nc(c(-c5ccccc5)c5ccc([nH]5)c(-c5ccccc5)c5nc(c(-c6ccccc6)c6ccc3[nH]6)C=C5)C=C4)cc2)cc1Cl
REMARK SMILES IDX 17 1 16 2 15 3 13 4 14 5 12 7 9 8 10 9 71 10 11 11 70 12
REMARK SMILES IDX 72 13 8 14 7 15 1 16 2 17 3 18 4 19 6 20 5 21 18 22 19 23
REMARK SMILES IDX 20 24 21 26 22 27 23 28 69 29 24 30 68 31 25 32 26 33 27 34
REMARK SMILES IDX 62 35 28 36 67 37 61 38 63 39 29 40 66 41 60 42 59 43 30 45
REMARK SMILES IDX 52 46 37 47 51 48 38 49 41 50 50 51 64 52 39 53 40 54 49 56
REMARK SMILES IDX 65 57 42 58 31 59 32 60 36 61 33 62 35 63 34 64 53 65 54 66
REMARK SMILES IDX 58 67 55 68 57 69 56 70 43 71 44 72 48 73 45 74 47 75 46 76
REMARK H PARENT 15 6 19 25 63 44 41 55
REMARK Flexibility Score: inf
ROOT
ATOM      1  C   UNL A   1      31.410  32.212  26.773  1.00  0.00     0.042 C 
ENDROOT
BRANCH   1   2
ATOM      2  C   UNL A   1      31.671  30.750  26.416  1.00  0.00     0.118 C 
BRANCH   2   3
ATOM      3  N   UNL A   1      31.169  30.438  25.088  1.00  0.00    -0.352 N 
ATOM      4  C   UNL A   1      31.179  29.282  24.352  1.00  0.00     0.251 C 
ATOM      5  O   UNL A   1      30.624  29.280  23.256  1.00  0.00    -0.269 OA
ATOM      6  H   UNL A   1      30.740  31.199  24.633  1.00  0.00     0.163 HD
BRANCH   4   7
ATOM      7  C   UNL A   1      31.765  28.019  24.866  1.00  0.00     0.041 A 
ATOM      8  C   UNL A   1      33.034  25.642  25.604  1.00  0.00     0.146 A 
ATOM      9  C   UNL A   1      33.793  26.790  25.377  1.00  0.00     0.049 A 
ATOM     10  C   UNL A   1      31.638  25.715  25.606  1.00  0.00     0.084 A 
ATOM     11  C   UNL A   1      33.161  27.971  24.992  1.00  0.00     0.018 A 
ATOM     12  C   UNL A   1      31.005  26.908  25.243  1.00  0.00     0.038 A 
ATOM     13  Cl  UNL A   1      30.652  24.360  26.017  1.00  0.00    -0.080 Cl
BRANCH   8  14
ATOM     14  O   UNL A   1      33.723  24.496  25.889  1.00  0.00    -0.454 OA
BRANCH  14  15
ATOM     15  C   UNL A   1      34.609  23.973  24.971  1.00  0.00     0.148 A 
ATOM     16  C   UNL A   1      33.109  23.631  22.901  1.00  0.00     0.071 C 
ATOM     17  C   UNL A   1      34.410  23.580  23.640  1.00  0.00     0.080 A 
ATOM     18  N   UNL A   1      35.431  23.098  22.872  1.00  0.00    -0.258 NA
ATOM     19  C   UNL A   1      36.665  23.027  23.408  1.00  0.00     0.111 A 
ATOM     20  C   UNL A   1      35.912  23.892  25.482  1.00  0.00     0.050 A 
ATOM     21  C   UNL A   1      36.956  23.414  24.699  1.00  0.00     0.024 A 
ENDBRANCH  14  15
ENDBRANCH   8  14
ENDBRANCH   4   7
ENDBRANCH   2   3
ENDBRANCH   1   2
BRANCH   1  22
ATOM     22  C   UNL A   1      32.683  33.032  26.971  1.00  0.00     0.118 C 
BRANCH  22  23
ATOM     23  N   UNL A   1      32.475  34.169  27.854  1.00  0.00    -0.352 N 
ATOM     24  C   UNL A   1      33.166  34.562  28.971  1.00  0.00     0.251 C 
ATOM     25  H   UNL A   1      31.717  34.748  27.611  1.00  0.00     0.163 HD
ATOM     26  O   UNL A   1      32.699  35.450  29.680  1.00  0.00    -0.269 OA
BRANCH  24  27
ATOM     27  C   UNL A   1      34.455  33.932  29.345  1.00  0.00     0.039 A 
ATOM     28  C   UNL A   1      35.594  34.272  28.610  1.00  0.00     0.014 A 
ATOM     29  C   UNL A   1      34.544  32.968  30.354  1.00  0.00     0.014 A 
ATOM     30  C   UNL A   1      36.821  33.675  28.906  1.00  0.00     0.010 A 
ATOM     31  C   UNL A   1      35.785  32.424  30.696  1.00  0.00     0.010 A 
ATOM     32  C   UNL A   1      36.932  32.760  29.966  1.00  0.00    -0.014 A 
BRANCH  32  33
ATOM     33  C   UNL A   1      38.246  32.153  30.299  1.00  0.00     0.031 A 
ATOM     34  C   UNL A   1      39.181  32.826  31.268  1.00  0.00     0.074 A 
ATOM     35  C   UNL A   1      38.609  30.995  29.713  1.00  0.00     0.049 A 
ATOM     36  N   UNL A   1      40.346  32.418  31.708  1.00  0.00    -0.248 NA
ATOM     37  C   UNL A   1      38.765  34.134  31.798  1.00  0.00     0.031 C 
ATOM     38  C   UNL A   1      37.819  30.267  28.719  1.00  0.00     0.029 A 
ATOM     39  N   UNL A   1      39.732  30.223  29.877  1.00  0.00    -0.354 N 
ATOM     40  C   UNL A   1      40.806  33.423  32.551  1.00  0.00     0.074 A 
ATOM     41  C   UNL A   1      39.817  34.480  32.525  1.00  0.00     0.031 C 
ATOM     42  C   UNL A   1      38.462  29.133  28.392  1.00  0.00     0.029 A 
ATOM     43  C   UNL A   1      39.718  29.070  29.132  1.00  0.00     0.049 A 
ATOM     44  H   UNL A   1      40.476  30.473  30.472  1.00  0.00     0.167 HD
ATOM     45  C   UNL A   1      41.936  33.456  33.297  1.00  0.00     0.031 A 
ATOM     46  C   UNL A   1      40.610  28.065  29.062  1.00  0.00     0.031 A 
ATOM     47  C   UNL A   1      42.916  32.403  33.336  1.00  0.00     0.049 A 
ATOM     48  C   UNL A   1      41.844  28.114  29.917  1.00  0.00     0.074 A 
ATOM     49  C   UNL A   1      44.068  32.322  34.100  1.00  0.00     0.029 A 
ATOM     50  N   UNL A   1      42.859  31.245  32.576  1.00  0.00    -0.354 N 
ATOM     51  N   UNL A   1      42.225  29.038  30.765  1.00  0.00    -0.248 NA
ATOM     52  C   UNL A   1      42.758  26.967  29.819  1.00  0.00     0.031 C 
ATOM     53  C   UNL A   1      44.728  31.132  33.772  1.00  0.00     0.029 A 
ATOM     54  C   UNL A   1      43.961  30.451  32.841  1.00  0.00     0.049 A 
ATOM     55  H   UNL A   1      42.140  31.021  31.941  1.00  0.00     0.167 HD
ATOM     56  C   UNL A   1      43.411  28.573  31.320  1.00  0.00     0.074 A 
ATOM     57  C   UNL A   1      43.673  27.277  30.727  1.00  0.00     0.031 C 
ATOM     58  C   UNL A   1      44.211  29.167  32.238  1.00  0.00     0.031 A 
BRANCH  45  59
ATOM     59  C   UNL A   1      42.174  34.682  34.135  1.00  0.00    -0.014 A 
ATOM     60  C   UNL A   1      41.754  34.739  35.474  1.00  0.00     0.009 A 
ATOM     61  C   UNL A   1      42.852  35.783  33.590  1.00  0.00     0.009 A 
ATOM     62  C   UNL A   1      41.975  35.888  36.237  1.00  0.00     0.001 A 
ATOM     63  C   UNL A   1      43.097  36.920  34.364  1.00  0.00     0.001 A 
ATOM     64  C   UNL A   1      42.649  36.974  35.683  1.00  0.00     0.000 A 
ENDBRANCH  45  59
BRANCH  46  65
ATOM     65  C   UNL A   1      40.347  26.900  28.177  1.00  0.00    -0.014 A 
ATOM     66  C   UNL A   1      39.579  25.819  28.636  1.00  0.00     0.009 A 
ATOM     67  C   UNL A   1      40.864  26.863  26.873  1.00  0.00     0.009 A 
ATOM     68  C   UNL A   1      39.355  24.712  27.816  1.00  0.00     0.001 A 
ATOM     69  C   UNL A   1      40.616  25.767  26.046  1.00  0.00     0.001 A 
ATOM     70  C   UNL A   1      39.869  24.688  26.520  1.00  0.00     0.000 A 
ENDBRANCH  46  65
BRANCH  58  71
ATOM     71  C   UNL A   1      45.429  28.402  32.675  1.00  0.00    -0.014 A 
ATOM     72  C   UNL A   1      45.377  27.507  33.755  1.00  0.00     0.009 A 
ATOM     73  C   UNL A   1      46.641  28.575  31.990  1.00  0.00     0.009 A 
ATOM     74  C   UNL A   1      46.528  26.832  34.167  1.00  0.00     0.001 A 
ATOM     75  C   UNL A   1      47.783  27.878  32.386  1.00  0.00     0.001 A 
ATOM     76  C   UNL A   1      47.728  27.017  33.481  1.00  0.00     0.000 A 
ENDBRANCH  58  71
ENDBRANCH  32  33
ENDBRANCH  24  27
ENDBRANCH  22  23
ENDBRANCH   1  22
TORSDOF 12
ENDMDL
MODEL 3
REMARK VINA RESULT:     -11.0      0.478      6.030
REMARK SMILES Cc1ncccc1Oc1ccc(C(=O)NCCCNC(=O)c2ccc(-c3c4nc(c(-c5ccccc5)c5ccc([nH]5)c(-c5ccccc5)c5nc(c(-c6ccccc6)c6ccc3[nH]6)C=C5)C=C4)cc2)cc1Cl
REMARK SMILES IDX 17 1 16 2 15 3 13 4 14 5 12 7 9 8 10 9 71 10 11 11 70 12
REMARK SMILES IDX 72 13 8 14 7 15 1 16 2 17 3 18 4 19 6 20 5 21 18 22 19 23
REMARK SMILES IDX 20 24 21 26 22 27 23 28 69 29 24 30 68 31 25 32 26 33 27 34
REMARK SMILES IDX 62 35 28 36 67 37 61 38 63 39 29 40 66 41 60 42 59 43 30 45
REMARK SMILES IDX 52 46 37 47 51 48 38 49 41 50 50 51 64 52 39 53 40 54 49 56
REMARK SMILES IDX 65 57 42 58 31 59 32 60 36 61 33 62 35 63 34 64 53 65 54 66
REMARK SMILES IDX 58 67 55 68 57 69 56 70 43 71 44 72 48 73 45 74 47 75 46 76
REMARK H PARENT 15 6 19 25 63 44 41 55
REMARK Flexibility Score: inf
ROOT
ATOM      1  C   UNL A   1      38.112  19.442  25.009  1.00  0.00     0.042 C 
ENDROOT
BRANCH   1   2
ATOM      2  C   UNL A   1      37.034  20.451  24.618  1.00  0.00     0.118 C 
BRANCH   2   3
ATOM      3  N   UNL A   1      35.713  19.981  25.002  1.00  0.00    -0.352 N 
ATOM      4  C   UNL A   1      34.512  20.629  25.133  1.00  0.00     0.251 C 
ATOM      5  O   UNL A   1      33.518  19.966  25.424  1.00  0.00    -0.269 OA
ATOM      6  H   UNL A   1      35.673  19.018  25.204  1.00  0.00     0.163 HD
BRANCH   4   7
ATOM      7  C   UNL A   1      34.358  22.079  24.861  1.00  0.00     0.041 A 
ATOM      8  C   UNL A   1      33.921  24.825  24.588  1.00  0.00     0.146 A 
ATOM      9  C   UNL A   1      34.544  24.334  25.736  1.00  0.00     0.049 A 
ATOM     10  C   UNL A   1      33.650  23.967  23.518  1.00  0.00     0.084 A 
ATOM     11  C   UNL A   1      34.746  22.962  25.879  1.00  0.00     0.018 A 
ATOM     12  C   UNL A   1      33.876  22.595  23.654  1.00  0.00     0.038 A 
ATOM     13  Cl  UNL A   1      33.010  24.545  22.024  1.00  0.00    -0.080 Cl
BRANCH   8  14
ATOM     14  O   UNL A   1      33.671  26.168  24.552  1.00  0.00    -0.454 OA
BRANCH  14  15
ATOM     15  C   UNL A   1      32.924  26.762  25.547  1.00  0.00     0.148 A 
ATOM     16  C   UNL A   1      30.761  25.358  25.516  1.00  0.00     0.071 C 
ATOM     17  C   UNL A   1      31.645  26.452  26.029  1.00  0.00     0.080 A 
ATOM     18  N   UNL A   1      31.072  27.153  27.053  1.00  0.00    -0.258 NA
ATOM     19  C   UNL A   1      31.775  28.150  27.626  1.00  0.00     0.111 A 
ATOM     20  C   UNL A   1      33.622  27.799  26.183  1.00  0.00     0.050 A 
ATOM     21  C   UNL A   1      33.048  28.505  27.233  1.00  0.00     0.024 A 
ENDBRANCH  14  15
ENDBRANCH   8  14
ENDBRANCH   4   7
ENDBRANCH   2   3
ENDBRANCH   1   2
BRANCH   1  22
ATOM     22  C   UNL A   1      39.161  20.003  25.964  1.00  0.00     0.118 C 
BRANCH  22  23
ATOM     23  N   UNL A   1      40.378  19.208  25.976  1.00  0.00    -0.352 N 
ATOM     24  C   UNL A   1      41.686  19.591  26.130  1.00  0.00     0.251 C 
ATOM     25  H   UNL A   1      40.242  18.241  25.854  1.00  0.00     0.163 HD
ATOM     26  O   UNL A   1      42.577  18.773  25.913  1.00  0.00    -0.269 OA
BRANCH  24  27
ATOM     27  C   UNL A   1      42.046  20.970  26.538  1.00  0.00     0.039 A 
ATOM     28  C   UNL A   1      42.092  21.263  27.904  1.00  0.00     0.014 A 
ATOM     29  C   UNL A   1      42.268  21.987  25.604  1.00  0.00     0.014 A 
ATOM     30  C   UNL A   1      42.392  22.558  28.332  1.00  0.00     0.010 A 
ATOM     31  C   UNL A   1      42.637  23.264  26.033  1.00  0.00     0.010 A 
ATOM     32  C   UNL A   1      42.688  23.567  27.400  1.00  0.00    -0.014 A 
BRANCH  32  33
ATOM     33  C   UNL A   1      43.039  24.935  27.860  1.00  0.00     0.031 A 
ATOM     34  C   UNL A   1      41.968  25.960  28.115  1.00  0.00     0.074 A 
ATOM     35  C   UNL A   1      44.335  25.262  28.033  1.00  0.00     0.049 A 
ATOM     36  N   UNL A   1      42.089  27.187  28.559  1.00  0.00    -0.248 NA
ATOM     37  C   UNL A   1      40.582  25.566  27.814  1.00  0.00     0.031 C 
ATOM     38  C   UNL A   1      45.473  24.379  27.772  1.00  0.00     0.029 A 
ATOM     39  N   UNL A   1      44.910  26.426  28.479  1.00  0.00    -0.354 N 
ATOM     40  C   UNL A   1      40.802  27.713  28.578  1.00  0.00     0.074 A 
ATOM     41  C   UNL A   1      39.922  26.689  28.056  1.00  0.00     0.031 C 
ATOM     42  C   UNL A   1      46.608  25.017  28.102  1.00  0.00     0.029 A 
ATOM     43  C   UNL A   1      46.279  26.360  28.570  1.00  0.00     0.049 A 
ATOM     44  H   UNL A   1      44.392  27.230  28.710  1.00  0.00     0.167 HD
ATOM     45  C   UNL A   1      40.386  28.928  29.009  1.00  0.00     0.031 A 
ATOM     46  C   UNL A   1      47.171  27.273  28.997  1.00  0.00     0.031 A 
ATOM     47  C   UNL A   1      41.257  29.943  29.540  1.00  0.00     0.049 A 
ATOM     48  C   UNL A   1      46.682  28.604  29.493  1.00  0.00     0.074 A 
ATOM     49  C   UNL A   1      40.923  31.187  30.051  1.00  0.00     0.029 A 
ATOM     50  N   UNL A   1      42.635  29.833  29.627  1.00  0.00    -0.354 N 
ATOM     51  N   UNL A   1      45.455  29.056  29.573  1.00  0.00    -0.248 NA
ATOM     52  C   UNL A   1      47.705  29.541  29.979  1.00  0.00     0.031 C 
ATOM     53  C   UNL A   1      42.105  31.843  30.411  1.00  0.00     0.029 A 
ATOM     54  C   UNL A   1      43.169  30.989  30.170  1.00  0.00     0.049 A 
ATOM     55  H   UNL A   1      43.158  29.047  29.345  1.00  0.00     0.167 HD
ATOM     56  C   UNL A   1      45.555  30.320  30.140  1.00  0.00     0.074 A 
ATOM     57  C   UNL A   1      46.961  30.552  30.403  1.00  0.00     0.031 C 
ATOM     58  C   UNL A   1      44.570  31.209  30.419  1.00  0.00     0.031 A 
BRANCH  45  59
ATOM     59  C   UNL A   1      38.915  29.224  28.920  1.00  0.00    -0.014 A 
ATOM     60  C   UNL A   1      38.072  29.056  30.031  1.00  0.00     0.009 A 
ATOM     61  C   UNL A   1      38.368  29.706  27.721  1.00  0.00     0.009 A 
ATOM     62  C   UNL A   1      36.706  29.328  29.930  1.00  0.00     0.001 A 
ATOM     63  C   UNL A   1      37.006  30.004  27.631  1.00  0.00     0.001 A 
ATOM     64  C   UNL A   1      36.176  29.805  28.733  1.00  0.00     0.000 A 
ENDBRANCH  45  59
BRANCH  46  65
ATOM     65  C   UNL A   1      48.619  26.943  29.015  1.00  0.00    -0.014 A 
ATOM     66  C   UNL A   1      49.420  27.202  27.892  1.00  0.00     0.009 A 
ATOM     67  C   UNL A   1      49.206  26.365  30.151  1.00  0.00     0.009 A 
ATOM     68  C   UNL A   1      50.775  26.867  27.898  1.00  0.00     0.001 A 
ATOM     69  C   UNL A   1      50.568  26.056  30.163  1.00  0.00     0.001 A 
ATOM     70  C   UNL A   1      51.349  26.298  29.034  1.00  0.00     0.000 A 
ENDBRANCH  46  65
BRANCH  58  71
ATOM     71  C   UNL A   1      44.983  32.500  31.066  1.00  0.00    -0.014 A 
ATOM     72  C   UNL A   1      45.051  32.626  32.463  1.00  0.00     0.009 A 
ATOM     73  C   UNL A   1      45.316  33.603  30.265  1.00  0.00     0.009 A 
ATOM     74  C   UNL A   1      45.404  33.845  33.044  1.00  0.00     0.001 A 
ATOM     75  C   UNL A   1      45.696  34.813  30.849  1.00  0.00     0.001 A 
ATOM     76  C   UNL A   1      45.728  34.936  32.237  1.00  0.00     0.000 A 
ENDBRANCH  58  71
ENDBRANCH  32  33
ENDBRANCH  24  27
ENDBRANCH  22  23
ENDBRANCH   1  22
TORSDOF 12
ENDMDL
