MODEL 1
REMARK VINA RESULT:     -10.7      0.000      0.000
REMARK SMILES CO[C@@H]1C[C@@H](C(=O)NCCCNC(=O)c2ccc(-c3c4nc(c(-c5ccccc5)c5ccc([nH]5)c(-c5ccccc5)c5nc(c(-c6ccccc6)c6ccc3[nH]6)C=C5)C=C4)cc2)N(S(=O)(=O)/C=C/c2ccccc2)C1
REMARK SMILES IDX 9 1 8 2 6 3 7 4 5 6 3 7 4 8 75 9 63 10 2 11 1 12 64 13 65 14
REMARK SMILES IDX 66 15 67 16 68 17 69 18 70 19 74 20 71 21 73 22 72 23 10 24
REMARK SMILES IDX 11 25 12 26 13 27 14 29 15 30 16 31 62 32 17 33 61 34 18 35
REMARK SMILES IDX 19 36 20 37 55 38 21 39 60 40 54 41 56 42 22 43 59 44 53 45
REMARK SMILES IDX 52 46 23 48 45 49 30 50 44 51 31 52 34 53 43 54 57 55 32 56
REMARK SMILES IDX 33 57 42 59 58 60 35 61 24 62 25 63 29 64 26 65 28 66 27 67
REMARK SMILES IDX 46 68 47 69 51 70 48 71 50 72 49 73 36 74 37 75 41 76 38 77
REMARK SMILES IDX 40 78 39 79
REMARK H PARENT 8 5 12 28 56 47 34 58
REMARK Flexibility Score: inf
ROOT
ATOM      1  C   UNL A   1      33.991  26.510  26.230  1.00  0.00     0.117 C 
ENDROOT
BRANCH   1   2
ATOM      2  N   UNL A   1      32.729  25.792  26.257  1.00  0.00    -0.355 N 
ATOM      3  C   UNL A   1      31.668  25.698  25.425  1.00  0.00     0.238 C 
ATOM      4  O   UNL A   1      30.803  24.886  25.785  1.00  0.00    -0.273 OA
ATOM      5  H   UNL A   1      32.623  25.245  27.068  1.00  0.00     0.163 HD
BRANCH   3   6
ATOM      6  C   UNL A   1      31.473  26.456  24.132  1.00  0.00     0.165 C 
ATOM      7  C   UNL A   1      30.200  27.568  22.481  1.00  0.00     0.135 C 
ATOM      8  C   UNL A   1      30.028  26.760  23.759  1.00  0.00     0.064 C 
ATOM      9  C   UNL A   1      31.314  26.791  21.760  1.00  0.00     0.135 C 
ATOM     10  N   UNL A   1      32.178  26.199  22.852  1.00  0.00    -0.183 NA
BRANCH   7  11
ATOM     11  O   UNL A   1      30.655  28.905  22.707  1.00  0.00    -0.380 OA
ATOM     12  C   UNL A   1      29.724  29.741  23.378  1.00  0.00     0.195 C 
ENDBRANCH   7  11
BRANCH  10  13
ATOM     13  S   UNL A   1      32.864  24.726  22.421  1.00  0.00     0.237 S 
ATOM     14  O   UNL A   1      31.871  23.732  22.789  1.00  0.00    -0.207 OA
ATOM     15  O   UNL A   1      33.233  24.848  21.028  1.00  0.00    -0.207 OA
BRANCH  13  16
ATOM     16  C   UNL A   1      34.292  24.404  23.332  1.00  0.00     0.123 C 
ATOM     17  C   UNL A   1      34.555  23.198  23.854  1.00  0.00     0.021 C 
BRANCH  17  18
ATOM     18  C   UNL A   1      35.847  22.877  24.488  1.00  0.00    -0.025 A 
ATOM     19  C   UNL A   1      36.494  23.877  25.226  1.00  0.00     0.008 A 
ATOM     20  C   UNL A   1      36.454  21.614  24.402  1.00  0.00     0.008 A 
ATOM     21  C   UNL A   1      37.700  23.619  25.883  1.00  0.00     0.001 A 
ATOM     22  C   UNL A   1      37.659  21.354  25.063  1.00  0.00     0.001 A 
ATOM     23  C   UNL A   1      38.280  22.356  25.806  1.00  0.00     0.000 A 
ENDBRANCH  17  18
ENDBRANCH  13  16
ENDBRANCH  10  13
ENDBRANCH   3   6
ENDBRANCH   1   2
BRANCH   1  24
ATOM     24  C   UNL A   1      33.828  28.029  26.290  1.00  0.00     0.042 C 
BRANCH  24  25
ATOM     25  C   UNL A   1      33.380  28.595  27.633  1.00  0.00     0.118 C 
BRANCH  25  26
ATOM     26  N   UNL A   1      33.468  30.041  27.669  1.00  0.00    -0.352 N 
ATOM     27  C   UNL A   1      34.502  30.837  28.100  1.00  0.00     0.251 C 
ATOM     28  H   UNL A   1      32.674  30.521  27.340  1.00  0.00     0.163 HD
ATOM     29  O   UNL A   1      34.300  32.033  28.299  1.00  0.00    -0.269 OA
BRANCH  27  30
ATOM     30  C   UNL A   1      35.853  30.275  28.333  1.00  0.00     0.039 A 
ATOM     31  C   UNL A   1      36.171  29.802  29.611  1.00  0.00     0.014 A 
ATOM     32  C   UNL A   1      36.834  30.283  27.336  1.00  0.00     0.014 A 
ATOM     33  C   UNL A   1      37.454  29.314  29.879  1.00  0.00     0.010 A 
ATOM     34  C   UNL A   1      38.091  29.729  27.584  1.00  0.00     0.010 A 
ATOM     35  C   UNL A   1      38.423  29.263  28.865  1.00  0.00    -0.014 A 
BRANCH  35  36
ATOM     36  C   UNL A   1      39.800  28.778  29.143  1.00  0.00     0.031 A 
ATOM     37  C   UNL A   1      40.791  29.675  29.839  1.00  0.00     0.074 A 
ATOM     38  C   UNL A   1      40.178  27.549  28.745  1.00  0.00     0.049 A 
ATOM     39  N   UNL A   1      42.046  29.446  30.135  1.00  0.00    -0.248 NA
ATOM     40  C   UNL A   1      40.315  31.010  30.233  1.00  0.00     0.031 C 
ATOM     41  C   UNL A   1      39.332  26.588  28.037  1.00  0.00     0.029 A 
ATOM     42  N   UNL A   1      41.381  26.898  28.878  1.00  0.00    -0.354 N 
ATOM     43  C   UNL A   1      42.513  30.614  30.728  1.00  0.00     0.074 A 
ATOM     44  C   UNL A   1      41.421  31.562  30.710  1.00  0.00     0.031 C 
ATOM     45  C   UNL A   1      40.032  25.463  27.820  1.00  0.00     0.029 A 
ATOM     46  C   UNL A   1      41.385  25.634  28.342  1.00  0.00     0.049 A 
ATOM     47  H   UNL A   1      42.165  27.301  29.317  1.00  0.00     0.167 HD
ATOM     48  C   UNL A   1      43.734  30.871  31.256  1.00  0.00     0.031 A 
ATOM     49  C   UNL A   1      42.367  24.716  28.275  1.00  0.00     0.031 A 
ATOM     50  C   UNL A   1      44.818  29.928  31.299  1.00  0.00     0.049 A 
ATOM     51  C   UNL A   1      43.713  25.024  28.868  1.00  0.00     0.074 A 
ATOM     52  C   UNL A   1      46.069  30.077  31.870  1.00  0.00     0.029 A 
ATOM     53  N   UNL A   1      44.777  28.657  30.749  1.00  0.00    -0.354 N 
ATOM     54  N   UNL A   1      44.118  26.111  29.477  1.00  0.00    -0.248 NA
ATOM     55  C   UNL A   1      44.736  23.971  28.769  1.00  0.00     0.031 C 
ATOM     56  C   UNL A   1      46.803  28.910  31.628  1.00  0.00     0.029 A 
ATOM     57  C   UNL A   1      45.990  28.018  30.947  1.00  0.00     0.049 A 
ATOM     58  H   UNL A   1      44.001  28.265  30.286  1.00  0.00     0.167 HD
ATOM     59  C   UNL A   1      45.432  25.867  29.854  1.00  0.00     0.074 A 
ATOM     60  C   UNL A   1      45.753  24.524  29.418  1.00  0.00     0.031 C 
ATOM     61  C   UNL A   1      46.296  26.684  30.503  1.00  0.00     0.031 A 
BRANCH  48  62
ATOM     62  C   UNL A   1      43.962  32.243  31.828  1.00  0.00    -0.014 A 
ATOM     63  C   UNL A   1      44.447  33.293  31.032  1.00  0.00     0.009 A 
ATOM     64  C   UNL A   1      43.658  32.496  33.175  1.00  0.00     0.009 A 
ATOM     65  C   UNL A   1      44.660  34.558  31.582  1.00  0.00     0.001 A 
ATOM     66  C   UNL A   1      43.847  33.769  33.716  1.00  0.00     0.001 A 
ATOM     67  C   UNL A   1      44.356  34.796  32.923  1.00  0.00     0.000 A 
ENDBRANCH  48  62
BRANCH  49  68
ATOM     68  C   UNL A   1      42.107  23.401  27.635  1.00  0.00    -0.014 A 
ATOM     69  C   UNL A   1      42.481  23.175  26.301  1.00  0.00     0.009 A 
ATOM     70  C   UNL A   1      41.488  22.367  28.352  1.00  0.00     0.009 A 
ATOM     71  C   UNL A   1      42.221  21.944  25.693  1.00  0.00     0.001 A 
ATOM     72  C   UNL A   1      41.251  21.130  27.749  1.00  0.00     0.001 A 
ATOM     73  C   UNL A   1      41.611  20.922  26.419  1.00  0.00     0.000 A 
ENDBRANCH  49  68
BRANCH  61  74
ATOM     74  C   UNL A   1      47.663  26.139  30.804  1.00  0.00    -0.014 A 
ATOM     75  C   UNL A   1      48.671  26.131  29.827  1.00  0.00     0.009 A 
ATOM     76  C   UNL A   1      47.956  25.661  32.090  1.00  0.00     0.009 A 
ATOM     77  C   UNL A   1      49.938  25.628  30.127  1.00  0.00     0.001 A 
ATOM     78  C   UNL A   1      49.230  25.182  32.394  1.00  0.00     0.001 A 
ATOM     79  C   UNL A   1      50.218  25.158  31.410  1.00  0.00     0.000 A 
ENDBRANCH  61  74
ENDBRANCH  35  36
ENDBRANCH  27  30
ENDBRANCH  25  26
ENDBRANCH  24  25
ENDBRANCH   1  24
TORSDOF 14
ENDMDL
MODEL 2
REMARK VINA RESULT:     -10.6      1.363      3.877
REMARK SMILES CO[C@@H]1C[C@@H](C(=O)NCCCNC(=O)c2ccc(-c3c4nc(c(-c5ccccc5)c5ccc([nH]5)c(-c5ccccc5)c5nc(c(-c6ccccc6)c6ccc3[nH]6)C=C5)C=C4)cc2)N(S(=O)(=O)/C=C/c2ccccc2)C1
REMARK SMILES IDX 9 1 8 2 6 3 7 4 5 6 3 7 4 8 75 9 63 10 2 11 1 12 64 13 65 14
REMARK SMILES IDX 66 15 67 16 68 17 69 18 70 19 74 20 71 21 73 22 72 23 10 24
REMARK SMILES IDX 11 25 12 26 13 27 14 29 15 30 16 31 62 32 17 33 61 34 18 35
REMARK SMILES IDX 19 36 20 37 55 38 21 39 60 40 54 41 56 42 22 43 59 44 53 45
REMARK SMILES IDX 52 46 23 48 45 49 30 50 44 51 31 52 34 53 43 54 57 55 32 56
REMARK SMILES IDX 33 57 42 59 58 60 35 61 24 62 25 63 29 64 26 65 28 66 27 67
REMARK SMILES IDX 46 68 47 69 51 70 48 71 50 72 49 73 36 74 37 75 41 76 38 77
REMARK SMILES IDX 40 78 39 79
REMARK H PARENT 8 5 12 28 56 47 34 58
REMARK Flexibility Score: inf
ROOT
ATOM      1  C   UNL A   1      32.024  26.765  26.400  1.00  0.00     0.117 C 
ENDROOT
BRANCH   1   2
ATOM      2  N   UNL A   1      33.303  26.080  26.324  1.00  0.00    -0.355 N 
ATOM      3  C   UNL A   1      33.909  25.294  25.407  1.00  0.00     0.238 C 
ATOM      4  O   UNL A   1      35.071  24.969  25.696  1.00  0.00    -0.273 OA
ATOM      5  H   UNL A   1      33.856  26.223  27.125  1.00  0.00     0.163 HD
BRANCH   3   6
ATOM      6  C   UNL A   1      33.316  24.819  24.100  1.00  0.00     0.165 C 
ATOM      7  C   UNL A   1      33.175  23.412  22.208  1.00  0.00     0.135 C 
ATOM      8  C   UNL A   1      34.058  23.676  23.419  1.00  0.00     0.064 C 
ATOM      9  C   UNL A   1      32.827  24.839  21.750  1.00  0.00     0.135 C 
ATOM     10  N   UNL A   1      32.805  25.681  23.007  1.00  0.00    -0.183 NA
BRANCH   7  11
ATOM     11  O   UNL A   1      31.958  22.729  22.523  1.00  0.00    -0.380 OA
ATOM     12  C   UNL A   1      32.132  21.498  23.207  1.00  0.00     0.195 C 
ENDBRANCH   7  11
BRANCH  10  13
ATOM     13  S   UNL A   1      33.286  27.270  22.742  1.00  0.00     0.237 S 
ATOM     14  O   UNL A   1      34.034  27.636  23.932  1.00  0.00    -0.207 OA
ATOM     15  O   UNL A   1      33.974  27.274  21.469  1.00  0.00    -0.207 OA
BRANCH  13  16
ATOM     16  C   UNL A   1      31.931  28.330  22.627  1.00  0.00     0.123 C 
ATOM     17  C   UNL A   1      30.802  28.130  23.319  1.00  0.00     0.021 C 
BRANCH  17  18
ATOM     18  C   UNL A   1      29.709  29.120  23.351  1.00  0.00    -0.025 A 
ATOM     19  C   UNL A   1      28.425  28.708  22.970  1.00  0.00     0.008 A 
ATOM     20  C   UNL A   1      29.889  30.451  23.757  1.00  0.00     0.008 A 
ATOM     21  C   UNL A   1      27.343  29.591  23.019  1.00  0.00     0.001 A 
ATOM     22  C   UNL A   1      28.806  31.335  23.810  1.00  0.00     0.001 A 
ATOM     23  C   UNL A   1      27.532  30.903  23.444  1.00  0.00     0.000 A 
ENDBRANCH  17  18
ENDBRANCH  13  16
ENDBRANCH  10  13
ENDBRANCH   3   6
ENDBRANCH   1   2
BRANCH   1  24
ATOM     24  C   UNL A   1      32.119  28.168  26.998  1.00  0.00     0.042 C 
BRANCH  24  25
ATOM     25  C   UNL A   1      33.529  28.687  27.252  1.00  0.00     0.118 C 
BRANCH  25  26
ATOM     26  N   UNL A   1      33.533  30.082  27.645  1.00  0.00    -0.352 N 
ATOM     27  C   UNL A   1      34.499  30.792  28.316  1.00  0.00     0.251 C 
ATOM     28  H   UNL A   1      32.728  30.592  27.396  1.00  0.00     0.163 HD
ATOM     29  O   UNL A   1      34.221  31.891  28.789  1.00  0.00    -0.269 OA
BRANCH  27  30
ATOM     30  C   UNL A   1      35.868  30.249  28.484  1.00  0.00     0.039 A 
ATOM     31  C   UNL A   1      36.234  29.726  29.729  1.00  0.00     0.014 A 
ATOM     32  C   UNL A   1      36.818  30.325  27.460  1.00  0.00     0.014 A 
ATOM     33  C   UNL A   1      37.534  29.254  29.937  1.00  0.00     0.010 A 
ATOM     34  C   UNL A   1      38.092  29.788  27.646  1.00  0.00     0.010 A 
ATOM     35  C   UNL A   1      38.473  29.271  28.894  1.00  0.00    -0.014 A 
BRANCH  35  36
ATOM     36  C   UNL A   1      39.868  28.804  29.109  1.00  0.00     0.031 A 
ATOM     37  C   UNL A   1      40.883  29.722  29.737  1.00  0.00     0.074 A 
ATOM     38  C   UNL A   1      40.237  27.572  28.712  1.00  0.00     0.049 A 
ATOM     39  N   UNL A   1      42.154  29.511  29.973  1.00  0.00    -0.248 NA
ATOM     40  C   UNL A   1      40.414  31.060  30.133  1.00  0.00     0.031 C 
ATOM     41  C   UNL A   1      39.366  26.590  28.065  1.00  0.00     0.029 A 
ATOM     42  N   UNL A   1      41.452  26.935  28.794  1.00  0.00    -0.354 N 
ATOM     43  C   UNL A   1      42.638  30.693  30.521  1.00  0.00     0.074 A 
ATOM     44  C   UNL A   1      41.537  31.630  30.543  1.00  0.00     0.031 C 
ATOM     45  C   UNL A   1      40.066  25.469  27.831  1.00  0.00     0.029 A 
ATOM     46  C   UNL A   1      41.442  25.662  28.280  1.00  0.00     0.049 A 
ATOM     47  H   UNL A   1      42.253  27.353  29.185  1.00  0.00     0.167 HD
ATOM     48  C   UNL A   1      43.882  30.971  30.982  1.00  0.00     0.031 A 
ATOM     49  C   UNL A   1      42.429  24.752  28.178  1.00  0.00     0.031 A 
ATOM     50  C   UNL A   1      44.976  30.039  30.984  1.00  0.00     0.049 A 
ATOM     51  C   UNL A   1      43.801  25.084  28.696  1.00  0.00     0.074 A 
ATOM     52  C   UNL A   1      46.254  30.210  31.488  1.00  0.00     0.029 A 
ATOM     53  N   UNL A   1      44.921  28.758  30.458  1.00  0.00    -0.354 N 
ATOM     54  N   UNL A   1      44.225  26.185  29.265  1.00  0.00    -0.248 NA
ATOM     55  C   UNL A   1      44.828  24.039  28.562  1.00  0.00     0.031 C 
ATOM     56  C   UNL A   1      46.986  29.046  31.229  1.00  0.00     0.029 A 
ATOM     57  C   UNL A   1      46.149  28.135  30.605  1.00  0.00     0.049 A 
ATOM     58  H   UNL A   1      44.126  28.351  30.042  1.00  0.00     0.167 HD
ATOM     59  C   UNL A   1      45.558  25.960  29.578  1.00  0.00     0.074 A 
ATOM     60  C   UNL A   1      45.870  24.613  29.148  1.00  0.00     0.031 C 
ATOM     61  C   UNL A   1      46.446  26.797  30.168  1.00  0.00     0.031 A 
BRANCH  48  62
ATOM     62  C   UNL A   1      44.124  32.355  31.518  1.00  0.00    -0.014 A 
ATOM     63  C   UNL A   1      44.616  33.380  30.694  1.00  0.00     0.009 A 
ATOM     64  C   UNL A   1      43.828  32.644  32.859  1.00  0.00     0.009 A 
ATOM     65  C   UNL A   1      44.842  34.656  31.211  1.00  0.00     0.001 A 
ATOM     66  C   UNL A   1      44.030  33.929  33.367  1.00  0.00     0.001 A 
ATOM     67  C   UNL A   1      44.546  34.931  32.547  1.00  0.00     0.000 A 
ENDBRANCH  48  62
BRANCH  49  68
ATOM     68  C   UNL A   1      42.150  23.424  27.574  1.00  0.00    -0.014 A 
ATOM     69  C   UNL A   1      42.394  23.199  26.210  1.00  0.00     0.009 A 
ATOM     70  C   UNL A   1      41.643  22.376  28.356  1.00  0.00     0.009 A 
ATOM     71  C   UNL A   1      42.116  21.956  25.638  1.00  0.00     0.001 A 
ATOM     72  C   UNL A   1      41.388  21.127  27.787  1.00  0.00     0.001 A 
ATOM     73  C   UNL A   1      41.618  20.919  26.427  1.00  0.00     0.000 A 
ENDBRANCH  49  68
BRANCH  61  74
ATOM     74  C   UNL A   1      47.833  26.270  30.407  1.00  0.00    -0.014 A 
ATOM     75  C   UNL A   1      48.803  26.300  29.395  1.00  0.00     0.009 A 
ATOM     76  C   UNL A   1      48.180  25.771  31.672  1.00  0.00     0.009 A 
ATOM     77  C   UNL A   1      50.090  25.814  29.638  1.00  0.00     0.001 A 
ATOM     78  C   UNL A   1      49.472  25.308  31.919  1.00  0.00     0.001 A 
ATOM     79  C   UNL A   1      50.424  25.323  30.900  1.00  0.00     0.000 A 
ENDBRANCH  61  74
ENDBRANCH  35  36
ENDBRANCH  27  30
ENDBRANCH  25  26
ENDBRANCH  24  25
ENDBRANCH   1  24
TORSDOF 14
ENDMDL
MODEL 3
REMARK VINA RESULT:     -10.2      2.662      6.971
REMARK SMILES CO[C@@H]1C[C@@H](C(=O)NCCCNC(=O)c2ccc(-c3c4nc(c(-c5ccccc5)c5ccc([nH]5)c(-c5ccccc5)c5nc(c(-c6ccccc6)c6ccc3[nH]6)C=C5)C=C4)cc2)N(S(=O)(=O)/C=C/c2ccccc2)C1
REMARK SMILES IDX 9 1 8 2 6 3 7 4 5 6 3 7 4 8 75 9 63 10 2 11 1 12 64 13 65 14
REMARK SMILES IDX 66 15 67 16 68 17 69 18 70 19 74 20 71 21 73 22 72 23 10 24
REMARK SMILES IDX 11 25 12 26 13 27 14 29 15 30 16 31 62 32 17 33 61 34 18 35
REMARK SMILES IDX 19 36 20 37 55 38 21 39 60 40 54 41 56 42 22 43 59 44 53 45
REMARK SMILES IDX 52 46 23 48 45 49 30 50 44 51 31 52 34 53 43 54 57 55 32 56
REMARK SMILES IDX 33 57 42 59 58 60 35 61 24 62 25 63 29 64 26 65 28 66 27 67
REMARK SMILES IDX 46 68 47 69 51 70 48 71 50 72 49 73 36 74 37 75 41 76 38 77
REMARK SMILES IDX 40 78 39 79
REMARK H PARENT 8 5 12 28 56 47 34 58
REMARK Flexibility Score: inf
ROOT
ATOM      1  C   UNL A   1      32.633  29.822  26.081  1.00  0.00     0.117 C 
ENDROOT
BRANCH   1   2
ATOM      2  N   UNL A   1      33.298  29.424  24.853  1.00  0.00    -0.355 N 
ATOM      3  C   UNL A   1      32.881  29.032  23.629  1.00  0.00     0.238 C 
ATOM      4  O   UNL A   1      33.792  28.857  22.807  1.00  0.00    -0.273 OA
ATOM      5  H   UNL A   1      34.278  29.447  24.929  1.00  0.00     0.163 HD
BRANCH   3   6
ATOM      6  C   UNL A   1      31.448  28.822  23.194  1.00  0.00     0.165 C 
ATOM      7  C   UNL A   1      29.174  29.423  22.978  1.00  0.00     0.135 C 
ATOM      8  C   UNL A   1      30.465  29.902  23.626  1.00  0.00     0.064 C 
ATOM      9  C   UNL A   1      29.229  27.908  23.238  1.00  0.00     0.135 C 
ATOM     10  N   UNL A   1      30.698  27.544  23.244  1.00  0.00    -0.183 NA
BRANCH   7  11
ATOM     11  O   UNL A   1      29.129  29.638  21.564  1.00  0.00    -0.380 OA
ATOM     12  C   UNL A   1      28.205  30.631  21.146  1.00  0.00     0.195 C 
ENDBRANCH   7  11
BRANCH  10  13
ATOM     13  S   UNL A   1      31.053  26.269  24.280  1.00  0.00     0.237 S 
ATOM     14  O   UNL A   1      31.029  26.853  25.610  1.00  0.00    -0.207 OA
ATOM     15  O   UNL A   1      30.104  25.223  23.971  1.00  0.00    -0.207 OA
BRANCH  13  16
ATOM     16  C   UNL A   1      32.641  25.656  24.006  1.00  0.00     0.123 C 
ATOM     17  C   UNL A   1      33.279  24.886  24.898  1.00  0.00     0.021 C 
BRANCH  17  18
ATOM     18  C   UNL A   1      34.563  24.227  24.596  1.00  0.00    -0.025 A 
ATOM     19  C   UNL A   1      35.560  24.226  25.581  1.00  0.00     0.008 A 
ATOM     20  C   UNL A   1      34.831  23.585  23.377  1.00  0.00     0.008 A 
ATOM     21  C   UNL A   1      36.781  23.582  25.368  1.00  0.00     0.001 A 
ATOM     22  C   UNL A   1      36.052  22.937  23.164  1.00  0.00     0.001 A 
ATOM     23  C   UNL A   1      37.026  22.933  24.161  1.00  0.00     0.000 A 
ENDBRANCH  17  18
ENDBRANCH  13  16
ENDBRANCH  10  13
ENDBRANCH   3   6
ENDBRANCH   1   2
BRANCH   1  24
ATOM     24  C   UNL A   1      32.889  31.279  26.468  1.00  0.00     0.042 C 
BRANCH  24  25
ATOM     25  C   UNL A   1      31.827  31.927  27.348  1.00  0.00     0.118 C 
BRANCH  25  26
ATOM     26  N   UNL A   1      31.948  33.372  27.370  1.00  0.00    -0.352 N 
ATOM     27  C   UNL A   1      32.896  34.154  27.985  1.00  0.00     0.251 C 
ATOM     28  H   UNL A   1      31.252  33.861  26.875  1.00  0.00     0.163 HD
ATOM     29  O   UNL A   1      32.693  35.359  28.113  1.00  0.00    -0.269 OA
BRANCH  27  30
ATOM     30  C   UNL A   1      34.154  33.565  28.502  1.00  0.00     0.039 A 
ATOM     31  C   UNL A   1      34.113  32.836  29.695  1.00  0.00     0.014 A 
ATOM     32  C   UNL A   1      35.383  33.790  27.872  1.00  0.00     0.014 A 
ATOM     33  C   UNL A   1      35.290  32.312  30.238  1.00  0.00     0.010 A 
ATOM     34  C   UNL A   1      36.546  33.206  28.375  1.00  0.00     0.010 A 
ATOM     35  C   UNL A   1      36.517  32.483  29.577  1.00  0.00    -0.014 A 
BRANCH  35  36
ATOM     36  C   UNL A   1      37.781  31.961  30.158  1.00  0.00     0.031 A 
ATOM     37  C   UNL A   1      38.389  30.690  29.626  1.00  0.00     0.074 A 
ATOM     38  C   UNL A   1      38.370  32.603  31.184  1.00  0.00     0.049 A 
ATOM     39  N   UNL A   1      39.465  30.057  30.025  1.00  0.00    -0.248 NA
ATOM     40  C   UNL A   1      37.685  30.032  28.514  1.00  0.00     0.031 C 
ATOM     41  C   UNL A   1      37.876  33.827  31.817  1.00  0.00     0.029 A 
ATOM     42  N   UNL A   1      39.518  32.309  31.880  1.00  0.00    -0.354 N 
ATOM     43  C   UNL A   1      39.551  28.920  29.230  1.00  0.00     0.074 A 
ATOM     44  C   UNL A   1      38.399  28.927  28.357  1.00  0.00     0.031 C 
ATOM     45  C   UNL A   1      38.726  34.192  32.790  1.00  0.00     0.029 A 
ATOM     46  C   UNL A   1      39.806  33.213  32.873  1.00  0.00     0.049 A 
ATOM     47  H   UNL A   1      40.080  31.525  31.685  1.00  0.00     0.167 HD
ATOM     48  C   UNL A   1      40.511  27.964  29.214  1.00  0.00     0.031 A 
ATOM     49  C   UNL A   1      40.824  33.250  33.754  1.00  0.00     0.031 A 
ATOM     50  C   UNL A   1      41.671  27.961  30.063  1.00  0.00     0.049 A 
ATOM     51  C   UNL A   1      41.876  32.177  33.717  1.00  0.00     0.074 A 
ATOM     52  C   UNL A   1      42.729  27.069  30.075  1.00  0.00     0.029 A 
ATOM     53  N   UNL A   1      41.926  28.898  31.051  1.00  0.00    -0.354 N 
ATOM     54  N   UNL A   1      41.974  31.143  32.919  1.00  0.00    -0.248 NA
ATOM     55  C   UNL A   1      42.965  32.286  34.700  1.00  0.00     0.031 C 
ATOM     56  C   UNL A   1      43.606  27.442  31.100  1.00  0.00     0.029 A 
ATOM     57  C   UNL A   1      43.114  28.594  31.694  1.00  0.00     0.049 A 
ATOM     58  H   UNL A   1      41.349  29.667  31.264  1.00  0.00     0.167 HD
ATOM     59  C   UNL A   1      43.142  30.490  33.287  1.00  0.00     0.074 A 
ATOM     60  C   UNL A   1      43.728  31.252  34.370  1.00  0.00     0.031 C 
ATOM     61  C   UNL A   1      43.682  29.358  32.773  1.00  0.00     0.031 A 
BRANCH  48  62
ATOM     62  C   UNL A   1      40.337  26.829  28.243  1.00  0.00    -0.014 A 
ATOM     63  C   UNL A   1      39.609  25.679  28.589  1.00  0.00     0.009 A 
ATOM     64  C   UNL A   1      40.883  26.926  26.953  1.00  0.00     0.009 A 
ATOM     65  C   UNL A   1      39.464  24.633  27.677  1.00  0.00     0.001 A 
ATOM     66  C   UNL A   1      40.714  25.889  26.034  1.00  0.00     0.001 A 
ATOM     67  C   UNL A   1      40.014  24.739  26.399  1.00  0.00     0.000 A 
ENDBRANCH  48  62
BRANCH  49  68
ATOM     68  C   UNL A   1      40.908  34.358  34.740  1.00  0.00    -0.014 A 
ATOM     69  C   UNL A   1      41.640  35.519  34.442  1.00  0.00     0.009 A 
ATOM     70  C   UNL A   1      40.258  34.262  35.978  1.00  0.00     0.009 A 
ATOM     71  C   UNL A   1      41.733  36.553  35.376  1.00  0.00     0.001 A 
ATOM     72  C   UNL A   1      40.334  35.308  36.901  1.00  0.00     0.001 A 
ATOM     73  C   UNL A   1      41.077  36.450  36.602  1.00  0.00     0.000 A 
ENDBRANCH  49  68
BRANCH  61  74
ATOM     74  C   UNL A   1      44.983  28.890  33.359  1.00  0.00    -0.014 A 
ATOM     75  C   UNL A   1      46.211  29.350  32.860  1.00  0.00     0.009 A 
ATOM     76  C   UNL A   1      44.979  28.005  34.448  1.00  0.00     0.009 A 
ATOM     77  C   UNL A   1      47.410  28.910  33.422  1.00  0.00     0.001 A 
ATOM     78  C   UNL A   1      46.178  27.586  35.024  1.00  0.00     0.001 A 
ATOM     79  C   UNL A   1      47.393  28.032  34.506  1.00  0.00     0.000 A 
ENDBRANCH  61  74
ENDBRANCH  35  36
ENDBRANCH  27  30
ENDBRANCH  25  26
ENDBRANCH  24  25
ENDBRANCH   1  24
TORSDOF 14
ENDMDL
