MODEL 1
REMARK VINA RESULT:     -12.0      0.000      0.000
REMARK SMILES Cc1nn(C)c(=O)c(C(=O)N[C@H]2C=C[C@H](C(=O)NCCCNC(=O)c3ccc(-c4c5nc(c(-c6ccccc6)c6ccc([nH]6)c(-c6ccccc6)c6nc(c(-c7ccccc7)c7ccc4[nH]7)C=C6)C=C5)cc3)C2)c1C
REMARK SMILES IDX 20 1 19 2 18 3 16 4 17 5 15 7 12 8 13 9 73 10 14 11 11 12
REMARK SMILES IDX 9 13 10 14 8 16 1 17 2 18 3 19 74 20 4 21 75 22 5 23 6 24
REMARK SMILES IDX 7 25 21 26 22 27 23 28 24 30 25 31 26 32 72 33 27 34 71 35
REMARK SMILES IDX 28 36 29 37 30 38 65 39 31 40 70 41 64 42 66 43 32 44 69 45
REMARK SMILES IDX 63 46 62 47 33 49 55 50 40 51 54 52 41 53 44 54 53 55 67 56
REMARK SMILES IDX 42 57 43 58 52 60 68 61 45 62 34 63 35 64 39 65 36 66 38 67
REMARK SMILES IDX 37 68 56 69 57 70 61 71 58 72 60 73 59 74 46 75 47 76 51 77
REMARK SMILES IDX 48 78 50 79 49 80
REMARK H PARENT 18 6 11 15 22 29 66 48 44 59
REMARK Flexibility Score: inf
ROOT
ATOM      1  C   UNL A   1      37.795  19.606  25.085  1.00  0.00     0.042 C 
ENDROOT
BRANCH   1   2
ATOM      2  C   UNL A   1      36.645  20.598  24.970  1.00  0.00     0.117 C 
BRANCH   2   3
ATOM      3  N   UNL A   1      36.893  21.571  23.924  1.00  0.00    -0.356 N 
ATOM      4  C   UNL A   1      36.191  22.697  23.603  1.00  0.00     0.227 C 
ATOM      5  O   UNL A   1      36.516  23.310  22.589  1.00  0.00    -0.274 OA
ATOM      6  H   UNL A   1      37.683  21.395  23.364  1.00  0.00     0.163 HD
BRANCH   4   7
ATOM      7  C   UNL A   1      35.116  23.183  24.576  1.00  0.00     0.103 C 
ATOM      8  C   UNL A   1      33.314  24.857  24.643  1.00  0.00     0.106 C 
ATOM      9  C   UNL A   1      34.542  25.330  25.344  1.00  0.00    -0.006 C 
ATOM     10  C   UNL A   1      33.776  23.580  23.938  1.00  0.00     0.047 C 
ATOM     11  C   UNL A   1      35.528  24.430  25.297  1.00  0.00    -0.016 C 
BRANCH   8  12
ATOM     12  N   UNL A   1      32.221  24.833  25.601  1.00  0.00    -0.346 N 
ATOM     13  C   UNL A   1      31.212  25.636  26.026  1.00  0.00     0.257 C 
ATOM     14  O   UNL A   1      30.379  25.150  26.792  1.00  0.00    -0.269 OA
ATOM     15  H   UNL A   1      32.207  23.976  26.086  1.00  0.00     0.164 HD
BRANCH  13  16
ATOM     16  C   UNL A   1      31.076  27.048  25.610  1.00  0.00     0.111 A 
ATOM     17  C   UNL A   1      31.774  30.582  26.541  1.00  0.00     0.069 C 
ATOM     18  C   UNL A   1      31.588  29.382  25.638  1.00  0.00     0.062 A 
ATOM     19  N   UNL A   1      31.106  29.631  24.463  1.00  0.00    -0.175 NA
ATOM     20  C   UNL A   1      31.849  28.008  26.151  1.00  0.00    -0.010 A 
ATOM     21  N   UNL A   1      30.706  28.554  23.722  1.00  0.00    -0.232 N 
ATOM     22  C   UNL A   1      32.983  27.793  27.105  1.00  0.00     0.047 C 
ATOM     23  C   UNL A   1      30.427  28.810  22.322  1.00  0.00     0.178 C 
ATOM     24  C   UNL A   1      30.406  27.323  24.299  1.00  0.00     0.279 A 
ATOM     25  O   UNL A   1      29.702  26.474  23.755  1.00  0.00    -0.267 OA
ENDBRANCH  13  16
ENDBRANCH   8  12
ENDBRANCH   4   7
ENDBRANCH   2   3
ENDBRANCH   1   2
BRANCH   1  26
ATOM     26  C   UNL A   1      39.050  20.207  25.703  1.00  0.00     0.118 C 
BRANCH  26  27
ATOM     27  N   UNL A   1      40.155  19.264  25.758  1.00  0.00    -0.352 N 
ATOM     28  C   UNL A   1      41.474  19.488  26.083  1.00  0.00     0.251 C 
ATOM     29  H   UNL A   1      39.929  18.333  25.530  1.00  0.00     0.163 HD
ATOM     30  O   UNL A   1      42.308  18.615  25.919  1.00  0.00    -0.269 OA
BRANCH  28  31
ATOM     31  C   UNL A   1      41.868  20.811  26.609  1.00  0.00     0.039 A 
ATOM     32  C   UNL A   1      42.328  21.782  25.717  1.00  0.00     0.014 A 
ATOM     33  C   UNL A   1      41.760  21.093  27.973  1.00  0.00     0.014 A 
ATOM     34  C   UNL A   1      42.620  23.062  26.188  1.00  0.00     0.010 A 
ATOM     35  C   UNL A   1      41.968  22.390  28.425  1.00  0.00     0.010 A 
ATOM     36  C   UNL A   1      42.410  23.384  27.539  1.00  0.00    -0.014 A 
BRANCH  36  37
ATOM     37  C   UNL A   1      42.681  24.746  28.060  1.00  0.00     0.031 A 
ATOM     38  C   UNL A   1      44.082  25.128  28.444  1.00  0.00     0.074 A 
ATOM     39  C   UNL A   1      41.666  25.613  28.237  1.00  0.00     0.049 A 
ATOM     40  N   UNL A   1      44.515  26.236  28.990  1.00  0.00    -0.248 NA
ATOM     41  C   UNL A   1      45.133  24.123  28.211  1.00  0.00     0.031 C 
ATOM     42  C   UNL A   1      40.258  25.349  27.928  1.00  0.00     0.029 A 
ATOM     43  N   UNL A   1      41.665  26.896  28.720  1.00  0.00    -0.354 N 
ATOM     44  C   UNL A   1      45.878  26.052  29.181  1.00  0.00     0.074 A 
ATOM     45  C   UNL A   1      46.193  24.709  28.747  1.00  0.00     0.031 C 
ATOM     46  C   UNL A   1      39.538  26.453  28.188  1.00  0.00     0.029 A 
ATOM     47  C   UNL A   1      40.424  27.483  28.721  1.00  0.00     0.049 A 
ATOM     48  H   UNL A   1      42.478  27.354  29.036  1.00  0.00     0.167 HD
ATOM     49  C   UNL A   1      46.793  26.930  29.651  1.00  0.00     0.031 A 
ATOM     50  C   UNL A   1      40.044  28.716  29.106  1.00  0.00     0.031 A 
ATOM     51  C   UNL A   1      46.486  28.272  30.059  1.00  0.00     0.049 A 
ATOM     52  C   UNL A   1      41.076  29.670  29.636  1.00  0.00     0.074 A 
ATOM     53  C   UNL A   1      47.349  29.254  30.511  1.00  0.00     0.029 A 
ATOM     54  N   UNL A   1      45.215  28.824  30.052  1.00  0.00    -0.354 N 
ATOM     55  N   UNL A   1      42.367  29.492  29.781  1.00  0.00    -0.248 NA
ATOM     56  C   UNL A   1      40.600  30.998  30.051  1.00  0.00     0.031 C 
ATOM     57  C   UNL A   1      46.593  30.392  30.812  1.00  0.00     0.029 A 
ATOM     58  C   UNL A   1      45.267  30.130  30.504  1.00  0.00     0.049 A 
ATOM     59  H   UNL A   1      44.397  28.356  29.768  1.00  0.00     0.167 HD
ATOM     60  C   UNL A   1      42.860  30.687  30.285  1.00  0.00     0.074 A 
ATOM     61  C   UNL A   1      41.733  31.590  30.406  1.00  0.00     0.031 C 
ATOM     62  C   UNL A   1      44.133  31.010  30.618  1.00  0.00     0.031 A 
BRANCH  49  63
ATOM     63  C   UNL A   1      48.218  26.462  29.736  1.00  0.00    -0.014 A 
ATOM     64  C   UNL A   1      49.107  26.657  28.666  1.00  0.00     0.009 A 
ATOM     65  C   UNL A   1      48.687  25.847  30.906  1.00  0.00     0.009 A 
ATOM     66  C   UNL A   1      50.428  26.214  28.754  1.00  0.00     0.001 A 
ATOM     67  C   UNL A   1      50.017  25.431  31.001  1.00  0.00     0.001 A 
ATOM     68  C   UNL A   1      50.883  25.607  29.923  1.00  0.00     0.000 A 
ENDBRANCH  49  63
BRANCH  50  69
ATOM     69  C   UNL A   1      38.624  29.130  28.967  1.00  0.00    -0.014 A 
ATOM     70  C   UNL A   1      38.155  29.642  27.747  1.00  0.00     0.009 A 
ATOM     71  C   UNL A   1      37.727  29.002  30.039  1.00  0.00     0.009 A 
ATOM     72  C   UNL A   1      36.822  30.032  27.608  1.00  0.00     0.001 A 
ATOM     73  C   UNL A   1      36.388  29.371  29.890  1.00  0.00     0.001 A 
ATOM     74  C   UNL A   1      35.938  29.891  28.677  1.00  0.00     0.000 A 
ENDBRANCH  50  69
BRANCH  62  75
ATOM     75  C   UNL A   1      44.383  32.399  31.127  1.00  0.00    -0.014 A 
ATOM     76  C   UNL A   1      44.346  32.683  32.499  1.00  0.00     0.009 A 
ATOM     77  C   UNL A   1      44.732  33.417  30.225  1.00  0.00     0.009 A 
ATOM     78  C   UNL A   1      44.636  33.969  32.959  1.00  0.00     0.001 A 
ATOM     79  C   UNL A   1      45.044  34.695  30.690  1.00  0.00     0.001 A 
ATOM     80  C   UNL A   1      44.991  34.971  32.055  1.00  0.00     0.000 A 
ENDBRANCH  62  75
ENDBRANCH  36  37
ENDBRANCH  28  31
ENDBRANCH  26  27
ENDBRANCH   1  26
TORSDOF 12
ENDMDL
MODEL 2
REMARK VINA RESULT:     -11.8      1.234      1.806
REMARK SMILES Cc1nn(C)c(=O)c(C(=O)N[C@H]2C=C[C@H](C(=O)NCCCNC(=O)c3ccc(-c4c5nc(c(-c6ccccc6)c6ccc([nH]6)c(-c6ccccc6)c6nc(c(-c7ccccc7)c7ccc4[nH]7)C=C6)C=C5)cc3)C2)c1C
REMARK SMILES IDX 20 1 19 2 18 3 16 4 17 5 15 7 12 8 13 9 73 10 14 11 11 12
REMARK SMILES IDX 9 13 10 14 8 16 1 17 2 18 3 19 74 20 4 21 75 22 5 23 6 24
REMARK SMILES IDX 7 25 21 26 22 27 23 28 24 30 25 31 26 32 72 33 27 34 71 35
REMARK SMILES IDX 28 36 29 37 30 38 65 39 31 40 70 41 64 42 66 43 32 44 69 45
REMARK SMILES IDX 63 46 62 47 33 49 55 50 40 51 54 52 41 53 44 54 53 55 67 56
REMARK SMILES IDX 42 57 43 58 52 60 68 61 45 62 34 63 35 64 39 65 36 66 38 67
REMARK SMILES IDX 37 68 56 69 57 70 61 71 58 72 60 73 59 74 46 75 47 76 51 77
REMARK SMILES IDX 48 78 50 79 49 80
REMARK H PARENT 18 6 11 15 22 29 66 48 44 59
REMARK Flexibility Score: inf
ROOT
ATOM      1  C   UNL A   1      37.920  19.665  25.013  1.00  0.00     0.042 C 
ENDROOT
BRANCH   1   2
ATOM      2  C   UNL A   1      36.859  20.725  24.748  1.00  0.00     0.117 C 
BRANCH   2   3
ATOM      3  N   UNL A   1      35.586  20.352  25.335  1.00  0.00    -0.356 N 
ATOM      4  C   UNL A   1      34.369  20.958  25.220  1.00  0.00     0.227 C 
ATOM      5  O   UNL A   1      33.446  20.534  25.913  1.00  0.00    -0.274 OA
ATOM      6  H   UNL A   1      35.602  19.544  25.896  1.00  0.00     0.163 HD
BRANCH   4   7
ATOM      7  C   UNL A   1      34.200  22.054  24.167  1.00  0.00     0.103 C 
ATOM      8  C   UNL A   1      33.110  24.249  23.952  1.00  0.00     0.106 C 
ATOM      9  C   UNL A   1      32.298  23.160  23.337  1.00  0.00    -0.006 C 
ATOM     10  C   UNL A   1      34.208  23.495  24.703  1.00  0.00     0.047 C 
ATOM     11  C   UNL A   1      32.880  21.964  23.464  1.00  0.00    -0.016 C 
BRANCH   8  12
ATOM     12  N   UNL A   1      33.435  25.218  22.919  1.00  0.00    -0.346 N 
ATOM     13  C   UNL A   1      33.236  26.533  22.647  1.00  0.00     0.257 C 
ATOM     14  O   UNL A   1      33.836  27.015  21.685  1.00  0.00    -0.269 OA
ATOM     15  H   UNL A   1      33.957  24.793  22.200  1.00  0.00     0.164 HD
BRANCH  13  16
ATOM     16  C   UNL A   1      32.344  27.397  23.449  1.00  0.00     0.111 A 
ATOM     17  C   UNL A   1      31.794  28.947  26.786  1.00  0.00     0.069 C 
ATOM     18  C   UNL A   1      31.765  28.822  25.278  1.00  0.00     0.062 A 
ATOM     19  N   UNL A   1      30.766  29.389  24.684  1.00  0.00    -0.175 NA
ATOM     20  C   UNL A   1      32.783  27.991  24.575  1.00  0.00    -0.010 A 
ATOM     21  N   UNL A   1      30.586  29.091  23.362  1.00  0.00    -0.232 N 
ATOM     22  C   UNL A   1      34.188  27.974  25.089  1.00  0.00     0.047 C 
ATOM     23  C   UNL A   1      29.646  29.927  22.641  1.00  0.00     0.178 C 
ATOM     24  C   UNL A   1      31.125  27.949  22.776  1.00  0.00     0.279 A 
ATOM     25  O   UNL A   1      30.692  27.452  21.738  1.00  0.00    -0.267 OA
ENDBRANCH  13  16
ENDBRANCH   8  12
ENDBRANCH   4   7
ENDBRANCH   2   3
ENDBRANCH   1   2
BRANCH   1  26
ATOM     26  C   UNL A   1      39.099  20.182  25.827  1.00  0.00     0.118 C 
BRANCH  26  27
ATOM     27  N   UNL A   1      40.225  19.261  25.830  1.00  0.00    -0.352 N 
ATOM     28  C   UNL A   1      41.552  19.511  26.098  1.00  0.00     0.251 C 
ATOM     29  H   UNL A   1      40.007  18.327  25.611  1.00  0.00     0.163 HD
ATOM     30  O   UNL A   1      42.396  18.657  25.895  1.00  0.00    -0.269 OA
BRANCH  28  31
ATOM     31  C   UNL A   1      41.941  20.842  26.609  1.00  0.00     0.039 A 
ATOM     32  C   UNL A   1      42.356  21.819  25.702  1.00  0.00     0.014 A 
ATOM     33  C   UNL A   1      41.874  21.125  27.975  1.00  0.00     0.014 A 
ATOM     34  C   UNL A   1      42.644  23.104  26.161  1.00  0.00     0.010 A 
ATOM     35  C   UNL A   1      42.076  22.425  28.419  1.00  0.00     0.010 A 
ATOM     36  C   UNL A   1      42.472  23.425  27.518  1.00  0.00    -0.014 A 
BRANCH  36  37
ATOM     37  C   UNL A   1      42.738  24.791  28.029  1.00  0.00     0.031 A 
ATOM     38  C   UNL A   1      44.141  25.188  28.393  1.00  0.00     0.074 A 
ATOM     39  C   UNL A   1      41.718  25.651  28.213  1.00  0.00     0.049 A 
ATOM     40  N   UNL A   1      44.572  26.302  28.927  1.00  0.00    -0.248 NA
ATOM     41  C   UNL A   1      45.198  24.190  28.151  1.00  0.00     0.031 C 
ATOM     42  C   UNL A   1      40.310  25.374  27.924  1.00  0.00     0.029 A 
ATOM     43  N   UNL A   1      41.713  26.937  28.690  1.00  0.00    -0.354 N 
ATOM     44  C   UNL A   1      45.938  26.130  29.102  1.00  0.00     0.074 A 
ATOM     45  C   UNL A   1      46.259  24.788  28.670  1.00  0.00     0.031 C 
ATOM     46  C   UNL A   1      39.584  26.473  28.188  1.00  0.00     0.029 A 
ATOM     47  C   UNL A   1      40.467  27.514  28.703  1.00  0.00     0.049 A 
ATOM     48  H   UNL A   1      42.526  27.403  28.993  1.00  0.00     0.167 HD
ATOM     49  C   UNL A   1      46.852  27.019  29.555  1.00  0.00     0.031 A 
ATOM     50  C   UNL A   1      40.081  28.745  29.087  1.00  0.00     0.031 A 
ATOM     51  C   UNL A   1      46.539  28.361  29.959  1.00  0.00     0.049 A 
ATOM     52  C   UNL A   1      41.112  29.711  29.598  1.00  0.00     0.074 A 
ATOM     53  C   UNL A   1      47.399  29.352  30.395  1.00  0.00     0.029 A 
ATOM     54  N   UNL A   1      45.263  28.901  29.966  1.00  0.00    -0.354 N 
ATOM     55  N   UNL A   1      42.406  29.544  29.728  1.00  0.00    -0.248 NA
ATOM     56  C   UNL A   1      40.630  31.037  30.012  1.00  0.00     0.031 C 
ATOM     57  C   UNL A   1      46.638  30.485  30.699  1.00  0.00     0.029 A 
ATOM     58  C   UNL A   1      45.310  30.211  30.410  1.00  0.00     0.049 A 
ATOM     59  H   UNL A   1      44.445  28.425  29.695  1.00  0.00     0.167 HD
ATOM     60  C   UNL A   1      42.896  30.746  30.219  1.00  0.00     0.074 A 
ATOM     61  C   UNL A   1      41.763  31.640  30.350  1.00  0.00     0.031 C 
ATOM     62  C   UNL A   1      44.171  31.081  30.534  1.00  0.00     0.031 A 
BRANCH  49  63
ATOM     63  C   UNL A   1      48.282  26.563  29.624  1.00  0.00    -0.014 A 
ATOM     64  C   UNL A   1      48.737  25.772  30.691  1.00  0.00     0.009 A 
ATOM     65  C   UNL A   1      49.178  26.903  28.600  1.00  0.00     0.009 A 
ATOM     66  C   UNL A   1      50.069  25.358  30.748  1.00  0.00     0.001 A 
ATOM     67  C   UNL A   1      50.503  26.464  28.645  1.00  0.00     0.001 A 
ATOM     68  C   UNL A   1      50.949  25.699  29.723  1.00  0.00     0.000 A 
ENDBRANCH  49  63
BRANCH  50  69
ATOM     69  C   UNL A   1      38.656  29.147  28.964  1.00  0.00    -0.014 A 
ATOM     70  C   UNL A   1      37.789  29.009  30.060  1.00  0.00     0.009 A 
ATOM     71  C   UNL A   1      38.158  29.684  27.767  1.00  0.00     0.009 A 
ATOM     72  C   UNL A   1      36.449  29.387  29.954  1.00  0.00     0.001 A 
ATOM     73  C   UNL A   1      36.823  30.083  27.672  1.00  0.00     0.001 A 
ATOM     74  C   UNL A   1      35.969  29.928  28.763  1.00  0.00     0.000 A 
ENDBRANCH  50  69
BRANCH  62  75
ATOM     75  C   UNL A   1      44.415  32.476  31.032  1.00  0.00    -0.014 A 
ATOM     76  C   UNL A   1      44.660  33.528  30.139  1.00  0.00     0.009 A 
ATOM     77  C   UNL A   1      44.324  32.749  32.406  1.00  0.00     0.009 A 
ATOM     78  C   UNL A   1      44.828  34.830  30.616  1.00  0.00     0.001 A 
ATOM     79  C   UNL A   1      44.470  34.054  32.877  1.00  0.00     0.001 A 
ATOM     80  C   UNL A   1      44.727  35.092  31.982  1.00  0.00     0.000 A 
ENDBRANCH  62  75
ENDBRANCH  36  37
ENDBRANCH  28  31
ENDBRANCH  26  27
ENDBRANCH   1  26
TORSDOF 12
ENDMDL
MODEL 3
REMARK VINA RESULT:     -11.7      4.094      9.525
REMARK SMILES Cc1nn(C)c(=O)c(C(=O)N[C@H]2C=C[C@H](C(=O)NCCCNC(=O)c3ccc(-c4c5nc(c(-c6ccccc6)c6ccc([nH]6)c(-c6ccccc6)c6nc(c(-c7ccccc7)c7ccc4[nH]7)C=C6)C=C5)cc3)C2)c1C
REMARK SMILES IDX 20 1 19 2 18 3 16 4 17 5 15 7 12 8 13 9 73 10 14 11 11 12
REMARK SMILES IDX 9 13 10 14 8 16 1 17 2 18 3 19 74 20 4 21 75 22 5 23 6 24
REMARK SMILES IDX 7 25 21 26 22 27 23 28 24 30 25 31 26 32 72 33 27 34 71 35
REMARK SMILES IDX 28 36 29 37 30 38 65 39 31 40 70 41 64 42 66 43 32 44 69 45
REMARK SMILES IDX 63 46 62 47 33 49 55 50 40 51 54 52 41 53 44 54 53 55 67 56
REMARK SMILES IDX 42 57 43 58 52 60 68 61 45 62 34 63 35 64 39 65 36 66 38 67
REMARK SMILES IDX 37 68 56 69 57 70 61 71 58 72 60 73 59 74 46 75 47 76 51 77
REMARK SMILES IDX 48 78 50 79 49 80
REMARK H PARENT 18 6 11 15 22 29 66 48 44 59
REMARK Flexibility Score: inf
ROOT
ATOM      1  C   UNL A   1      31.494  32.124  26.538  1.00  0.00     0.042 C 
ENDROOT
BRANCH   1   2
ATOM      2  C   UNL A   1      31.796  30.694  26.111  1.00  0.00     0.117 C 
BRANCH   2   3
ATOM      3  N   UNL A   1      31.550  29.759  27.192  1.00  0.00    -0.356 N 
ATOM      4  C   UNL A   1      31.628  28.396  27.195  1.00  0.00     0.227 C 
ATOM      5  O   UNL A   1      31.250  27.799  28.201  1.00  0.00    -0.274 OA
ATOM      6  H   UNL A   1      31.289  30.166  28.050  1.00  0.00     0.163 HD
BRANCH   4   7
ATOM      7  C   UNL A   1      32.274  27.705  25.995  1.00  0.00     0.103 C 
ATOM      8  C   UNL A   1      33.084  25.465  25.375  1.00  0.00     0.106 C 
ATOM      9  C   UNL A   1      34.196  26.365  25.796  1.00  0.00    -0.006 C 
ATOM     10  C   UNL A   1      31.827  26.255  25.745  1.00  0.00     0.047 C 
ATOM     11  C   UNL A   1      33.759  27.578  26.147  1.00  0.00    -0.016 C 
BRANCH   8  12
ATOM     12  N   UNL A   1      33.329  25.042  24.007  1.00  0.00    -0.346 N 
ATOM     13  C   UNL A   1      33.654  23.914  23.325  1.00  0.00     0.257 C 
ATOM     14  O   UNL A   1      33.620  23.960  22.094  1.00  0.00    -0.269 OA
ATOM     15  H   UNL A   1      33.230  25.802  23.388  1.00  0.00     0.164 HD
BRANCH  13  16
ATOM     16  C   UNL A   1      34.037  22.651  23.991  1.00  0.00     0.111 A 
ATOM     17  C   UNL A   1      32.856  19.291  25.068  1.00  0.00     0.069 C 
ATOM     18  C   UNL A   1      33.821  20.340  24.559  1.00  0.00     0.062 A 
ATOM     19  N   UNL A   1      35.059  20.177  24.898  1.00  0.00    -0.175 NA
ATOM     20  C   UNL A   1      33.316  21.528  23.815  1.00  0.00    -0.010 A 
ATOM     21  N   UNL A   1      35.904  21.224  24.658  1.00  0.00    -0.232 N 
ATOM     22  C   UNL A   1      32.161  21.360  22.878  1.00  0.00     0.047 C 
ATOM     23  C   UNL A   1      37.322  20.943  24.784  1.00  0.00     0.178 C 
ATOM     24  C   UNL A   1      35.446  22.527  24.484  1.00  0.00     0.279 A 
ATOM     25  O   UNL A   1      36.152  23.521  24.647  1.00  0.00    -0.267 OA
ENDBRANCH  13  16
ENDBRANCH   8  12
ENDBRANCH   4   7
ENDBRANCH   2   3
ENDBRANCH   1   2
BRANCH   1  26
ATOM     26  C   UNL A   1      32.633  32.775  27.311  1.00  0.00     0.118 C 
BRANCH  26  27
ATOM     27  N   UNL A   1      32.373  34.172  27.622  1.00  0.00    -0.352 N 
ATOM     28  C   UNL A   1      32.966  34.977  28.569  1.00  0.00     0.251 C 
ATOM     29  H   UNL A   1      31.676  34.603  27.078  1.00  0.00     0.163 HD
ATOM     30  O   UNL A   1      32.514  36.082  28.811  1.00  0.00    -0.269 OA
BRANCH  28  31
ATOM     31  C   UNL A   1      34.141  34.470  29.306  1.00  0.00     0.039 A 
ATOM     32  C   UNL A   1      33.947  33.847  30.540  1.00  0.00     0.014 A 
ATOM     33  C   UNL A   1      35.424  34.592  28.767  1.00  0.00     0.014 A 
ATOM     34  C   UNL A   1      35.037  33.287  31.206  1.00  0.00     0.010 A 
ATOM     35  C   UNL A   1      36.494  33.959  29.387  1.00  0.00     0.010 A 
ATOM     36  C   UNL A   1      36.313  33.310  30.617  1.00  0.00    -0.014 A 
BRANCH  36  37
ATOM     37  C   UNL A   1      37.484  32.694  31.287  1.00  0.00     0.031 A 
ATOM     38  C   UNL A   1      38.170  31.519  30.650  1.00  0.00     0.074 A 
ATOM     39  C   UNL A   1      37.893  33.154  32.484  1.00  0.00     0.049 A 
ATOM     40  N   UNL A   1      39.156  30.790  31.108  1.00  0.00    -0.248 NA
ATOM     41  C   UNL A   1      37.662  31.085  29.336  1.00  0.00     0.031 C 
ATOM     42  C   UNL A   1      37.292  34.271  33.218  1.00  0.00     0.029 A 
ATOM     43  N   UNL A   1      38.917  32.737  33.295  1.00  0.00    -0.354 N 
ATOM     44  C   UNL A   1      39.371  29.807  30.152  1.00  0.00     0.074 A 
ATOM     45  C   UNL A   1      38.380  29.994  29.115  1.00  0.00     0.031 C 
ATOM     46  C   UNL A   1      37.986  34.476  34.349  1.00  0.00     0.029 A 
ATOM     47  C   UNL A   1      39.051  33.483  34.441  1.00  0.00     0.049 A 
ATOM     48  H   UNL A   1      39.502  31.975  33.077  1.00  0.00     0.167 HD
ATOM     49  C   UNL A   1      40.325  28.849  30.123  1.00  0.00     0.031 A 
ATOM     50  C   UNL A   1      39.935  33.378  35.450  1.00  0.00     0.031 A 
ATOM     51  C   UNL A   1      41.326  28.678  31.139  1.00  0.00     0.049 A 
ATOM     52  C   UNL A   1      40.979  32.298  35.402  1.00  0.00     0.074 A 
ATOM     53  C   UNL A   1      42.362  27.763  31.182  1.00  0.00     0.029 A 
ATOM     54  N   UNL A   1      41.420  29.449  32.287  1.00  0.00    -0.354 N 
ATOM     55  N   UNL A   1      41.189  31.395  34.476  1.00  0.00    -0.248 NA
ATOM     56  C   UNL A   1      41.910  32.226  36.538  1.00  0.00     0.031 C 
ATOM     57  C   UNL A   1      43.064  27.958  32.376  1.00  0.00     0.029 A 
ATOM     58  C   UNL A   1      42.490  29.024  33.053  1.00  0.00     0.049 A 
ATOM     59  H   UNL A   1      40.815  30.190  32.522  1.00  0.00     0.167 HD
ATOM     60  C   UNL A   1      42.285  30.660  34.905  1.00  0.00     0.074 A 
ATOM     61  C   UNL A   1      42.707  31.232  36.168  1.00  0.00     0.031 C 
ATOM     62  C   UNL A   1      42.890  29.605  34.307  1.00  0.00     0.031 A 
BRANCH  49  63
ATOM     63  C   UNL A   1      40.334  27.919  28.943  1.00  0.00    -0.014 A 
ATOM     64  C   UNL A   1      39.643  26.697  28.982  1.00  0.00     0.009 A 
ATOM     65  C   UNL A   1      41.015  28.278  27.771  1.00  0.00     0.009 A 
ATOM     66  C   UNL A   1      39.662  25.838  27.882  1.00  0.00     0.001 A 
ATOM     67  C   UNL A   1      41.008  27.430  26.662  1.00  0.00     0.001 A 
ATOM     68  C   UNL A   1      40.339  26.208  26.721  1.00  0.00     0.000 A 
ENDBRANCH  49  63
BRANCH  50  69
ATOM     69  C   UNL A   1      39.894  34.348  36.575  1.00  0.00    -0.014 A 
ATOM     70  C   UNL A   1      40.572  35.573  36.473  1.00  0.00     0.009 A 
ATOM     71  C   UNL A   1      39.169  34.069  37.743  1.00  0.00     0.009 A 
ATOM     72  C   UNL A   1      40.537  36.491  37.524  1.00  0.00     0.001 A 
ATOM     73  C   UNL A   1      39.117  35.000  38.783  1.00  0.00     0.001 A 
ATOM     74  C   UNL A   1      39.805  36.207  38.675  1.00  0.00     0.000 A 
ENDBRANCH  50  69
BRANCH  62  75
ATOM     75  C   UNL A   1      44.083  29.011  34.997  1.00  0.00    -0.014 A 
ATOM     76  C   UNL A   1      45.374  29.507  34.763  1.00  0.00     0.009 A 
ATOM     77  C   UNL A   1      43.901  27.994  35.947  1.00  0.00     0.009 A 
ATOM     78  C   UNL A   1      46.465  28.981  35.456  1.00  0.00     0.001 A 
ATOM     79  C   UNL A   1      44.991  27.487  36.655  1.00  0.00     0.001 A 
ATOM     80  C   UNL A   1      46.272  27.977  36.404  1.00  0.00     0.000 A 
ENDBRANCH  62  75
ENDBRANCH  36  37
ENDBRANCH  28  31
ENDBRANCH  26  27
ENDBRANCH   1  26
TORSDOF 12
ENDMDL
