MODEL 1
REMARK VINA RESULT:     -11.5      0.000      0.000
REMARK SMILES C#Cc1cc(Cl)cc2c1O[C@H](C(F)(F)F)C(C(=O)NCCCNC(=O)c1ccc(-c3c4nc(c(-c5ccccc5)c5ccc([nH]5)c(-c5ccccc5)c5nc(c(-c6ccccc6)c6ccc3[nH]6)C=C5)C=C4)cc1)=C2
REMARK SMILES IDX 21 1 20 2 19 3 17 4 18 5 16 7 3 8 4 9 9 10 5 11 8 12 10 13
REMARK SMILES IDX 6 14 7 15 74 16 11 17 2 18 1 19 12 20 13 21 14 22 15 23
REMARK SMILES IDX 22 24 23 25 24 26 25 28 26 29 27 30 73 31 28 32 72 33 29 34
REMARK SMILES IDX 30 35 31 36 66 37 32 38 71 39 65 40 67 41 33 42 70 43 64 44
REMARK SMILES IDX 63 45 34 47 56 48 41 49 55 50 42 51 45 52 54 53 68 54 43 55
REMARK SMILES IDX 44 56 53 58 69 59 46 60 35 61 36 62 40 63 37 64 39 65 38 66
REMARK SMILES IDX 57 67 58 68 62 69 59 70 61 71 60 72 47 73 48 74 52 75 49 76
REMARK SMILES IDX 51 77 50 78
REMARK H PARENT 19 6 23 27 67 46 45 57
REMARK Flexibility Score: inf
ROOT
ATOM      1  C   UNL A   1      34.027  28.280  25.850  1.00  0.00     0.042 C 
ENDROOT
BRANCH   1   2
ATOM      2  C   UNL A   1      32.866  27.905  24.947  1.00  0.00     0.118 C 
BRANCH   2   3
ATOM      3  N   UNL A   1      31.784  27.273  25.692  1.00  0.00    -0.352 N 
ATOM      4  C   UNL A   1      31.439  26.018  26.066  1.00  0.00     0.251 C 
ATOM      5  O   UNL A   1      30.401  25.928  26.729  1.00  0.00    -0.270 OA
ATOM      6  H   UNL A   1      31.129  27.936  26.008  1.00  0.00     0.163 HD
BRANCH   4   7
ATOM      7  C   UNL A   1      32.213  24.790  25.727  1.00  0.00     0.067 C 
ATOM      8  C   UNL A   1      34.389  21.264  25.047  1.00  0.00     0.068 A 
ATOM      9  C   UNL A   1      35.772  21.259  25.215  1.00  0.00     0.041 A 
ATOM     10  C   UNL A   1      33.664  22.431  25.321  1.00  0.00     0.143 A 
ATOM     11  C   UNL A   1      36.414  22.415  25.660  1.00  0.00     0.043 A 
ATOM     12  C   UNL A   1      34.306  23.592  25.766  1.00  0.00     0.020 A 
ATOM     13  O   UNL A   1      32.306  22.367  25.185  1.00  0.00    -0.474 OA
ATOM     14  Cl  UNL A   1      38.121  22.402  25.880  1.00  0.00    -0.084 Cl
ATOM     15  C   UNL A   1      35.692  23.579  25.937  1.00  0.00     0.032 A 
ATOM     16  C   UNL A   1      33.511  24.776  26.081  1.00  0.00     0.025 C 
ATOM     17  C   UNL A   1      31.613  23.621  25.009  1.00  0.00     0.314 C 
BRANCH   8  18
ATOM     18  C   UNL A   1      33.713  20.087  24.587  1.00  0.00    -0.067 C 
ATOM     19  C   UNL A   1      33.198  19.062  24.225  1.00  0.00     0.010 C 
ENDBRANCH   8  18
BRANCH  17  20
ATOM     20  C   UNL A   1      31.406  23.891  23.504  1.00  0.00     0.429 C 
ATOM     21  F   UNL A   1      31.879  22.853  22.770  1.00  0.00    -0.167 F 
ATOM     22  F   UNL A   1      30.101  24.028  23.172  1.00  0.00    -0.167 F 
ATOM     23  F   UNL A   1      32.035  25.010  23.084  1.00  0.00    -0.167 F 
ENDBRANCH  17  20
ENDBRANCH   4   7
ENDBRANCH   2   3
ENDBRANCH   1   2
BRANCH   1  24
ATOM     24  C   UNL A   1      33.553  28.569  27.263  1.00  0.00     0.118 C 
BRANCH  24  25
ATOM     25  N   UNL A   1      33.615  29.998  27.574  1.00  0.00    -0.352 N 
ATOM     26  C   UNL A   1      34.598  30.723  28.200  1.00  0.00     0.251 C 
ATOM     27  H   UNL A   1      32.830  30.519  27.291  1.00  0.00     0.163 HD
ATOM     28  O   UNL A   1      34.370  31.853  28.615  1.00  0.00    -0.269 OA
BRANCH  26  29
ATOM     29  C   UNL A   1      35.927  30.115  28.379  1.00  0.00     0.039 A 
ATOM     30  C   UNL A   1      36.853  30.165  27.338  1.00  0.00     0.014 A 
ATOM     31  C   UNL A   1      36.260  29.532  29.603  1.00  0.00     0.014 A 
ATOM     32  C   UNL A   1      38.147  29.699  27.561  1.00  0.00     0.010 A 
ATOM     33  C   UNL A   1      37.577  29.195  29.864  1.00  0.00     0.010 A 
ATOM     34  C   UNL A   1      38.529  29.257  28.839  1.00  0.00    -0.014 A 
BRANCH  34  35
ATOM     35  C   UNL A   1      39.919  28.829  29.115  1.00  0.00     0.031 A 
ATOM     36  C   UNL A   1      40.364  27.445  28.732  1.00  0.00     0.074 A 
ATOM     37  C   UNL A   1      40.765  29.675  29.734  1.00  0.00     0.049 A 
ATOM     38  N   UNL A   1      41.542  26.895  28.871  1.00  0.00    -0.248 NA
ATOM     39  C   UNL A   1      39.354  26.552  28.134  1.00  0.00     0.031 C 
ATOM     40  C   UNL A   1      40.428  31.026  30.192  1.00  0.00     0.029 A 
ATOM     41  N   UNL A   1      42.087  29.532  30.068  1.00  0.00    -0.354 N 
ATOM     42  C   UNL A   1      41.411  25.605  28.377  1.00  0.00     0.074 A 
ATOM     43  C   UNL A   1      40.027  25.420  28.014  1.00  0.00     0.031 C 
ATOM     44  C   UNL A   1      41.531  31.608  30.686  1.00  0.00     0.029 A 
ATOM     45  C   UNL A   1      42.638  30.660  30.629  1.00  0.00     0.049 A 
ATOM     46  H   UNL A   1      42.594  28.701  29.920  1.00  0.00     0.167 HD
ATOM     47  C   UNL A   1      42.370  24.668  28.203  1.00  0.00     0.031 A 
ATOM     48  C   UNL A   1      43.897  30.904  31.042  1.00  0.00     0.031 A 
ATOM     49  C   UNL A   1      43.748  24.861  28.559  1.00  0.00     0.049 A 
ATOM     50  C   UNL A   1      44.934  29.826  30.885  1.00  0.00     0.074 A 
ATOM     51  C   UNL A   1      44.806  23.987  28.390  1.00  0.00     0.029 A 
ATOM     52  N   UNL A   1      44.256  26.002  29.158  1.00  0.00    -0.354 N 
ATOM     53  N   UNL A   1      44.812  28.637  30.345  1.00  0.00    -0.248 NA
ATOM     54  C   UNL A   1      46.283  30.124  31.385  1.00  0.00     0.031 C 
ATOM     55  C   UNL A   1      45.942  24.573  28.950  1.00  0.00     0.029 A 
ATOM     56  C   UNL A   1      45.608  25.842  29.398  1.00  0.00     0.049 A 
ATOM     57  H   UNL A   1      43.732  26.807  29.379  1.00  0.00     0.167 HD
ATOM     58  C   UNL A   1      46.071  28.056  30.417  1.00  0.00     0.074 A 
ATOM     59  C   UNL A   1      46.947  29.029  31.037  1.00  0.00     0.031 C 
ATOM     60  C   UNL A   1      46.465  26.825  30.010  1.00  0.00     0.031 A 
BRANCH  47  61
ATOM     61  C   UNL A   1      41.966  23.358  27.589  1.00  0.00    -0.014 A 
ATOM     62  C   UNL A   1      42.146  23.117  26.217  1.00  0.00     0.009 A 
ATOM     63  C   UNL A   1      41.463  22.328  28.399  1.00  0.00     0.009 A 
ATOM     64  C   UNL A   1      41.808  21.880  25.665  1.00  0.00     0.001 A 
ATOM     65  C   UNL A   1      41.159  21.082  27.850  1.00  0.00     0.001 A 
ATOM     66  C   UNL A   1      41.325  20.861  26.484  1.00  0.00     0.000 A 
ENDBRANCH  47  61
BRANCH  48  67
ATOM     67  C   UNL A   1      44.246  32.234  31.607  1.00  0.00    -0.014 A 
ATOM     68  C   UNL A   1      44.688  33.270  30.770  1.00  0.00     0.009 A 
ATOM     69  C   UNL A   1      44.119  32.485  32.984  1.00  0.00     0.009 A 
ATOM     70  C   UNL A   1      45.010  34.522  31.300  1.00  0.00     0.001 A 
ATOM     71  C   UNL A   1      44.411  33.748  33.506  1.00  0.00     0.001 A 
ATOM     72  C   UNL A   1      44.864  34.762  32.665  1.00  0.00     0.000 A 
ENDBRANCH  48  67
BRANCH  60  73
ATOM     73  C   UNL A   1      47.908  26.449  30.195  1.00  0.00    -0.014 A 
ATOM     74  C   UNL A   1      48.346  25.824  31.371  1.00  0.00     0.009 A 
ATOM     75  C   UNL A   1      48.808  26.607  29.129  1.00  0.00     0.009 A 
ATOM     76  C   UNL A   1      49.663  25.371  31.480  1.00  0.00     0.001 A 
ATOM     77  C   UNL A   1      50.113  26.123  29.227  1.00  0.00     0.001 A 
ATOM     78  C   UNL A   1      50.539  25.509  30.403  1.00  0.00     0.000 A 
ENDBRANCH  60  73
ENDBRANCH  34  35
ENDBRANCH  26  29
ENDBRANCH  24  25
ENDBRANCH   1  24
TORSDOF 12
ENDMDL
MODEL 2
REMARK VINA RESULT:     -11.5      2.790      7.353
REMARK SMILES C#Cc1cc(Cl)cc2c1O[C@H](C(F)(F)F)C(C(=O)NCCCNC(=O)c1ccc(-c3c4nc(c(-c5ccccc5)c5ccc([nH]5)c(-c5ccccc5)c5nc(c(-c6ccccc6)c6ccc3[nH]6)C=C5)C=C4)cc1)=C2
REMARK SMILES IDX 21 1 20 2 19 3 17 4 18 5 16 7 3 8 4 9 9 10 5 11 8 12 10 13
REMARK SMILES IDX 6 14 7 15 74 16 11 17 2 18 1 19 12 20 13 21 14 22 15 23
REMARK SMILES IDX 22 24 23 25 24 26 25 28 26 29 27 30 73 31 28 32 72 33 29 34
REMARK SMILES IDX 30 35 31 36 66 37 32 38 71 39 65 40 67 41 33 42 70 43 64 44
REMARK SMILES IDX 63 45 34 47 56 48 41 49 55 50 42 51 45 52 54 53 68 54 43 55
REMARK SMILES IDX 44 56 53 58 69 59 46 60 35 61 36 62 40 63 37 64 39 65 38 66
REMARK SMILES IDX 57 67 58 68 62 69 59 70 61 71 60 72 47 73 48 74 52 75 49 76
REMARK SMILES IDX 51 77 50 78
REMARK H PARENT 19 6 23 27 67 46 45 57
REMARK Flexibility Score: inf
ROOT
ATOM      1  C   UNL A   1      37.940  19.621  24.994  1.00  0.00     0.042 C 
ENDROOT
BRANCH   1   2
ATOM      2  C   UNL A   1      36.949  20.745  24.754  1.00  0.00     0.118 C 
BRANCH   2   3
ATOM      3  N   UNL A   1      35.875  20.738  25.739  1.00  0.00    -0.352 N 
ATOM      4  C   UNL A   1      34.752  21.454  25.987  1.00  0.00     0.251 C 
ATOM      5  O   UNL A   1      34.092  21.086  26.963  1.00  0.00    -0.270 OA
ATOM      6  H   UNL A   1      35.998  20.021  26.402  1.00  0.00     0.163 HD
BRANCH   4   7
ATOM      7  C   UNL A   1      34.295  22.619  25.177  1.00  0.00     0.067 C 
ATOM      8  C   UNL A   1      33.278  25.959  22.844  1.00  0.00     0.068 A 
ATOM      9  C   UNL A   1      33.265  27.228  23.418  1.00  0.00     0.041 A 
ATOM     10  C   UNL A   1      33.663  24.855  23.616  1.00  0.00     0.143 A 
ATOM     11  C   UNL A   1      33.642  27.383  24.753  1.00  0.00     0.043 A 
ATOM     12  C   UNL A   1      34.041  25.008  24.955  1.00  0.00     0.020 A 
ATOM     13  O   UNL A   1      33.704  23.642  22.991  1.00  0.00    -0.474 OA
ATOM     14  Cl  UNL A   1      33.639  28.954  25.455  1.00  0.00    -0.084 Cl
ATOM     15  C   UNL A   1      34.031  26.284  25.523  1.00  0.00     0.032 A 
ATOM     16  C   UNL A   1      34.477  23.839  25.715  1.00  0.00     0.025 C 
ATOM     17  C   UNL A   1      33.641  22.474  23.837  1.00  0.00     0.314 C 
BRANCH   8  18
ATOM     18  C   UNL A   1      32.890  25.782  21.476  1.00  0.00    -0.067 C 
ATOM     19  C   UNL A   1      32.528  25.577  20.347  1.00  0.00     0.010 C 
ENDBRANCH   8  18
BRANCH  17  20
ATOM     20  C   UNL A   1      32.181  21.988  23.939  1.00  0.00     0.429 C 
ATOM     21  F   UNL A   1      31.479  22.371  22.843  1.00  0.00    -0.167 F 
ATOM     22  F   UNL A   1      32.082  20.639  24.002  1.00  0.00    -0.167 F 
ATOM     23  F   UNL A   1      31.543  22.475  25.025  1.00  0.00    -0.167 F 
ENDBRANCH  17  20
ENDBRANCH   4   7
ENDBRANCH   2   3
ENDBRANCH   1   2
BRANCH   1  24
ATOM     24  C   UNL A   1      39.153  20.113  25.765  1.00  0.00     0.118 C 
BRANCH  24  25
ATOM     25  N   UNL A   1      40.186  19.082  25.865  1.00  0.00    -0.352 N 
ATOM     26  C   UNL A   1      41.546  19.206  26.000  1.00  0.00     0.251 C 
ATOM     27  H   UNL A   1      39.854  18.156  25.830  1.00  0.00     0.163 HD
ATOM     28  O   UNL A   1      42.282  18.246  25.800  1.00  0.00    -0.269 OA
BRANCH  26  29
ATOM     29  C   UNL A   1      42.109  20.514  26.374  1.00  0.00     0.039 A 
ATOM     30  C   UNL A   1      42.478  21.416  25.376  1.00  0.00     0.014 A 
ATOM     31  C   UNL A   1      42.230  20.854  27.722  1.00  0.00     0.014 A 
ATOM     32  C   UNL A   1      42.891  22.695  25.739  1.00  0.00     0.010 A 
ATOM     33  C   UNL A   1      42.510  22.163  28.075  1.00  0.00     0.010 A 
ATOM     34  C   UNL A   1      42.863  23.091  27.088  1.00  0.00    -0.014 A 
BRANCH  34  35
ATOM     35  C   UNL A   1      43.226  24.469  27.487  1.00  0.00     0.031 A 
ATOM     36  C   UNL A   1      44.666  24.900  27.456  1.00  0.00     0.074 A 
ATOM     37  C   UNL A   1      42.265  25.317  27.901  1.00  0.00     0.049 A 
ATOM     38  N   UNL A   1      45.179  26.067  27.747  1.00  0.00    -0.248 NA
ATOM     39  C   UNL A   1      45.666  23.887  27.070  1.00  0.00     0.031 C 
ATOM     40  C   UNL A   1      40.840  24.993  28.013  1.00  0.00     0.029 A 
ATOM     41  N   UNL A   1      42.337  26.631  28.286  1.00  0.00    -0.354 N 
ATOM     42  C   UNL A   1      46.548  25.926  27.576  1.00  0.00     0.074 A 
ATOM     43  C   UNL A   1      46.801  24.545  27.240  1.00  0.00     0.031 C 
ATOM     44  C   UNL A   1      40.167  26.095  28.375  1.00  0.00     0.029 A 
ATOM     45  C   UNL A   1      41.113  27.189  28.570  1.00  0.00     0.049 A 
ATOM     46  H   UNL A   1      43.184  27.128  28.352  1.00  0.00     0.167 HD
ATOM     47  C   UNL A   1      47.509  26.873  27.652  1.00  0.00     0.031 A 
ATOM     48  C   UNL A   1      40.790  28.444  28.937  1.00  0.00     0.031 A 
ATOM     49  C   UNL A   1      47.251  28.248  27.979  1.00  0.00     0.049 A 
ATOM     50  C   UNL A   1      41.884  29.467  29.065  1.00  0.00     0.074 A 
ATOM     51  C   UNL A   1      48.150  29.295  28.046  1.00  0.00     0.029 A 
ATOM     52  N   UNL A   1      46.004  28.762  28.295  1.00  0.00    -0.354 N 
ATOM     53  N   UNL A   1      43.167  29.337  28.824  1.00  0.00    -0.248 NA
ATOM     54  C   UNL A   1      41.488  30.813  29.506  1.00  0.00     0.031 C 
ATOM     55  C   UNL A   1      47.459  30.430  28.471  1.00  0.00     0.029 A 
ATOM     56  C   UNL A   1      46.116  30.107  28.594  1.00  0.00     0.049 A 
ATOM     57  H   UNL A   1      45.165  28.247  28.306  1.00  0.00     0.167 HD
ATOM     58  C   UNL A   1      43.727  30.586  29.059  1.00  0.00     0.074 A 
ATOM     59  C   UNL A   1      42.642  31.466  29.444  1.00  0.00     0.031 C 
ATOM     60  C   UNL A   1      45.023  30.969  28.968  1.00  0.00     0.031 A 
BRANCH  47  61
ATOM     61  C   UNL A   1      48.925  26.461  27.362  1.00  0.00    -0.014 A 
ATOM     62  C   UNL A   1      49.775  26.025  28.391  1.00  0.00     0.009 A 
ATOM     63  C   UNL A   1      49.395  26.443  26.040  1.00  0.00     0.009 A 
ATOM     64  C   UNL A   1      51.075  25.602  28.105  1.00  0.00     0.001 A 
ATOM     65  C   UNL A   1      50.681  25.987  25.753  1.00  0.00     0.001 A 
ATOM     66  C   UNL A   1      51.522  25.574  26.785  1.00  0.00     0.000 A 
ENDBRANCH  47  61
BRANCH  48  67
ATOM     67  C   UNL A   1      39.366  28.804  29.173  1.00  0.00    -0.014 A 
ATOM     68  C   UNL A   1      38.793  28.646  30.445  1.00  0.00     0.009 A 
ATOM     69  C   UNL A   1      38.577  29.328  28.137  1.00  0.00     0.009 A 
ATOM     70  C   UNL A   1      37.458  28.990  30.668  1.00  0.00     0.001 A 
ATOM     71  C   UNL A   1      37.251  29.702  28.372  1.00  0.00     0.001 A 
ATOM     72  C   UNL A   1      36.691  29.524  29.636  1.00  0.00     0.000 A 
ENDBRANCH  48  67
BRANCH  60  73
ATOM     73  C   UNL A   1      45.359  32.402  29.268  1.00  0.00    -0.014 A 
ATOM     74  C   UNL A   1      45.770  32.796  30.549  1.00  0.00     0.009 A 
ATOM     75  C   UNL A   1      45.386  33.341  28.224  1.00  0.00     0.009 A 
ATOM     76  C   UNL A   1      46.195  34.106  30.781  1.00  0.00     0.001 A 
ATOM     77  C   UNL A   1      45.843  34.639  28.450  1.00  0.00     0.001 A 
ATOM     78  C   UNL A   1      46.244  35.021  29.730  1.00  0.00     0.000 A 
ENDBRANCH  60  73
ENDBRANCH  34  35
ENDBRANCH  26  29
ENDBRANCH  24  25
ENDBRANCH   1  24
TORSDOF 12
ENDMDL
MODEL 3
REMARK VINA RESULT:     -11.5      2.684      7.444
REMARK SMILES C#Cc1cc(Cl)cc2c1O[C@H](C(F)(F)F)C(C(=O)NCCCNC(=O)c1ccc(-c3c4nc(c(-c5ccccc5)c5ccc([nH]5)c(-c5ccccc5)c5nc(c(-c6ccccc6)c6ccc3[nH]6)C=C5)C=C4)cc1)=C2
REMARK SMILES IDX 21 1 20 2 19 3 17 4 18 5 16 7 3 8 4 9 9 10 5 11 8 12 10 13
REMARK SMILES IDX 6 14 7 15 74 16 11 17 2 18 1 19 12 20 13 21 14 22 15 23
REMARK SMILES IDX 22 24 23 25 24 26 25 28 26 29 27 30 73 31 28 32 72 33 29 34
REMARK SMILES IDX 30 35 31 36 66 37 32 38 71 39 65 40 67 41 33 42 70 43 64 44
REMARK SMILES IDX 63 45 34 47 56 48 41 49 55 50 42 51 45 52 54 53 68 54 43 55
REMARK SMILES IDX 44 56 53 58 69 59 46 60 35 61 36 62 40 63 37 64 39 65 38 66
REMARK SMILES IDX 57 67 58 68 62 69 59 70 61 71 60 72 47 73 48 74 52 75 49 76
REMARK SMILES IDX 51 77 50 78
REMARK H PARENT 19 6 23 27 67 46 45 57
REMARK Flexibility Score: inf
ROOT
ATOM      1  C   UNL A   1      35.894  23.537  25.986  1.00  0.00     0.042 C 
ENDROOT
BRANCH   1   2
ATOM      2  C   UNL A   1      34.585  22.925  25.523  1.00  0.00     0.118 C 
BRANCH   2   3
ATOM      3  N   UNL A   1      34.429  23.013  24.077  1.00  0.00    -0.352 N 
ATOM      4  C   UNL A   1      33.903  23.889  23.188  1.00  0.00     0.251 C 
ATOM      5  O   UNL A   1      33.998  23.562  22.001  1.00  0.00    -0.270 OA
ATOM      6  H   UNL A   1      34.807  22.224  23.625  1.00  0.00     0.163 HD
BRANCH   4   7
ATOM      7  C   UNL A   1      33.238  25.171  23.555  1.00  0.00     0.067 C 
ATOM      8  C   UNL A   1      31.544  28.916  24.415  1.00  0.00     0.068 A 
ATOM      9  C   UNL A   1      32.115  29.727  25.393  1.00  0.00     0.041 A 
ATOM     10  C   UNL A   1      32.142  27.688  24.101  1.00  0.00     0.143 A 
ATOM     11  C   UNL A   1      33.278  29.308  26.041  1.00  0.00     0.043 A 
ATOM     12  C   UNL A   1      33.307  27.266  24.750  1.00  0.00     0.020 A 
ATOM     13  O   UNL A   1      31.568  26.955  23.102  1.00  0.00    -0.474 OA
ATOM     14  Cl  UNL A   1      33.989  30.319  27.239  1.00  0.00    -0.084 Cl
ATOM     15  C   UNL A   1      33.878  28.086  25.726  1.00  0.00     0.032 A 
ATOM     16  C   UNL A   1      33.924  25.999  24.364  1.00  0.00     0.025 C 
ATOM     17  C   UNL A   1      31.866  25.542  23.082  1.00  0.00     0.314 C 
BRANCH   8  18
ATOM     18  C   UNL A   1      30.347  29.329  23.743  1.00  0.00    -0.067 C 
ATOM     19  C   UNL A   1      29.376  29.731  23.158  1.00  0.00     0.010 C 
ENDBRANCH   8  18
BRANCH  17  20
ATOM     20  C   UNL A   1      30.754  24.769  23.821  1.00  0.00     0.429 C 
ATOM     21  F   UNL A   1      31.208  24.322  25.019  1.00  0.00    -0.167 F 
ATOM     22  F   UNL A   1      29.671  25.537  24.086  1.00  0.00    -0.167 F 
ATOM     23  F   UNL A   1      30.312  23.699  23.126  1.00  0.00    -0.167 F 
ENDBRANCH  17  20
ENDBRANCH   4   7
ENDBRANCH   2   3
ENDBRANCH   1   2
BRANCH   1  24
ATOM     24  C   UNL A   1      36.995  23.322  24.961  1.00  0.00     0.118 C 
BRANCH  24  25
ATOM     25  N   UNL A   1      38.028  22.412  25.458  1.00  0.00    -0.352 N 
ATOM     26  C   UNL A   1      39.196  22.684  26.126  1.00  0.00     0.251 C 
ATOM     27  H   UNL A   1      37.858  21.458  25.287  1.00  0.00     0.163 HD
ATOM     28  O   UNL A   1      40.068  21.829  26.229  1.00  0.00    -0.269 OA
BRANCH  26  29
ATOM     29  C   UNL A   1      39.392  24.025  26.702  1.00  0.00     0.039 A 
ATOM     30  C   UNL A   1      38.977  24.281  28.008  1.00  0.00     0.014 A 
ATOM     31  C   UNL A   1      40.028  25.013  25.950  1.00  0.00     0.014 A 
ATOM     32  C   UNL A   1      39.279  25.511  28.585  1.00  0.00     0.010 A 
ATOM     33  C   UNL A   1      40.444  26.180  26.566  1.00  0.00     0.010 A 
ATOM     34  C   UNL A   1      40.057  26.449  27.884  1.00  0.00    -0.014 A 
BRANCH  34  35
ATOM     35  C   UNL A   1      40.453  27.732  28.508  1.00  0.00     0.031 A 
ATOM     36  C   UNL A   1      41.875  27.942  28.944  1.00  0.00     0.074 A 
ATOM     37  C   UNL A   1      39.526  28.690  28.705  1.00  0.00     0.049 A 
ATOM     38  N   UNL A   1      42.418  29.000  29.489  1.00  0.00    -0.248 NA
ATOM     39  C   UNL A   1      42.809  26.814  28.769  1.00  0.00     0.031 C 
ATOM     40  C   UNL A   1      38.106  28.578  28.361  1.00  0.00     0.029 A 
ATOM     41  N   UNL A   1      39.642  29.953  29.224  1.00  0.00    -0.354 N 
ATOM     42  C   UNL A   1      43.746  28.664  29.713  1.00  0.00     0.074 A 
ATOM     43  C   UNL A   1      43.912  27.283  29.329  1.00  0.00     0.031 C 
ATOM     44  C   UNL A   1      37.499  29.746  28.618  1.00  0.00     0.029 A 
ATOM     45  C   UNL A   1      38.471  30.672  29.191  1.00  0.00     0.049 A 
ATOM     46  H   UNL A   1      40.485  30.312  29.585  1.00  0.00     0.167 HD
ATOM     47  C   UNL A   1      44.749  29.451  30.162  1.00  0.00     0.031 A 
ATOM     48  C   UNL A   1      38.212  31.938  29.571  1.00  0.00     0.031 A 
ATOM     49  C   UNL A   1      44.580  30.827  30.535  1.00  0.00     0.049 A 
ATOM     50  C   UNL A   1      39.336  32.776  30.116  1.00  0.00     0.074 A 
ATOM     51  C   UNL A   1      45.540  31.722  30.968  1.00  0.00     0.029 A 
ATOM     52  N   UNL A   1      43.371  31.504  30.522  1.00  0.00    -0.354 N 
ATOM     53  N   UNL A   1      40.604  32.468  30.251  1.00  0.00    -0.248 NA
ATOM     54  C   UNL A   1      38.997  34.138  30.554  1.00  0.00     0.031 C 
ATOM     55  C   UNL A   1      44.901  32.921  31.283  1.00  0.00     0.029 A 
ATOM     56  C   UNL A   1      43.555  32.798  30.974  1.00  0.00     0.049 A 
ATOM     57  H   UNL A   1      42.510  31.122  30.234  1.00  0.00     0.167 HD
ATOM     58  C   UNL A   1      41.218  33.603  30.764  1.00  0.00     0.074 A 
ATOM     59  C   UNL A   1      40.188  34.613  30.900  1.00  0.00     0.031 C 
ATOM     60  C   UNL A   1      42.518  33.790  31.096  1.00  0.00     0.031 A 
BRANCH  47  61
ATOM     61  C   UNL A   1      46.122  28.847  30.261  1.00  0.00    -0.014 A 
ATOM     62  C   UNL A   1      46.545  28.200  31.433  1.00  0.00     0.009 A 
ATOM     63  C   UNL A   1      46.978  28.865  29.150  1.00  0.00     0.009 A 
ATOM     64  C   UNL A   1      47.805  27.605  31.499  1.00  0.00     0.001 A 
ATOM     65  C   UNL A   1      48.224  28.239  29.206  1.00  0.00     0.001 A 
ATOM     66  C   UNL A   1      48.639  27.616  30.382  1.00  0.00     0.000 A 
ENDBRANCH  47  61
BRANCH  48  67
ATOM     67  C   UNL A   1      36.842  32.494  29.414  1.00  0.00    -0.014 A 
ATOM     68  C   UNL A   1      36.458  33.113  28.214  1.00  0.00     0.009 A 
ATOM     69  C   UNL A   1      35.901  32.389  30.452  1.00  0.00     0.009 A 
ATOM     70  C   UNL A   1      35.168  33.630  28.065  1.00  0.00     0.001 A 
ATOM     71  C   UNL A   1      34.603  32.877  30.286  1.00  0.00     0.001 A 
ATOM     72  C   UNL A   1      34.240  33.504  29.096  1.00  0.00     0.000 A 
ENDBRANCH  48  67
BRANCH  60  73
ATOM     73  C   UNL A   1      42.925  35.137  31.623  1.00  0.00    -0.014 A 
ATOM     74  C   UNL A   1      42.858  35.428  32.993  1.00  0.00     0.009 A 
ATOM     75  C   UNL A   1      43.500  36.078  30.753  1.00  0.00     0.009 A 
ATOM     76  C   UNL A   1      43.353  36.639  33.481  1.00  0.00     0.001 A 
ATOM     77  C   UNL A   1      44.025  37.272  31.248  1.00  0.00     0.001 A 
ATOM     78  C   UNL A   1      43.947  37.552  32.611  1.00  0.00     0.000 A 
ENDBRANCH  60  73
ENDBRANCH  34  35
ENDBRANCH  26  29
ENDBRANCH  24  25
ENDBRANCH   1  24
TORSDOF 12
ENDMDL
