MODEL 1
REMARK VINA RESULT:     -11.3      0.000      0.000
REMARK SMILES Cn1ncc(C(=O)NCCCNC(=O)c2ccc(-c3c4nc(c(-c5ccccc5)c5ccc([nH]5)c(-c5ccccc5)c5nc(c(-c6ccccc6)c6ccc3[nH]6)C=C5)C=C4)cc2)c1C(=O)Nc1ccccn1
REMARK SMILES IDX 10 1 9 2 8 3 6 4 7 5 5 7 1 8 2 9 3 10 63 11 4 12 64 13 65 14
REMARK SMILES IDX 66 15 67 17 68 18 72 19 69 20 71 21 70 22 11 23 12 24 13 25
REMARK SMILES IDX 14 27 15 28 16 29 62 30 17 31 61 32 18 33 19 34 20 35 55 36
REMARK SMILES IDX 21 37 60 38 54 39 56 40 22 41 59 42 53 43 52 44 23 46 45 47
REMARK SMILES IDX 30 48 44 49 31 50 34 51 43 52 57 53 32 54 33 55 42 57 58 58
REMARK SMILES IDX 35 59 24 60 25 61 29 62 26 63 28 64 27 65 46 66 47 67 51 68
REMARK SMILES IDX 48 69 50 70 49 71 36 72 37 73 41 74 38 75 40 76 39 77
REMARK H PARENT 8 6 66 16 12 26 56 45 34 56
REMARK Flexibility Score: inf
ROOT
ATOM      1  C   UNL A   1      32.132  28.688  26.767  1.00  0.00     0.042 C 
ENDROOT
BRANCH   1   2
ATOM      2  C   UNL A   1      31.991  27.354  26.062  1.00  0.00     0.118 C 
BRANCH   2   3
ATOM      3  N   UNL A   1      30.847  26.588  26.487  1.00  0.00    -0.352 N 
ATOM      4  C   UNL A   1      30.417  25.319  26.218  1.00  0.00     0.255 C 
ATOM      5  O   UNL A   1      29.324  25.031  26.718  1.00  0.00    -0.269 OA
ATOM      6  H   UNL A   1      30.252  27.081  27.099  1.00  0.00     0.163 HD
BRANCH   4   7
ATOM      7  C   UNL A   1      31.104  24.337  25.382  1.00  0.00     0.090 A 
ATOM      8  C   UNL A   1      32.663  21.311  24.182  1.00  0.00     0.174 C 
ATOM      9  N   UNL A   1      32.102  22.624  24.413  1.00  0.00    -0.262 N 
ATOM     10  N   UNL A   1      31.367  23.155  23.424  1.00  0.00    -0.180 NA
ATOM     11  C   UNL A   1      32.105  23.372  25.571  1.00  0.00     0.139 A 
ATOM     12  C   UNL A   1      30.707  24.135  24.030  1.00  0.00     0.149 A 
BRANCH  11  13
ATOM     13  C   UNL A   1      32.830  23.013  26.762  1.00  0.00     0.275 C 
ATOM     14  O   UNL A   1      32.263  22.547  27.750  1.00  0.00    -0.267 OA
ATOM     15  N   UNL A   1      34.166  23.357  26.895  1.00  0.00    -0.305 N 
ATOM     16  H   UNL A   1      34.426  23.911  27.665  1.00  0.00     0.171 HD
BRANCH  15  17
ATOM     17  C   UNL A   1      35.159  22.965  26.003  1.00  0.00     0.132 A 
ATOM     18  C   UNL A   1      35.702  23.808  25.047  1.00  0.00     0.047 A 
ATOM     19  N   UNL A   1      35.525  21.678  26.152  1.00  0.00    -0.239 NA
ATOM     20  C   UNL A   1      36.617  23.261  24.145  1.00  0.00     0.005 A 
ATOM     21  C   UNL A   1      36.391  21.168  25.255  1.00  0.00     0.113 A 
ATOM     22  C   UNL A   1      36.949  21.910  24.233  1.00  0.00     0.020 A 
ENDBRANCH  15  17
ENDBRANCH  11  13
ENDBRANCH   4   7
ENDBRANCH   2   3
ENDBRANCH   1   2
BRANCH   1  23
ATOM     23  C   UNL A   1      33.533  28.986  27.264  1.00  0.00     0.118 C 
BRANCH  23  24
ATOM     24  N   UNL A   1      33.682  30.346  27.772  1.00  0.00    -0.352 N 
ATOM     25  C   UNL A   1      34.731  30.948  28.425  1.00  0.00     0.251 C 
ATOM     26  H   UNL A   1      32.902  30.929  27.621  1.00  0.00     0.163 HD
ATOM     27  O   UNL A   1      34.585  32.060  28.928  1.00  0.00    -0.269 OA
BRANCH  25  28
ATOM     28  C   UNL A   1      36.027  30.251  28.556  1.00  0.00     0.039 A 
ATOM     29  C   UNL A   1      36.935  30.279  27.494  1.00  0.00     0.014 A 
ATOM     30  C   UNL A   1      36.353  29.579  29.733  1.00  0.00     0.014 A 
ATOM     31  C   UNL A   1      38.207  29.725  27.656  1.00  0.00     0.010 A 
ATOM     32  C   UNL A   1      37.654  29.139  29.936  1.00  0.00     0.010 A 
ATOM     33  C   UNL A   1      38.595  29.201  28.898  1.00  0.00    -0.014 A 
BRANCH  33  34
ATOM     34  C   UNL A   1      39.966  28.690  29.153  1.00  0.00     0.031 A 
ATOM     35  C   UNL A   1      41.006  29.612  29.730  1.00  0.00     0.074 A 
ATOM     36  C   UNL A   1      40.304  27.444  28.766  1.00  0.00     0.049 A 
ATOM     37  N   UNL A   1      42.292  29.421  29.878  1.00  0.00    -0.248 NA
ATOM     38  C   UNL A   1      40.545  30.944  30.160  1.00  0.00     0.031 C 
ATOM     39  C   UNL A   1      39.400  26.465  28.158  1.00  0.00     0.029 A 
ATOM     40  N   UNL A   1      41.512  26.794  28.811  1.00  0.00    -0.354 N 
ATOM     41  C   UNL A   1      42.793  30.616  30.379  1.00  0.00     0.074 A 
ATOM     42  C   UNL A   1      41.687  31.542  30.460  1.00  0.00     0.031 C 
ATOM     43  C   UNL A   1      40.079  25.334  27.910  1.00  0.00     0.029 A 
ATOM     44  C   UNL A   1      41.473  25.523  28.292  1.00  0.00     0.049 A 
ATOM     45  H   UNL A   1      42.328  27.202  29.180  1.00  0.00     0.167 HD
ATOM     46  C   UNL A   1      44.057  30.909  30.762  1.00  0.00     0.031 A 
ATOM     47  C   UNL A   1      42.456  24.617  28.126  1.00  0.00     0.031 A 
ATOM     48  C   UNL A   1      45.150  29.977  30.707  1.00  0.00     0.049 A 
ATOM     49  C   UNL A   1      43.854  24.969  28.553  1.00  0.00     0.074 A 
ATOM     50  C   UNL A   1      46.455  30.153  31.131  1.00  0.00     0.029 A 
ATOM     51  N   UNL A   1      45.060  28.690  30.200  1.00  0.00    -0.354 N 
ATOM     52  N   UNL A   1      44.302  26.082  29.082  1.00  0.00    -0.248 NA
ATOM     53  C   UNL A   1      44.883  23.936  28.364  1.00  0.00     0.031 C 
ATOM     54  C   UNL A   1      47.169  28.988  30.834  1.00  0.00     0.029 A 
ATOM     55  C   UNL A   1      46.293  28.067  30.280  1.00  0.00     0.049 A 
ATOM     56  H   UNL A   1      44.242  28.280  29.837  1.00  0.00     0.167 HD
ATOM     57  C   UNL A   1      45.654  25.872  29.319  1.00  0.00     0.074 A 
ATOM     58  C   UNL A   1      45.952  24.522  28.887  1.00  0.00     0.031 C 
ATOM     59  C   UNL A   1      46.567  26.720  29.852  1.00  0.00     0.031 A 
BRANCH  46  60
ATOM     60  C   UNL A   1      44.324  32.301  31.268  1.00  0.00    -0.014 A 
ATOM     61  C   UNL A   1      44.182  32.622  32.628  1.00  0.00     0.009 A 
ATOM     62  C   UNL A   1      44.747  33.298  30.377  1.00  0.00     0.009 A 
ATOM     63  C   UNL A   1      44.418  33.922  33.077  1.00  0.00     0.001 A 
ATOM     64  C   UNL A   1      45.014  34.590  30.834  1.00  0.00     0.001 A 
ATOM     65  C   UNL A   1      44.838  34.904  32.181  1.00  0.00     0.000 A 
ENDBRANCH  46  60
BRANCH  47  66
ATOM     66  C   UNL A   1      42.152  23.284  27.541  1.00  0.00    -0.014 A 
ATOM     67  C   UNL A   1      42.446  23.015  26.196  1.00  0.00     0.009 A 
ATOM     68  C   UNL A   1      41.563  22.276  28.320  1.00  0.00     0.009 A 
ATOM     69  C   UNL A   1      42.132  21.775  25.635  1.00  0.00     0.001 A 
ATOM     70  C   UNL A   1      41.277  21.027  27.764  1.00  0.00     0.001 A 
ATOM     71  C   UNL A   1      41.552  20.780  26.420  1.00  0.00     0.000 A 
ENDBRANCH  47  66
BRANCH  59  72
ATOM     72  C   UNL A   1      47.963  26.201  30.043  1.00  0.00    -0.014 A 
ATOM     73  C   UNL A   1      48.908  26.246  29.007  1.00  0.00     0.009 A 
ATOM     74  C   UNL A   1      48.353  25.717  31.302  1.00  0.00     0.009 A 
ATOM     75  C   UNL A   1      50.211  25.794  29.224  1.00  0.00     0.001 A 
ATOM     76  C   UNL A   1      49.664  25.294  31.523  1.00  0.00     0.001 A 
ATOM     77  C   UNL A   1      50.590  25.325  30.482  1.00  0.00     0.000 A 
ENDBRANCH  59  72
ENDBRANCH  33  34
ENDBRANCH  25  28
ENDBRANCH  23  24
ENDBRANCH   1  23
TORSDOF 12
ENDMDL
MODEL 2
REMARK VINA RESULT:     -11.2      2.733      7.933
REMARK SMILES Cn1ncc(C(=O)NCCCNC(=O)c2ccc(-c3c4nc(c(-c5ccccc5)c5ccc([nH]5)c(-c5ccccc5)c5nc(c(-c6ccccc6)c6ccc3[nH]6)C=C5)C=C4)cc2)c1C(=O)Nc1ccccn1
REMARK SMILES IDX 10 1 9 2 8 3 6 4 7 5 5 7 1 8 2 9 3 10 63 11 4 12 64 13 65 14
REMARK SMILES IDX 66 15 67 17 68 18 72 19 69 20 71 21 70 22 11 23 12 24 13 25
REMARK SMILES IDX 14 27 15 28 16 29 62 30 17 31 61 32 18 33 19 34 20 35 55 36
REMARK SMILES IDX 21 37 60 38 54 39 56 40 22 41 59 42 53 43 52 44 23 46 45 47
REMARK SMILES IDX 30 48 44 49 31 50 34 51 43 52 57 53 32 54 33 55 42 57 58 58
REMARK SMILES IDX 35 59 24 60 25 61 29 62 26 63 28 64 27 65 46 66 47 67 51 68
REMARK SMILES IDX 48 69 50 70 49 71 36 72 37 73 41 74 38 75 40 76 39 77
REMARK H PARENT 8 6 66 16 12 26 56 45 34 56
REMARK Flexibility Score: inf
ROOT
ATOM      1  C   UNL A   1      36.062  23.487  26.069  1.00  0.00     0.042 C 
ENDROOT
BRANCH   1   2
ATOM      2  C   UNL A   1      34.689  23.657  25.451  1.00  0.00     0.118 C 
BRANCH   2   3
ATOM      3  N   UNL A   1      34.656  23.415  24.031  1.00  0.00    -0.352 N 
ATOM      4  C   UNL A   1      33.827  23.836  23.028  1.00  0.00     0.255 C 
ATOM      5  O   UNL A   1      34.074  23.348  21.920  1.00  0.00    -0.269 OA
ATOM      6  H   UNL A   1      35.379  22.824  23.717  1.00  0.00     0.163 HD
BRANCH   4   7
ATOM      7  C   UNL A   1      32.693  24.747  23.175  1.00  0.00     0.090 A 
ATOM      8  C   UNL A   1      30.379  27.479  22.725  1.00  0.00     0.174 C 
ATOM      9  N   UNL A   1      31.135  26.307  23.108  1.00  0.00    -0.262 N 
ATOM     10  N   UNL A   1      30.440  25.184  23.345  1.00  0.00    -0.180 NA
ATOM     11  C   UNL A   1      32.502  26.136  23.145  1.00  0.00     0.139 A 
ATOM     12  C   UNL A   1      31.371  24.238  23.304  1.00  0.00     0.149 A 
BRANCH  11  13
ATOM     13  C   UNL A   1      33.454  27.196  22.934  1.00  0.00     0.275 C 
ATOM     14  O   UNL A   1      33.836  27.511  21.807  1.00  0.00    -0.267 OA
ATOM     15  N   UNL A   1      34.109  27.769  24.012  1.00  0.00    -0.305 N 
ATOM     16  H   UNL A   1      35.093  27.744  24.023  1.00  0.00     0.171 HD
BRANCH  15  17
ATOM     17  C   UNL A   1      33.456  28.377  25.081  1.00  0.00     0.132 A 
ATOM     18  C   UNL A   1      33.548  27.925  26.387  1.00  0.00     0.047 A 
ATOM     19  N   UNL A   1      32.713  29.437  24.712  1.00  0.00    -0.239 NA
ATOM     20  C   UNL A   1      32.760  28.561  27.349  1.00  0.00     0.005 A 
ATOM     21  C   UNL A   1      31.945  30.019  25.653  1.00  0.00     0.113 A 
ATOM     22  C   UNL A   1      31.923  29.611  26.972  1.00  0.00     0.020 A 
ENDBRANCH  15  17
ENDBRANCH  11  13
ENDBRANCH   4   7
ENDBRANCH   2   3
ENDBRANCH   1   2
BRANCH   1  23
ATOM     23  C   UNL A   1      37.194  23.408  25.063  1.00  0.00     0.118 C 
BRANCH  23  24
ATOM     24  N   UNL A   1      38.308  22.583  25.519  1.00  0.00    -0.352 N 
ATOM     25  C   UNL A   1      39.431  22.912  26.241  1.00  0.00     0.251 C 
ATOM     26  H   UNL A   1      38.244  21.632  25.268  1.00  0.00     0.163 HD
ATOM     27  O   UNL A   1      40.341  22.095  26.369  1.00  0.00    -0.269 OA
BRANCH  25  28
ATOM     28  C   UNL A   1      39.566  24.258  26.836  1.00  0.00     0.039 A 
ATOM     29  C   UNL A   1      39.091  24.489  28.130  1.00  0.00     0.014 A 
ATOM     30  C   UNL A   1      40.174  25.289  26.123  1.00  0.00     0.014 A 
ATOM     31  C   UNL A   1      39.323  25.723  28.742  1.00  0.00     0.010 A 
ATOM     32  C   UNL A   1      40.512  26.468  26.772  1.00  0.00     0.010 A 
ATOM     33  C   UNL A   1      40.086  26.703  28.088  1.00  0.00    -0.014 A 
BRANCH  33  34
ATOM     34  C   UNL A   1      40.446  27.991  28.731  1.00  0.00     0.031 A 
ATOM     35  C   UNL A   1      41.793  28.144  29.385  1.00  0.00     0.074 A 
ATOM     36  C   UNL A   1      39.530  28.976  28.825  1.00  0.00     0.049 A 
ATOM     37  N   UNL A   1      42.243  29.116  30.136  1.00  0.00    -0.248 NA
ATOM     38  C   UNL A   1      42.747  27.035  29.203  1.00  0.00     0.031 C 
ATOM     39  C   UNL A   1      38.176  28.939  28.269  1.00  0.00     0.029 A 
ATOM     40  N   UNL A   1      39.599  30.200  29.444  1.00  0.00    -0.354 N 
ATOM     41  C   UNL A   1      43.510  28.718  30.544  1.00  0.00     0.074 A 
ATOM     42  C   UNL A   1      43.736  27.396  30.004  1.00  0.00     0.031 C 
ATOM     43  C   UNL A   1      37.552  30.094  28.551  1.00  0.00     0.029 A 
ATOM     44  C   UNL A   1      38.440  30.931  29.349  1.00  0.00     0.049 A 
ATOM     45  H   UNL A   1      40.404  30.522  29.911  1.00  0.00     0.167 HD
ATOM     46  C   UNL A   1      44.415  29.400  31.283  1.00  0.00     0.031 A 
ATOM     47  C   UNL A   1      38.122  32.135  29.863  1.00  0.00     0.031 A 
ATOM     48  C   UNL A   1      44.199  30.725  31.795  1.00  0.00     0.049 A 
ATOM     49  C   UNL A   1      39.142  32.871  30.686  1.00  0.00     0.074 A 
ATOM     50  C   UNL A   1      45.076  31.531  32.499  1.00  0.00     0.029 A 
ATOM     51  N   UNL A   1      43.020  31.440  31.652  1.00  0.00    -0.354 N 
ATOM     52  N   UNL A   1      40.359  32.508  31.013  1.00  0.00    -0.248 NA
ATOM     53  C   UNL A   1      38.746  34.187  31.207  1.00  0.00     0.031 C 
ATOM     54  C   UNL A   1      44.409  32.716  32.827  1.00  0.00     0.029 A 
ATOM     55  C   UNL A   1      43.138  32.670  32.274  1.00  0.00     0.049 A 
ATOM     56  H   UNL A   1      42.218  31.121  31.178  1.00  0.00     0.167 HD
ATOM     57  C   UNL A   1      40.885  33.562  31.748  1.00  0.00     0.074 A 
ATOM     58  C   UNL A   1      39.860  34.583  31.810  1.00  0.00     0.031 C 
ATOM     59  C   UNL A   1      42.109  33.676  32.317  1.00  0.00     0.031 A 
BRANCH  46  60
ATOM     60  C   UNL A   1      45.722  28.717  31.583  1.00  0.00    -0.014 A 
ATOM     61  C   UNL A   1      45.883  27.921  32.729  1.00  0.00     0.009 A 
ATOM     62  C   UNL A   1      46.799  28.851  30.695  1.00  0.00     0.009 A 
ATOM     63  C   UNL A   1      47.107  27.309  33.000  1.00  0.00     0.001 A 
ATOM     64  C   UNL A   1      48.013  28.211  30.951  1.00  0.00     0.001 A 
ATOM     65  C   UNL A   1      48.170  27.450  32.108  1.00  0.00     0.000 A 
ENDBRANCH  46  60
BRANCH  47  66
ATOM     66  C   UNL A   1      36.783  32.727  29.604  1.00  0.00    -0.014 A 
ATOM     67  C   UNL A   1      35.749  32.583  30.542  1.00  0.00     0.009 A 
ATOM     68  C   UNL A   1      36.528  33.434  28.419  1.00  0.00     0.009 A 
ATOM     69  C   UNL A   1      34.481  33.110  30.286  1.00  0.00     0.001 A 
ATOM     70  C   UNL A   1      35.267  33.986  28.179  1.00  0.00     0.001 A 
ATOM     71  C   UNL A   1      34.242  33.815  29.108  1.00  0.00     0.000 A 
ENDBRANCH  47  66
BRANCH  59  72
ATOM     72  C   UNL A   1      42.428  34.966  33.016  1.00  0.00    -0.014 A 
ATOM     73  C   UNL A   1      42.044  35.192  34.346  1.00  0.00     0.009 A 
ATOM     74  C   UNL A   1      43.182  35.945  32.348  1.00  0.00     0.009 A 
ATOM     75  C   UNL A   1      42.389  36.385  34.985  1.00  0.00     0.001 A 
ATOM     76  C   UNL A   1      43.550  37.122  33.000  1.00  0.00     0.001 A 
ATOM     77  C   UNL A   1      43.147  37.345  34.314  1.00  0.00     0.000 A 
ENDBRANCH  59  72
ENDBRANCH  33  34
ENDBRANCH  25  28
ENDBRANCH  23  24
ENDBRANCH   1  23
TORSDOF 12
ENDMDL
MODEL 3
REMARK VINA RESULT:     -11.2      2.757      7.392
REMARK SMILES Cn1ncc(C(=O)NCCCNC(=O)c2ccc(-c3c4nc(c(-c5ccccc5)c5ccc([nH]5)c(-c5ccccc5)c5nc(c(-c6ccccc6)c6ccc3[nH]6)C=C5)C=C4)cc2)c1C(=O)Nc1ccccn1
REMARK SMILES IDX 10 1 9 2 8 3 6 4 7 5 5 7 1 8 2 9 3 10 63 11 4 12 64 13 65 14
REMARK SMILES IDX 66 15 67 17 68 18 72 19 69 20 71 21 70 22 11 23 12 24 13 25
REMARK SMILES IDX 14 27 15 28 16 29 62 30 17 31 61 32 18 33 19 34 20 35 55 36
REMARK SMILES IDX 21 37 60 38 54 39 56 40 22 41 59 42 53 43 52 44 23 46 45 47
REMARK SMILES IDX 30 48 44 49 31 50 34 51 43 52 57 53 32 54 33 55 42 57 58 58
REMARK SMILES IDX 35 59 24 60 25 61 29 62 26 63 28 64 27 65 46 66 47 67 51 68
REMARK SMILES IDX 48 69 50 70 49 71 36 72 37 73 41 74 38 75 40 76 39 77
REMARK H PARENT 8 6 66 16 12 26 56 45 34 56
REMARK Flexibility Score: inf
ROOT
ATOM      1  C   UNL A   1      37.938  20.029  24.989  1.00  0.00     0.042 C 
ENDROOT
BRANCH   1   2
ATOM      2  C   UNL A   1      37.093  21.244  24.664  1.00  0.00     0.118 C 
BRANCH   2   3
ATOM      3  N   UNL A   1      36.408  21.799  25.804  1.00  0.00    -0.352 N 
ATOM      4  C   UNL A   1      35.207  22.434  25.956  1.00  0.00     0.255 C 
ATOM      5  O   UNL A   1      34.986  22.843  27.101  1.00  0.00    -0.269 OA
ATOM      6  H   UNL A   1      36.907  21.700  26.647  1.00  0.00     0.163 HD
BRANCH   4   7
ATOM      7  C   UNL A   1      34.229  22.690  24.901  1.00  0.00     0.090 A 
ATOM      8  C   UNL A   1      31.154  23.336  23.126  1.00  0.00     0.174 C 
ATOM      9  N   UNL A   1      32.502  23.088  23.586  1.00  0.00    -0.262 N 
ATOM     10  N   UNL A   1      33.475  23.846  23.059  1.00  0.00    -0.180 NA
ATOM     11  C   UNL A   1      32.929  22.257  24.600  1.00  0.00     0.139 A 
ATOM     12  C   UNL A   1      34.488  23.667  23.898  1.00  0.00     0.149 A 
BRANCH  11  13
ATOM     13  C   UNL A   1      32.071  21.343  25.309  1.00  0.00     0.275 C 
ATOM     14  O   UNL A   1      30.989  21.699  25.775  1.00  0.00    -0.267 OA
ATOM     15  N   UNL A   1      32.528  20.080  25.649  1.00  0.00    -0.305 N 
ATOM     16  H   UNL A   1      32.526  19.827  26.600  1.00  0.00     0.171 HD
BRANCH  15  17
ATOM     17  C   UNL A   1      32.990  19.149  24.723  1.00  0.00     0.132 A 
ATOM     18  C   UNL A   1      32.245  18.719  23.638  1.00  0.00     0.047 A 
ATOM     19  N   UNL A   1      34.227  18.697  25.001  1.00  0.00    -0.239 NA
ATOM     20  C   UNL A   1      32.784  17.704  22.843  1.00  0.00     0.005 A 
ATOM     21  C   UNL A   1      34.715  17.703  24.235  1.00  0.00     0.113 A 
ATOM     22  C   UNL A   1      34.030  17.166  23.162  1.00  0.00     0.020 A 
ENDBRANCH  15  17
ENDBRANCH  11  13
ENDBRANCH   4   7
ENDBRANCH   2   3
ENDBRANCH   1   2
BRANCH   1  23
ATOM     23  C   UNL A   1      39.126  20.317  25.886  1.00  0.00     0.118 C 
BRANCH  23  24
ATOM     24  N   UNL A   1      40.094  19.224  25.922  1.00  0.00    -0.352 N 
ATOM     25  C   UNL A   1      41.460  19.243  26.069  1.00  0.00     0.251 C 
ATOM     26  H   UNL A   1      39.702  18.326  25.826  1.00  0.00     0.163 HD
ATOM     27  O   UNL A   1      42.111  18.214  25.894  1.00  0.00    -0.269 OA
BRANCH  25  28
ATOM     28  C   UNL A   1      42.158  20.502  26.403  1.00  0.00     0.039 A 
ATOM     29  C   UNL A   1      42.687  21.289  25.377  1.00  0.00     0.014 A 
ATOM     30  C   UNL A   1      42.278  20.914  27.729  1.00  0.00     0.014 A 
ATOM     31  C   UNL A   1      43.241  22.537  25.677  1.00  0.00     0.010 A 
ATOM     32  C   UNL A   1      42.713  22.201  28.013  1.00  0.00     0.010 A 
ATOM     33  C   UNL A   1      43.206  23.026  26.991  1.00  0.00    -0.014 A 
BRANCH  33  34
ATOM     34  C   UNL A   1      43.689  24.383  27.348  1.00  0.00     0.031 A 
ATOM     35  C   UNL A   1      42.701  25.432  27.783  1.00  0.00     0.074 A 
ATOM     36  C   UNL A   1      44.987  24.704  27.174  1.00  0.00     0.049 A 
ATOM     37  N   UNL A   1      42.886  26.712  27.980  1.00  0.00    -0.248 NA
ATOM     38  C   UNL A   1      41.310  24.990  27.983  1.00  0.00     0.031 C 
ATOM     39  C   UNL A   1      46.038  23.791  26.719  1.00  0.00     0.029 A 
ATOM     40  N   UNL A   1      45.639  25.900  27.343  1.00  0.00    -0.354 N 
ATOM     41  C   UNL A   1      41.633  27.229  28.288  1.00  0.00     0.074 A 
ATOM     42  C   UNL A   1      40.689  26.138  28.199  1.00  0.00     0.031 C 
ATOM     43  C   UNL A   1      47.205  24.453  26.671  1.00  0.00     0.029 A 
ATOM     44  C   UNL A   1      46.977  25.846  27.038  1.00  0.00     0.049 A 
ATOM     45  H   UNL A   1      45.189  26.719  27.655  1.00  0.00     0.167 HD
ATOM     46  C   UNL A   1      41.301  28.493  28.638  1.00  0.00     0.031 A 
ATOM     47  C   UNL A   1      47.913  26.814  27.038  1.00  0.00     0.031 A 
ATOM     48  C   UNL A   1      42.246  29.569  28.753  1.00  0.00     0.049 A 
ATOM     49  C   UNL A   1      47.518  28.213  27.424  1.00  0.00     0.074 A 
ATOM     50  C   UNL A   1      42.023  30.872  29.164  1.00  0.00     0.029 A 
ATOM     51  N   UNL A   1      43.597  29.463  28.461  1.00  0.00    -0.354 N 
ATOM     52  N   UNL A   1      46.341  28.673  27.771  1.00  0.00    -0.248 NA
ATOM     53  C   UNL A   1      48.584  29.225  27.422  1.00  0.00     0.031 C 
ATOM     54  C   UNL A   1      43.232  31.568  29.071  1.00  0.00     0.029 A 
ATOM     55  C   UNL A   1      44.217  30.684  28.661  1.00  0.00     0.049 A 
ATOM     56  H   UNL A   1      44.048  28.643  28.157  1.00  0.00     0.167 HD
ATOM     57  C   UNL A   1      46.530  30.018  28.061  1.00  0.00     0.074 A 
ATOM     58  C   UNL A   1      47.936  30.297  27.860  1.00  0.00     0.031 C 
ATOM     59  C   UNL A   1      45.621  30.939  28.463  1.00  0.00     0.031 A 
BRANCH  46  60
ATOM     60  C   UNL A   1      39.850  28.777  28.915  1.00  0.00    -0.014 A 
ATOM     61  C   UNL A   1      39.297  28.573  30.190  1.00  0.00     0.009 A 
ATOM     62  C   UNL A   1      39.030  29.281  27.894  1.00  0.00     0.009 A 
ATOM     63  C   UNL A   1      37.944  28.827  30.424  1.00  0.00     0.001 A 
ATOM     64  C   UNL A   1      37.686  29.565  28.139  1.00  0.00     0.001 A 
ATOM     65  C   UNL A   1      37.141  29.327  29.400  1.00  0.00     0.000 A 
ENDBRANCH  46  60
BRANCH  47  66
ATOM     66  C   UNL A   1      49.319  26.494  26.674  1.00  0.00    -0.014 A 
ATOM     67  C   UNL A   1      49.766  26.659  25.353  1.00  0.00     0.009 A 
ATOM     68  C   UNL A   1      50.220  26.019  27.638  1.00  0.00     0.009 A 
ATOM     69  C   UNL A   1      51.076  26.328  25.001  1.00  0.00     0.001 A 
ATOM     70  C   UNL A   1      51.539  25.717  27.290  1.00  0.00     0.001 A 
ATOM     71  C   UNL A   1      51.963  25.862  25.969  1.00  0.00     0.000 A 
ENDBRANCH  47  66
BRANCH  59  72
ATOM     72  C   UNL A   1      46.123  32.323  28.758  1.00  0.00    -0.014 A 
ATOM     73  C   UNL A   1      46.609  32.669  30.028  1.00  0.00     0.009 A 
ATOM     74  C   UNL A   1      46.169  33.275  27.727  1.00  0.00     0.009 A 
ATOM     75  C   UNL A   1      47.108  33.951  30.263  1.00  0.00     0.001 A 
ATOM     76  C   UNL A   1      46.696  34.545  27.959  1.00  0.00     0.001 A 
ATOM     77  C   UNL A   1      47.157  34.886  29.228  1.00  0.00     0.000 A 
ENDBRANCH  59  72
ENDBRANCH  33  34
ENDBRANCH  25  28
ENDBRANCH  23  24
ENDBRANCH   1  23
TORSDOF 12
ENDMDL
