MODEL 1
REMARK VINA RESULT:     -10.9      0.000      0.000
REMARK SMILES O=C(Cc1csc(NC(=O)CS[C@@H]2CCS(=O)(=O)C2)n1)NCCCNC(=O)c1ccc(-c2c3nc(c(-c4ccccc4)c4ccc([nH]4)c(-c4ccccc4)c4nc(c(-c5ccccc5)c5ccc2[nH]5)C=C4)C=C3)cc1
REMARK SMILES IDX 1 1 2 2 21 3 3 5 4 6 5 7 20 8 6 9 7 10 8 11 9 12 10 14 11 15
REMARK SMILES IDX 12 16 13 17 14 18 19 19 15 20 16 21 17 22 18 23 22 24 23 25
REMARK SMILES IDX 24 26 25 27 26 28 27 30 28 31 29 32 75 33 30 34 74 35 31 36
REMARK SMILES IDX 32 37 33 38 68 39 34 40 73 41 67 42 69 43 35 44 72 45 66 46
REMARK SMILES IDX 65 47 36 49 58 50 43 51 57 52 44 53 47 54 56 55 70 56 45 57
REMARK SMILES IDX 46 58 55 60 71 61 48 62 37 63 38 64 42 65 39 66 41 67 40 68
REMARK SMILES IDX 59 69 60 70 64 71 61 72 63 73 62 74 49 75 50 76 54 77 51 78
REMARK SMILES IDX 53 79 52 80
REMARK H PARENT 21 4 8 13 25 29 69 48 47 59
REMARK Flexibility Score: inf
ROOT
ATOM      1  O   UNL A   1      28.792  30.891  23.670  1.00  0.00    -0.275 OA
ATOM      2  C   UNL A   1      29.760  30.151  23.527  1.00  0.00     0.226 C 
ATOM      3  N   UNL A   1      30.800  30.077  24.439  1.00  0.00    -0.356 N 
ATOM      4  H   UNL A   1      31.412  29.307  24.400  1.00  0.00     0.163 HD
ENDROOT
BRANCH   2   5
ATOM      5  C   UNL A   1      29.945  29.267  22.300  1.00  0.00     0.157 C 
BRANCH   5   6
ATOM      6  C   UNL A   1      30.282  27.848  22.671  1.00  0.00     0.063 A 
ATOM      7  C   UNL A   1      29.866  27.158  23.798  1.00  0.00     0.093 A 
ATOM      8  N   UNL A   1      31.081  27.088  21.817  1.00  0.00    -0.224 NA
ATOM      9  S   UNL A   1      30.181  25.499  23.598  1.00  0.00    -0.105 S 
ATOM     10  C   UNL A   1      31.239  25.881  22.316  1.00  0.00     0.189 A 
BRANCH  10  11
ATOM     11  N   UNL A   1      32.075  24.943  21.775  1.00  0.00    -0.301 N 
ATOM     12  C   UNL A   1      33.186  24.339  22.285  1.00  0.00     0.236 C 
ATOM     13  H   UNL A   1      31.833  24.654  20.865  1.00  0.00     0.172 HD
ATOM     14  O   UNL A   1      33.587  23.302  21.741  1.00  0.00    -0.274 OA
BRANCH  12  15
ATOM     15  C   UNL A   1      33.976  24.869  23.476  1.00  0.00     0.170 C 
BRANCH  15  16
ATOM     16  S   UNL A   1      33.421  24.247  25.103  1.00  0.00    -0.148 SA
BRANCH  16  17
ATOM     17  C   UNL A   1      34.483  22.811  25.505  1.00  0.00     0.063 C 
ATOM     18  C   UNL A   1      35.730  23.337  26.247  1.00  0.00     0.031 C 
ATOM     19  C   UNL A   1      34.975  21.863  24.415  1.00  0.00     0.151 C 
ATOM     20  C   UNL A   1      36.774  23.672  25.194  1.00  0.00     0.138 C 
ATOM     21  S   UNL A   1      36.639  22.361  24.003  1.00  0.00     0.151 S 
ATOM     22  O   UNL A   1      36.670  22.950  22.681  1.00  0.00    -0.229 OA
ATOM     23  O   UNL A   1      37.538  21.296  24.393  1.00  0.00    -0.229 OA
ENDBRANCH  16  17
ENDBRANCH  15  16
ENDBRANCH  12  15
ENDBRANCH  10  11
ENDBRANCH   5   6
ENDBRANCH   2   5
BRANCH   3  24
ATOM     24  C   UNL A   1      31.019  31.094  25.450  1.00  0.00     0.117 C 
BRANCH  24  25
ATOM     25  C   UNL A   1      31.787  30.572  26.651  1.00  0.00     0.042 C 
BRANCH  25  26
ATOM     26  C   UNL A   1      32.923  31.474  27.119  1.00  0.00     0.118 C 
BRANCH  26  27
ATOM     27  N   UNL A   1      32.502  32.830  27.447  1.00  0.00    -0.352 N 
ATOM     28  C   UNL A   1      33.122  33.766  28.245  1.00  0.00     0.251 C 
ATOM     29  H   UNL A   1      31.653  33.117  27.041  1.00  0.00     0.163 HD
ATOM     30  O   UNL A   1      32.560  34.826  28.501  1.00  0.00    -0.269 OA
BRANCH  28  31
ATOM     31  C   UNL A   1      34.452  33.477  28.826  1.00  0.00     0.039 A 
ATOM     32  C   UNL A   1      34.527  32.735  30.008  1.00  0.00     0.014 A 
ATOM     33  C   UNL A   1      35.621  33.906  28.194  1.00  0.00     0.014 A 
ATOM     34  C   UNL A   1      35.774  32.341  30.502  1.00  0.00     0.010 A 
ATOM     35  C   UNL A   1      36.856  33.444  28.640  1.00  0.00     0.010 A 
ATOM     36  C   UNL A   1      36.946  32.648  29.792  1.00  0.00    -0.014 A 
BRANCH  36  37
ATOM     37  C   UNL A   1      38.275  32.134  30.217  1.00  0.00     0.031 A 
ATOM     38  C   UNL A   1      38.790  30.829  29.674  1.00  0.00     0.074 A 
ATOM     39  C   UNL A   1      38.981  32.794  31.157  1.00  0.00     0.049 A 
ATOM     40  N   UNL A   1      39.865  30.163  30.007  1.00  0.00    -0.248 NA
ATOM     41  C   UNL A   1      37.974  30.174  28.638  1.00  0.00     0.031 C 
ATOM     42  C   UNL A   1      38.587  34.058  31.785  1.00  0.00     0.029 A 
ATOM     43  N   UNL A   1      40.175  32.484  31.761  1.00  0.00    -0.354 N 
ATOM     44  C   UNL A   1      39.846  29.006  29.239  1.00  0.00     0.074 A 
ATOM     45  C   UNL A   1      38.628  29.037  28.459  1.00  0.00     0.031 C 
ATOM     46  C   UNL A   1      39.529  34.423  32.668  1.00  0.00     0.029 A 
ATOM     47  C   UNL A   1      40.567  33.398  32.710  1.00  0.00     0.049 A 
ATOM     48  H   UNL A   1      40.701  31.683  31.536  1.00  0.00     0.167 HD
ATOM     49  C   UNL A   1      40.765  28.014  29.175  1.00  0.00     0.031 A 
ATOM     50  C   UNL A   1      41.629  33.402  33.539  1.00  0.00     0.031 A 
ATOM     51  C   UNL A   1      41.978  27.982  29.950  1.00  0.00     0.049 A 
ATOM     52  C   UNL A   1      42.612  32.264  33.484  1.00  0.00     0.074 A 
ATOM     53  C   UNL A   1      42.994  27.043  29.919  1.00  0.00     0.029 A 
ATOM     54  N   UNL A   1      42.333  28.926  30.901  1.00  0.00    -0.354 N 
ATOM     55  N   UNL A   1      42.609  31.208  32.707  1.00  0.00    -0.248 NA
ATOM     56  C   UNL A   1      43.747  32.322  34.417  1.00  0.00     0.031 C 
ATOM     57  C   UNL A   1      43.932  27.383  30.897  1.00  0.00     0.029 A 
ATOM     58  C   UNL A   1      43.538  28.574  31.486  1.00  0.00     0.049 A 
ATOM     59  H   UNL A   1      41.807  29.726  31.127  1.00  0.00     0.167 HD
ATOM     60  C   UNL A   1      43.758  30.497  33.031  1.00  0.00     0.074 A 
ATOM     61  C   UNL A   1      44.437  31.245  34.067  1.00  0.00     0.031 C 
ATOM     62  C   UNL A   1      44.210  29.330  32.511  1.00  0.00     0.031 A 
BRANCH  49  63
ATOM     63  C   UNL A   1      40.487  26.865  28.244  1.00  0.00    -0.014 A 
ATOM     64  C   UNL A   1      39.694  25.777  28.644  1.00  0.00     0.009 A 
ATOM     65  C   UNL A   1      40.991  26.890  26.935  1.00  0.00     0.009 A 
ATOM     66  C   UNL A   1      39.445  24.720  27.764  1.00  0.00     0.001 A 
ATOM     67  C   UNL A   1      40.713  25.850  26.047  1.00  0.00     0.001 A 
ATOM     68  C   UNL A   1      39.949  24.761  26.465  1.00  0.00     0.000 A 
ENDBRANCH  49  63
BRANCH  50  69
ATOM     69  C   UNL A   1      41.824  34.523  34.500  1.00  0.00    -0.014 A 
ATOM     70  C   UNL A   1      42.537  35.670  34.122  1.00  0.00     0.009 A 
ATOM     71  C   UNL A   1      41.309  34.445  35.803  1.00  0.00     0.009 A 
ATOM     72  C   UNL A   1      42.758  36.702  35.037  1.00  0.00     0.001 A 
ATOM     73  C   UNL A   1      41.501  35.494  36.706  1.00  0.00     0.001 A 
ATOM     74  C   UNL A   1      42.234  36.615  36.326  1.00  0.00     0.000 A 
ENDBRANCH  50  69
BRANCH  62  75
ATOM     75  C   UNL A   1      45.529  28.807  33.011  1.00  0.00    -0.014 A 
ATOM     76  C   UNL A   1      46.740  29.164  32.400  1.00  0.00     0.009 A 
ATOM     77  C   UNL A   1      45.559  27.999  34.159  1.00  0.00     0.009 A 
ATOM     78  C   UNL A   1      47.953  28.703  32.915  1.00  0.00     0.001 A 
ATOM     79  C   UNL A   1      46.774  27.566  34.691  1.00  0.00     0.001 A 
ATOM     80  C   UNL A   1      47.970  27.913  34.065  1.00  0.00     0.000 A 
ENDBRANCH  62  75
ENDBRANCH  36  37
ENDBRANCH  28  31
ENDBRANCH  26  27
ENDBRANCH  25  26
ENDBRANCH  24  25
ENDBRANCH   3  24
TORSDOF 15
ENDMDL
MODEL 2
REMARK VINA RESULT:     -10.6      3.739      8.945
REMARK SMILES O=C(Cc1csc(NC(=O)CS[C@@H]2CCS(=O)(=O)C2)n1)NCCCNC(=O)c1ccc(-c2c3nc(c(-c4ccccc4)c4ccc([nH]4)c(-c4ccccc4)c4nc(c(-c5ccccc5)c5ccc2[nH]5)C=C4)C=C3)cc1
REMARK SMILES IDX 1 1 2 2 21 3 3 5 4 6 5 7 20 8 6 9 7 10 8 11 9 12 10 14 11 15
REMARK SMILES IDX 12 16 13 17 14 18 19 19 15 20 16 21 17 22 18 23 22 24 23 25
REMARK SMILES IDX 24 26 25 27 26 28 27 30 28 31 29 32 75 33 30 34 74 35 31 36
REMARK SMILES IDX 32 37 33 38 68 39 34 40 73 41 67 42 69 43 35 44 72 45 66 46
REMARK SMILES IDX 65 47 36 49 58 50 43 51 57 52 44 53 47 54 56 55 70 56 45 57
REMARK SMILES IDX 46 58 55 60 71 61 48 62 37 63 38 64 42 65 39 66 41 67 40 68
REMARK SMILES IDX 59 69 60 70 64 71 61 72 63 73 62 74 49 75 50 76 54 77 51 78
REMARK SMILES IDX 53 79 52 80
REMARK H PARENT 21 4 8 13 25 29 69 48 47 59
REMARK Flexibility Score: inf
ROOT
ATOM      1  O   UNL A   1      37.124  23.904  25.955  1.00  0.00    -0.275 OA
ATOM      2  C   UNL A   1      36.778  23.204  25.009  1.00  0.00     0.226 C 
ATOM      3  N   UNL A   1      37.306  21.947  24.762  1.00  0.00    -0.356 N 
ATOM      4  H   UNL A   1      36.828  21.344  24.149  1.00  0.00     0.163 HD
ENDROOT
BRANCH   2   5
ATOM      5  C   UNL A   1      35.762  23.666  23.972  1.00  0.00     0.157 C 
BRANCH   5   6
ATOM      6  C   UNL A   1      34.421  23.012  24.164  1.00  0.00     0.063 A 
ATOM      7  C   UNL A   1      33.689  22.314  23.216  1.00  0.00     0.093 A 
ATOM      8  N   UNL A   1      33.806  23.062  25.414  1.00  0.00    -0.224 NA
ATOM      9  S   UNL A   1      32.442  21.450  23.983  1.00  0.00    -0.105 S 
ATOM     10  C   UNL A   1      32.658  22.418  25.370  1.00  0.00     0.189 A 
BRANCH  10  11
ATOM     11  N   UNL A   1      31.763  22.398  26.403  1.00  0.00    -0.301 N 
ATOM     12  C   UNL A   1      30.868  23.337  26.826  1.00  0.00     0.236 C 
ATOM     13  H   UNL A   1      31.762  21.566  26.930  1.00  0.00     0.172 HD
ATOM     14  O   UNL A   1      29.953  22.973  27.576  1.00  0.00    -0.274 OA
BRANCH  12  15
ATOM     15  C   UNL A   1      30.933  24.811  26.444  1.00  0.00     0.170 C 
BRANCH  15  16
ATOM     16  S   UNL A   1      30.737  25.151  24.659  1.00  0.00    -0.148 SA
BRANCH  16  17
ATOM     17  C   UNL A   1      31.721  26.652  24.299  1.00  0.00     0.063 C 
ATOM     18  C   UNL A   1      31.006  27.429  23.173  1.00  0.00     0.031 C 
ATOM     19  C   UNL A   1      33.195  26.556  23.914  1.00  0.00     0.151 C 
ATOM     20  C   UNL A   1      31.540  26.898  21.851  1.00  0.00     0.138 C 
ATOM     21  S   UNL A   1      33.277  26.666  22.135  1.00  0.00     0.151 S 
ATOM     22  O   UNL A   1      33.657  25.386  21.573  1.00  0.00    -0.229 OA
ATOM     23  O   UNL A   1      33.964  27.892  21.790  1.00  0.00    -0.229 OA
ENDBRANCH  16  17
ENDBRANCH  15  16
ENDBRANCH  12  15
ENDBRANCH  10  11
ENDBRANCH   5   6
ENDBRANCH   2   5
BRANCH   3  24
ATOM     24  C   UNL A   1      38.540  21.491  25.374  1.00  0.00     0.117 C 
BRANCH  24  25
ATOM     25  C   UNL A   1      38.738  19.991  25.244  1.00  0.00     0.042 C 
BRANCH  25  26
ATOM     26  C   UNL A   1      39.634  19.374  26.313  1.00  0.00     0.118 C 
BRANCH  26  27
ATOM     27  N   UNL A   1      40.931  18.935  25.814  1.00  0.00    -0.352 N 
ATOM     28  C   UNL A   1      42.121  19.624  25.755  1.00  0.00     0.251 C 
ATOM     29  H   UNL A   1      40.958  18.013  25.468  1.00  0.00     0.163 HD
ATOM     30  O   UNL A   1      43.092  19.127  25.194  1.00  0.00    -0.269 OA
BRANCH  28  31
ATOM     31  C   UNL A   1      42.218  20.981  26.337  1.00  0.00     0.039 A 
ATOM     32  C   UNL A   1      42.188  21.125  27.726  1.00  0.00     0.014 A 
ATOM     33  C   UNL A   1      42.371  22.103  25.520  1.00  0.00     0.014 A 
ATOM     34  C   UNL A   1      42.408  22.382  28.299  1.00  0.00     0.010 A 
ATOM     35  C   UNL A   1      42.673  23.337  26.091  1.00  0.00     0.010 A 
ATOM     36  C   UNL A   1      42.705  23.488  27.486  1.00  0.00    -0.014 A 
BRANCH  36  37
ATOM     37  C   UNL A   1      43.073  24.806  28.065  1.00  0.00     0.031 A 
ATOM     38  C   UNL A   1      42.011  25.837  28.336  1.00  0.00     0.074 A 
ATOM     39  C   UNL A   1      44.371  25.112  28.267  1.00  0.00     0.049 A 
ATOM     40  N   UNL A   1      42.145  27.078  28.729  1.00  0.00    -0.248 NA
ATOM     41  C   UNL A   1      40.616  25.426  28.109  1.00  0.00     0.031 C 
ATOM     42  C   UNL A   1      45.503  24.214  28.024  1.00  0.00     0.029 A 
ATOM     43  N   UNL A   1      44.958  26.272  28.710  1.00  0.00    -0.354 N 
ATOM     44  C   UNL A   1      40.859  27.600  28.779  1.00  0.00     0.074 A 
ATOM     45  C   UNL A   1      39.962  26.557  28.329  1.00  0.00     0.031 C 
ATOM     46  C   UNL A   1      46.642  24.849  28.339  1.00  0.00     0.029 A 
ATOM     47  C   UNL A   1      46.331  26.213  28.754  1.00  0.00     0.049 A 
ATOM     48  H   UNL A   1      44.445  27.071  28.970  1.00  0.00     0.167 HD
ATOM     49  C   UNL A   1      40.457  28.829  29.177  1.00  0.00     0.031 A 
ATOM     50  C   UNL A   1      47.241  27.156  29.071  1.00  0.00     0.031 A 
ATOM     51  C   UNL A   1      41.348  29.867  29.626  1.00  0.00     0.049 A 
ATOM     52  C   UNL A   1      46.771  28.530  29.464  1.00  0.00     0.074 A 
ATOM     53  C   UNL A   1      41.031  31.130  30.096  1.00  0.00     0.029 A 
ATOM     54  N   UNL A   1      42.730  29.766  29.652  1.00  0.00    -0.354 N 
ATOM     55  N   UNL A   1      45.547  28.987  29.564  1.00  0.00    -0.248 NA
ATOM     56  C   UNL A   1      47.810  29.516  29.793  1.00  0.00     0.031 C 
ATOM     57  C   UNL A   1      42.222  31.815  30.344  1.00  0.00     0.029 A 
ATOM     58  C   UNL A   1      43.281  30.955  30.100  1.00  0.00     0.049 A 
ATOM     59  H   UNL A   1      43.243  28.968  29.391  1.00  0.00     0.167 HD
ATOM     60  C   UNL A   1      45.667  30.300  30.003  1.00  0.00     0.074 A 
ATOM     61  C   UNL A   1      47.082  30.563  30.158  1.00  0.00     0.031 C 
ATOM     62  C   UNL A   1      44.690  31.204  30.259  1.00  0.00     0.031 A 
BRANCH  49  63
ATOM     63  C   UNL A   1      38.983  29.130  29.130  1.00  0.00    -0.014 A 
ATOM     64  C   UNL A   1      38.170  28.976  30.265  1.00  0.00     0.009 A 
ATOM     65  C   UNL A   1      38.407  29.612  27.945  1.00  0.00     0.009 A 
ATOM     66  C   UNL A   1      36.804  29.261  30.202  1.00  0.00     0.001 A 
ATOM     67  C   UNL A   1      37.049  29.930  27.894  1.00  0.00     0.001 A 
ATOM     68  C   UNL A   1      36.247  29.745  29.018  1.00  0.00     0.000 A 
ENDBRANCH  49  63
BRANCH  50  69
ATOM     69  C   UNL A   1      48.694  26.836  29.029  1.00  0.00    -0.014 A 
ATOM     70  C   UNL A   1      49.433  27.029  27.853  1.00  0.00     0.009 A 
ATOM     71  C   UNL A   1      49.346  26.323  30.161  1.00  0.00     0.009 A 
ATOM     72  C   UNL A   1      50.787  26.687  27.801  1.00  0.00     0.001 A 
ATOM     73  C   UNL A   1      50.708  26.014  30.117  1.00  0.00     0.001 A 
ATOM     74  C   UNL A   1      51.423  26.186  28.935  1.00  0.00     0.000 A 
ENDBRANCH  50  69
BRANCH  62  75
ATOM     75  C   UNL A   1      45.105  32.550  30.784  1.00  0.00    -0.014 A 
ATOM     76  C   UNL A   1      45.338  33.635  29.925  1.00  0.00     0.009 A 
ATOM     77  C   UNL A   1      45.195  32.751  32.171  1.00  0.00     0.009 A 
ATOM     78  C   UNL A   1      45.675  34.886  30.445  1.00  0.00     0.001 A 
ATOM     79  C   UNL A   1      45.501  34.010  32.689  1.00  0.00     0.001 A 
ATOM     80  C   UNL A   1      45.747  35.075  31.825  1.00  0.00     0.000 A 
ENDBRANCH  62  75
ENDBRANCH  36  37
ENDBRANCH  28  31
ENDBRANCH  26  27
ENDBRANCH  25  26
ENDBRANCH  24  25
ENDBRANCH   3  24
TORSDOF 15
ENDMDL
MODEL 3
REMARK VINA RESULT:     -10.6      3.029      7.036
REMARK SMILES O=C(Cc1csc(NC(=O)CS[C@@H]2CCS(=O)(=O)C2)n1)NCCCNC(=O)c1ccc(-c2c3nc(c(-c4ccccc4)c4ccc([nH]4)c(-c4ccccc4)c4nc(c(-c5ccccc5)c5ccc2[nH]5)C=C4)C=C3)cc1
REMARK SMILES IDX 1 1 2 2 21 3 3 5 4 6 5 7 20 8 6 9 7 10 8 11 9 12 10 14 11 15
REMARK SMILES IDX 12 16 13 17 14 18 19 19 15 20 16 21 17 22 18 23 22 24 23 25
REMARK SMILES IDX 24 26 25 27 26 28 27 30 28 31 29 32 75 33 30 34 74 35 31 36
REMARK SMILES IDX 32 37 33 38 68 39 34 40 73 41 67 42 69 43 35 44 72 45 66 46
REMARK SMILES IDX 65 47 36 49 58 50 43 51 57 52 44 53 47 54 56 55 70 56 45 57
REMARK SMILES IDX 46 58 55 60 71 61 48 62 37 63 38 64 42 65 39 66 41 67 40 68
REMARK SMILES IDX 59 69 60 70 64 71 61 72 63 73 62 74 49 75 50 76 54 77 51 78
REMARK SMILES IDX 53 79 52 80
REMARK H PARENT 21 4 8 13 25 29 69 48 47 59
REMARK Flexibility Score: inf
ROOT
ATOM      1  O   UNL A   1      29.950  30.873  24.345  1.00  0.00    -0.275 OA
ATOM      2  C   UNL A   1      30.365  29.747  24.090  1.00  0.00     0.226 C 
ATOM      3  N   UNL A   1      31.487  29.198  24.688  1.00  0.00    -0.356 N 
ATOM      4  H   UNL A   1      31.627  28.225  24.631  1.00  0.00     0.163 HD
ENDROOT
BRANCH   2   5
ATOM      5  C   UNL A   1      29.716  28.850  23.044  1.00  0.00     0.157 C 
BRANCH   5   6
ATOM      6  C   UNL A   1      30.129  27.411  23.198  1.00  0.00     0.063 A 
ATOM      7  C   UNL A   1      30.841  26.645  22.290  1.00  0.00     0.093 A 
ATOM      8  N   UNL A   1      29.806  26.727  24.369  1.00  0.00    -0.224 NA
ATOM      9  S   UNL A   1      31.389  25.225  23.048  1.00  0.00    -0.105 S 
ATOM     10  C   UNL A   1      30.271  25.497  24.307  1.00  0.00     0.189 A 
BRANCH  10  11
ATOM     11  N   UNL A   1      30.007  24.540  25.248  1.00  0.00    -0.301 N 
ATOM     12  C   UNL A   1      30.732  24.126  26.326  1.00  0.00     0.236 C 
ATOM     13  H   UNL A   1      29.149  24.073  25.128  1.00  0.00     0.172 HD
ATOM     14  O   UNL A   1      30.151  23.476  27.204  1.00  0.00    -0.274 OA
BRANCH  12  15
ATOM     15  C   UNL A   1      32.220  24.401  26.511  1.00  0.00     0.170 C 
BRANCH  15  16
ATOM     16  S   UNL A   1      33.289  22.921  26.438  1.00  0.00    -0.148 SA
BRANCH  16  17
ATOM     17  C   UNL A   1      33.788  22.720  24.687  1.00  0.00     0.063 C 
ATOM     18  C   UNL A   1      34.474  21.344  24.545  1.00  0.00     0.031 C 
ATOM     19  C   UNL A   1      34.686  23.744  24.000  1.00  0.00     0.151 C 
ATOM     20  C   UNL A   1      35.954  21.548  24.827  1.00  0.00     0.138 C 
ATOM     21  S   UNL A   1      36.347  23.092  24.042  1.00  0.00     0.151 S 
ATOM     22  O   UNL A   1      37.164  23.865  24.954  1.00  0.00    -0.229 OA
ATOM     23  O   UNL A   1      36.759  22.820  22.681  1.00  0.00    -0.229 OA
ENDBRANCH  16  17
ENDBRANCH  15  16
ENDBRANCH  12  15
ENDBRANCH  10  11
ENDBRANCH   5   6
ENDBRANCH   2   5
BRANCH   3  24
ATOM     24  C   UNL A   1      32.461  30.006  25.397  1.00  0.00     0.117 C 
BRANCH  24  25
ATOM     25  C   UNL A   1      32.508  29.698  26.883  1.00  0.00     0.042 C 
BRANCH  25  26
ATOM     26  C   UNL A   1      33.882  29.865  27.523  1.00  0.00     0.118 C 
BRANCH  26  27
ATOM     27  N   UNL A   1      33.976  31.001  28.431  1.00  0.00    -0.352 N 
ATOM     28  C   UNL A   1      35.013  31.373  29.256  1.00  0.00     0.251 C 
ATOM     29  H   UNL A   1      33.184  31.585  28.458  1.00  0.00     0.163 HD
ATOM     30  O   UNL A   1      34.870  32.305  30.041  1.00  0.00    -0.269 OA
BRANCH  28  31
ATOM     31  C   UNL A   1      36.288  30.624  29.223  1.00  0.00     0.039 A 
ATOM     32  C   UNL A   1      37.026  30.595  28.037  1.00  0.00     0.014 A 
ATOM     33  C   UNL A   1      36.773  29.980  30.364  1.00  0.00     0.014 A 
ATOM     34  C   UNL A   1      38.293  30.004  28.021  1.00  0.00     0.010 A 
ATOM     35  C   UNL A   1      38.067  29.466  30.369  1.00  0.00     0.010 A 
ATOM     36  C   UNL A   1      38.845  29.482  29.201  1.00  0.00    -0.014 A 
BRANCH  36  37
ATOM     37  C   UNL A   1      40.238  28.966  29.251  1.00  0.00     0.031 A 
ATOM     38  C   UNL A   1      41.374  29.887  29.609  1.00  0.00     0.074 A 
ATOM     39  C   UNL A   1      40.497  27.693  28.889  1.00  0.00     0.049 A 
ATOM     40  N   UNL A   1      42.661  29.654  29.595  1.00  0.00    -0.248 NA
ATOM     41  C   UNL A   1      41.014  31.256  30.010  1.00  0.00     0.031 C 
ATOM     42  C   UNL A   1      39.493  26.701  28.497  1.00  0.00     0.029 A 
ATOM     43  N   UNL A   1      41.689  27.019  28.779  1.00  0.00    -0.354 N 
ATOM     44  C   UNL A   1      43.264  30.849  29.966  1.00  0.00     0.074 A 
ATOM     45  C   UNL A   1      42.206  31.818  30.150  1.00  0.00     0.031 C 
ATOM     46  C   UNL A   1      40.108  25.543  28.209  1.00  0.00     0.029 A 
ATOM     47  C   UNL A   1      41.550  25.723  28.343  1.00  0.00     0.049 A 
ATOM     48  H   UNL A   1      42.559  27.424  28.991  1.00  0.00     0.167 HD
ATOM     49  C   UNL A   1      44.579  31.114  30.152  1.00  0.00     0.031 A 
ATOM     50  C   UNL A   1      42.478  24.787  28.060  1.00  0.00     0.031 A 
ATOM     51  C   UNL A   1      45.633  30.151  29.970  1.00  0.00     0.049 A 
ATOM     52  C   UNL A   1      43.935  25.121  28.228  1.00  0.00     0.074 A 
ATOM     53  C   UNL A   1      46.991  30.313  30.181  1.00  0.00     0.029 A 
ATOM     54  N   UNL A   1      45.449  28.852  29.525  1.00  0.00    -0.354 N 
ATOM     55  N   UNL A   1      44.484  26.238  28.639  1.00  0.00    -0.248 NA
ATOM     56  C   UNL A   1      44.900  24.062  27.898  1.00  0.00     0.031 C 
ATOM     57  C   UNL A   1      47.635  29.132  29.801  1.00  0.00     0.029 A 
ATOM     58  C   UNL A   1      46.672  28.210  29.425  1.00  0.00     0.049 A 
ATOM     59  H   UNL A   1      44.578  28.446  29.312  1.00  0.00     0.167 HD
ATOM     60  C   UNL A   1      45.854  26.004  28.652  1.00  0.00     0.074 A 
ATOM     61  C   UNL A   1      46.051  24.638  28.217  1.00  0.00     0.031 C 
ATOM     62  C   UNL A   1      46.857  26.848  28.999  1.00  0.00     0.031 A 
BRANCH  49  63
ATOM     63  C   UNL A   1      44.957  32.513  30.559  1.00  0.00    -0.014 A 
ATOM     64  C   UNL A   1      45.247  33.499  29.602  1.00  0.00     0.009 A 
ATOM     65  C   UNL A   1      44.983  32.860  31.919  1.00  0.00     0.009 A 
ATOM     66  C   UNL A   1      45.593  34.793  30.000  1.00  0.00     0.001 A 
ATOM     67  C   UNL A   1      45.297  34.162  32.313  1.00  0.00     0.001 A 
ATOM     68  C   UNL A   1      45.611  35.124  31.355  1.00  0.00     0.000 A 
ENDBRANCH  49  63
BRANCH  50  69
ATOM     69  C   UNL A   1      42.061  23.439  27.585  1.00  0.00    -0.014 A 
ATOM     70  C   UNL A   1      42.045  23.140  26.215  1.00  0.00     0.009 A 
ATOM     71  C   UNL A   1      41.663  22.450  28.498  1.00  0.00     0.009 A 
ATOM     72  C   UNL A   1      41.611  21.889  25.766  1.00  0.00     0.001 A 
ATOM     73  C   UNL A   1      41.262  21.189  28.050  1.00  0.00     0.001 A 
ATOM     74  C   UNL A   1      41.225  20.914  26.685  1.00  0.00     0.000 A 
ENDBRANCH  50  69
BRANCH  62  75
ATOM     75  C   UNL A   1      48.260  26.309  28.977  1.00  0.00    -0.014 A 
ATOM     76  C   UNL A   1      48.844  25.731  30.114  1.00  0.00     0.009 A 
ATOM     77  C   UNL A   1      48.984  26.318  27.773  1.00  0.00     0.009 A 
ATOM     78  C   UNL A   1      50.131  25.195  30.051  1.00  0.00     0.001 A 
ATOM     79  C   UNL A   1      50.257  25.753  27.705  1.00  0.00     0.001 A 
ATOM     80  C   UNL A   1      50.833  25.197  28.846  1.00  0.00     0.000 A 
ENDBRANCH  62  75
ENDBRANCH  36  37
ENDBRANCH  28  31
ENDBRANCH  26  27
ENDBRANCH  25  26
ENDBRANCH  24  25
ENDBRANCH   3  24
TORSDOF 15
ENDMDL
