MODEL 1
REMARK VINA RESULT:     -11.9      0.000      0.000
REMARK SMILES O=C(NCCCNC(=O)c1c(C2CC2)nn(-c2ccc(Cl)c(F)c2)c1Cl)c1ccc(-c2c3nc(c(-c4ccccc4)c4ccc([nH]4)c(-c4ccccc4)c4nc(c(-c5ccccc5)c5ccc2[nH]5)C=C4)C=C3)cc1
REMARK SMILES IDX 4 1 3 2 1 3 2 4 27 6 28 7 74 8 29 9 73 10 30 11 31 12 32 13
REMARK SMILES IDX 67 14 33 15 72 16 66 17 68 18 34 19 71 20 65 21 64 22 35 24
REMARK SMILES IDX 57 25 42 26 56 27 43 28 46 29 55 30 69 31 44 32 45 33 54 35
REMARK SMILES IDX 70 36 47 37 36 38 37 39 41 40 38 41 40 42 39 43 58 44 59 45
REMARK SMILES IDX 63 46 60 47 62 48 61 49 48 50 49 51 53 52 50 53 52 54 51 55
REMARK SMILES IDX 5 56 6 57 7 58 8 59 9 61 10 62 11 63 25 64 15 65 16 66 26 67
REMARK SMILES IDX 12 68 13 69 14 70 17 71 18 72 24 73 19 74 22 75 20 76 23 77
REMARK SMILES IDX 21 78
REMARK H PARENT 3 5 68 23 46 34 7 60
REMARK Flexibility Score: inf
ROOT
ATOM      1  C   UNL A   1      34.107  30.381  27.312  1.00  0.00     0.118 C 
ENDROOT
BRANCH   1   2
ATOM      2  N   UNL A   1      34.274  31.347  28.380  1.00  0.00    -0.352 N 
ATOM      3  O   UNL A   1      35.124  32.733  29.871  1.00  0.00    -0.269 OA
ATOM      4  C   UNL A   1      35.304  31.712  29.202  1.00  0.00     0.251 C 
ATOM      5  H   UNL A   1      33.453  31.860  28.556  1.00  0.00     0.163 HD
BRANCH   4   6
ATOM      6  C   UNL A   1      36.572  30.954  29.393  1.00  0.00     0.039 A 
ATOM      7  C   UNL A   1      37.845  31.386  29.025  1.00  0.00     0.014 A 
ATOM      8  C   UNL A   1      36.444  29.671  29.962  1.00  0.00     0.014 A 
ATOM      9  C   UNL A   1      38.944  30.534  29.130  1.00  0.00     0.010 A 
ATOM     10  C   UNL A   1      37.542  28.825  30.097  1.00  0.00     0.010 A 
ATOM     11  C   UNL A   1      38.790  29.246  29.647  1.00  0.00    -0.014 A 
BRANCH  11  12
ATOM     12  C   UNL A   1      39.986  28.419  29.805  1.00  0.00     0.031 A 
ATOM     13  C   UNL A   1      40.590  28.388  31.168  1.00  0.00     0.074 A 
ATOM     14  C   UNL A   1      40.447  27.577  28.860  1.00  0.00     0.049 A 
ATOM     15  N   UNL A   1      41.804  28.667  31.519  1.00  0.00    -0.248 NA
ATOM     16  C   UNL A   1      39.708  28.025  32.288  1.00  0.00     0.031 C 
ATOM     17  C   UNL A   1      39.803  27.217  27.596  1.00  0.00     0.029 A 
ATOM     18  N   UNL A   1      41.544  26.761  28.900  1.00  0.00    -0.354 N 
ATOM     19  C   UNL A   1      41.893  28.357  32.875  1.00  0.00     0.074 A 
ATOM     20  C   UNL A   1      40.552  28.071  33.318  1.00  0.00     0.031 C 
ATOM     21  C   UNL A   1      40.389  26.102  27.105  1.00  0.00     0.029 A 
ATOM     22  C   UNL A   1      41.518  25.750  27.951  1.00  0.00     0.049 A 
ATOM     23  H   UNL A   1      42.281  26.880  29.541  1.00  0.00     0.167 HD
ATOM     24  C   UNL A   1      43.086  28.152  33.501  1.00  0.00     0.031 A 
ATOM     25  C   UNL A   1      42.317  24.658  27.898  1.00  0.00     0.031 A 
ATOM     26  C   UNL A   1      44.196  28.699  32.771  1.00  0.00     0.049 A 
ATOM     27  C   UNL A   1      43.512  24.905  28.732  1.00  0.00     0.074 A 
ATOM     28  C   UNL A   1      44.553  29.947  32.304  1.00  0.00     0.029 A 
ATOM     29  N   UNL A   1      45.049  27.816  32.153  1.00  0.00    -0.354 N 
ATOM     30  N   UNL A   1      44.465  25.733  28.418  1.00  0.00    -0.248 NA
ATOM     31  C   UNL A   1      43.502  24.461  30.118  1.00  0.00     0.031 C 
ATOM     32  C   UNL A   1      45.267  29.703  31.094  1.00  0.00     0.029 A 
ATOM     33  C   UNL A   1      45.313  28.320  30.910  1.00  0.00     0.049 A 
ATOM     34  H   UNL A   1      45.402  26.980  32.534  1.00  0.00     0.167 HD
ATOM     35  C   UNL A   1      44.905  26.239  29.630  1.00  0.00     0.074 A 
ATOM     36  C   UNL A   1      44.380  25.322  30.636  1.00  0.00     0.031 C 
ATOM     37  C   UNL A   1      45.409  27.506  29.721  1.00  0.00     0.031 A 
BRANCH  24  38
ATOM     38  C   UNL A   1      43.287  27.102  34.574  1.00  0.00    -0.014 A 
ATOM     39  C   UNL A   1      43.274  25.743  34.202  1.00  0.00     0.009 A 
ATOM     40  C   UNL A   1      43.175  27.378  35.950  1.00  0.00     0.009 A 
ATOM     41  C   UNL A   1      43.053  24.729  35.143  1.00  0.00     0.001 A 
ATOM     42  C   UNL A   1      43.006  26.365  36.898  1.00  0.00     0.001 A 
ATOM     43  C   UNL A   1      42.908  25.043  36.490  1.00  0.00     0.000 A 
ENDBRANCH  24  38
BRANCH  25  44
ATOM     44  C   UNL A   1      42.019  23.323  27.338  1.00  0.00    -0.014 A 
ATOM     45  C   UNL A   1      42.796  22.789  26.299  1.00  0.00     0.009 A 
ATOM     46  C   UNL A   1      41.116  22.464  27.990  1.00  0.00     0.009 A 
ATOM     47  C   UNL A   1      42.691  21.437  25.945  1.00  0.00     0.001 A 
ATOM     48  C   UNL A   1      41.002  21.118  27.630  1.00  0.00     0.001 A 
ATOM     49  C   UNL A   1      41.802  20.602  26.616  1.00  0.00     0.000 A 
ENDBRANCH  25  44
BRANCH  37  50
ATOM     50  C   UNL A   1      45.780  28.218  28.447  1.00  0.00    -0.014 A 
ATOM     51  C   UNL A   1      44.885  29.052  27.755  1.00  0.00     0.009 A 
ATOM     52  C   UNL A   1      47.111  28.158  28.009  1.00  0.00     0.009 A 
ATOM     53  C   UNL A   1      45.301  29.772  26.632  1.00  0.00     0.001 A 
ATOM     54  C   UNL A   1      47.533  28.896  26.902  1.00  0.00     0.001 A 
ATOM     55  C   UNL A   1      46.627  29.696  26.209  1.00  0.00     0.000 A 
ENDBRANCH  37  50
ENDBRANCH  11  12
ENDBRANCH   4   6
ENDBRANCH   1   2
BRANCH   1  56
ATOM     56  C   UNL A   1      32.753  29.674  27.274  1.00  0.00     0.042 C 
BRANCH  56  57
ATOM     57  C   UNL A   1      32.811  28.153  27.331  1.00  0.00     0.118 C 
BRANCH  57  58
ATOM     58  N   UNL A   1      31.524  27.515  27.101  1.00  0.00    -0.352 N 
ATOM     59  C   UNL A   1      31.213  26.415  26.331  1.00  0.00     0.256 C 
ATOM     60  H   UNL A   1      30.762  27.929  27.566  1.00  0.00     0.163 HD
ATOM     61  O   UNL A   1      30.057  26.008  26.326  1.00  0.00    -0.269 OA
BRANCH  59  62
ATOM     62  C   UNL A   1      32.273  25.788  25.580  1.00  0.00     0.100 A 
ATOM     63  C   UNL A   1      32.979  26.194  24.421  1.00  0.00     0.080 A 
ATOM     64  C   UNL A   1      32.819  24.554  25.864  1.00  0.00     0.145 A 
ATOM     65  N   UNL A   1      34.039  25.410  24.179  1.00  0.00    -0.170 NA
ATOM     66  N   UNL A   1      33.939  24.401  25.078  1.00  0.00    -0.221 N 
ATOM     67  Cl  UNL A   1      32.406  23.452  27.108  1.00  0.00    -0.061 Cl
BRANCH  63  68
ATOM     68  C   UNL A   1      32.745  27.377  23.485  1.00  0.00     0.041 C 
ATOM     69  C   UNL A   1      33.532  28.661  23.615  1.00  0.00     0.011 C 
ATOM     70  C   UNL A   1      33.773  27.763  22.449  1.00  0.00     0.011 C 
ENDBRANCH  63  68
BRANCH  66  71
ATOM     71  C   UNL A   1      35.004  23.476  25.216  1.00  0.00     0.069 A 
ATOM     72  C   UNL A   1      34.804  22.155  24.784  1.00  0.00     0.030 A 
ATOM     73  C   UNL A   1      36.253  23.875  25.699  1.00  0.00     0.069 A 
ATOM     74  C   UNL A   1      35.880  21.261  24.757  1.00  0.00     0.026 A 
ATOM     75  C   UNL A   1      37.306  22.966  25.699  1.00  0.00     0.143 A 
ATOM     76  C   UNL A   1      37.134  21.671  25.209  1.00  0.00     0.076 A 
ATOM     77  F   UNL A   1      38.497  23.366  26.169  1.00  0.00    -0.205 F 
ATOM     78  Cl  UNL A   1      38.459  20.576  25.143  1.00  0.00    -0.081 Cl
ENDBRANCH  66  71
ENDBRANCH  59  62
ENDBRANCH  57  58
ENDBRANCH  56  57
ENDBRANCH   1  56
TORSDOF 12
ENDMDL
MODEL 2
REMARK VINA RESULT:     -11.4      3.250      8.124
REMARK SMILES O=C(NCCCNC(=O)c1c(C2CC2)nn(-c2ccc(Cl)c(F)c2)c1Cl)c1ccc(-c2c3nc(c(-c4ccccc4)c4ccc([nH]4)c(-c4ccccc4)c4nc(c(-c5ccccc5)c5ccc2[nH]5)C=C4)C=C3)cc1
REMARK SMILES IDX 4 1 3 2 1 3 2 4 27 6 28 7 74 8 29 9 73 10 30 11 31 12 32 13
REMARK SMILES IDX 67 14 33 15 72 16 66 17 68 18 34 19 71 20 65 21 64 22 35 24
REMARK SMILES IDX 57 25 42 26 56 27 43 28 46 29 55 30 69 31 44 32 45 33 54 35
REMARK SMILES IDX 70 36 47 37 36 38 37 39 41 40 38 41 40 42 39 43 58 44 59 45
REMARK SMILES IDX 63 46 60 47 62 48 61 49 48 50 49 51 53 52 50 53 52 54 51 55
REMARK SMILES IDX 5 56 6 57 7 58 8 59 9 61 10 62 11 63 25 64 15 65 16 66 26 67
REMARK SMILES IDX 12 68 13 69 14 70 17 71 18 72 24 73 19 74 22 75 20 76 23 77
REMARK SMILES IDX 21 78
REMARK H PARENT 3 5 68 23 46 34 7 60
REMARK Flexibility Score: inf
ROOT
ATOM      1  C   UNL A   1      38.251  22.300  26.033  1.00  0.00     0.118 C 
ENDROOT
BRANCH   1   2
ATOM      2  N   UNL A   1      39.661  21.999  25.875  1.00  0.00    -0.352 N 
ATOM      3  O   UNL A   1      41.848  21.893  26.138  1.00  0.00    -0.269 OA
ATOM      4  C   UNL A   1      40.826  22.559  26.320  1.00  0.00     0.251 C 
ATOM      5  H   UNL A   1      39.815  21.205  25.315  1.00  0.00     0.163 HD
BRANCH   4   6
ATOM      6  C   UNL A   1      40.959  23.908  26.937  1.00  0.00     0.039 A 
ATOM      7  C   UNL A   1      41.739  24.225  28.048  1.00  0.00     0.014 A 
ATOM      8  C   UNL A   1      40.187  24.933  26.354  1.00  0.00     0.014 A 
ATOM      9  C   UNL A   1      41.682  25.495  28.620  1.00  0.00     0.010 A 
ATOM     10  C   UNL A   1      40.147  26.212  26.903  1.00  0.00     0.010 A 
ATOM     11  C   UNL A   1      40.870  26.483  28.061  1.00  0.00    -0.014 A 
BRANCH  11  12
ATOM     12  C   UNL A   1      40.902  27.819  28.654  1.00  0.00     0.031 A 
ATOM     13  C   UNL A   1      41.943  28.748  28.130  1.00  0.00     0.074 A 
ATOM     14  C   UNL A   1      39.959  28.291  29.493  1.00  0.00     0.049 A 
ATOM     15  N   UNL A   1      42.856  29.391  28.787  1.00  0.00    -0.248 NA
ATOM     16  C   UNL A   1      41.985  28.962  26.675  1.00  0.00     0.031 C 
ATOM     17  C   UNL A   1      38.690  27.657  29.856  1.00  0.00     0.029 A 
ATOM     18  N   UNL A   1      39.886  29.514  30.101  1.00  0.00    -0.354 N 
ATOM     19  C   UNL A   1      43.485  30.220  27.859  1.00  0.00     0.074 A 
ATOM     20  C   UNL A   1      42.984  29.837  26.562  1.00  0.00     0.031 C 
ATOM     21  C   UNL A   1      37.883  28.580  30.423  1.00  0.00     0.029 A 
ATOM     22  C   UNL A   1      38.620  29.825  30.572  1.00  0.00     0.049 A 
ATOM     23  H   UNL A   1      40.659  30.116  30.194  1.00  0.00     0.167 HD
ATOM     24  C   UNL A   1      44.219  31.307  28.229  1.00  0.00     0.031 A 
ATOM     25  C   UNL A   1      38.177  31.035  30.989  1.00  0.00     0.031 A 
ATOM     26  C   UNL A   1      44.630  31.254  29.605  1.00  0.00     0.049 A 
ATOM     27  C   UNL A   1      39.346  31.888  31.292  1.00  0.00     0.074 A 
ATOM     28  C   UNL A   1      45.360  30.381  30.386  1.00  0.00     0.029 A 
ATOM     29  N   UNL A   1      44.019  32.113  30.486  1.00  0.00    -0.354 N 
ATOM     30  N   UNL A   1      40.130  31.717  32.316  1.00  0.00    -0.248 NA
ATOM     31  C   UNL A   1      39.858  32.767  30.253  1.00  0.00     0.031 C 
ATOM     32  C   UNL A   1      44.777  30.465  31.685  1.00  0.00     0.029 A 
ATOM     33  C   UNL A   1      43.740  31.396  31.615  1.00  0.00     0.049 A 
ATOM     34  H   UNL A   1      43.821  33.065  30.332  1.00  0.00     0.167 HD
ATOM     35  C   UNL A   1      41.381  32.110  31.870  1.00  0.00     0.074 A 
ATOM     36  C   UNL A   1      41.127  32.873  30.653  1.00  0.00     0.031 C 
ATOM     37  C   UNL A   1      42.517  31.538  32.371  1.00  0.00     0.031 A 
BRANCH  24  38
ATOM     38  C   UNL A   1      44.219  32.608  27.455  1.00  0.00    -0.014 A 
ATOM     39  C   UNL A   1      43.621  33.743  28.037  1.00  0.00     0.009 A 
ATOM     40  C   UNL A   1      44.496  32.681  26.076  1.00  0.00     0.009 A 
ATOM     41  C   UNL A   1      43.227  34.841  27.262  1.00  0.00     0.001 A 
ATOM     42  C   UNL A   1      44.150  33.797  25.309  1.00  0.00     0.001 A 
ATOM     43  C   UNL A   1      43.483  34.862  25.895  1.00  0.00     0.000 A 
ENDBRANCH  24  38
BRANCH  25  44
ATOM     44  C   UNL A   1      36.803  31.579  30.947  1.00  0.00    -0.014 A 
ATOM     45  C   UNL A   1      36.132  31.929  32.128  1.00  0.00     0.009 A 
ATOM     46  C   UNL A   1      36.237  31.986  29.726  1.00  0.00     0.009 A 
ATOM     47  C   UNL A   1      34.951  32.682  32.087  1.00  0.00     0.001 A 
ATOM     48  C   UNL A   1      35.053  32.727  29.682  1.00  0.00     0.001 A 
ATOM     49  C   UNL A   1      34.418  33.087  30.865  1.00  0.00     0.000 A 
ENDBRANCH  25  44
BRANCH  37  50
ATOM     50  C   UNL A   1      42.407  30.721  33.631  1.00  0.00    -0.014 A 
ATOM     51  C   UNL A   1      42.551  31.278  34.913  1.00  0.00     0.009 A 
ATOM     52  C   UNL A   1      42.006  29.380  33.526  1.00  0.00     0.009 A 
ATOM     53  C   UNL A   1      42.341  30.503  36.057  1.00  0.00     0.001 A 
ATOM     54  C   UNL A   1      41.773  28.613  34.669  1.00  0.00     0.001 A 
ATOM     55  C   UNL A   1      41.948  29.172  35.934  1.00  0.00     0.000 A 
ENDBRANCH  37  50
ENDBRANCH  11  12
ENDBRANCH   4   6
ENDBRANCH   1   2
BRANCH   1  56
ATOM     56  C   UNL A   1      37.393  22.092  24.785  1.00  0.00     0.042 C 
BRANCH  56  57
ATOM     57  C   UNL A   1      36.585  23.304  24.342  1.00  0.00     0.118 C 
BRANCH  57  58
ATOM     58  N   UNL A   1      35.661  23.018  23.255  1.00  0.00    -0.352 N 
ATOM     59  C   UNL A   1      34.371  23.460  23.058  1.00  0.00     0.256 C 
ATOM     60  H   UNL A   1      36.011  22.421  22.554  1.00  0.00     0.163 HD
ATOM     61  O   UNL A   1      33.788  23.138  22.029  1.00  0.00    -0.269 OA
BRANCH  59  62
ATOM     62  C   UNL A   1      33.777  24.297  24.072  1.00  0.00     0.100 A 
ATOM     63  C   UNL A   1      33.338  24.021  25.389  1.00  0.00     0.080 A 
ATOM     64  C   UNL A   1      33.473  25.634  23.914  1.00  0.00     0.145 A 
ATOM     65  N   UNL A   1      33.046  25.140  26.066  1.00  0.00    -0.170 NA
ATOM     66  N   UNL A   1      33.136  26.135  25.151  1.00  0.00    -0.221 N 
ATOM     67  Cl  UNL A   1      33.678  26.631  22.536  1.00  0.00    -0.061 Cl
BRANCH  63  68
ATOM     68  C   UNL A   1      33.211  22.693  26.130  1.00  0.00     0.041 C 
ATOM     69  C   UNL A   1      34.298  22.190  27.053  1.00  0.00     0.011 C 
ATOM     70  C   UNL A   1      33.001  22.653  27.625  1.00  0.00     0.011 C 
ENDBRANCH  63  68
BRANCH  66  71
ATOM     71  C   UNL A   1      33.057  27.486  25.572  1.00  0.00     0.069 A 
ATOM     72  C   UNL A   1      31.951  28.251  25.166  1.00  0.00     0.030 A 
ATOM     73  C   UNL A   1      34.011  28.034  26.433  1.00  0.00     0.069 A 
ATOM     74  C   UNL A   1      31.760  29.532  25.693  1.00  0.00     0.026 A 
ATOM     75  C   UNL A   1      33.827  29.324  26.923  1.00  0.00     0.143 A 
ATOM     76  C   UNL A   1      32.698  30.065  26.578  1.00  0.00     0.076 A 
ATOM     77  F   UNL A   1      34.755  29.833  27.746  1.00  0.00    -0.205 F 
ATOM     78  Cl  UNL A   1      32.439  31.630  27.246  1.00  0.00    -0.081 Cl
ENDBRANCH  66  71
ENDBRANCH  59  62
ENDBRANCH  57  58
ENDBRANCH  56  57
ENDBRANCH   1  56
TORSDOF 12
ENDMDL
MODEL 3
REMARK VINA RESULT:     -11.2      1.886      5.945
REMARK SMILES O=C(NCCCNC(=O)c1c(C2CC2)nn(-c2ccc(Cl)c(F)c2)c1Cl)c1ccc(-c2c3nc(c(-c4ccccc4)c4ccc([nH]4)c(-c4ccccc4)c4nc(c(-c5ccccc5)c5ccc2[nH]5)C=C4)C=C3)cc1
REMARK SMILES IDX 4 1 3 2 1 3 2 4 27 6 28 7 74 8 29 9 73 10 30 11 31 12 32 13
REMARK SMILES IDX 67 14 33 15 72 16 66 17 68 18 34 19 71 20 65 21 64 22 35 24
REMARK SMILES IDX 57 25 42 26 56 27 43 28 46 29 55 30 69 31 44 32 45 33 54 35
REMARK SMILES IDX 70 36 47 37 36 38 37 39 41 40 38 41 40 42 39 43 58 44 59 45
REMARK SMILES IDX 63 46 60 47 62 48 61 49 48 50 49 51 53 52 50 53 52 54 51 55
REMARK SMILES IDX 5 56 6 57 7 58 8 59 9 61 10 62 11 63 25 64 15 65 16 66 26 67
REMARK SMILES IDX 12 68 13 69 14 70 17 71 18 72 24 73 19 74 22 75 20 76 23 77
REMARK SMILES IDX 21 78
REMARK H PARENT 3 5 68 23 46 34 7 60
REMARK Flexibility Score: inf
ROOT
ATOM      1  C   UNL A   1      34.681  28.822  26.775  1.00  0.00     0.118 C 
ENDROOT
BRANCH   1   2
ATOM      2  N   UNL A   1      34.819  29.664  27.947  1.00  0.00    -0.352 N 
ATOM      3  O   UNL A   1      35.616  30.960  29.545  1.00  0.00    -0.269 OA
ATOM      4  C   UNL A   1      35.863  30.061  28.736  1.00  0.00     0.251 C 
ATOM      5  H   UNL A   1      33.959  30.038  28.245  1.00  0.00     0.163 HD
BRANCH   4   6
ATOM      6  C   UNL A   1      37.226  29.461  28.737  1.00  0.00     0.039 A 
ATOM      7  C   UNL A   1      37.771  28.675  29.751  1.00  0.00     0.014 A 
ATOM      8  C   UNL A   1      38.034  29.763  27.623  1.00  0.00     0.014 A 
ATOM      9  C   UNL A   1      39.107  28.278  29.704  1.00  0.00     0.010 A 
ATOM     10  C   UNL A   1      39.361  29.347  27.555  1.00  0.00     0.010 A 
ATOM     11  C   UNL A   1      39.909  28.632  28.617  1.00  0.00    -0.014 A 
BRANCH  11  12
ATOM     12  C   UNL A   1      41.282  28.130  28.581  1.00  0.00     0.031 A 
ATOM     13  C   UNL A   1      41.498  26.855  27.838  1.00  0.00     0.074 A 
ATOM     14  C   UNL A   1      42.349  28.828  29.017  1.00  0.00     0.049 A 
ATOM     15  N   UNL A   1      42.037  25.757  28.261  1.00  0.00    -0.248 NA
ATOM     16  C   UNL A   1      41.019  26.795  26.449  1.00  0.00     0.031 C 
ATOM     17  C   UNL A   1      42.380  30.223  29.461  1.00  0.00     0.029 A 
ATOM     18  N   UNL A   1      43.666  28.462  29.029  1.00  0.00    -0.354 N 
ATOM     19  C   UNL A   1      42.122  24.918  27.151  1.00  0.00     0.074 A 
ATOM     20  C   UNL A   1      41.385  25.564  26.093  1.00  0.00     0.031 C 
ATOM     21  C   UNL A   1      43.663  30.650  29.477  1.00  0.00     0.029 A 
ATOM     22  C   UNL A   1      44.538  29.531  29.166  1.00  0.00     0.049 A 
ATOM     23  H   UNL A   1      43.967  27.528  28.948  1.00  0.00     0.167 HD
ATOM     24  C   UNL A   1      42.964  23.847  27.105  1.00  0.00     0.031 A 
ATOM     25  C   UNL A   1      45.878  29.524  28.969  1.00  0.00     0.031 A 
ATOM     26  C   UNL A   1      43.399  23.430  28.410  1.00  0.00     0.049 A 
ATOM     27  C   UNL A   1      46.356  28.126  29.016  1.00  0.00     0.074 A 
ATOM     28  C   UNL A   1      42.781  23.010  29.570  1.00  0.00     0.029 A 
ATOM     29  N   UNL A   1      44.703  23.683  28.758  1.00  0.00    -0.354 N 
ATOM     30  N   UNL A   1      46.417  27.410  30.100  1.00  0.00    -0.248 NA
ATOM     31  C   UNL A   1      46.470  27.384  27.770  1.00  0.00     0.031 C 
ATOM     32  C   UNL A   1      43.611  23.485  30.628  1.00  0.00     0.029 A 
ATOM     33  C   UNL A   1      44.690  24.148  30.043  1.00  0.00     0.049 A 
ATOM     34  H   UNL A   1      45.496  23.554  28.189  1.00  0.00     0.167 HD
ATOM     35  C   UNL A   1      46.152  26.116  29.683  1.00  0.00     0.074 A 
ATOM     36  C   UNL A   1      46.333  26.140  28.235  1.00  0.00     0.031 C 
ATOM     37  C   UNL A   1      45.533  25.223  30.513  1.00  0.00     0.031 A 
BRANCH  24  38
ATOM     38  C   UNL A   1      43.711  23.435  25.855  1.00  0.00    -0.014 A 
ATOM     39  C   UNL A   1      43.662  22.086  25.451  1.00  0.00     0.009 A 
ATOM     40  C   UNL A   1      44.699  24.235  25.251  1.00  0.00     0.009 A 
ATOM     41  C   UNL A   1      44.613  21.549  24.575  1.00  0.00     0.001 A 
ATOM     42  C   UNL A   1      45.618  23.715  24.336  1.00  0.00     0.001 A 
ATOM     43  C   UNL A   1      45.599  22.363  24.026  1.00  0.00     0.000 A 
ENDBRANCH  24  38
BRANCH  25  44
ATOM     44  C   UNL A   1      46.752  30.634  28.533  1.00  0.00    -0.014 A 
ATOM     45  C   UNL A   1      47.948  30.915  29.209  1.00  0.00     0.009 A 
ATOM     46  C   UNL A   1      46.532  31.268  27.297  1.00  0.00     0.009 A 
ATOM     47  C   UNL A   1      48.901  31.780  28.655  1.00  0.00     0.001 A 
ATOM     48  C   UNL A   1      47.477  32.140  26.747  1.00  0.00     0.001 A 
ATOM     49  C   UNL A   1      48.668  32.384  27.421  1.00  0.00     0.000 A 
ENDBRANCH  25  44
BRANCH  37  50
ATOM     50  C   UNL A   1      45.441  25.559  31.978  1.00  0.00    -0.014 A 
ATOM     51  C   UNL A   1      44.317  26.182  32.546  1.00  0.00     0.009 A 
ATOM     52  C   UNL A   1      46.458  25.107  32.833  1.00  0.00     0.009 A 
ATOM     53  C   UNL A   1      44.232  26.383  33.925  1.00  0.00     0.001 A 
ATOM     54  C   UNL A   1      46.362  25.287  34.214  1.00  0.00     0.001 A 
ATOM     55  C   UNL A   1      45.254  25.932  34.759  1.00  0.00     0.000 A 
ENDBRANCH  37  50
ENDBRANCH  11  12
ENDBRANCH   4   6
ENDBRANCH   1   2
BRANCH   1  56
ATOM     56  C   UNL A   1      33.464  27.898  26.772  1.00  0.00     0.042 C 
BRANCH  56  57
ATOM     57  C   UNL A   1      32.625  27.930  25.502  1.00  0.00     0.118 C 
BRANCH  57  58
ATOM     58  N   UNL A   1      31.529  26.974  25.507  1.00  0.00    -0.352 N 
ATOM     59  C   UNL A   1      31.523  25.640  25.158  1.00  0.00     0.256 C 
ATOM     60  H   UNL A   1      30.662  27.332  25.805  1.00  0.00     0.163 HD
ATOM     61  O   UNL A   1      30.487  25.000  25.295  1.00  0.00    -0.269 OA
BRANCH  59  62
ATOM     62  C   UNL A   1      32.747  25.061  24.662  1.00  0.00     0.100 A 
ATOM     63  C   UNL A   1      33.479  25.275  23.469  1.00  0.00     0.080 A 
ATOM     64  C   UNL A   1      33.476  24.083  25.306  1.00  0.00     0.145 A 
ATOM     65  N   UNL A   1      34.682  24.684  23.505  1.00  0.00    -0.170 NA
ATOM     66  N   UNL A   1      34.677  23.953  24.645  1.00  0.00    -0.221 N 
ATOM     67  Cl  UNL A   1      33.147  23.294  26.790  1.00  0.00    -0.061 Cl
BRANCH  63  68
ATOM     68  C   UNL A   1      33.130  26.093  22.228  1.00  0.00     0.041 C 
ATOM     69  C   UNL A   1      32.696  25.435  20.937  1.00  0.00     0.011 C 
ATOM     70  C   UNL A   1      31.704  26.201  21.744  1.00  0.00     0.011 C 
ENDBRANCH  63  68
BRANCH  66  71
ATOM     71  C   UNL A   1      35.872  23.332  25.086  1.00  0.00     0.069 A 
ATOM     72  C   UNL A   1      36.214  22.080  24.547  1.00  0.00     0.030 A 
ATOM     73  C   UNL A   1      36.737  23.972  25.977  1.00  0.00     0.069 A 
ATOM     74  C   UNL A   1      37.460  21.515  24.837  1.00  0.00     0.026 A 
ATOM     75  C   UNL A   1      37.959  23.382  26.284  1.00  0.00     0.143 A 
ATOM     76  C   UNL A   1      38.336  22.172  25.702  1.00  0.00     0.076 A 
ATOM     77  F   UNL A   1      38.775  24.011  27.144  1.00  0.00    -0.205 F 
ATOM     78  Cl  UNL A   1      39.879  21.485  26.029  1.00  0.00    -0.081 Cl
ENDBRANCH  66  71
ENDBRANCH  59  62
ENDBRANCH  57  58
ENDBRANCH  56  57
ENDBRANCH   1  56
TORSDOF 12
ENDMDL
