MODEL 1
REMARK VINA RESULT:     -10.6      0.000      0.000
REMARK SMILES CC[C@@H](COC)NC(=O)NC[C@@H]1CC[C@H](C(=O)NCCCNC(=O)c2ccc(-c3c4nc(c(-c5ccccc5)c5ccc([nH]5)c(-c5ccccc5)c5nc(c(-c6ccccc6)c6ccc3[nH]6)C=C5)C=C4)cc2)O1
REMARK SMILES IDX 16 1 17 2 18 3 15 5 12 6 13 7 73 8 14 9 11 10 10 11 7 12
REMARK SMILES IDX 8 13 9 15 3 17 2 18 1 19 4 20 5 21 6 22 19 23 20 24 21 25
REMARK SMILES IDX 22 26 23 27 24 29 25 30 26 31 72 32 27 33 71 34 28 35 29 36
REMARK SMILES IDX 30 37 65 38 31 39 70 40 64 41 66 42 32 43 69 44 63 45 62 46
REMARK SMILES IDX 33 48 55 49 40 50 54 51 41 52 44 53 53 54 67 55 42 56 43 57
REMARK SMILES IDX 52 59 68 60 45 61 34 62 35 63 39 64 36 65 38 66 37 67 56 68
REMARK SMILES IDX 57 69 61 70 58 71 60 72 59 73 46 74 47 75 51 76 48 77 50 78
REMARK SMILES IDX 49 79
REMARK H PARENT 18 4 7 14 10 16 22 28 66 47 44 58
REMARK Flexibility Score: inf
ROOT
ATOM      1  C   UNL A   1      31.242  25.382  26.317  1.00  0.00     0.249 C 
ATOM      2  O   UNL A   1      30.643  24.435  26.830  1.00  0.00    -0.272 OA
ATOM      3  N   UNL A   1      30.903  26.652  26.698  1.00  0.00    -0.354 N 
ATOM      4  H   UNL A   1      30.095  26.751  27.252  1.00  0.00     0.163 HD
ENDROOT
BRANCH   1   5
ATOM      5  C   UNL A   1      32.338  25.159  25.256  1.00  0.00     0.207 C 
ATOM      6  C   UNL A   1      33.579  23.420  24.344  1.00  0.00     0.138 C 
ATOM      7  C   UNL A   1      34.504  24.074  25.365  1.00  0.00     0.037 C 
ATOM      8  O   UNL A   1      32.251  23.857  24.663  1.00  0.00    -0.363 OA
ATOM      9  C   UNL A   1      33.762  25.334  25.782  1.00  0.00     0.045 C 
BRANCH   6  10
ATOM     10  C   UNL A   1      33.638  21.884  24.218  1.00  0.00     0.149 C 
BRANCH  10  11
ATOM     11  N   UNL A   1      34.891  21.263  24.629  1.00  0.00    -0.336 N 
ATOM     12  N   UNL A   1      34.598  18.920  24.881  1.00  0.00    -0.333 N 
ATOM     13  C   UNL A   1      35.343  20.027  24.852  1.00  0.00     0.315 C 
ATOM     14  H   UNL A   1      35.138  18.117  25.064  1.00  0.00     0.165 HD
ATOM     15  O   UNL A   1      36.551  19.926  25.087  1.00  0.00    -0.249 OA
ATOM     16  H   UNL A   1      35.592  21.936  24.784  1.00  0.00     0.165 HD
BRANCH  12  17
ATOM     17  C   UNL A   1      33.175  18.602  24.707  1.00  0.00     0.109 C 
BRANCH  17  18
ATOM     18  C   UNL A   1      32.956  18.079  23.282  1.00  0.00     0.024 C 
ATOM     19  C   UNL A   1      34.000  17.061  22.850  1.00  0.00     0.006 C 
ENDBRANCH  17  18
BRANCH  17  20
ATOM     20  C   UNL A   1      32.668  17.624  25.804  1.00  0.00     0.184 C 
BRANCH  20  21
ATOM     21  O   UNL A   1      32.038  16.449  25.286  1.00  0.00    -0.383 OA
ATOM     22  C   UNL A   1      32.548  15.237  25.829  1.00  0.00     0.194 C 
ENDBRANCH  20  21
ENDBRANCH  17  20
ENDBRANCH  12  17
ENDBRANCH  10  11
ENDBRANCH   6  10
ENDBRANCH   1   5
BRANCH   3  23
ATOM     23  C   UNL A   1      31.620  27.860  26.364  1.00  0.00     0.117 C 
BRANCH  23  24
ATOM     24  C   UNL A   1      32.451  28.439  27.478  1.00  0.00     0.042 C 
BRANCH  24  25
ATOM     25  C   UNL A   1      33.537  29.365  26.965  1.00  0.00     0.118 C 
BRANCH  25  26
ATOM     26  N   UNL A   1      33.657  30.617  27.716  1.00  0.00    -0.352 N 
ATOM     27  C   UNL A   1      34.653  31.060  28.556  1.00  0.00     0.251 C 
ATOM     28  H   UNL A   1      32.904  31.240  27.602  1.00  0.00     0.163 HD
ATOM     29  O   UNL A   1      34.499  32.065  29.244  1.00  0.00    -0.269 OA
BRANCH  27  30
ATOM     30  C   UNL A   1      35.925  30.312  28.617  1.00  0.00     0.039 A 
ATOM     31  C   UNL A   1      36.803  30.326  27.532  1.00  0.00     0.014 A 
ATOM     32  C   UNL A   1      36.264  29.628  29.784  1.00  0.00     0.014 A 
ATOM     33  C   UNL A   1      38.069  29.752  27.668  1.00  0.00     0.010 A 
ATOM     34  C   UNL A   1      37.565  29.192  29.967  1.00  0.00     0.010 A 
ATOM     35  C   UNL A   1      38.483  29.241  28.910  1.00  0.00    -0.014 A 
BRANCH  35  36
ATOM     36  C   UNL A   1      39.863  28.753  29.152  1.00  0.00     0.031 A 
ATOM     37  C   UNL A   1      40.897  29.688  29.722  1.00  0.00     0.074 A 
ATOM     38  C   UNL A   1      40.216  27.516  28.748  1.00  0.00     0.049 A 
ATOM     39  N   UNL A   1      42.184  29.507  29.872  1.00  0.00    -0.248 NA
ATOM     40  C   UNL A   1      40.430  31.025  30.132  1.00  0.00     0.031 C 
ATOM     41  C   UNL A   1      39.326  26.535  28.123  1.00  0.00     0.029 A 
ATOM     42  N   UNL A   1      41.431  26.877  28.792  1.00  0.00    -0.354 N 
ATOM     43  C   UNL A   1      42.679  30.711  30.357  1.00  0.00     0.074 A 
ATOM     44  C   UNL A   1      41.570  31.635  30.416  1.00  0.00     0.031 C 
ATOM     45  C   UNL A   1      40.013  25.409  27.876  1.00  0.00     0.029 A 
ATOM     46  C   UNL A   1      41.401  25.604  28.277  1.00  0.00     0.049 A 
ATOM     47  H   UNL A   1      42.245  27.293  29.158  1.00  0.00     0.167 HD
ATOM     48  C   UNL A   1      43.939  31.015  30.745  1.00  0.00     0.031 A 
ATOM     49  C   UNL A   1      42.386  24.697  28.135  1.00  0.00     0.031 A 
ATOM     50  C   UNL A   1      45.033  30.084  30.716  1.00  0.00     0.049 A 
ATOM     51  C   UNL A   1      43.775  25.053  28.586  1.00  0.00     0.074 A 
ATOM     52  C   UNL A   1      46.331  30.266  31.158  1.00  0.00     0.029 A 
ATOM     53  N   UNL A   1      44.952  28.792  30.220  1.00  0.00    -0.354 N 
ATOM     54  N   UNL A   1      44.212  26.171  29.113  1.00  0.00    -0.248 NA
ATOM     55  C   UNL A   1      44.805  24.016  28.432  1.00  0.00     0.031 C 
ATOM     56  C   UNL A   1      47.050  29.097  30.885  1.00  0.00     0.029 A 
ATOM     57  C   UNL A   1      46.185  28.171  30.325  1.00  0.00     0.049 A 
ATOM     58  H   UNL A   1      44.139  28.379  29.848  1.00  0.00     0.167 HD
ATOM     59  C   UNL A   1      45.558  25.964  29.378  1.00  0.00     0.074 A 
ATOM     60  C   UNL A   1      45.862  24.608  28.969  1.00  0.00     0.031 C 
ATOM     61  C   UNL A   1      46.464  26.820  29.914  1.00  0.00     0.031 A 
BRANCH  48  62
ATOM     62  C   UNL A   1      44.194  32.412  31.239  1.00  0.00    -0.014 A 
ATOM     63  C   UNL A   1      44.106  32.732  32.604  1.00  0.00     0.009 A 
ATOM     64  C   UNL A   1      44.547  33.422  30.330  1.00  0.00     0.009 A 
ATOM     65  C   UNL A   1      44.323  34.039  33.043  1.00  0.00     0.001 A 
ATOM     66  C   UNL A   1      44.797  34.722  30.776  1.00  0.00     0.001 A 
ATOM     67  C   UNL A   1      44.674  35.031  32.129  1.00  0.00     0.000 A 
ENDBRANCH  48  62
BRANCH  49  68
ATOM     68  C   UNL A   1      42.092  23.357  27.561  1.00  0.00    -0.014 A 
ATOM     69  C   UNL A   1      42.369  23.088  26.212  1.00  0.00     0.009 A 
ATOM     70  C   UNL A   1      41.535  22.342  28.354  1.00  0.00     0.009 A 
ATOM     71  C   UNL A   1      42.068  21.841  25.661  1.00  0.00     0.001 A 
ATOM     72  C   UNL A   1      41.263  21.085  27.807  1.00  0.00     0.001 A 
ATOM     73  C   UNL A   1      41.520  20.838  26.461  1.00  0.00     0.000 A 
ENDBRANCH  49  68
BRANCH  61  74
ATOM     74  C   UNL A   1      47.857  26.301  30.122  1.00  0.00    -0.014 A 
ATOM     75  C   UNL A   1      48.811  26.341  29.094  1.00  0.00     0.009 A 
ATOM     76  C   UNL A   1      48.232  25.811  31.383  1.00  0.00     0.009 A 
ATOM     77  C   UNL A   1      50.106  25.872  29.317  1.00  0.00     0.001 A 
ATOM     78  C   UNL A   1      49.535  25.371  31.612  1.00  0.00     0.001 A 
ATOM     79  C   UNL A   1      50.469  25.393  30.577  1.00  0.00     0.000 A 
ENDBRANCH  61  74
ENDBRANCH  35  36
ENDBRANCH  27  30
ENDBRANCH  25  26
ENDBRANCH  24  25
ENDBRANCH  23  24
ENDBRANCH   3  23
TORSDOF 16
ENDMDL
MODEL 2
REMARK VINA RESULT:     -10.6      2.056      7.799
REMARK SMILES CC[C@@H](COC)NC(=O)NC[C@@H]1CC[C@H](C(=O)NCCCNC(=O)c2ccc(-c3c4nc(c(-c5ccccc5)c5ccc([nH]5)c(-c5ccccc5)c5nc(c(-c6ccccc6)c6ccc3[nH]6)C=C5)C=C4)cc2)O1
REMARK SMILES IDX 16 1 17 2 18 3 15 5 12 6 13 7 73 8 14 9 11 10 10 11 7 12
REMARK SMILES IDX 8 13 9 15 3 17 2 18 1 19 4 20 5 21 6 22 19 23 20 24 21 25
REMARK SMILES IDX 22 26 23 27 24 29 25 30 26 31 72 32 27 33 71 34 28 35 29 36
REMARK SMILES IDX 30 37 65 38 31 39 70 40 64 41 66 42 32 43 69 44 63 45 62 46
REMARK SMILES IDX 33 48 55 49 40 50 54 51 41 52 44 53 53 54 67 55 42 56 43 57
REMARK SMILES IDX 52 59 68 60 45 61 34 62 35 63 39 64 36 65 38 66 37 67 56 68
REMARK SMILES IDX 57 69 61 70 58 71 60 72 59 73 46 74 47 75 51 76 48 77 50 78
REMARK SMILES IDX 49 79
REMARK H PARENT 18 4 7 14 10 16 22 28 66 47 44 58
REMARK Flexibility Score: inf
ROOT
ATOM      1  C   UNL A   1      35.370  21.537  25.984  1.00  0.00     0.249 C 
ATOM      2  O   UNL A   1      34.853  21.570  27.103  1.00  0.00    -0.272 OA
ATOM      3  N   UNL A   1      36.734  21.605  25.895  1.00  0.00    -0.354 N 
ATOM      4  H   UNL A   1      37.225  21.828  26.719  1.00  0.00     0.163 HD
ENDROOT
BRANCH   1   5
ATOM      5  C   UNL A   1      34.515  21.439  24.706  1.00  0.00     0.207 C 
ATOM      6  C   UNL A   1      32.444  22.132  23.914  1.00  0.00     0.138 C 
ATOM      7  C   UNL A   1      32.244  20.679  24.329  1.00  0.00     0.037 C 
ATOM      8  O   UNL A   1      33.650  22.572  24.552  1.00  0.00    -0.363 OA
ATOM      9  C   UNL A   1      33.649  20.183  24.628  1.00  0.00     0.045 C 
BRANCH   6  10
ATOM     10  C   UNL A   1      31.287  23.113  24.191  1.00  0.00     0.149 C 
BRANCH  10  11
ATOM     11  N   UNL A   1      30.651  22.989  25.497  1.00  0.00    -0.336 N 
ATOM     12  N   UNL A   1      30.806  25.041  26.680  1.00  0.00    -0.333 N 
ATOM     13  C   UNL A   1      30.377  23.786  26.531  1.00  0.00     0.315 C 
ATOM     14  H   UNL A   1      30.485  25.444  27.519  1.00  0.00     0.165 HD
ATOM     15  O   UNL A   1      29.697  23.289  27.434  1.00  0.00    -0.249 OA
ATOM     16  H   UNL A   1      30.341  22.069  25.660  1.00  0.00     0.165 HD
BRANCH  12  17
ATOM     17  C   UNL A   1      31.638  25.970  25.905  1.00  0.00     0.109 C 
BRANCH  17  18
ATOM     18  C   UNL A   1      31.161  27.403  26.173  1.00  0.00     0.024 C 
ATOM     19  C   UNL A   1      31.737  27.997  27.450  1.00  0.00     0.006 C 
ENDBRANCH  17  18
BRANCH  17  20
ATOM     20  C   UNL A   1      33.152  25.764  26.194  1.00  0.00     0.184 C 
BRANCH  20  21
ATOM     21  O   UNL A   1      33.954  25.630  25.018  1.00  0.00    -0.383 OA
ATOM     22  C   UNL A   1      33.638  26.569  23.998  1.00  0.00     0.194 C 
ENDBRANCH  20  21
ENDBRANCH  17  20
ENDBRANCH  12  17
ENDBRANCH  10  11
ENDBRANCH   6  10
ENDBRANCH   1   5
BRANCH   3  23
ATOM     23  C   UNL A   1      37.521  21.380  24.706  1.00  0.00     0.117 C 
BRANCH  23  24
ATOM     24  C   UNL A   1      38.187  20.033  24.625  1.00  0.00     0.042 C 
BRANCH  24  25
ATOM     25  C   UNL A   1      38.790  19.607  25.950  1.00  0.00     0.118 C 
BRANCH  25  26
ATOM     26  N   UNL A   1      40.098  18.959  25.829  1.00  0.00    -0.352 N 
ATOM     27  C   UNL A   1      41.364  19.470  26.000  1.00  0.00     0.251 C 
ATOM     28  H   UNL A   1      40.066  18.006  25.586  1.00  0.00     0.163 HD
ATOM     29  O   UNL A   1      42.356  18.822  25.680  1.00  0.00    -0.269 OA
BRANCH  27  30
ATOM     30  C   UNL A   1      41.521  20.818  26.584  1.00  0.00     0.039 A 
ATOM     31  C   UNL A   1      41.664  20.974  27.964  1.00  0.00     0.014 A 
ATOM     32  C   UNL A   1      41.570  21.930  25.745  1.00  0.00     0.014 A 
ATOM     33  C   UNL A   1      41.975  22.233  28.482  1.00  0.00     0.010 A 
ATOM     34  C   UNL A   1      42.020  23.141  26.240  1.00  0.00     0.010 A 
ATOM     35  C   UNL A   1      42.222  23.312  27.616  1.00  0.00    -0.014 A 
BRANCH  35  36
ATOM     36  C   UNL A   1      42.697  24.632  28.099  1.00  0.00     0.031 A 
ATOM     37  C   UNL A   1      41.702  25.725  28.387  1.00  0.00     0.074 A 
ATOM     38  C   UNL A   1      44.020  24.886  28.159  1.00  0.00     0.049 A 
ATOM     39  N   UNL A   1      41.915  26.983  28.675  1.00  0.00    -0.248 NA
ATOM     40  C   UNL A   1      40.276  25.366  28.293  1.00  0.00     0.031 C 
ATOM     41  C   UNL A   1      45.088  23.934  27.843  1.00  0.00     0.029 A 
ATOM     42  N   UNL A   1      44.693  26.035  28.495  1.00  0.00    -0.354 N 
ATOM     43  C   UNL A   1      40.657  27.567  28.758  1.00  0.00     0.074 A 
ATOM     44  C   UNL A   1      39.690  26.545  28.429  1.00  0.00     0.031 C 
ATOM     45  C   UNL A   1      46.278  24.525  28.036  1.00  0.00     0.029 A 
ATOM     46  C   UNL A   1      46.060  25.909  28.438  1.00  0.00     0.049 A 
ATOM     47  H   UNL A   1      44.238  26.869  28.753  1.00  0.00     0.167 HD
ATOM     48  C   UNL A   1      40.332  28.834  29.103  1.00  0.00     0.031 A 
ATOM     49  C   UNL A   1      47.030  26.811  28.675  1.00  0.00     0.031 A 
ATOM     50  C   UNL A   1      41.294  29.839  29.462  1.00  0.00     0.049 A 
ATOM     51  C   UNL A   1      46.643  28.209  29.071  1.00  0.00     0.074 A 
ATOM     52  C   UNL A   1      41.067  31.131  29.901  1.00  0.00     0.029 A 
ATOM     53  N   UNL A   1      42.668  29.660  29.425  1.00  0.00    -0.354 N 
ATOM     54  N   UNL A   1      45.448  28.726  29.218  1.00  0.00    -0.248 NA
ATOM     55  C   UNL A   1      47.743  29.146  29.343  1.00  0.00     0.031 C 
ATOM     56  C   UNL A   1      42.308  31.750  30.086  1.00  0.00     0.029 A 
ATOM     57  C   UNL A   1      43.304  30.826  29.814  1.00  0.00     0.049 A 
ATOM     58  H   UNL A   1      43.123  28.827  29.161  1.00  0.00     0.167 HD
ATOM     59  C   UNL A   1      45.649  30.037  29.627  1.00  0.00     0.074 A 
ATOM     60  C   UNL A   1      47.082  30.232  29.719  1.00  0.00     0.031 C 
ATOM     61  C   UNL A   1      44.731  30.996  29.901  1.00  0.00     0.031 A 
BRANCH  48  62
ATOM     62  C   UNL A   1      38.872  29.196  29.113  1.00  0.00    -0.014 A 
ATOM     63  C   UNL A   1      38.226  29.657  27.954  1.00  0.00     0.009 A 
ATOM     64  C   UNL A   1      38.124  29.056  30.293  1.00  0.00     0.009 A 
ATOM     65  C   UNL A   1      36.876  30.010  27.986  1.00  0.00     0.001 A 
ATOM     66  C   UNL A   1      36.766  29.378  30.314  1.00  0.00     0.001 A 
ATOM     67  C   UNL A   1      36.146  29.866  29.164  1.00  0.00     0.000 A 
ENDBRANCH  48  62
BRANCH  49  68
ATOM     68  C   UNL A   1      48.460  26.419  28.567  1.00  0.00    -0.014 A 
ATOM     69  C   UNL A   1      49.144  25.922  29.687  1.00  0.00     0.009 A 
ATOM     70  C   UNL A   1      49.148  26.536  27.350  1.00  0.00     0.009 A 
ATOM     71  C   UNL A   1      50.495  25.579  29.599  1.00  0.00     0.001 A 
ATOM     72  C   UNL A   1      50.492  26.164  27.257  1.00  0.00     0.001 A 
ATOM     73  C   UNL A   1      51.166  25.696  28.382  1.00  0.00     0.000 A 
ENDBRANCH  49  68
BRANCH  61  74
ATOM     74  C   UNL A   1      45.247  32.327  30.364  1.00  0.00    -0.014 A 
ATOM     75  C   UNL A   1      45.500  32.580  31.721  1.00  0.00     0.009 A 
ATOM     76  C   UNL A   1      45.532  33.326  29.419  1.00  0.00     0.009 A 
ATOM     77  C   UNL A   1      45.999  33.819  32.125  1.00  0.00     0.001 A 
ATOM     78  C   UNL A   1      46.059  34.552  29.823  1.00  0.00     0.001 A 
ATOM     79  C   UNL A   1      46.284  34.801  31.176  1.00  0.00     0.000 A 
ENDBRANCH  61  74
ENDBRANCH  35  36
ENDBRANCH  27  30
ENDBRANCH  25  26
ENDBRANCH  24  25
ENDBRANCH  23  24
ENDBRANCH   3  23
TORSDOF 16
ENDMDL
MODEL 3
REMARK VINA RESULT:     -10.4      3.358      5.199
REMARK SMILES CC[C@@H](COC)NC(=O)NC[C@@H]1CC[C@H](C(=O)NCCCNC(=O)c2ccc(-c3c4nc(c(-c5ccccc5)c5ccc([nH]5)c(-c5ccccc5)c5nc(c(-c6ccccc6)c6ccc3[nH]6)C=C5)C=C4)cc2)O1
REMARK SMILES IDX 16 1 17 2 18 3 15 5 12 6 13 7 73 8 14 9 11 10 10 11 7 12
REMARK SMILES IDX 8 13 9 15 3 17 2 18 1 19 4 20 5 21 6 22 19 23 20 24 21 25
REMARK SMILES IDX 22 26 23 27 24 29 25 30 26 31 72 32 27 33 71 34 28 35 29 36
REMARK SMILES IDX 30 37 65 38 31 39 70 40 64 41 66 42 32 43 69 44 63 45 62 46
REMARK SMILES IDX 33 48 55 49 40 50 54 51 41 52 44 53 53 54 67 55 42 56 43 57
REMARK SMILES IDX 52 59 68 60 45 61 34 62 35 63 39 64 36 65 38 66 37 67 56 68
REMARK SMILES IDX 57 69 61 70 58 71 60 72 59 73 46 74 47 75 51 76 48 77 50 78
REMARK SMILES IDX 49 79
REMARK H PARENT 18 4 7 14 10 16 22 28 66 47 44 58
REMARK Flexibility Score: inf
ROOT
ATOM      1  C   UNL A   1      32.529  29.231  24.496  1.00  0.00     0.249 C 
ATOM      2  O   UNL A   1      33.391  29.139  23.619  1.00  0.00    -0.272 OA
ATOM      3  N   UNL A   1      32.766  30.057  25.560  1.00  0.00    -0.354 N 
ATOM      4  H   UNL A   1      33.677  30.422  25.648  1.00  0.00     0.163 HD
ENDROOT
BRANCH   1   5
ATOM      5  C   UNL A   1      31.216  28.427  24.418  1.00  0.00     0.207 C 
ATOM      6  C   UNL A   1      30.498  26.218  24.437  1.00  0.00     0.138 C 
ATOM      7  C   UNL A   1      30.504  26.620  22.967  1.00  0.00     0.037 C 
ATOM      8  O   UNL A   1      31.307  27.183  25.123  1.00  0.00    -0.363 OA
ATOM      9  C   UNL A   1      30.755  28.119  22.995  1.00  0.00     0.045 C 
BRANCH   6  10
ATOM     10  C   UNL A   1      30.945  24.782  24.779  1.00  0.00     0.149 C 
BRANCH  10  11
ATOM     11  N   UNL A   1      30.193  24.121  25.838  1.00  0.00    -0.336 N 
ATOM     12  N   UNL A   1      31.548  22.493  26.911  1.00  0.00    -0.333 N 
ATOM     13  C   UNL A   1      30.429  23.210  26.785  1.00  0.00     0.315 C 
ATOM     14  H   UNL A   1      31.508  21.879  27.679  1.00  0.00     0.165 HD
ATOM     15  O   UNL A   1      29.508  23.003  27.580  1.00  0.00    -0.249 OA
ATOM     16  H   UNL A   1      29.258  24.428  25.861  1.00  0.00     0.165 HD
BRANCH  12  17
ATOM     17  C   UNL A   1      32.822  22.392  26.188  1.00  0.00     0.109 C 
BRANCH  17  18
ATOM     18  C   UNL A   1      33.898  23.154  26.973  1.00  0.00     0.024 C 
ATOM     19  C   UNL A   1      35.226  23.244  26.236  1.00  0.00     0.006 C 
ENDBRANCH  17  18
BRANCH  17  20
ATOM     20  C   UNL A   1      33.205  20.911  25.904  1.00  0.00     0.184 C 
BRANCH  20  21
ATOM     21  O   UNL A   1      32.189  20.170  25.224  1.00  0.00    -0.383 OA
ATOM     22  C   UNL A   1      32.294  20.217  23.806  1.00  0.00     0.194 C 
ENDBRANCH  20  21
ENDBRANCH  17  20
ENDBRANCH  12  17
ENDBRANCH  10  11
ENDBRANCH   6  10
ENDBRANCH   1   5
BRANCH   3  23
ATOM     23  C   UNL A   1      31.807  30.446  26.567  1.00  0.00     0.117 C 
BRANCH  23  24
ATOM     24  C   UNL A   1      31.582  31.928  26.697  1.00  0.00     0.042 C 
BRANCH  24  25
ATOM     25  C   UNL A   1      32.765  32.638  27.327  1.00  0.00     0.118 C 
BRANCH  25  26
ATOM     26  N   UNL A   1      32.519  34.049  27.633  1.00  0.00    -0.352 N 
ATOM     27  C   UNL A   1      33.085  34.865  28.586  1.00  0.00     0.251 C 
ATOM     28  H   UNL A   1      31.840  34.483  27.068  1.00  0.00     0.163 HD
ATOM     29  O   UNL A   1      32.625  35.980  28.818  1.00  0.00    -0.269 OA
BRANCH  27  30
ATOM     30  C   UNL A   1      34.267  34.386  29.330  1.00  0.00     0.039 A 
ATOM     31  C   UNL A   1      34.115  33.773  30.574  1.00  0.00     0.014 A 
ATOM     32  C   UNL A   1      35.534  34.510  28.760  1.00  0.00     0.014 A 
ATOM     33  C   UNL A   1      35.223  33.181  31.186  1.00  0.00     0.010 A 
ATOM     34  C   UNL A   1      36.595  33.799  29.293  1.00  0.00     0.010 A 
ATOM     35  C   UNL A   1      36.457  33.131  30.516  1.00  0.00    -0.014 A 
BRANCH  35  36
ATOM     36  C   UNL A   1      37.626  32.390  31.050  1.00  0.00     0.031 A 
ATOM     37  C   UNL A   1      38.371  32.929  32.243  1.00  0.00     0.074 A 
ATOM     38  C   UNL A   1      38.091  31.308  30.393  1.00  0.00     0.049 A 
ATOM     39  N   UNL A   1      39.495  32.518  32.772  1.00  0.00    -0.248 NA
ATOM     40  C   UNL A   1      37.801  34.118  32.901  1.00  0.00     0.031 C 
ATOM     41  C   UNL A   1      37.499  30.723  29.187  1.00  0.00     0.029 A 
ATOM     42  N   UNL A   1      39.183  30.514  30.642  1.00  0.00    -0.354 N 
ATOM     43  C   UNL A   1      39.780  33.416  33.793  1.00  0.00     0.074 A 
ATOM     44  C   UNL A   1      38.749  34.428  33.770  1.00  0.00     0.031 C 
ATOM     45  C   UNL A   1      38.212  29.645  28.824  1.00  0.00     0.029 A 
ATOM     46  C   UNL A   1      39.337  29.492  29.738  1.00  0.00     0.049 A 
ATOM     47  H   UNL A   1      39.796  30.665  31.397  1.00  0.00     0.167 HD
ATOM     48  C   UNL A   1      40.794  33.388  34.688  1.00  0.00     0.031 A 
ATOM     49  C   UNL A   1      40.286  28.541  29.650  1.00  0.00     0.031 A 
ATOM     50  C   UNL A   1      41.799  32.362  34.729  1.00  0.00     0.049 A 
ATOM     51  C   UNL A   1      41.395  28.522  30.665  1.00  0.00     0.074 A 
ATOM     52  C   UNL A   1      42.825  32.197  35.641  1.00  0.00     0.029 A 
ATOM     53  N   UNL A   1      41.899  31.324  33.816  1.00  0.00    -0.354 N 
ATOM     54  N   UNL A   1      41.609  29.335  31.670  1.00  0.00    -0.248 NA
ATOM     55  C   UNL A   1      42.389  27.447  30.536  1.00  0.00     0.031 C 
ATOM     56  C   UNL A   1      43.576  31.083  35.253  1.00  0.00     0.029 A 
ATOM     57  C   UNL A   1      42.984  30.524  34.131  1.00  0.00     0.049 A 
ATOM     58  H   UNL A   1      41.288  31.177  33.057  1.00  0.00     0.167 HD
ATOM     59  C   UNL A   1      42.743  28.855  32.311  1.00  0.00     0.074 A 
ATOM     60  C   UNL A   1      43.162  27.670  31.590  1.00  0.00     0.031 C 
ATOM     61  C   UNL A   1      43.381  29.349  33.401  1.00  0.00     0.031 A 
BRANCH  48  62
ATOM     62  C   UNL A   1      40.857  34.500  35.698  1.00  0.00    -0.014 A 
ATOM     63  C   UNL A   1      40.153  34.425  36.912  1.00  0.00     0.009 A 
ATOM     64  C   UNL A   1      41.647  35.632  35.445  1.00  0.00     0.009 A 
ATOM     65  C   UNL A   1      40.205  35.476  37.829  1.00  0.00     0.001 A 
ATOM     66  C   UNL A   1      41.723  36.668  36.378  1.00  0.00     0.001 A 
ATOM     67  C   UNL A   1      40.993  36.594  37.564  1.00  0.00     0.000 A 
ENDBRANCH  48  62
BRANCH  49  68
ATOM     68  C   UNL A   1      40.219  27.514  28.577  1.00  0.00    -0.014 A 
ATOM     69  C   UNL A   1      39.529  26.311  28.789  1.00  0.00     0.009 A 
ATOM     70  C   UNL A   1      40.842  27.728  27.337  1.00  0.00     0.009 A 
ATOM     71  C   UNL A   1      39.488  25.331  27.795  1.00  0.00     0.001 A 
ATOM     72  C   UNL A   1      40.773  26.758  26.333  1.00  0.00     0.001 A 
ATOM     73  C   UNL A   1      40.106  25.558  26.566  1.00  0.00     0.000 A 
ENDBRANCH  49  68
BRANCH  61  74
ATOM     74  C   UNL A   1      44.575  28.589  33.899  1.00  0.00    -0.014 A 
ATOM     75  C   UNL A   1      44.438  27.535  34.816  1.00  0.00     0.009 A 
ATOM     76  C   UNL A   1      45.851  28.901  33.404  1.00  0.00     0.009 A 
ATOM     77  C   UNL A   1      45.561  26.829  35.250  1.00  0.00     0.001 A 
ATOM     78  C   UNL A   1      46.967  28.174  33.817  1.00  0.00     0.001 A 
ATOM     79  C   UNL A   1      46.823  27.145  34.745  1.00  0.00     0.000 A 
ENDBRANCH  61  74
ENDBRANCH  35  36
ENDBRANCH  27  30
ENDBRANCH  25  26
ENDBRANCH  24  25
ENDBRANCH  23  24
ENDBRANCH   3  23
TORSDOF 16
ENDMDL
