MODEL 1
REMARK VINA RESULT:     -10.0      0.000      0.000
REMARK SMILES CC(C)[C@H](CO)Nc1ccc(C(F)(F)F)cc1C(=O)NCCCNC(=O)c1ccc(-c2c3nc(c(-c4ccccc4)c4ccc([nH]4)c(-c4ccccc4)c4nc(c(-c5ccccc5)c5ccc2[nH]5)C=C4)C=C3)cc1
REMARK SMILES IDX 21 1 20 2 18 3 19 4 17 6 8 7 9 8 10 9 16 10 11 11 7 12 4 14
REMARK SMILES IDX 2 15 1 16 3 17 5 18 6 19 12 21 13 22 14 23 15 24 22 25 23 26
REMARK SMILES IDX 24 27 25 28 26 30 27 31 28 32 74 33 29 34 73 35 30 36 31 37
REMARK SMILES IDX 32 38 67 39 33 40 72 41 66 42 68 43 34 44 71 45 65 46 64 47
REMARK SMILES IDX 35 49 57 50 42 51 56 52 43 53 46 54 55 55 69 56 44 57 45 58
REMARK SMILES IDX 54 60 70 61 47 62 36 63 37 64 41 65 38 66 40 67 39 68 58 69
REMARK SMILES IDX 59 70 63 71 60 72 62 73 61 74 48 75 49 76 53 77 50 78 52 79
REMARK SMILES IDX 51 80
REMARK H PARENT 20 5 7 13 6 20 24 29 68 48 46 59
REMARK Flexibility Score: inf
ROOT
ATOM      1  C   UNL A   1      34.507  23.458  25.155  1.00  0.00     0.118 C 
ENDROOT
BRANCH   1   2
ATOM      2  N   UNL A   1      34.082  24.249  26.277  1.00  0.00    -0.352 N 
ATOM      3  C   UNL A   1      33.072  25.174  26.085  1.00  0.00     0.253 C 
ATOM      4  O   UNL A   1      31.988  24.997  26.638  1.00  0.00    -0.269 OA
ATOM      5  H   UNL A   1      34.500  24.135  27.162  1.00  0.00     0.163 HD
BRANCH   3   6
ATOM      6  C   UNL A   1      33.387  26.507  25.503  1.00  0.00     0.063 A 
ATOM      7  C   UNL A   1      33.537  26.868  24.148  1.00  0.00     0.047 A 
ATOM      8  C   UNL A   1      33.868  28.214  23.877  1.00  0.00     0.027 A 
ATOM      9  C   UNL A   1      34.055  29.165  24.886  1.00  0.00     0.015 A 
ATOM     10  C   UNL A   1      33.572  27.481  26.517  1.00  0.00     0.029 A 
ATOM     11  C   UNL A   1      33.908  28.807  26.226  1.00  0.00     0.056 A 
BRANCH   7  12
ATOM     12  N   UNL A   1      33.357  26.050  23.032  1.00  0.00    -0.379 N 
ATOM     13  H   UNL A   1      33.995  25.316  22.880  1.00  0.00     0.160 HD
BRANCH  12  14
ATOM     14  C   UNL A   1      32.251  26.237  22.067  1.00  0.00     0.107 C 
BRANCH  14  15
ATOM     15  C   UNL A   1      30.998  25.485  22.596  1.00  0.00     0.007 C 
ATOM     16  C   UNL A   1      31.332  24.093  23.141  1.00  0.00     0.009 C 
ATOM     17  C   UNL A   1      30.141  26.286  23.586  1.00  0.00     0.009 C 
ENDBRANCH  14  15
BRANCH  14  18
ATOM     18  C   UNL A   1      32.640  25.705  20.666  1.00  0.00     0.181 C 
BRANCH  18  19
ATOM     19  O   UNL A   1      31.552  25.725  19.747  1.00  0.00    -0.394 OA
ATOM     20  H   UNL A   1      30.783  26.142  20.165  1.00  0.00     0.210 HD
ENDBRANCH  18  19
ENDBRANCH  14  18
ENDBRANCH  12  14
ENDBRANCH   7  12
BRANCH  11  21
ATOM     21  C   UNL A   1      34.106  29.825  27.320  1.00  0.00     0.416 C 
ATOM     22  F   UNL A   1      32.931  30.371  27.740  1.00  0.00    -0.166 F 
ATOM     23  F   UNL A   1      34.686  29.290  28.429  1.00  0.00    -0.166 F 
ATOM     24  F   UNL A   1      34.894  30.875  26.956  1.00  0.00    -0.166 F 
ENDBRANCH  11  21
ENDBRANCH   3   6
ENDBRANCH   1   2
BRANCH   1  25
ATOM     25  C   UNL A   1      35.917  23.697  24.671  1.00  0.00     0.042 C 
BRANCH  25  26
ATOM     26  C   UNL A   1      36.983  23.848  25.766  1.00  0.00     0.118 C 
BRANCH  26  27
ATOM     27  N   UNL A   1      38.118  22.926  25.780  1.00  0.00    -0.352 N 
ATOM     28  C   UNL A   1      39.388  23.050  26.300  1.00  0.00     0.251 C 
ATOM     29  H   UNL A   1      37.943  22.062  25.340  1.00  0.00     0.163 HD
ATOM     30  O   UNL A   1      40.173  22.106  26.225  1.00  0.00    -0.269 OA
BRANCH  28  31
ATOM     31  C   UNL A   1      39.848  24.310  26.914  1.00  0.00     0.039 A 
ATOM     32  C   UNL A   1      40.496  25.266  26.119  1.00  0.00     0.014 A 
ATOM     33  C   UNL A   1      39.649  24.555  28.268  1.00  0.00     0.014 A 
ATOM     34  C   UNL A   1      40.848  26.502  26.664  1.00  0.00     0.010 A 
ATOM     35  C   UNL A   1      39.876  25.821  28.774  1.00  0.00     0.010 A 
ATOM     36  C   UNL A   1      40.487  26.804  27.982  1.00  0.00    -0.014 A 
BRANCH  36  37
ATOM     37  C   UNL A   1      40.754  28.111  28.621  1.00  0.00     0.031 A 
ATOM     38  C   UNL A   1      42.055  28.300  29.348  1.00  0.00     0.074 A 
ATOM     39  C   UNL A   1      39.775  29.033  28.694  1.00  0.00     0.049 A 
ATOM     40  N   UNL A   1      42.389  29.203  30.231  1.00  0.00    -0.248 NA
ATOM     41  C   UNL A   1      43.095  27.285  29.100  1.00  0.00     0.031 C 
ATOM     42  C   UNL A   1      38.457  28.932  28.061  1.00  0.00     0.029 A 
ATOM     43  N   UNL A   1      39.730  30.225  29.367  1.00  0.00    -0.354 N 
ATOM     44  C   UNL A   1      43.645  28.822  30.693  1.00  0.00     0.074 A 
ATOM     45  C   UNL A   1      43.989  27.586  30.027  1.00  0.00     0.031 C 
ATOM     46  C   UNL A   1      37.740  30.028  28.362  1.00  0.00     0.029 A 
ATOM     47  C   UNL A   1      38.525  30.876  29.249  1.00  0.00     0.049 A 
ATOM     48  H   UNL A   1      40.487  30.582  29.884  1.00  0.00     0.167 HD
ATOM     49  C   UNL A   1      44.441  29.456  31.584  1.00  0.00     0.031 A 
ATOM     50  C   UNL A   1      38.103  32.021  29.814  1.00  0.00     0.031 A 
ATOM     51  C   UNL A   1      44.102  30.715  32.188  1.00  0.00     0.049 A 
ATOM     52  C   UNL A   1      39.035  32.748  30.743  1.00  0.00     0.074 A 
ATOM     53  C   UNL A   1      44.854  31.497  33.043  1.00  0.00     0.029 A 
ATOM     54  N   UNL A   1      42.906  31.386  31.970  1.00  0.00    -0.354 N 
ATOM     55  N   UNL A   1      40.232  32.398  31.150  1.00  0.00    -0.248 NA
ATOM     56  C   UNL A   1      38.562  34.029  31.283  1.00  0.00     0.031 C 
ATOM     57  C   UNL A   1      44.103  32.634  33.361  1.00  0.00     0.029 A 
ATOM     58  C   UNL A   1      42.900  32.577  32.673  1.00  0.00     0.049 A 
ATOM     59  H   UNL A   1      42.172  31.062  31.401  1.00  0.00     0.167 HD
ATOM     60  C   UNL A   1      40.667  33.426  31.974  1.00  0.00     0.074 A 
ATOM     61  C   UNL A   1      39.611  34.419  31.993  1.00  0.00     0.031 C 
ATOM     62  C   UNL A   1      41.833  33.542  32.656  1.00  0.00     0.031 A 
BRANCH  49  63
ATOM     63  C   UNL A   1      45.742  28.791  31.942  1.00  0.00    -0.014 A 
ATOM     64  C   UNL A   1      45.834  27.898  33.022  1.00  0.00     0.009 A 
ATOM     65  C   UNL A   1      46.898  29.070  31.197  1.00  0.00     0.009 A 
ATOM     66  C   UNL A   1      47.065  27.344  33.384  1.00  0.00     0.001 A 
ATOM     67  C   UNL A   1      48.122  28.489  31.540  1.00  0.00     0.001 A 
ATOM     68  C   UNL A   1      48.206  27.639  32.641  1.00  0.00     0.000 A 
ENDBRANCH  49  63
BRANCH  50  69
ATOM     69  C   UNL A   1      36.757  32.564  29.490  1.00  0.00    -0.014 A 
ATOM     70  C   UNL A   1      36.593  33.426  28.395  1.00  0.00     0.009 A 
ATOM     71  C   UNL A   1      35.631  32.215  30.251  1.00  0.00     0.009 A 
ATOM     72  C   UNL A   1      35.335  33.947  28.083  1.00  0.00     0.001 A 
ATOM     73  C   UNL A   1      34.369  32.718  29.921  1.00  0.00     0.001 A 
ATOM     74  C   UNL A   1      34.224  33.589  28.843  1.00  0.00     0.000 A 
ENDBRANCH  50  69
BRANCH  62  75
ATOM     75  C   UNL A   1      42.034  34.803  33.442  1.00  0.00    -0.014 A 
ATOM     76  C   UNL A   1      41.492  34.949  34.729  1.00  0.00     0.009 A 
ATOM     77  C   UNL A   1      42.819  35.834  32.905  1.00  0.00     0.009 A 
ATOM     78  C   UNL A   1      41.714  36.121  35.453  1.00  0.00     0.001 A 
ATOM     79  C   UNL A   1      43.059  36.993  33.643  1.00  0.00     0.001 A 
ATOM     80  C   UNL A   1      42.500  37.138  34.913  1.00  0.00     0.000 A 
ENDBRANCH  62  75
ENDBRANCH  36  37
ENDBRANCH  28  31
ENDBRANCH  26  27
ENDBRANCH  25  26
ENDBRANCH   1  25
TORSDOF 16
ENDMDL
MODEL 2
REMARK VINA RESULT:      -9.7      4.494      8.461
REMARK SMILES CC(C)[C@H](CO)Nc1ccc(C(F)(F)F)cc1C(=O)NCCCNC(=O)c1ccc(-c2c3nc(c(-c4ccccc4)c4ccc([nH]4)c(-c4ccccc4)c4nc(c(-c5ccccc5)c5ccc2[nH]5)C=C4)C=C3)cc1
REMARK SMILES IDX 21 1 20 2 18 3 19 4 17 6 8 7 9 8 10 9 16 10 11 11 7 12 4 14
REMARK SMILES IDX 2 15 1 16 3 17 5 18 6 19 12 21 13 22 14 23 15 24 22 25 23 26
REMARK SMILES IDX 24 27 25 28 26 30 27 31 28 32 74 33 29 34 73 35 30 36 31 37
REMARK SMILES IDX 32 38 67 39 33 40 72 41 66 42 68 43 34 44 71 45 65 46 64 47
REMARK SMILES IDX 35 49 57 50 42 51 56 52 43 53 46 54 55 55 69 56 44 57 45 58
REMARK SMILES IDX 54 60 70 61 47 62 36 63 37 64 41 65 38 66 40 67 39 68 58 69
REMARK SMILES IDX 59 70 63 71 60 72 62 73 61 74 48 75 49 76 53 77 50 78 52 79
REMARK SMILES IDX 51 80
REMARK H PARENT 20 5 7 13 6 20 24 29 68 48 46 59
REMARK Flexibility Score: inf
ROOT
ATOM      1  C   UNL A   1      36.968  21.837  24.374  1.00  0.00     0.118 C 
ENDROOT
BRANCH   1   2
ATOM      2  N   UNL A   1      35.739  22.284  24.968  1.00  0.00    -0.352 N 
ATOM      3  C   UNL A   1      34.900  21.341  25.534  1.00  0.00     0.253 C 
ATOM      4  O   UNL A   1      34.727  21.350  26.751  1.00  0.00    -0.269 OA
ATOM      5  H   UNL A   1      35.499  23.239  24.973  1.00  0.00     0.163 HD
BRANCH   3   6
ATOM      6  C   UNL A   1      33.979  20.552  24.671  1.00  0.00     0.063 A 
ATOM      7  C   UNL A   1      32.876  20.998  23.913  1.00  0.00     0.047 A 
ATOM      8  C   UNL A   1      32.151  20.018  23.200  1.00  0.00     0.027 A 
ATOM      9  C   UNL A   1      32.482  18.659  23.235  1.00  0.00     0.015 A 
ATOM     10  C   UNL A   1      34.309  19.173  24.693  1.00  0.00     0.029 A 
ATOM     11  C   UNL A   1      33.571  18.218  23.986  1.00  0.00     0.056 A 
BRANCH   7  12
ATOM     12  N   UNL A   1      32.439  22.313  23.754  1.00  0.00    -0.379 N 
ATOM     13  H   UNL A   1      32.914  22.892  23.114  1.00  0.00     0.160 HD
BRANCH  12  14
ATOM     14  C   UNL A   1      31.296  22.878  24.503  1.00  0.00     0.107 C 
BRANCH  14  15
ATOM     15  C   UNL A   1      31.489  24.416  24.622  1.00  0.00     0.007 C 
ATOM     16  C   UNL A   1      30.648  25.030  25.745  1.00  0.00     0.009 C 
ATOM     17  C   UNL A   1      32.953  24.872  24.702  1.00  0.00     0.009 C 
ENDBRANCH  14  15
BRANCH  14  18
ATOM     18  C   UNL A   1      31.185  22.244  25.911  1.00  0.00     0.181 C 
BRANCH  18  19
ATOM     19  O   UNL A   1      29.838  21.992  26.298  1.00  0.00    -0.394 OA
ATOM     20  H   UNL A   1      29.443  22.807  26.645  1.00  0.00     0.210 HD
ENDBRANCH  18  19
ENDBRANCH  14  18
ENDBRANCH  12  14
ENDBRANCH   7  12
BRANCH  11  21
ATOM     21  C   UNL A   1      33.935  16.756  24.028  1.00  0.00     0.416 C 
ATOM     22  F   UNL A   1      32.888  15.970  24.403  1.00  0.00    -0.166 F 
ATOM     23  F   UNL A   1      34.339  16.285  22.816  1.00  0.00    -0.166 F 
ATOM     24  F   UNL A   1      34.945  16.467  24.895  1.00  0.00    -0.166 F 
ENDBRANCH  11  21
ENDBRANCH   3   6
ENDBRANCH   1   2
BRANCH   1  25
ATOM     25  C   UNL A   1      37.561  20.573  24.948  1.00  0.00     0.042 C 
BRANCH  25  26
ATOM     26  C   UNL A   1      38.871  20.746  25.732  1.00  0.00     0.118 C 
BRANCH  26  27
ATOM     27  N   UNL A   1      39.874  19.682  25.678  1.00  0.00    -0.352 N 
ATOM     28  C   UNL A   1      41.208  19.669  26.021  1.00  0.00     0.251 C 
ATOM     29  H   UNL A   1      39.534  18.824  25.337  1.00  0.00     0.163 HD
ATOM     30  O   UNL A   1      41.852  18.626  25.926  1.00  0.00    -0.269 OA
BRANCH  28  31
ATOM     31  C   UNL A   1      41.901  20.893  26.467  1.00  0.00     0.039 A 
ATOM     32  C   UNL A   1      42.298  21.843  25.515  1.00  0.00     0.014 A 
ATOM     33  C   UNL A   1      42.165  21.110  27.814  1.00  0.00     0.014 A 
ATOM     34  C   UNL A   1      42.865  23.050  25.930  1.00  0.00     0.010 A 
ATOM     35  C   UNL A   1      42.602  22.353  28.232  1.00  0.00     0.010 A 
ATOM     36  C   UNL A   1      42.967  23.331  27.297  1.00  0.00    -0.014 A 
BRANCH  36  37
ATOM     37  C   UNL A   1      43.486  24.609  27.829  1.00  0.00     0.031 A 
ATOM     38  C   UNL A   1      42.500  25.654  28.271  1.00  0.00     0.074 A 
ATOM     39  C   UNL A   1      44.801  24.884  27.745  1.00  0.00     0.049 A 
ATOM     40  N   UNL A   1      42.679  26.933  28.469  1.00  0.00    -0.248 NA
ATOM     41  C   UNL A   1      41.106  25.206  28.438  1.00  0.00     0.031 C 
ATOM     42  C   UNL A   1      45.841  23.958  27.288  1.00  0.00     0.029 A 
ATOM     43  N   UNL A   1      45.483  26.043  28.010  1.00  0.00    -0.354 N 
ATOM     44  C   UNL A   1      41.411  27.449  28.713  1.00  0.00     0.074 A 
ATOM     45  C   UNL A   1      40.472  26.357  28.593  1.00  0.00     0.031 C 
ATOM     46  C   UNL A   1      47.031  24.581  27.324  1.00  0.00     0.029 A 
ATOM     47  C   UNL A   1      46.829  25.959  27.750  1.00  0.00     0.049 A 
ATOM     48  H   UNL A   1      45.050  26.857  28.354  1.00  0.00     0.167 HD
ATOM     49  C   UNL A   1      41.065  28.721  29.021  1.00  0.00     0.031 A 
ATOM     50  C   UNL A   1      47.786  26.901  27.832  1.00  0.00     0.031 A 
ATOM     51  C   UNL A   1      42.024  29.777  29.193  1.00  0.00     0.049 A 
ATOM     52  C   UNL A   1      47.390  28.290  28.250  1.00  0.00     0.074 A 
ATOM     53  C   UNL A   1      41.810  31.087  29.582  1.00  0.00     0.029 A 
ATOM     54  N   UNL A   1      43.391  29.627  29.009  1.00  0.00    -0.354 N 
ATOM     55  N   UNL A   1      46.194  28.763  28.509  1.00  0.00    -0.248 NA
ATOM     56  C   UNL A   1      48.473  29.271  28.395  1.00  0.00     0.031 C 
ATOM     57  C   UNL A   1      43.050  31.735  29.610  1.00  0.00     0.029 A 
ATOM     58  C   UNL A   1      44.037  30.819  29.279  1.00  0.00     0.049 A 
ATOM     59  H   UNL A   1      43.835  28.795  28.727  1.00  0.00     0.167 HD
ATOM     60  C   UNL A   1      46.382  30.089  28.872  1.00  0.00     0.074 A 
ATOM     61  C   UNL A   1      47.809  30.338  28.815  1.00  0.00     0.031 C 
ATOM     62  C   UNL A   1      45.461  31.022  29.220  1.00  0.00     0.031 A 
BRANCH  49  63
ATOM     63  C   UNL A   1      39.600  29.017  29.189  1.00  0.00    -0.014 A 
ATOM     64  C   UNL A   1      38.961  28.861  30.430  1.00  0.00     0.009 A 
ATOM     65  C   UNL A   1      38.842  29.444  28.088  1.00  0.00     0.009 A 
ATOM     66  C   UNL A   1      37.585  29.071  30.552  1.00  0.00     0.001 A 
ATOM     67  C   UNL A   1      37.472  29.686  28.220  1.00  0.00     0.001 A 
ATOM     68  C   UNL A   1      36.843  29.485  29.448  1.00  0.00     0.000 A 
ENDBRANCH  49  63
BRANCH  50  69
ATOM     69  C   UNL A   1      49.204  26.556  27.549  1.00  0.00    -0.014 A 
ATOM     70  C   UNL A   1      50.024  26.063  28.575  1.00  0.00     0.009 A 
ATOM     71  C   UNL A   1      49.741  26.695  26.260  1.00  0.00     0.009 A 
ATOM     72  C   UNL A   1      51.360  25.740  28.323  1.00  0.00     0.001 A 
ATOM     73  C   UNL A   1      51.070  26.345  26.005  1.00  0.00     0.001 A 
ATOM     74  C   UNL A   1      51.881  25.877  27.038  1.00  0.00     0.000 A 
ENDBRANCH  50  69
BRANCH  62  75
ATOM     75  C   UNL A   1      45.979  32.375  29.602  1.00  0.00    -0.014 A 
ATOM     76  C   UNL A   1      46.349  32.663  30.925  1.00  0.00     0.009 A 
ATOM     77  C   UNL A   1      46.146  33.356  28.613  1.00  0.00     0.009 A 
ATOM     78  C   UNL A   1      46.854  33.922  31.253  1.00  0.00     0.001 A 
ATOM     79  C   UNL A   1      46.675  34.604  28.941  1.00  0.00     0.001 A 
ATOM     80  C   UNL A   1      47.022  34.888  30.261  1.00  0.00     0.000 A 
ENDBRANCH  62  75
ENDBRANCH  36  37
ENDBRANCH  28  31
ENDBRANCH  26  27
ENDBRANCH  25  26
ENDBRANCH   1  25
TORSDOF 16
ENDMDL
MODEL 3
REMARK VINA RESULT:      -9.7      3.463      4.736
REMARK SMILES CC(C)[C@H](CO)Nc1ccc(C(F)(F)F)cc1C(=O)NCCCNC(=O)c1ccc(-c2c3nc(c(-c4ccccc4)c4ccc([nH]4)c(-c4ccccc4)c4nc(c(-c5ccccc5)c5ccc2[nH]5)C=C4)C=C3)cc1
REMARK SMILES IDX 21 1 20 2 18 3 19 4 17 6 8 7 9 8 10 9 16 10 11 11 7 12 4 14
REMARK SMILES IDX 2 15 1 16 3 17 5 18 6 19 12 21 13 22 14 23 15 24 22 25 23 26
REMARK SMILES IDX 24 27 25 28 26 30 27 31 28 32 74 33 29 34 73 35 30 36 31 37
REMARK SMILES IDX 32 38 67 39 33 40 72 41 66 42 68 43 34 44 71 45 65 46 64 47
REMARK SMILES IDX 35 49 57 50 42 51 56 52 43 53 46 54 55 55 69 56 44 57 45 58
REMARK SMILES IDX 54 60 70 61 47 62 36 63 37 64 41 65 38 66 40 67 39 68 58 69
REMARK SMILES IDX 59 70 63 71 60 72 62 73 61 74 48 75 49 76 53 77 50 78 52 79
REMARK SMILES IDX 51 80
REMARK H PARENT 20 5 7 13 6 20 24 29 68 48 46 59
REMARK Flexibility Score: inf
ROOT
ATOM      1  C   UNL A   1      35.115  22.898  26.275  1.00  0.00     0.118 C 
ENDROOT
BRANCH   1   2
ATOM      2  N   UNL A   1      35.511  21.535  26.495  1.00  0.00    -0.352 N 
ATOM      3  C   UNL A   1      35.702  20.719  25.395  1.00  0.00     0.253 C 
ATOM      4  O   UNL A   1      36.836  20.318  25.140  1.00  0.00    -0.269 OA
ATOM      5  H   UNL A   1      35.644  21.190  27.408  1.00  0.00     0.163 HD
BRANCH   3   6
ATOM      6  C   UNL A   1      34.533  20.076  24.735  1.00  0.00     0.063 A 
ATOM      7  C   UNL A   1      33.339  20.669  24.275  1.00  0.00     0.047 A 
ATOM      8  C   UNL A   1      32.375  19.809  23.706  1.00  0.00     0.027 A 
ATOM      9  C   UNL A   1      32.563  18.426  23.601  1.00  0.00     0.015 A 
ATOM     10  C   UNL A   1      34.715  18.675  24.617  1.00  0.00     0.029 A 
ATOM     11  C   UNL A   1      33.742  17.840  24.058  1.00  0.00     0.056 A 
BRANCH   7  12
ATOM     12  N   UNL A   1      33.015  22.027  24.281  1.00  0.00    -0.379 N 
ATOM     13  H   UNL A   1      33.722  22.679  24.070  1.00  0.00     0.160 HD
BRANCH  12  14
ATOM     14  C   UNL A   1      31.659  22.529  24.590  1.00  0.00     0.107 C 
BRANCH  14  15
ATOM     15  C   UNL A   1      31.598  24.043  24.243  1.00  0.00     0.007 C 
ATOM     16  C   UNL A   1      32.918  24.571  23.672  1.00  0.00     0.009 C 
ATOM     17  C   UNL A   1      30.404  24.451  23.367  1.00  0.00     0.009 C 
ENDBRANCH  14  15
BRANCH  14  18
ATOM     18  C   UNL A   1      31.311  22.311  26.083  1.00  0.00     0.181 C 
BRANCH  18  19
ATOM     19  O   UNL A   1      29.916  22.133  26.304  1.00  0.00    -0.394 OA
ATOM     20  H   UNL A   1      29.736  21.203  26.509  1.00  0.00     0.210 HD
ENDBRANCH  18  19
ENDBRANCH  14  18
ENDBRANCH  12  14
ENDBRANCH   7  12
BRANCH  11  21
ATOM     21  C   UNL A   1      33.954  16.352  23.948  1.00  0.00     0.416 C 
ATOM     22  F   UNL A   1      32.830  15.644  24.246  1.00  0.00    -0.166 F 
ATOM     23  F   UNL A   1      34.314  15.969  22.693  1.00  0.00    -0.166 F 
ATOM     24  F   UNL A   1      34.924  15.873  24.777  1.00  0.00    -0.166 F 
ENDBRANCH  11  21
ENDBRANCH   3   6
ENDBRANCH   1   2
BRANCH   1  25
ATOM     25  C   UNL A   1      36.235  23.906  26.171  1.00  0.00     0.042 C 
BRANCH  25  26
ATOM     26  C   UNL A   1      37.290  23.622  25.092  1.00  0.00     0.118 C 
BRANCH  26  27
ATOM     27  N   UNL A   1      38.478  22.847  25.450  1.00  0.00    -0.352 N 
ATOM     28  C   UNL A   1      39.549  23.145  26.265  1.00  0.00     0.251 C 
ATOM     29  H   UNL A   1      38.519  21.955  25.036  1.00  0.00     0.163 HD
ATOM     30  O   UNL A   1      40.426  22.303  26.451  1.00  0.00    -0.269 OA
BRANCH  28  31
ATOM     31  C   UNL A   1      39.692  24.471  26.894  1.00  0.00     0.039 A 
ATOM     32  C   UNL A   1      39.233  24.663  28.205  1.00  0.00     0.014 A 
ATOM     33  C   UNL A   1      40.272  25.528  26.202  1.00  0.00     0.014 A 
ATOM     34  C   UNL A   1      39.451  25.883  28.848  1.00  0.00     0.010 A 
ATOM     35  C   UNL A   1      40.604  26.687  26.877  1.00  0.00     0.010 A 
ATOM     36  C   UNL A   1      40.189  26.882  28.202  1.00  0.00    -0.014 A 
BRANCH  36  37
ATOM     37  C   UNL A   1      40.530  28.177  28.830  1.00  0.00     0.031 A 
ATOM     38  C   UNL A   1      41.854  28.306  29.530  1.00  0.00     0.074 A 
ATOM     39  C   UNL A   1      39.599  29.144  28.919  1.00  0.00     0.049 A 
ATOM     40  N   UNL A   1      42.249  29.194  30.403  1.00  0.00    -0.248 NA
ATOM     41  C   UNL A   1      42.839  27.241  29.265  1.00  0.00     0.031 C 
ATOM     42  C   UNL A   1      38.265  29.104  28.314  1.00  0.00     0.029 A 
ATOM     43  N   UNL A   1      39.624  30.340  29.588  1.00  0.00    -0.354 N 
ATOM     44  C   UNL A   1      43.494  28.755  30.840  1.00  0.00     0.074 A 
ATOM     45  C   UNL A   1      43.766  27.503  30.172  1.00  0.00     0.031 C 
ATOM     46  C   UNL A   1      37.607  30.234  28.625  1.00  0.00     0.029 A 
ATOM     47  C   UNL A   1      38.449  31.046  29.493  1.00  0.00     0.049 A 
ATOM     48  H   UNL A   1      40.408  30.662  30.089  1.00  0.00     0.167 HD
ATOM     49  C   UNL A   1      44.338  29.353  31.713  1.00  0.00     0.031 A 
ATOM     50  C   UNL A   1      38.094  32.212  30.061  1.00  0.00     0.031 A 
ATOM     51  C   UNL A   1      44.071  30.628  32.318  1.00  0.00     0.049 A 
ATOM     52  C   UNL A   1      39.078  32.897  30.969  1.00  0.00     0.074 A 
ATOM     53  C   UNL A   1      44.877  31.377  33.155  1.00  0.00     0.029 A 
ATOM     54  N   UNL A   1      42.904  31.355  32.122  1.00  0.00    -0.354 N 
ATOM     55  N   UNL A   1      40.265  32.491  31.353  1.00  0.00    -0.248 NA
ATOM     56  C   UNL A   1      38.678  34.200  31.513  1.00  0.00     0.031 C 
ATOM     57  C   UNL A   1      44.187  32.548  33.484  1.00  0.00     0.029 A 
ATOM     58  C   UNL A   1      42.970  32.547  32.820  1.00  0.00     0.049 A 
ATOM     59  H   UNL A   1      42.144  31.065  31.570  1.00  0.00     0.167 HD
ATOM     60  C   UNL A   1      40.765  33.500  32.164  1.00  0.00     0.074 A 
ATOM     61  C   UNL A   1      39.759  34.542  32.201  1.00  0.00     0.031 C 
ATOM     62  C   UNL A   1      41.949  33.562  32.822  1.00  0.00     0.031 A 
BRANCH  49  63
ATOM     63  C   UNL A   1      45.613  28.628  32.047  1.00  0.00    -0.014 A 
ATOM     64  C   UNL A   1      46.785  28.830  31.300  1.00  0.00     0.009 A 
ATOM     65  C   UNL A   1      45.640  27.718  33.115  1.00  0.00     0.009 A 
ATOM     66  C   UNL A   1      47.940  28.095  31.579  1.00  0.00     0.001 A 
ATOM     67  C   UNL A   1      46.807  27.009  33.413  1.00  0.00     0.001 A 
ATOM     68  C   UNL A   1      47.950  27.188  32.636  1.00  0.00     0.000 A 
ENDBRANCH  49  63
BRANCH  50  69
ATOM     69  C   UNL A   1      36.769  32.818  29.763  1.00  0.00    -0.014 A 
ATOM     70  C   UNL A   1      36.561  33.486  28.547  1.00  0.00     0.009 A 
ATOM     71  C   UNL A   1      35.704  32.718  30.671  1.00  0.00     0.009 A 
ATOM     72  C   UNL A   1      35.322  34.064  28.256  1.00  0.00     0.001 A 
ATOM     73  C   UNL A   1      34.458  33.274  30.367  1.00  0.00     0.001 A 
ATOM     74  C   UNL A   1      34.271  33.954  29.164  1.00  0.00     0.000 A 
ENDBRANCH  50  69
BRANCH  62  75
ATOM     75  C   UNL A   1      42.226  34.814  33.599  1.00  0.00    -0.014 A 
ATOM     76  C   UNL A   1      42.886  35.902  33.008  1.00  0.00     0.009 A 
ATOM     77  C   UNL A   1      41.773  34.921  34.922  1.00  0.00     0.009 A 
ATOM     78  C   UNL A   1      43.110  37.068  33.742  1.00  0.00     0.001 A 
ATOM     79  C   UNL A   1      41.977  36.097  35.643  1.00  0.00     0.001 A 
ATOM     80  C   UNL A   1      42.651  37.166  35.055  1.00  0.00     0.000 A 
ENDBRANCH  62  75
ENDBRANCH  36  37
ENDBRANCH  28  31
ENDBRANCH  26  27
ENDBRANCH  25  26
ENDBRANCH   1  25
TORSDOF 16
ENDMDL
