MODEL 1
REMARK VINA RESULT:     -13.3      0.000      0.000
REMARK SMILES COc1cccc([C@H]2CC(c3ccc(S(C)(=O)=O)cc3)=NN2c2ccc(C(=O)NCCCNC(=O)c3ccc(-c4c5nc(c(-c6ccccc6)c6ccc([nH]6)c(-c6ccccc6)c6nc(c(-c7ccccc7)c7ccc4[nH]7)C=C6)C=C5)cc3)cc2)c1
REMARK SMILES IDX 30 1 29 2 27 3 28 4 26 6 23 7 24 8 85 9 25 10 84 11 22 12
REMARK SMILES IDX 8 13 9 14 10 15 21 16 7 17 3 18 4 19 86 20 5 21 6 22 2 23
REMARK SMILES IDX 1 24 11 25 12 26 20 27 13 28 19 29 14 30 15 31 16 32 17 33
REMARK SMILES IDX 18 34 31 35 32 36 33 37 34 38 35 40 36 41 37 42 83 43 38 44
REMARK SMILES IDX 82 45 39 46 40 47 41 48 76 49 42 50 81 51 75 52 77 53 43 54
REMARK SMILES IDX 80 55 74 56 73 57 44 59 66 60 51 61 65 62 52 63 55 64 64 65
REMARK SMILES IDX 78 66 53 67 54 68 63 70 79 71 56 72 45 73 46 74 50 75 47 76
REMARK SMILES IDX 49 77 48 78 67 79 68 80 72 81 69 82 71 83 70 84 57 85 58 86
REMARK SMILES IDX 62 87 59 88 61 89 60 90
REMARK H PARENT 29 5 33 39 77 58 55 69
REMARK Flexibility Score: inf
ROOT
ATOM      1  C   UNL A   1      35.419  20.933  25.621  1.00  0.00     0.118 C 
ENDROOT
BRANCH   1   2
ATOM      2  N   UNL A   1      34.055  20.663  25.208  1.00  0.00    -0.352 N 
ATOM      3  C   UNL A   1      33.006  21.483  24.878  1.00  0.00     0.251 C 
ATOM      4  O   UNL A   1      31.958  20.939  24.531  1.00  0.00    -0.269 OA
ATOM      5  H   UNL A   1      33.841  19.705  25.152  1.00  0.00     0.163 HD
BRANCH   3   6
ATOM      6  C   UNL A   1      33.091  22.970  24.871  1.00  0.00     0.039 A 
ATOM      7  C   UNL A   1      33.127  25.796  25.033  1.00  0.00     0.060 A 
ATOM      8  C   UNL A   1      32.728  25.021  26.126  1.00  0.00     0.029 A 
ATOM      9  C   UNL A   1      33.559  25.138  23.879  1.00  0.00     0.029 A 
ATOM     10  C   UNL A   1      32.689  23.627  26.042  1.00  0.00     0.016 A 
ATOM     11  C   UNL A   1      33.578  23.740  23.813  1.00  0.00     0.016 A 
BRANCH   7  12
ATOM     12  N   UNL A   1      33.091  27.176  25.108  1.00  0.00    -0.257 N 
ATOM     13  C   UNL A   1      32.504  28.049  24.095  1.00  0.00     0.144 C 
ATOM     14  C   UNL A   1      32.759  29.449  24.672  1.00  0.00     0.091 C 
ATOM     15  C   UNL A   1      33.519  29.084  25.917  1.00  0.00     0.071 C 
ATOM     16  N   UNL A   1      33.680  27.819  26.143  1.00  0.00    -0.176 NA
BRANCH  13  17
ATOM     17  C   UNL A   1      31.029  27.745  23.884  1.00  0.00    -0.019 A 
ATOM     18  C   UNL A   1      28.821  28.387  23.065  1.00  0.00     0.119 A 
ATOM     19  C   UNL A   1      28.288  27.223  23.619  1.00  0.00     0.046 A 
ATOM     20  C   UNL A   1      30.185  28.647  23.205  1.00  0.00     0.052 A 
ATOM     21  C   UNL A   1      29.107  26.316  24.289  1.00  0.00     0.004 A 
ATOM     22  C   UNL A   1      30.472  26.574  24.420  1.00  0.00     0.006 A 
BRANCH  18  23
ATOM     23  O   UNL A   1      27.910  29.196  22.443  1.00  0.00    -0.497 OA
ATOM     24  C   UNL A   1      27.699  30.479  23.021  1.00  0.00     0.278 C 
ENDBRANCH  18  23
ENDBRANCH  13  17
BRANCH  15  25
ATOM     25  C   UNL A   1      34.085  30.112  26.792  1.00  0.00    -0.002 A 
ATOM     26  C   UNL A   1      33.248  31.147  27.224  1.00  0.00     0.011 A 
ATOM     27  C   UNL A   1      35.433  30.074  27.154  1.00  0.00     0.011 A 
ATOM     28  C   UNL A   1      33.761  32.153  28.041  1.00  0.00     0.021 A 
ATOM     29  C   UNL A   1      35.955  31.096  27.950  1.00  0.00     0.021 A 
ATOM     30  C   UNL A   1      35.117  32.131  28.385  1.00  0.00     0.067 A 
BRANCH  30  31
ATOM     31  S   UNL A   1      35.768  33.436  29.401  1.00  0.00     0.175 S 
ATOM     32  C   UNL A   1      37.519  33.366  29.129  1.00  0.00     0.163 C 
ATOM     33  O   UNL A   1      35.265  34.680  28.853  1.00  0.00    -0.224 OA
ATOM     34  O   UNL A   1      35.524  33.075  30.786  1.00  0.00    -0.224 OA
ENDBRANCH  30  31
ENDBRANCH  15  25
ENDBRANCH   7  12
ENDBRANCH   3   6
ENDBRANCH   1   2
BRANCH   1  35
ATOM     35  C   UNL A   1      36.391  19.951  24.967  1.00  0.00     0.042 C 
BRANCH  35  36
ATOM     36  C   UNL A   1      37.801  20.516  24.806  1.00  0.00     0.118 C 
BRANCH  36  37
ATOM     37  N   UNL A   1      38.815  19.592  25.294  1.00  0.00    -0.352 N 
ATOM     38  C   UNL A   1      40.075  19.840  25.773  1.00  0.00     0.251 C 
ATOM     39  H   UNL A   1      38.555  18.643  25.277  1.00  0.00     0.163 HD
ATOM     40  O   UNL A   1      40.858  18.905  25.927  1.00  0.00    -0.269 OA
BRANCH  38  41
ATOM     41  C   UNL A   1      40.508  21.217  26.097  1.00  0.00     0.039 A 
ATOM     42  C   UNL A   1      41.874  21.514  26.066  1.00  0.00     0.014 A 
ATOM     43  C   UNL A   1      39.591  22.196  26.490  1.00  0.00     0.014 A 
ATOM     44  C   UNL A   1      42.317  22.800  26.385  1.00  0.00     0.010 A 
ATOM     45  C   UNL A   1      40.028  23.495  26.752  1.00  0.00     0.010 A 
ATOM     46  C   UNL A   1      41.395  23.807  26.709  1.00  0.00    -0.014 A 
BRANCH  46  47
ATOM     47  C   UNL A   1      41.845  25.188  27.012  1.00  0.00     0.031 A 
ATOM     48  C   UNL A   1      43.133  25.710  26.434  1.00  0.00     0.074 A 
ATOM     49  C   UNL A   1      41.119  25.958  27.845  1.00  0.00     0.049 A 
ATOM     50  N   UNL A   1      43.726  26.858  26.645  1.00  0.00    -0.248 NA
ATOM     51  C   UNL A   1      43.856  24.819  25.513  1.00  0.00     0.031 C 
ATOM     52  C   UNL A   1      39.865  25.564  28.489  1.00  0.00     0.029 A 
ATOM     53  N   UNL A   1      41.338  27.234  28.301  1.00  0.00    -0.354 N 
ATOM     54  C   UNL A   1      44.893  26.823  25.893  1.00  0.00     0.074 A 
ATOM     55  C   UNL A   1      44.947  25.526  25.254  1.00  0.00     0.031 C 
ATOM     56  C   UNL A   1      39.419  26.582  29.244  1.00  0.00     0.029 A 
ATOM     57  C   UNL A   1      40.372  27.684  29.168  1.00  0.00     0.049 A 
ATOM     58  H   UNL A   1      42.115  27.777  28.031  1.00  0.00     0.167 HD
ATOM     59  C   UNL A   1      45.828  27.791  25.733  1.00  0.00     0.031 A 
ATOM     60  C   UNL A   1      40.272  28.848  29.835  1.00  0.00     0.031 A 
ATOM     61  C   UNL A   1      45.775  29.083  26.360  1.00  0.00     0.049 A 
ATOM     62  C   UNL A   1      41.335  29.895  29.655  1.00  0.00     0.074 A 
ATOM     63  C   UNL A   1      46.667  30.136  26.241  1.00  0.00     0.029 A 
ATOM     64  N   UNL A   1      44.773  29.502  27.219  1.00  0.00    -0.354 N 
ATOM     65  N   UNL A   1      42.413  29.858  28.910  1.00  0.00    -0.248 NA
ATOM     66  C   UNL A   1      41.160  31.149  30.401  1.00  0.00     0.031 C 
ATOM     67  C   UNL A   1      46.218  31.183  27.054  1.00  0.00     0.029 A 
ATOM     68  C   UNL A   1      45.026  30.795  27.643  1.00  0.00     0.049 A 
ATOM     69  H   UNL A   1      43.995  28.961  27.488  1.00  0.00     0.167 HD
ATOM     70  C   UNL A   1      43.028  31.092  29.076  1.00  0.00     0.074 A 
ATOM     71  C   UNL A   1      42.195  31.860  29.978  1.00  0.00     0.031 C 
ATOM     72  C   UNL A   1      44.182  31.548  28.532  1.00  0.00     0.031 A 
BRANCH  59  73
ATOM     73  C   UNL A   1      46.993  27.486  24.835  1.00  0.00    -0.014 A 
ATOM     74  C   UNL A   1      46.997  27.906  23.495  1.00  0.00     0.009 A 
ATOM     75  C   UNL A   1      48.121  26.824  25.343  1.00  0.00     0.009 A 
ATOM     76  C   UNL A   1      48.097  27.645  22.675  1.00  0.00     0.001 A 
ATOM     77  C   UNL A   1      49.230  26.586  24.528  1.00  0.00     0.001 A 
ATOM     78  C   UNL A   1      49.214  26.991  23.194  1.00  0.00     0.000 A 
ENDBRANCH  59  73
BRANCH  60  79
ATOM     79  C   UNL A   1      39.120  29.095  30.741  1.00  0.00    -0.014 A 
ATOM     80  C   UNL A   1      39.200  28.761  32.102  1.00  0.00     0.009 A 
ATOM     81  C   UNL A   1      37.924  29.637  30.244  1.00  0.00     0.009 A 
ATOM     82  C   UNL A   1      38.093  28.930  32.938  1.00  0.00     0.001 A 
ATOM     83  C   UNL A   1      36.830  29.832  31.089  1.00  0.00     0.001 A 
ATOM     84  C   UNL A   1      36.912  29.467  32.431  1.00  0.00     0.000 A 
ENDBRANCH  60  79
BRANCH  72  85
ATOM     85  C   UNL A   1      44.585  32.956  28.863  1.00  0.00    -0.014 A 
ATOM     86  C   UNL A   1      45.391  33.239  29.976  1.00  0.00     0.009 A 
ATOM     87  C   UNL A   1      44.179  34.008  28.028  1.00  0.00     0.009 A 
ATOM     88  C   UNL A   1      45.757  34.555  30.264  1.00  0.00     0.001 A 
ATOM     89  C   UNL A   1      44.567  35.319  28.304  1.00  0.00     0.001 A 
ATOM     90  C   UNL A   1      45.347  35.593  29.426  1.00  0.00     0.000 A 
ENDBRANCH  72  85
ENDBRANCH  46  47
ENDBRANCH  38  41
ENDBRANCH  36  37
ENDBRANCH  35  36
ENDBRANCH   1  35
TORSDOF 15
ENDMDL
MODEL 2
REMARK VINA RESULT:     -13.3      4.958     11.220
REMARK SMILES COc1cccc([C@H]2CC(c3ccc(S(C)(=O)=O)cc3)=NN2c2ccc(C(=O)NCCCNC(=O)c3ccc(-c4c5nc(c(-c6ccccc6)c6ccc([nH]6)c(-c6ccccc6)c6nc(c(-c7ccccc7)c7ccc4[nH]7)C=C6)C=C5)cc3)cc2)c1
REMARK SMILES IDX 30 1 29 2 27 3 28 4 26 6 23 7 24 8 85 9 25 10 84 11 22 12
REMARK SMILES IDX 8 13 9 14 10 15 21 16 7 17 3 18 4 19 86 20 5 21 6 22 2 23
REMARK SMILES IDX 1 24 11 25 12 26 20 27 13 28 19 29 14 30 15 31 16 32 17 33
REMARK SMILES IDX 18 34 31 35 32 36 33 37 34 38 35 40 36 41 37 42 83 43 38 44
REMARK SMILES IDX 82 45 39 46 40 47 41 48 76 49 42 50 81 51 75 52 77 53 43 54
REMARK SMILES IDX 80 55 74 56 73 57 44 59 66 60 51 61 65 62 52 63 55 64 64 65
REMARK SMILES IDX 78 66 53 67 54 68 63 70 79 71 56 72 45 73 46 74 50 75 47 76
REMARK SMILES IDX 49 77 48 78 67 79 68 80 72 81 69 82 71 83 70 84 57 85 58 86
REMARK SMILES IDX 62 87 59 88 61 89 60 90
REMARK H PARENT 29 5 33 39 77 58 55 69
REMARK Flexibility Score: inf
ROOT
ATOM      1  C   UNL A   1      36.393  34.119  29.381  1.00  0.00     0.118 C 
ENDROOT
BRANCH   1   2
ATOM      2  N   UNL A   1      35.571  34.606  30.473  1.00  0.00    -0.352 N 
ATOM      3  C   UNL A   1      35.672  34.487  31.835  1.00  0.00     0.251 C 
ATOM      4  O   UNL A   1      34.813  35.052  32.512  1.00  0.00    -0.269 OA
ATOM      5  H   UNL A   1      34.789  35.125  30.178  1.00  0.00     0.163 HD
BRANCH   3   6
ATOM      6  C   UNL A   1      36.778  33.762  32.520  1.00  0.00     0.039 A 
ATOM      7  C   UNL A   1      38.733  32.251  33.902  1.00  0.00     0.060 A 
ATOM      8  C   UNL A   1      37.452  31.736  33.683  1.00  0.00     0.029 A 
ATOM      9  C   UNL A   1      39.039  33.508  33.374  1.00  0.00     0.029 A 
ATOM     10  C   UNL A   1      36.479  32.487  33.020  1.00  0.00     0.016 A 
ATOM     11  C   UNL A   1      38.084  34.238  32.657  1.00  0.00     0.016 A 
BRANCH   7  12
ATOM     12  N   UNL A   1      39.662  31.524  34.624  1.00  0.00    -0.257 N 
ATOM     13  C   UNL A   1      40.396  32.029  35.782  1.00  0.00     0.144 C 
ATOM     14  C   UNL A   1      41.283  30.834  36.161  1.00  0.00     0.091 C 
ATOM     15  C   UNL A   1      40.906  29.872  35.069  1.00  0.00     0.071 C 
ATOM     16  N   UNL A   1      39.998  30.272  34.237  1.00  0.00    -0.176 NA
BRANCH  13  17
ATOM     17  C   UNL A   1      39.453  32.456  36.896  1.00  0.00    -0.019 A 
ATOM     18  C   UNL A   1      37.476  32.067  38.275  1.00  0.00     0.119 A 
ATOM     19  C   UNL A   1      37.653  33.319  38.864  1.00  0.00     0.046 A 
ATOM     20  C   UNL A   1      38.370  31.643  37.290  1.00  0.00     0.052 A 
ATOM     21  C   UNL A   1      38.720  34.134  38.492  1.00  0.00     0.004 A 
ATOM     22  C   UNL A   1      39.618  33.705  37.513  1.00  0.00     0.006 A 
BRANCH  18  23
ATOM     23  O   UNL A   1      36.386  31.371  38.721  1.00  0.00    -0.497 OA
ATOM     24  C   UNL A   1      35.875  31.739  39.997  1.00  0.00     0.278 C 
ENDBRANCH  18  23
ENDBRANCH  13  17
BRANCH  15  25
ATOM     25  C   UNL A   1      41.571  28.575  34.935  1.00  0.00    -0.002 A 
ATOM     26  C   UNL A   1      41.676  27.763  36.070  1.00  0.00     0.011 A 
ATOM     27  C   UNL A   1      42.117  28.180  33.712  1.00  0.00     0.011 A 
ATOM     28  C   UNL A   1      42.322  26.532  35.981  1.00  0.00     0.021 A 
ATOM     29  C   UNL A   1      42.789  26.958  33.627  1.00  0.00     0.021 A 
ATOM     30  C   UNL A   1      42.891  26.144  34.763  1.00  0.00     0.067 A 
BRANCH  30  31
ATOM     31  S   UNL A   1      43.741  24.586  34.668  1.00  0.00     0.175 S 
ATOM     32  C   UNL A   1      44.405  24.553  33.024  1.00  0.00     0.163 C 
ATOM     33  O   UNL A   1      44.841  24.654  35.609  1.00  0.00    -0.224 OA
ATOM     34  O   UNL A   1      42.742  23.537  34.759  1.00  0.00    -0.224 OA
ENDBRANCH  30  31
ENDBRANCH  15  25
ENDBRANCH   7  12
ENDBRANCH   3   6
ENDBRANCH   1   2
BRANCH   1  35
ATOM     35  C   UNL A   1      35.591  33.193  28.466  1.00  0.00     0.042 C 
BRANCH  35  36
ATOM     36  C   UNL A   1      34.488  32.430  29.196  1.00  0.00     0.118 C 
BRANCH  36  37
ATOM     37  N   UNL A   1      33.923  31.373  28.371  1.00  0.00    -0.352 N 
ATOM     38  C   UNL A   1      34.531  30.293  27.785  1.00  0.00     0.251 C 
ATOM     39  H   UNL A   1      32.954  31.444  28.210  1.00  0.00     0.163 HD
ATOM     40  O   UNL A   1      33.919  29.638  26.943  1.00  0.00    -0.269 OA
BRANCH  38  41
ATOM     41  C   UNL A   1      35.915  29.912  28.143  1.00  0.00     0.039 A 
ATOM     42  C   UNL A   1      36.167  29.443  29.435  1.00  0.00     0.014 A 
ATOM     43  C   UNL A   1      36.971  30.070  27.240  1.00  0.00     0.014 A 
ATOM     44  C   UNL A   1      37.466  29.091  29.809  1.00  0.00     0.010 A 
ATOM     45  C   UNL A   1      38.257  29.665  27.595  1.00  0.00     0.010 A 
ATOM     46  C   UNL A   1      38.518  29.179  28.885  1.00  0.00    -0.014 A 
BRANCH  46  47
ATOM     47  C   UNL A   1      39.897  28.772  29.254  1.00  0.00     0.031 A 
ATOM     48  C   UNL A   1      40.780  29.707  30.036  1.00  0.00     0.074 A 
ATOM     49  C   UNL A   1      40.374  27.581  28.843  1.00  0.00     0.049 A 
ATOM     50  N   UNL A   1      42.033  29.561  30.383  1.00  0.00    -0.248 NA
ATOM     51  C   UNL A   1      40.179  30.979  30.469  1.00  0.00     0.031 C 
ATOM     52  C   UNL A   1      39.629  26.593  28.061  1.00  0.00     0.029 A 
ATOM     53  N   UNL A   1      41.605  27.002  29.023  1.00  0.00    -0.354 N 
ATOM     54  C   UNL A   1      42.374  30.722  31.065  1.00  0.00     0.074 A 
ATOM     55  C   UNL A   1      41.209  31.581  31.047  1.00  0.00     0.031 C 
ATOM     56  C   UNL A   1      40.414  25.525  27.840  1.00  0.00     0.029 A 
ATOM     57  C   UNL A   1      41.725  25.768  28.431  1.00  0.00     0.049 A 
ATOM     58  H   UNL A   1      42.334  27.431  29.527  1.00  0.00     0.167 HD
ATOM     59  C   UNL A   1      43.545  31.039  31.669  1.00  0.00     0.031 A 
ATOM     60  C   UNL A   1      42.777  24.931  28.364  1.00  0.00     0.031 A 
ATOM     61  C   UNL A   1      44.701  30.186  31.697  1.00  0.00     0.049 A 
ATOM     62  C   UNL A   1      44.070  25.318  29.025  1.00  0.00     0.074 A 
ATOM     63  C   UNL A   1      45.926  30.412  32.303  1.00  0.00     0.029 A 
ATOM     64  N   UNL A   1      44.776  28.939  31.098  1.00  0.00    -0.354 N 
ATOM     65  N   UNL A   1      44.362  26.405  29.697  1.00  0.00    -0.248 NA
ATOM     66  C   UNL A   1      45.177  24.355  28.925  1.00  0.00     0.031 C 
ATOM     67  C   UNL A   1      46.752  29.314  32.043  1.00  0.00     0.029 A 
ATOM     68  C   UNL A   1      46.027  28.387  31.313  1.00  0.00     0.049 A 
ATOM     69  H   UNL A   1      44.047  28.509  30.594  1.00  0.00     0.167 HD
ATOM     70  C   UNL A   1      45.673  26.244  30.124  1.00  0.00     0.074 A 
ATOM     71  C   UNL A   1      46.115  24.948  29.650  1.00  0.00     0.031 C 
ATOM     72  C   UNL A   1      46.445  27.093  30.844  1.00  0.00     0.031 A 
BRANCH  59  73
ATOM     73  C   UNL A   1      43.630  32.371  32.359  1.00  0.00    -0.014 A 
ATOM     74  C   UNL A   1      43.335  32.493  33.727  1.00  0.00     0.009 A 
ATOM     75  C   UNL A   1      44.063  33.503  31.653  1.00  0.00     0.009 A 
ATOM     76  C   UNL A   1      43.446  33.729  34.367  1.00  0.00     0.001 A 
ATOM     77  C   UNL A   1      44.197  34.733  32.301  1.00  0.00     0.001 A 
ATOM     78  C   UNL A   1      43.882  34.846  33.655  1.00  0.00     0.000 A 
ENDBRANCH  59  73
BRANCH  60  79
ATOM     79  C   UNL A   1      42.660  23.638  27.641  1.00  0.00    -0.014 A 
ATOM     80  C   UNL A   1      42.993  23.549  26.280  1.00  0.00     0.009 A 
ATOM     81  C   UNL A   1      42.185  22.493  28.300  1.00  0.00     0.009 A 
ATOM     82  C   UNL A   1      42.818  22.350  25.586  1.00  0.00     0.001 A 
ATOM     83  C   UNL A   1      42.039  21.288  27.610  1.00  0.00     0.001 A 
ATOM     84  C   UNL A   1      42.344  21.222  26.251  1.00  0.00     0.000 A 
ENDBRANCH  60  79
BRANCH  72  85
ATOM     85  C   UNL A   1      47.828  26.629  31.198  1.00  0.00    -0.014 A 
ATOM     86  C   UNL A   1      48.919  26.883  30.353  1.00  0.00     0.009 A 
ATOM     87  C   UNL A   1      48.045  25.957  32.410  1.00  0.00     0.009 A 
ATOM     88  C   UNL A   1      50.198  26.444  30.703  1.00  0.00     0.001 A 
ATOM     89  C   UNL A   1      49.327  25.542  32.769  1.00  0.00     0.001 A 
ATOM     90  C   UNL A   1      50.400  25.777  31.911  1.00  0.00     0.000 A 
ENDBRANCH  72  85
ENDBRANCH  46  47
ENDBRANCH  38  41
ENDBRANCH  36  37
ENDBRANCH  35  36
ENDBRANCH   1  35
TORSDOF 15
ENDMDL
MODEL 3
REMARK VINA RESULT:     -13.0      1.677      5.840
REMARK SMILES COc1cccc([C@H]2CC(c3ccc(S(C)(=O)=O)cc3)=NN2c2ccc(C(=O)NCCCNC(=O)c3ccc(-c4c5nc(c(-c6ccccc6)c6ccc([nH]6)c(-c6ccccc6)c6nc(c(-c7ccccc7)c7ccc4[nH]7)C=C6)C=C5)cc3)cc2)c1
REMARK SMILES IDX 30 1 29 2 27 3 28 4 26 6 23 7 24 8 85 9 25 10 84 11 22 12
REMARK SMILES IDX 8 13 9 14 10 15 21 16 7 17 3 18 4 19 86 20 5 21 6 22 2 23
REMARK SMILES IDX 1 24 11 25 12 26 20 27 13 28 19 29 14 30 15 31 16 32 17 33
REMARK SMILES IDX 18 34 31 35 32 36 33 37 34 38 35 40 36 41 37 42 83 43 38 44
REMARK SMILES IDX 82 45 39 46 40 47 41 48 76 49 42 50 81 51 75 52 77 53 43 54
REMARK SMILES IDX 80 55 74 56 73 57 44 59 66 60 51 61 65 62 52 63 55 64 64 65
REMARK SMILES IDX 78 66 53 67 54 68 63 70 79 71 56 72 45 73 46 74 50 75 47 76
REMARK SMILES IDX 49 77 48 78 67 79 68 80 72 81 69 82 71 83 70 84 57 85 58 86
REMARK SMILES IDX 62 87 59 88 61 89 60 90
REMARK H PARENT 29 5 33 39 77 58 55 69
REMARK Flexibility Score: inf
ROOT
ATOM      1  C   UNL A   1      36.740  21.585  24.940  1.00  0.00     0.118 C 
ENDROOT
BRANCH   1   2
ATOM      2  N   UNL A   1      35.445  21.015  24.620  1.00  0.00    -0.352 N 
ATOM      3  C   UNL A   1      34.187  21.554  24.546  1.00  0.00     0.251 C 
ATOM      4  O   UNL A   1      33.273  20.800  24.212  1.00  0.00    -0.269 OA
ATOM      5  H   UNL A   1      35.476  20.053  24.416  1.00  0.00     0.163 HD
BRANCH   3   6
ATOM      6  C   UNL A   1      33.889  22.992  24.796  1.00  0.00     0.039 A 
ATOM      7  C   UNL A   1      33.437  25.770  25.098  1.00  0.00     0.060 A 
ATOM      8  C   UNL A   1      33.882  25.245  23.881  1.00  0.00     0.029 A 
ATOM      9  C   UNL A   1      33.169  24.883  26.142  1.00  0.00     0.029 A 
ATOM     10  C   UNL A   1      34.126  23.877  23.736  1.00  0.00     0.016 A 
ATOM     11  C   UNL A   1      33.356  23.505  25.981  1.00  0.00     0.016 A 
BRANCH   7  12
ATOM     12  N   UNL A   1      33.269  27.135  25.247  1.00  0.00    -0.257 N 
ATOM     13  C   UNL A   1      32.572  27.996  24.294  1.00  0.00     0.144 C 
ATOM     14  C   UNL A   1      32.706  29.383  24.939  1.00  0.00     0.091 C 
ATOM     15  C   UNL A   1      33.532  29.033  26.145  1.00  0.00     0.071 C 
ATOM     16  N   UNL A   1      33.821  27.779  26.300  1.00  0.00    -0.176 NA
BRANCH  13  17
ATOM     17  C   UNL A   1      31.127  27.558  24.102  1.00  0.00    -0.019 A 
ATOM     18  C   UNL A   1      28.885  27.955  23.224  1.00  0.00     0.119 A 
ATOM     19  C   UNL A   1      28.440  26.800  23.867  1.00  0.00     0.046 A 
ATOM     20  C   UNL A   1      30.222  28.334  23.348  1.00  0.00     0.052 A 
ATOM     21  C   UNL A   1      29.320  26.018  24.611  1.00  0.00     0.004 A 
ATOM     22  C   UNL A   1      30.659  26.393  24.727  1.00  0.00     0.006 A 
BRANCH  18  23
ATOM     23  O   UNL A   1      27.920  28.637  22.534  1.00  0.00    -0.497 OA
ATOM     24  C   UNL A   1      27.783  30.021  22.832  1.00  0.00     0.278 C 
ENDBRANCH  18  23
ENDBRANCH  13  17
BRANCH  15  25
ATOM     25  C   UNL A   1      34.019  30.066  27.060  1.00  0.00    -0.002 A 
ATOM     26  C   UNL A   1      33.239  31.213  27.240  1.00  0.00     0.011 A 
ATOM     27  C   UNL A   1      35.248  29.920  27.706  1.00  0.00     0.011 A 
ATOM     28  C   UNL A   1      33.684  32.225  28.087  1.00  0.00     0.021 A 
ATOM     29  C   UNL A   1      35.709  30.946  28.535  1.00  0.00     0.021 A 
ATOM     30  C   UNL A   1      34.926  32.092  28.717  1.00  0.00     0.067 A 
BRANCH  30  31
ATOM     31  S   UNL A   1      35.500  33.404  29.772  1.00  0.00     0.175 S 
ATOM     32  C   UNL A   1      35.303  32.758  31.413  1.00  0.00     0.163 C 
ATOM     33  O   UNL A   1      36.915  33.563  29.506  1.00  0.00    -0.224 OA
ATOM     34  O   UNL A   1      34.580  34.517  29.625  1.00  0.00    -0.224 OA
ENDBRANCH  30  31
ENDBRANCH  15  25
ENDBRANCH   7  12
ENDBRANCH   3   6
ENDBRANCH   1   2
BRANCH   1  35
ATOM     35  C   UNL A   1      37.817  20.501  24.987  1.00  0.00     0.042 C 
BRANCH  35  36
ATOM     36  C   UNL A   1      38.998  20.862  25.885  1.00  0.00     0.118 C 
BRANCH  36  37
ATOM     37  N   UNL A   1      39.995  19.802  25.924  1.00  0.00    -0.352 N 
ATOM     38  C   UNL A   1      41.356  19.878  26.068  1.00  0.00     0.251 C 
ATOM     39  H   UNL A   1      39.636  18.890  25.832  1.00  0.00     0.163 HD
ATOM     40  O   UNL A   1      42.044  18.882  25.852  1.00  0.00    -0.269 OA
BRANCH  38  41
ATOM     41  C   UNL A   1      42.009  21.143  26.469  1.00  0.00     0.039 A 
ATOM     42  C   UNL A   1      42.246  22.114  25.492  1.00  0.00     0.014 A 
ATOM     43  C   UNL A   1      42.444  21.354  27.782  1.00  0.00     0.014 A 
ATOM     44  C   UNL A   1      42.877  23.312  25.836  1.00  0.00     0.010 A 
ATOM     45  C   UNL A   1      43.022  22.573  28.136  1.00  0.00     0.010 A 
ATOM     46  C   UNL A   1      43.250  23.561  27.166  1.00  0.00    -0.014 A 
BRANCH  46  47
ATOM     47  C   UNL A   1      43.886  24.844  27.556  1.00  0.00     0.031 A 
ATOM     48  C   UNL A   1      43.071  25.924  28.215  1.00  0.00     0.074 A 
ATOM     49  C   UNL A   1      45.186  25.057  27.275  1.00  0.00     0.049 A 
ATOM     50  N   UNL A   1      43.430  27.135  28.557  1.00  0.00    -0.248 NA
ATOM     51  C   UNL A   1      41.665  25.606  28.512  1.00  0.00     0.031 C 
ATOM     52  C   UNL A   1      46.080  24.102  26.619  1.00  0.00     0.029 A 
ATOM     53  N   UNL A   1      45.979  26.154  27.498  1.00  0.00    -0.354 N 
ATOM     54  C   UNL A   1      42.296  27.726  29.101  1.00  0.00     0.074 A 
ATOM     55  C   UNL A   1      41.226  26.756  29.003  1.00  0.00     0.031 C 
ATOM     56  C   UNL A   1      47.302  24.648  26.507  1.00  0.00     0.029 A 
ATOM     57  C   UNL A   1      47.268  26.003  27.047  1.00  0.00     0.049 A 
ATOM     58  H   UNL A   1      45.655  26.972  27.941  1.00  0.00     0.167 HD
ATOM     59  C   UNL A   1      42.161  28.958  29.647  1.00  0.00     0.031 A 
ATOM     60  C   UNL A   1      48.303  26.863  27.057  1.00  0.00     0.031 A 
ATOM     61  C   UNL A   1      43.223  29.921  29.752  1.00  0.00     0.049 A 
ATOM     62  C   UNL A   1      48.118  28.231  27.651  1.00  0.00     0.074 A 
ATOM     63  C   UNL A   1      43.185  31.188  30.310  1.00  0.00     0.029 A 
ATOM     64  N   UNL A   1      44.515  29.723  29.295  1.00  0.00    -0.354 N 
ATOM     65  N   UNL A   1      47.047  28.759  28.193  1.00  0.00    -0.248 NA
ATOM     66  C   UNL A   1      49.290  29.119  27.643  1.00  0.00     0.031 C 
ATOM     67  C   UNL A   1      44.450  31.768  30.162  1.00  0.00     0.029 A 
ATOM     68  C   UNL A   1      45.283  30.845  29.552  1.00  0.00     0.049 A 
ATOM     69  H   UNL A   1      44.839  28.904  28.854  1.00  0.00     0.167 HD
ATOM     70  C   UNL A   1      47.424  30.027  28.616  1.00  0.00     0.074 A 
ATOM     71  C   UNL A   1      48.826  30.183  28.282  1.00  0.00     0.031 C 
ATOM     72  C   UNL A   1      46.677  30.979  29.224  1.00  0.00     0.031 A 
BRANCH  59  73
ATOM     73  C   UNL A   1      40.808  29.334  30.183  1.00  0.00    -0.014 A 
ATOM     74  C   UNL A   1      40.467  29.078  31.520  1.00  0.00     0.009 A 
ATOM     75  C   UNL A   1      39.885  29.999  29.361  1.00  0.00     0.009 A 
ATOM     76  C   UNL A   1      39.219  29.457  32.017  1.00  0.00     0.001 A 
ATOM     77  C   UNL A   1      38.647  30.400  29.868  1.00  0.00     0.001 A 
ATOM     78  C   UNL A   1      38.313  30.122  31.192  1.00  0.00     0.000 A 
ENDBRANCH  59  73
BRANCH  60  79
ATOM     79  C   UNL A   1      49.615  26.463  26.486  1.00  0.00    -0.014 A 
ATOM     80  C   UNL A   1      49.958  26.819  25.172  1.00  0.00     0.009 A 
ATOM     81  C   UNL A   1      50.518  25.698  27.239  1.00  0.00     0.009 A 
ATOM     82  C   UNL A   1      51.162  26.384  24.613  1.00  0.00     0.001 A 
ATOM     83  C   UNL A   1      51.734  25.290  26.688  1.00  0.00     0.001 A 
ATOM     84  C   UNL A   1      52.049  25.623  25.372  1.00  0.00     0.000 A 
ENDBRANCH  60  79
BRANCH  72  85
ATOM     85  C   UNL A   1      47.372  32.254  29.607  1.00  0.00    -0.014 A 
ATOM     86  C   UNL A   1      48.011  32.388  30.848  1.00  0.00     0.009 A 
ATOM     87  C   UNL A   1      47.414  33.321  28.697  1.00  0.00     0.009 A 
ATOM     88  C   UNL A   1      48.654  33.582  31.183  1.00  0.00     0.001 A 
ATOM     89  C   UNL A   1      48.079  34.503  29.024  1.00  0.00     0.001 A 
ATOM     90  C   UNL A   1      48.689  34.636  30.270  1.00  0.00     0.000 A 
ENDBRANCH  72  85
ENDBRANCH  46  47
ENDBRANCH  38  41
ENDBRANCH  36  37
ENDBRANCH  35  36
ENDBRANCH   1  35
TORSDOF 15
ENDMDL
