MODEL 1
REMARK VINA RESULT:     -12.8      0.000      0.000
REMARK SMILES COc1cc2c(CC(=O)NCCCNC(=O)c3ccc(-c4c5nc(c(-c6ccccc6)c6ccc([nH]6)c(-c6ccccc6)c6nc(c(-c7ccccc7)c7ccc4[nH]7)C=C6)C=C5)cc3)c(C)n(C(=O)c3ccc(Cl)cc3)c2cc1Cl
REMARK SMILES IDX 11 1 10 2 8 3 9 4 7 6 6 7 3 8 4 9 79 10 5 11 78 12 80 13
REMARK SMILES IDX 77 14 65 15 67 16 66 17 2 18 1 19 68 20 69 21 70 22 71 23
REMARK SMILES IDX 76 24 72 25 75 26 73 27 74 28 12 29 13 30 14 31 15 32 16 34
REMARK SMILES IDX 17 35 18 36 64 37 19 38 63 39 20 40 21 41 22 42 57 43 23 44
REMARK SMILES IDX 62 45 56 46 58 47 24 48 61 49 55 50 54 51 25 53 47 54 32 55
REMARK SMILES IDX 46 56 33 57 36 58 45 59 59 60 34 61 35 62 44 64 60 65 37 66
REMARK SMILES IDX 26 67 27 68 31 69 28 70 30 71 29 72 48 73 49 74 53 75 50 76
REMARK SMILES IDX 52 77 51 78 38 79 39 80 43 81 40 82 42 83 41 84
REMARK H PARENT 10 5 14 33 58 52 36 63
REMARK Flexibility Score: inf
ROOT
ATOM      1  C   UNL A   1      35.940  22.493  24.211  1.00  0.00     0.117 C 
ENDROOT
BRANCH   1   2
ATOM      2  N   UNL A   1      35.064  22.839  25.316  1.00  0.00    -0.356 N 
ATOM      3  C   UNL A   1      34.277  23.940  25.487  1.00  0.00     0.224 C 
ATOM      4  O   UNL A   1      33.604  24.015  26.517  1.00  0.00    -0.275 OA
ATOM      5  H   UNL A   1      35.035  22.183  26.050  1.00  0.00     0.163 HD
BRANCH   3   6
ATOM      6  C   UNL A   1      34.196  25.010  24.412  1.00  0.00     0.138 C 
BRANCH   6   7
ATOM      7  C   UNL A   1      33.012  25.926  24.556  1.00  0.00    -0.009 A 
ATOM      8  C   UNL A   1      33.698  29.248  26.358  1.00  0.00     0.138 A 
ATOM      9  C   UNL A   1      34.006  28.003  25.786  1.00  0.00     0.058 A 
ATOM     10  C   UNL A   1      32.377  29.681  26.362  1.00  0.00     0.085 A 
ATOM     11  C   UNL A   1      33.006  27.206  25.178  1.00  0.00     0.008 A 
ATOM     12  C   UNL A   1      31.365  28.875  25.821  1.00  0.00     0.051 A 
ATOM     13  Cl  UNL A   1      31.868  31.244  26.900  1.00  0.00    -0.080 Cl
ATOM     14  C   UNL A   1      31.691  27.675  25.158  1.00  0.00     0.058 A 
ATOM     15  C   UNL A   1      31.704  25.648  24.167  1.00  0.00     0.028 A 
ATOM     16  N   UNL A   1      30.931  26.799  24.365  1.00  0.00    -0.280 N 
ATOM     17  C   UNL A   1      31.191  24.364  23.591  1.00  0.00     0.065 C 
BRANCH   8  18
ATOM     18  O   UNL A   1      34.794  29.948  26.791  1.00  0.00    -0.495 OA
ATOM     19  C   UNL A   1      35.565  29.332  27.817  1.00  0.00     0.278 C 
ENDBRANCH   8  18
BRANCH  16  20
ATOM     20  C   UNL A   1      29.630  27.049  23.825  1.00  0.00     0.262 C 
ATOM     21  O   UNL A   1      28.770  26.186  23.909  1.00  0.00    -0.268 OA
BRANCH  20  22
ATOM     22  C   UNL A   1      29.237  28.294  23.137  1.00  0.00     0.040 A 
ATOM     23  C   UNL A   1      27.910  28.737  23.162  1.00  0.00     0.015 A 
ATOM     24  C   UNL A   1      30.208  28.975  22.396  1.00  0.00     0.015 A 
ATOM     25  C   UNL A   1      27.536  29.816  22.358  1.00  0.00     0.021 A 
ATOM     26  C   UNL A   1      29.830  30.061  21.604  1.00  0.00     0.021 A 
ATOM     27  C   UNL A   1      28.493  30.462  21.571  1.00  0.00     0.041 A 
ATOM     28  Cl  UNL A   1      28.014  31.741  20.525  1.00  0.00    -0.084 Cl
ENDBRANCH  20  22
ENDBRANCH  16  20
ENDBRANCH   6   7
ENDBRANCH   3   6
ENDBRANCH   1   2
BRANCH   1  29
ATOM     29  C   UNL A   1      37.170  21.702  24.660  1.00  0.00     0.042 C 
BRANCH  29  30
ATOM     30  C   UNL A   1      37.984  22.399  25.752  1.00  0.00     0.118 C 
BRANCH  30  31
ATOM     31  N   UNL A   1      39.343  21.909  25.874  1.00  0.00    -0.352 N 
ATOM     32  C   UNL A   1      40.499  22.354  26.448  1.00  0.00     0.251 C 
ATOM     33  H   UNL A   1      39.463  21.037  25.432  1.00  0.00     0.163 HD
ATOM     34  O   UNL A   1      41.448  21.565  26.418  1.00  0.00    -0.269 OA
BRANCH  32  35
ATOM     35  C   UNL A   1      40.722  23.704  27.034  1.00  0.00     0.039 A 
ATOM     36  C   UNL A   1      41.730  24.054  27.931  1.00  0.00     0.014 A 
ATOM     37  C   UNL A   1      39.772  24.684  26.680  1.00  0.00     0.014 A 
ATOM     38  C   UNL A   1      41.725  25.313  28.534  1.00  0.00     0.010 A 
ATOM     39  C   UNL A   1      39.768  25.942  27.270  1.00  0.00     0.010 A 
ATOM     40  C   UNL A   1      40.716  26.237  28.240  1.00  0.00    -0.014 A 
BRANCH  40  41
ATOM     41  C   UNL A   1      40.755  27.541  28.901  1.00  0.00     0.031 A 
ATOM     42  C   UNL A   1      41.714  28.516  28.308  1.00  0.00     0.074 A 
ATOM     43  C   UNL A   1      39.933  27.908  29.906  1.00  0.00     0.049 A 
ATOM     44  N   UNL A   1      42.738  29.066  28.872  1.00  0.00    -0.248 NA
ATOM     45  C   UNL A   1      41.566  28.842  26.881  1.00  0.00     0.031 C 
ATOM     46  C   UNL A   1      38.754  27.206  30.419  1.00  0.00     0.029 A 
ATOM     47  N   UNL A   1      39.932  29.067  30.628  1.00  0.00    -0.354 N 
ATOM     48  C   UNL A   1      43.287  29.929  27.926  1.00  0.00     0.074 A 
ATOM     49  C   UNL A   1      42.600  29.663  26.688  1.00  0.00     0.031 C 
ATOM     50  C   UNL A   1      38.027  28.051  31.188  1.00  0.00     0.029 A 
ATOM     51  C   UNL A   1      38.765  29.293  31.347  1.00  0.00     0.049 A 
ATOM     52  H   UNL A   1      40.694  29.691  30.637  1.00  0.00     0.167 HD
ATOM     53  C   UNL A   1      44.148  30.926  28.269  1.00  0.00     0.031 A 
ATOM     54  C   UNL A   1      38.412  30.441  31.978  1.00  0.00     0.031 A 
ATOM     55  C   UNL A   1      44.718  30.718  29.573  1.00  0.00     0.049 A 
ATOM     56  C   UNL A   1      39.641  31.233  32.196  1.00  0.00     0.074 A 
ATOM     57  C   UNL A   1      45.520  29.745  30.136  1.00  0.00     0.029 A 
ATOM     58  N   UNL A   1      44.179  31.416  30.625  1.00  0.00    -0.354 N 
ATOM     59  N   UNL A   1      40.584  30.896  33.024  1.00  0.00    -0.248 NA
ATOM     60  C   UNL A   1      40.008  32.211  31.188  1.00  0.00     0.031 C 
ATOM     61  C   UNL A   1      45.035  29.597  31.466  1.00  0.00     0.029 A 
ATOM     62  C   UNL A   1      44.018  30.535  31.660  1.00  0.00     0.049 A 
ATOM     63  H   UNL A   1      43.951  32.374  30.633  1.00  0.00     0.167 HD
ATOM     64  C   UNL A   1      41.757  31.258  32.380  1.00  0.00     0.074 A 
ATOM     65  C   UNL A   1      41.337  32.155  31.306  1.00  0.00     0.031 C 
ATOM     66  C   UNL A   1      42.921  30.581  32.603  1.00  0.00     0.031 A 
BRANCH  53  67
ATOM     67  C   UNL A   1      44.205  32.264  27.572  1.00  0.00    -0.014 A 
ATOM     68  C   UNL A   1      44.506  32.409  26.205  1.00  0.00     0.009 A 
ATOM     69  C   UNL A   1      43.683  33.396  28.226  1.00  0.00     0.009 A 
ATOM     70  C   UNL A   1      44.280  33.605  25.518  1.00  0.00     0.001 A 
ATOM     71  C   UNL A   1      43.416  34.583  27.530  1.00  0.00     0.001 A 
ATOM     72  C   UNL A   1      43.710  34.684  26.175  1.00  0.00     0.000 A 
ENDBRANCH  53  67
BRANCH  54  73
ATOM     73  C   UNL A   1      37.079  31.081  32.066  1.00  0.00    -0.014 A 
ATOM     74  C   UNL A   1      36.331  31.313  30.899  1.00  0.00     0.009 A 
ATOM     75  C   UNL A   1      36.701  31.768  33.234  1.00  0.00     0.009 A 
ATOM     76  C   UNL A   1      35.290  32.246  30.880  1.00  0.00     0.001 A 
ATOM     77  C   UNL A   1      35.660  32.706  33.213  1.00  0.00     0.001 A 
ATOM     78  C   UNL A   1      34.969  32.959  32.031  1.00  0.00     0.000 A 
ENDBRANCH  54  73
BRANCH  66  79
ATOM     79  C   UNL A   1      42.982  29.603  33.755  1.00  0.00    -0.014 A 
ATOM     80  C   UNL A   1      42.306  28.380  33.615  1.00  0.00     0.009 A 
ATOM     81  C   UNL A   1      43.531  29.914  35.011  1.00  0.00     0.009 A 
ATOM     82  C   UNL A   1      42.172  27.501  34.692  1.00  0.00     0.001 A 
ATOM     83  C   UNL A   1      43.423  29.020  36.083  1.00  0.00     0.001 A 
ATOM     84  C   UNL A   1      42.733  27.820  35.925  1.00  0.00     0.000 A 
ENDBRANCH  66  79
ENDBRANCH  40  41
ENDBRANCH  32  35
ENDBRANCH  30  31
ENDBRANCH  29  30
ENDBRANCH   1  29
TORSDOF 14
ENDMDL
MODEL 2
REMARK VINA RESULT:     -12.7      2.629      4.515
REMARK SMILES COc1cc2c(CC(=O)NCCCNC(=O)c3ccc(-c4c5nc(c(-c6ccccc6)c6ccc([nH]6)c(-c6ccccc6)c6nc(c(-c7ccccc7)c7ccc4[nH]7)C=C6)C=C5)cc3)c(C)n(C(=O)c3ccc(Cl)cc3)c2cc1Cl
REMARK SMILES IDX 11 1 10 2 8 3 9 4 7 6 6 7 3 8 4 9 79 10 5 11 78 12 80 13
REMARK SMILES IDX 77 14 65 15 67 16 66 17 2 18 1 19 68 20 69 21 70 22 71 23
REMARK SMILES IDX 76 24 72 25 75 26 73 27 74 28 12 29 13 30 14 31 15 32 16 34
REMARK SMILES IDX 17 35 18 36 64 37 19 38 63 39 20 40 21 41 22 42 57 43 23 44
REMARK SMILES IDX 62 45 56 46 58 47 24 48 61 49 55 50 54 51 25 53 47 54 32 55
REMARK SMILES IDX 46 56 33 57 36 58 45 59 59 60 34 61 35 62 44 64 60 65 37 66
REMARK SMILES IDX 26 67 27 68 31 69 28 70 30 71 29 72 48 73 49 74 53 75 50 76
REMARK SMILES IDX 52 77 51 78 38 79 39 80 43 81 40 82 42 83 41 84
REMARK H PARENT 10 5 14 33 58 52 36 63
REMARK Flexibility Score: inf
ROOT
ATOM      1  C   UNL A   1      39.102  20.817  25.768  1.00  0.00     0.117 C 
ENDROOT
BRANCH   1   2
ATOM      2  N   UNL A   1      38.732  22.134  26.256  1.00  0.00    -0.356 N 
ATOM      3  C   UNL A   1      37.820  23.018  25.758  1.00  0.00     0.224 C 
ATOM      4  O   UNL A   1      37.668  24.088  26.353  1.00  0.00    -0.275 OA
ATOM      5  H   UNL A   1      39.210  22.432  27.063  1.00  0.00     0.163 HD
BRANCH   3   6
ATOM      6  C   UNL A   1      36.983  22.667  24.540  1.00  0.00     0.138 C 
BRANCH   6   7
ATOM      7  C   UNL A   1      35.545  22.366  24.859  1.00  0.00    -0.009 A 
ATOM      8  C   UNL A   1      34.546  18.662  24.670  1.00  0.00     0.138 A 
ATOM      9  C   UNL A   1      35.408  19.770  24.627  1.00  0.00     0.058 A 
ATOM     10  C   UNL A   1      33.192  18.869  24.909  1.00  0.00     0.085 A 
ATOM     11  C   UNL A   1      34.931  21.082  24.862  1.00  0.00     0.008 A 
ATOM     12  C   UNL A   1      32.693  20.168  25.082  1.00  0.00     0.051 A 
ATOM     13  Cl  UNL A   1      32.039  17.599  25.132  1.00  0.00    -0.080 Cl
ATOM     14  C   UNL A   1      33.575  21.267  25.138  1.00  0.00     0.058 A 
ATOM     15  C   UNL A   1      34.551  23.301  25.138  1.00  0.00     0.028 A 
ATOM     16  N   UNL A   1      33.385  22.612  25.496  1.00  0.00    -0.280 N 
ATOM     17  C   UNL A   1      34.686  24.792  25.112  1.00  0.00     0.065 C 
BRANCH   8  18
ATOM     18  O   UNL A   1      35.183  17.456  24.546  1.00  0.00    -0.495 OA
ATOM     19  C   UNL A   1      34.676  16.580  23.544  1.00  0.00     0.278 C 
ENDBRANCH   8  18
BRANCH  16  20
ATOM     20  C   UNL A   1      32.236  23.168  26.141  1.00  0.00     0.262 C 
ATOM     21  O   UNL A   1      32.013  22.893  27.310  1.00  0.00    -0.268 OA
BRANCH  20  22
ATOM     22  C   UNL A   1      31.258  24.057  25.484  1.00  0.00     0.040 A 
ATOM     23  C   UNL A   1      31.070  24.013  24.098  1.00  0.00     0.015 A 
ATOM     24  C   UNL A   1      30.582  24.995  26.271  1.00  0.00     0.015 A 
ATOM     25  C   UNL A   1      30.272  24.983  23.487  1.00  0.00     0.021 A 
ATOM     26  C   UNL A   1      29.776  25.953  25.655  1.00  0.00     0.021 A 
ATOM     27  C   UNL A   1      29.643  25.957  24.266  1.00  0.00     0.041 A 
ATOM     28  Cl  UNL A   1      28.723  27.195  23.503  1.00  0.00    -0.084 Cl
ENDBRANCH  20  22
ENDBRANCH  16  20
ENDBRANCH   6   7
ENDBRANCH   3   6
ENDBRANCH   1   2
BRANCH   1  29
ATOM     29  C   UNL A   1      40.401  20.302  26.391  1.00  0.00     0.042 C 
BRANCH  29  30
ATOM     30  C   UNL A   1      41.378  21.413  26.783  1.00  0.00     0.118 C 
BRANCH  30  31
ATOM     31  N   UNL A   1      42.182  21.903  25.680  1.00  0.00    -0.352 N 
ATOM     32  C   UNL A   1      42.803  23.077  25.364  1.00  0.00     0.251 C 
ATOM     33  H   UNL A   1      42.312  21.218  24.984  1.00  0.00     0.163 HD
ATOM     34  O   UNL A   1      43.499  23.054  24.345  1.00  0.00    -0.269 OA
BRANCH  32  35
ATOM     35  C   UNL A   1      42.662  24.366  26.094  1.00  0.00     0.039 A 
ATOM     36  C   UNL A   1      43.156  24.649  27.366  1.00  0.00     0.014 A 
ATOM     37  C   UNL A   1      41.897  25.354  25.438  1.00  0.00     0.014 A 
ATOM     38  C   UNL A   1      42.808  25.840  28.004  1.00  0.00     0.010 A 
ATOM     39  C   UNL A   1      41.556  26.546  26.066  1.00  0.00     0.010 A 
ATOM     40  C   UNL A   1      41.968  26.765  27.373  1.00  0.00    -0.014 A 
BRANCH  40  41
ATOM     41  C   UNL A   1      41.631  27.996  28.086  1.00  0.00     0.031 A 
ATOM     42  C   UNL A   1      42.625  29.097  27.940  1.00  0.00     0.074 A 
ATOM     43  C   UNL A   1      40.475  28.196  28.752  1.00  0.00     0.049 A 
ATOM     44  N   UNL A   1      43.321  29.668  28.867  1.00  0.00    -0.248 NA
ATOM     45  C   UNL A   1      42.952  29.549  26.579  1.00  0.00     0.031 C 
ATOM     46  C   UNL A   1      39.274  27.357  28.763  1.00  0.00     0.029 A 
ATOM     47  N   UNL A   1      40.096  29.275  29.498  1.00  0.00    -0.354 N 
ATOM     48  C   UNL A   1      44.070  30.660  28.237  1.00  0.00     0.074 A 
ATOM     49  C   UNL A   1      43.893  30.464  26.821  1.00  0.00     0.031 C 
ATOM     50  C   UNL A   1      38.237  28.062  29.272  1.00  0.00     0.029 A 
ATOM     51  C   UNL A   1      38.733  29.337  29.764  1.00  0.00     0.049 A 
ATOM     52  H   UNL A   1      40.733  29.953  29.819  1.00  0.00     0.167 HD
ATOM     53  C   UNL A   1      44.642  31.683  28.929  1.00  0.00     0.031 A 
ATOM     54  C   UNL A   1      38.060  30.386  30.298  1.00  0.00     0.031 A 
ATOM     55  C   UNL A   1      44.739  31.393  30.334  1.00  0.00     0.049 A 
ATOM     56  C   UNL A   1      39.041  31.247  30.993  1.00  0.00     0.074 A 
ATOM     57  C   UNL A   1      45.393  30.436  31.083  1.00  0.00     0.029 A 
ATOM     58  N   UNL A   1      43.793  31.940  31.165  1.00  0.00    -0.354 N 
ATOM     59  N   UNL A   1      39.664  30.906  32.080  1.00  0.00    -0.248 NA
ATOM     60  C   UNL A   1      39.629  32.346  30.247  1.00  0.00     0.031 C 
ATOM     61  C   UNL A   1      44.492  30.120  32.139  1.00  0.00     0.029 A 
ATOM     62  C   UNL A   1      43.376  30.951  32.016  1.00  0.00     0.049 A 
ATOM     63  H   UNL A   1      43.474  32.872  31.152  1.00  0.00     0.167 HD
ATOM     64  C   UNL A   1      40.941  31.421  31.923  1.00  0.00     0.074 A 
ATOM     65  C   UNL A   1      40.830  32.383  30.830  1.00  0.00     0.031 C 
ATOM     66  C   UNL A   1      42.020  30.819  32.504  1.00  0.00     0.031 A 
BRANCH  53  67
ATOM     67  C   UNL A   1      44.794  33.083  28.386  1.00  0.00    -0.014 A 
ATOM     68  C   UNL A   1      46.026  33.618  27.966  1.00  0.00     0.009 A 
ATOM     69  C   UNL A   1      43.640  33.805  28.027  1.00  0.00     0.009 A 
ATOM     70  C   UNL A   1      46.108  34.792  27.212  1.00  0.00     0.001 A 
ATOM     71  C   UNL A   1      43.716  34.959  27.236  1.00  0.00     0.001 A 
ATOM     72  C   UNL A   1      44.951  35.449  26.825  1.00  0.00     0.000 A 
ENDBRANCH  53  67
BRANCH  54  73
ATOM     73  C   UNL A   1      36.719  30.907  29.945  1.00  0.00    -0.014 A 
ATOM     74  C   UNL A   1      36.378  31.115  28.596  1.00  0.00     0.009 A 
ATOM     75  C   UNL A   1      35.918  31.520  30.925  1.00  0.00     0.009 A 
ATOM     76  C   UNL A   1      35.320  31.956  28.239  1.00  0.00     0.001 A 
ATOM     77  C   UNL A   1      34.860  32.367  30.565  1.00  0.00     0.001 A 
ATOM     78  C   UNL A   1      34.576  32.600  29.222  1.00  0.00     0.000 A 
ENDBRANCH  54  73
BRANCH  66  79
ATOM     79  C   UNL A   1      41.780  29.739  33.537  1.00  0.00    -0.014 A 
ATOM     80  C   UNL A   1      41.913  30.085  34.891  1.00  0.00     0.009 A 
ATOM     81  C   UNL A   1      41.599  28.383  33.216  1.00  0.00     0.009 A 
ATOM     82  C   UNL A   1      41.878  29.112  35.892  1.00  0.00     0.001 A 
ATOM     83  C   UNL A   1      41.532  27.411  34.221  1.00  0.00     0.001 A 
ATOM     84  C   UNL A   1      41.684  27.776  35.557  1.00  0.00     0.000 A 
ENDBRANCH  66  79
ENDBRANCH  40  41
ENDBRANCH  32  35
ENDBRANCH  30  31
ENDBRANCH  29  30
ENDBRANCH   1  29
TORSDOF 14
ENDMDL
MODEL 3
REMARK VINA RESULT:     -12.5      4.255      8.326
REMARK SMILES COc1cc2c(CC(=O)NCCCNC(=O)c3ccc(-c4c5nc(c(-c6ccccc6)c6ccc([nH]6)c(-c6ccccc6)c6nc(c(-c7ccccc7)c7ccc4[nH]7)C=C6)C=C5)cc3)c(C)n(C(=O)c3ccc(Cl)cc3)c2cc1Cl
REMARK SMILES IDX 11 1 10 2 8 3 9 4 7 6 6 7 3 8 4 9 79 10 5 11 78 12 80 13
REMARK SMILES IDX 77 14 65 15 67 16 66 17 2 18 1 19 68 20 69 21 70 22 71 23
REMARK SMILES IDX 76 24 72 25 75 26 73 27 74 28 12 29 13 30 14 31 15 32 16 34
REMARK SMILES IDX 17 35 18 36 64 37 19 38 63 39 20 40 21 41 22 42 57 43 23 44
REMARK SMILES IDX 62 45 56 46 58 47 24 48 61 49 55 50 54 51 25 53 47 54 32 55
REMARK SMILES IDX 46 56 33 57 36 58 45 59 59 60 34 61 35 62 44 64 60 65 37 66
REMARK SMILES IDX 26 67 27 68 31 69 28 70 30 71 29 72 48 73 49 74 53 75 50 76
REMARK SMILES IDX 52 77 51 78 38 79 39 80 43 81 40 82 42 83 41 84
REMARK H PARENT 10 5 14 33 58 52 36 63
REMARK Flexibility Score: inf
ROOT
ATOM      1  C   UNL A   1      46.449  24.541  27.479  1.00  0.00     0.117 C 
ENDROOT
BRANCH   1   2
ATOM      2  N   UNL A   1      46.782  24.093  26.139  1.00  0.00    -0.356 N 
ATOM      3  C   UNL A   1      46.049  24.168  24.991  1.00  0.00     0.224 C 
ATOM      4  O   UNL A   1      46.548  23.722  23.956  1.00  0.00    -0.275 OA
ATOM      5  H   UNL A   1      47.668  23.673  26.045  1.00  0.00     0.163 HD
BRANCH   3   6
ATOM      6  C   UNL A   1      44.681  24.831  24.987  1.00  0.00     0.138 C 
BRANCH   6   7
ATOM      7  C   UNL A   1      43.567  23.925  25.433  1.00  0.00    -0.009 A 
ATOM      8  C   UNL A   1      44.374  20.170  25.405  1.00  0.00     0.138 A 
ATOM      9  C   UNL A   1      44.625  21.545  25.265  1.00  0.00     0.058 A 
ATOM     10  C   UNL A   1      43.096  19.749  25.753  1.00  0.00     0.085 A 
ATOM     11  C   UNL A   1      43.615  22.505  25.514  1.00  0.00     0.008 A 
ATOM     12  C   UNL A   1      42.068  20.684  25.941  1.00  0.00     0.051 A 
ATOM     13  Cl  UNL A   1      42.674  18.108  26.099  1.00  0.00    -0.080 Cl
ATOM     14  C   UNL A   1      42.348  22.065  25.900  1.00  0.00     0.058 A 
ATOM     15  C   UNL A   1      42.275  24.316  25.776  1.00  0.00     0.028 A 
ATOM     16  N   UNL A   1      41.583  23.193  26.245  1.00  0.00    -0.280 N 
ATOM     17  C   UNL A   1      41.707  25.701  25.709  1.00  0.00     0.065 C 
BRANCH   8  18
ATOM     18  O   UNL A   1      45.485  19.383  25.251  1.00  0.00    -0.495 OA
ATOM     19  C   UNL A   1      46.606  19.999  24.625  1.00  0.00     0.278 C 
ENDBRANCH   8  18
BRANCH  16  20
ATOM     20  C   UNL A   1      40.353  23.198  26.975  1.00  0.00     0.262 C 
ATOM     21  O   UNL A   1      40.370  23.408  28.177  1.00  0.00    -0.268 OA
BRANCH  20  22
ATOM     22  C   UNL A   1      39.028  22.943  26.377  1.00  0.00     0.040 A 
ATOM     23  C   UNL A   1      38.720  21.694  25.826  1.00  0.00     0.015 A 
ATOM     24  C   UNL A   1      38.118  24.003  26.308  1.00  0.00     0.015 A 
ATOM     25  C   UNL A   1      37.529  21.537  25.114  1.00  0.00     0.021 A 
ATOM     26  C   UNL A   1      36.923  23.835  25.605  1.00  0.00     0.021 A 
ATOM     27  C   UNL A   1      36.645  22.612  24.992  1.00  0.00     0.041 A 
ATOM     28  Cl  UNL A   1      35.217  22.439  24.050  1.00  0.00    -0.084 Cl
ENDBRANCH  20  22
ENDBRANCH  16  20
ENDBRANCH   6   7
ENDBRANCH   3   6
ENDBRANCH   1   2
BRANCH   1  29
ATOM     29  C   UNL A   1      47.634  25.193  28.194  1.00  0.00     0.042 C 
BRANCH  29  30
ATOM     30  C   UNL A   1      47.321  25.635  29.625  1.00  0.00     0.118 C 
BRANCH  30  31
ATOM     31  N   UNL A   1      46.287  24.849  30.270  1.00  0.00    -0.352 N 
ATOM     32  C   UNL A   1      44.974  25.034  30.597  1.00  0.00     0.251 C 
ATOM     33  H   UNL A   1      46.613  23.959  30.539  1.00  0.00     0.163 HD
ATOM     34  O   UNL A   1      44.396  24.046  31.060  1.00  0.00    -0.269 OA
BRANCH  32  35
ATOM     35  C   UNL A   1      44.221  26.313  30.503  1.00  0.00     0.039 A 
ATOM     36  C   UNL A   1      44.080  27.260  31.517  1.00  0.00     0.014 A 
ATOM     37  C   UNL A   1      43.546  26.533  29.284  1.00  0.00     0.014 A 
ATOM     38  C   UNL A   1      43.207  28.336  31.354  1.00  0.00     0.010 A 
ATOM     39  C   UNL A   1      42.683  27.609  29.113  1.00  0.00     0.010 A 
ATOM     40  C   UNL A   1      42.472  28.483  30.171  1.00  0.00    -0.014 A 
BRANCH  40  41
ATOM     41  C   UNL A   1      41.569  29.627  30.052  1.00  0.00     0.031 A 
ATOM     42  C   UNL A   1      42.243  30.934  29.807  1.00  0.00     0.074 A 
ATOM     43  C   UNL A   1      40.224  29.536  30.056  1.00  0.00     0.049 A 
ATOM     44  N   UNL A   1      42.228  31.987  30.555  1.00  0.00    -0.248 NA
ATOM     45  C   UNL A   1      43.119  31.044  28.631  1.00  0.00     0.031 C 
ATOM     46  C   UNL A   1      39.393  28.330  29.994  1.00  0.00     0.029 A 
ATOM     47  N   UNL A   1      39.300  30.541  30.017  1.00  0.00    -0.354 N 
ATOM     48  C   UNL A   1      42.967  32.955  29.878  1.00  0.00     0.074 A 
ATOM     49  C   UNL A   1      43.587  32.286  28.763  1.00  0.00     0.031 C 
ATOM     50  C   UNL A   1      38.121  28.676  29.686  1.00  0.00     0.029 A 
ATOM     51  C   UNL A   1      38.015  30.125  29.686  1.00  0.00     0.049 A 
ATOM     52  H   UNL A   1      39.525  31.480  30.207  1.00  0.00     0.167 HD
ATOM     53  C   UNL A   1      42.876  34.279  30.182  1.00  0.00     0.031 A 
ATOM     54  C   UNL A   1      36.962  30.923  29.378  1.00  0.00     0.031 A 
ATOM     55  C   UNL A   1      42.297  34.493  31.481  1.00  0.00     0.049 A 
ATOM     56  C   UNL A   1      37.243  32.272  29.914  1.00  0.00     0.074 A 
ATOM     57  C   UNL A   1      42.658  34.156  32.771  1.00  0.00     0.029 A 
ATOM     58  N   UNL A   1      40.968  34.836  31.539  1.00  0.00    -0.354 N 
ATOM     59  N   UNL A   1      37.277  32.557  31.181  1.00  0.00    -0.248 NA
ATOM     60  C   UNL A   1      37.887  33.232  29.035  1.00  0.00     0.031 C 
ATOM     61  C   UNL A   1      41.431  33.840  33.422  1.00  0.00     0.029 A 
ATOM     62  C   UNL A   1      40.392  34.071  32.518  1.00  0.00     0.049 A 
ATOM     63  H   UNL A   1      40.515  35.509  30.981  1.00  0.00     0.167 HD
ATOM     64  C   UNL A   1      38.314  33.469  31.304  1.00  0.00     0.074 A 
ATOM     65  C   UNL A   1      38.580  33.924  29.942  1.00  0.00     0.031 C 
ATOM     66  C   UNL A   1      39.040  33.558  32.456  1.00  0.00     0.031 A 
BRANCH  53  67
ATOM     67  C   UNL A   1      42.989  35.385  29.162  1.00  0.00    -0.014 A 
ATOM     68  C   UNL A   1      44.208  36.003  28.826  1.00  0.00     0.009 A 
ATOM     69  C   UNL A   1      41.897  35.642  28.310  1.00  0.00     0.009 A 
ATOM     70  C   UNL A   1      44.343  36.814  27.695  1.00  0.00     0.001 A 
ATOM     71  C   UNL A   1      42.040  36.420  27.154  1.00  0.00     0.001 A 
ATOM     72  C   UNL A   1      43.265  37.001  26.844  1.00  0.00     0.000 A 
ENDBRANCH  53  67
BRANCH  54  73
ATOM     73  C   UNL A   1      35.918  30.726  28.346  1.00  0.00    -0.014 A 
ATOM     74  C   UNL A   1      34.810  31.589  28.294  1.00  0.00     0.009 A 
ATOM     75  C   UNL A   1      35.832  29.506  27.651  1.00  0.00     0.009 A 
ATOM     76  C   UNL A   1      33.636  31.220  27.630  1.00  0.00     0.001 A 
ATOM     77  C   UNL A   1      34.654  29.135  26.989  1.00  0.00     0.001 A 
ATOM     78  C   UNL A   1      33.549  29.983  26.997  1.00  0.00     0.000 A 
ENDBRANCH  54  73
BRANCH  66  79
ATOM     79  C   UNL A   1      38.536  32.842  33.690  1.00  0.00    -0.014 A 
ATOM     80  C   UNL A   1      37.993  33.620  34.725  1.00  0.00     0.009 A 
ATOM     81  C   UNL A   1      38.733  31.471  33.927  1.00  0.00     0.009 A 
ATOM     82  C   UNL A   1      37.667  33.053  35.959  1.00  0.00     0.001 A 
ATOM     83  C   UNL A   1      38.377  30.896  35.153  1.00  0.00     0.001 A 
ATOM     84  C   UNL A   1      37.855  31.691  36.172  1.00  0.00     0.000 A 
ENDBRANCH  66  79
ENDBRANCH  40  41
ENDBRANCH  32  35
ENDBRANCH  30  31
ENDBRANCH  29  30
ENDBRANCH   1  29
TORSDOF 14
ENDMDL
