MODEL 1
REMARK VINA RESULT:     -12.0      0.000      0.000
REMARK SMILES O=C(NCCCNC(=O)[C@H]1CCCN(C(=O)c2cccc3[nH]ccc23)C1)c1ccc(-c2c3nc(c(-c4ccccc4)c4ccc([nH]4)c(-c4ccccc4)c4nc(c(-c5ccccc5)c5ccc2[nH]5)C=C4)C=C3)cc1
REMARK SMILES IDX 5 1 4 2 3 3 1 4 2 5 27 7 28 8 74 9 29 10 73 11 30 12 31 13
REMARK SMILES IDX 32 14 67 15 33 16 72 17 66 18 68 19 34 20 71 21 65 22 64 23
REMARK SMILES IDX 35 25 57 26 42 27 56 28 43 29 46 30 55 31 69 32 44 33 45 34
REMARK SMILES IDX 54 36 70 37 47 38 36 39 37 40 41 41 38 42 40 43 39 44 58 45
REMARK SMILES IDX 59 46 63 47 60 48 62 49 61 50 48 51 49 52 53 53 50 54 52 55
REMARK SMILES IDX 51 56 6 57 7 58 8 59 9 61 10 62 11 63 26 64 12 65 14 66
REMARK SMILES IDX 13 67 15 68 16 69 17 70 18 71 25 72 19 73 21 74 24 75 20 76
REMARK SMILES IDX 22 77 23 78
REMARK H PARENT 3 6 68 24 46 35 7 60 22 79
REMARK Flexibility Score: inf
ROOT
ATOM      1  C   UNL A   1      34.075  28.428  25.918  1.00  0.00     0.042 C 
ENDROOT
BRANCH   1   2
ATOM      2  C   UNL A   1      33.666  28.654  27.368  1.00  0.00     0.118 C 
BRANCH   2   3
ATOM      3  N   UNL A   1      33.656  30.066  27.724  1.00  0.00    -0.352 N 
ATOM      4  O   UNL A   1      34.308  31.944  28.775  1.00  0.00    -0.269 OA
ATOM      5  C   UNL A   1      34.607  30.827  28.354  1.00  0.00     0.251 C 
ATOM      6  H   UNL A   1      32.838  30.552  27.471  1.00  0.00     0.163 HD
BRANCH   5   7
ATOM      7  C   UNL A   1      35.984  30.322  28.540  1.00  0.00     0.039 A 
ATOM      8  C   UNL A   1      36.930  30.402  27.515  1.00  0.00     0.014 A 
ATOM      9  C   UNL A   1      36.355  29.825  29.793  1.00  0.00     0.014 A 
ATOM     10  C   UNL A   1      38.207  29.876  27.702  1.00  0.00     0.010 A 
ATOM     11  C   UNL A   1      37.657  29.365  30.003  1.00  0.00     0.010 A 
ATOM     12  C   UNL A   1      38.587  29.366  28.953  1.00  0.00    -0.014 A 
BRANCH  12  13
ATOM     13  C   UNL A   1      39.973  28.880  29.171  1.00  0.00     0.031 A 
ATOM     14  C   UNL A   1      41.020  29.785  29.754  1.00  0.00     0.074 A 
ATOM     15  C   UNL A   1      40.291  27.621  28.817  1.00  0.00     0.049 A 
ATOM     16  N   UNL A   1      42.294  29.553  29.948  1.00  0.00    -0.248 NA
ATOM     17  C   UNL A   1      40.583  31.127  30.165  1.00  0.00     0.031 C 
ATOM     18  C   UNL A   1      39.364  26.645  28.243  1.00  0.00     0.029 A 
ATOM     19  N   UNL A   1      41.484  26.948  28.883  1.00  0.00    -0.354 N 
ATOM     20  C   UNL A   1      42.816  30.726  30.478  1.00  0.00     0.074 A 
ATOM     21  C   UNL A   1      41.725  31.675  30.555  1.00  0.00     0.031 C 
ATOM     22  C   UNL A   1      40.017  25.493  28.029  1.00  0.00     0.029 A 
ATOM     23  C   UNL A   1      41.418  25.668  28.393  1.00  0.00     0.049 A 
ATOM     24  H   UNL A   1      42.309  27.345  29.247  1.00  0.00     0.167 HD
ATOM     25  C   UNL A   1      44.088  30.988  30.865  1.00  0.00     0.031 A 
ATOM     26  C   UNL A   1      42.381  24.742  28.228  1.00  0.00     0.031 A 
ATOM     27  C   UNL A   1      45.171  30.042  30.788  1.00  0.00     0.049 A 
ATOM     28  C   UNL A   1      43.788  25.067  28.628  1.00  0.00     0.074 A 
ATOM     29  C   UNL A   1      46.487  30.203  31.185  1.00  0.00     0.029 A 
ATOM     30  N   UNL A   1      45.063  28.760  30.272  1.00  0.00    -0.354 N 
ATOM     31  N   UNL A   1      44.262  26.172  29.151  1.00  0.00    -0.248 NA
ATOM     32  C   UNL A   1      44.795  24.018  28.419  1.00  0.00     0.031 C 
ATOM     33  C   UNL A   1      47.187  29.035  30.865  1.00  0.00     0.029 A 
ATOM     34  C   UNL A   1      46.294  28.126  30.319  1.00  0.00     0.049 A 
ATOM     35  H   UNL A   1      44.234  28.358  29.923  1.00  0.00     0.167 HD
ATOM     36  C   UNL A   1      45.615  25.945  29.355  1.00  0.00     0.074 A 
ATOM     37  C   UNL A   1      45.886  24.593  28.908  1.00  0.00     0.031 C 
ATOM     38  C   UNL A   1      46.548  26.781  29.871  1.00  0.00     0.031 A 
BRANCH  25  39
ATOM     39  C   UNL A   1      44.383  32.372  31.373  1.00  0.00    -0.014 A 
ATOM     40  C   UNL A   1      44.283  32.688  32.738  1.00  0.00     0.009 A 
ATOM     41  C   UNL A   1      44.791  33.370  30.474  1.00  0.00     0.009 A 
ATOM     42  C   UNL A   1      44.544  33.987  33.183  1.00  0.00     0.001 A 
ATOM     43  C   UNL A   1      45.079  34.659  30.926  1.00  0.00     0.001 A 
ATOM     44  C   UNL A   1      44.945  34.970  32.278  1.00  0.00     0.000 A 
ENDBRANCH  25  39
BRANCH  26  45
ATOM     45  C   UNL A   1      42.031  23.425  27.639  1.00  0.00    -0.014 A 
ATOM     46  C   UNL A   1      41.496  22.406  28.441  1.00  0.00     0.009 A 
ATOM     47  C   UNL A   1      42.191  23.197  26.263  1.00  0.00     0.009 A 
ATOM     48  C   UNL A   1      41.138  21.180  27.876  1.00  0.00     0.001 A 
ATOM     49  C   UNL A   1      41.807  21.980  25.698  1.00  0.00     0.001 A 
ATOM     50  C   UNL A   1      41.286  20.969  26.505  1.00  0.00     0.000 A 
ENDBRANCH  26  45
BRANCH  38  51
ATOM     51  C   UNL A   1      47.943  26.245  30.020  1.00  0.00    -0.014 A 
ATOM     52  C   UNL A   1      48.853  26.271  28.953  1.00  0.00     0.009 A 
ATOM     53  C   UNL A   1      48.365  25.754  31.266  1.00  0.00     0.009 A 
ATOM     54  C   UNL A   1      50.153  25.791  29.125  1.00  0.00     0.001 A 
ATOM     55  C   UNL A   1      49.672  25.298  31.441  1.00  0.00     0.001 A 
ATOM     56  C   UNL A   1      50.562  25.310  30.369  1.00  0.00     0.000 A 
ENDBRANCH  38  51
ENDBRANCH  12  13
ENDBRANCH   5   7
ENDBRANCH   2   3
ENDBRANCH   1   2
BRANCH   1  57
ATOM     57  C   UNL A   1      33.262  29.240  24.916  1.00  0.00     0.117 C 
BRANCH  57  58
ATOM     58  N   UNL A   1      33.720  29.070  23.544  1.00  0.00    -0.356 N 
ATOM     59  C   UNL A   1      33.710  27.966  22.743  1.00  0.00     0.224 C 
ATOM     60  H   UNL A   1      34.095  29.881  23.129  1.00  0.00     0.163 HD
ATOM     61  O   UNL A   1      34.150  28.072  21.597  1.00  0.00    -0.275 OA
BRANCH  59  62
ATOM     62  C   UNL A   1      33.205  26.648  23.290  1.00  0.00     0.098 C 
ATOM     63  C   UNL A   1      31.683  26.656  23.493  1.00  0.00     0.017 C 
ATOM     64  C   UNL A   1      33.559  25.523  22.321  1.00  0.00     0.133 C 
ATOM     65  C   UNL A   1      31.219  25.300  24.036  1.00  0.00     0.022 C 
ATOM     66  N   UNL A   1      33.152  24.248  22.909  1.00  0.00    -0.338 N 
ATOM     67  C   UNL A   1      31.714  24.132  23.177  1.00  0.00     0.120 C 
BRANCH  66  68
ATOM     68  C   UNL A   1      34.148  23.377  23.353  1.00  0.00     0.254 C 
ATOM     69  O   UNL A   1      35.103  23.047  22.652  1.00  0.00    -0.269 OA
BRANCH  68  70
ATOM     70  C   UNL A   1      34.069  22.826  24.721  1.00  0.00     0.049 A 
ATOM     71  C   UNL A   1      34.428  23.613  25.828  1.00  0.00     0.014 A 
ATOM     72  C   UNL A   1      33.576  21.518  24.925  1.00  0.00     0.012 A 
ATOM     73  C   UNL A   1      34.369  23.089  27.117  1.00  0.00     0.003 A 
ATOM     74  C   UNL A   1      33.526  21.026  26.232  1.00  0.00     0.046 A 
ATOM     75  C   UNL A   1      33.077  20.484  24.077  1.00  0.00     0.029 A 
ATOM     76  C   UNL A   1      33.927  21.781  27.341  1.00  0.00     0.027 A 
ATOM     77  N   UNL A   1      33.027  19.743  26.166  1.00  0.00    -0.361 N 
ATOM     78  C   UNL A   1      32.745  19.409  24.870  1.00  0.00     0.083 A 
ATOM     79  H   UNL A   1      32.893  19.151  26.942  1.00  0.00     0.166 HD
ENDBRANCH  68  70
ENDBRANCH  66  68
ENDBRANCH  59  62
ENDBRANCH  57  58
ENDBRANCH   1  57
TORSDOF 12
ENDMDL
MODEL 2
REMARK VINA RESULT:     -11.9      2.361      7.882
REMARK SMILES O=C(NCCCNC(=O)[C@H]1CCCN(C(=O)c2cccc3[nH]ccc23)C1)c1ccc(-c2c3nc(c(-c4ccccc4)c4ccc([nH]4)c(-c4ccccc4)c4nc(c(-c5ccccc5)c5ccc2[nH]5)C=C4)C=C3)cc1
REMARK SMILES IDX 5 1 4 2 3 3 1 4 2 5 27 7 28 8 74 9 29 10 73 11 30 12 31 13
REMARK SMILES IDX 32 14 67 15 33 16 72 17 66 18 68 19 34 20 71 21 65 22 64 23
REMARK SMILES IDX 35 25 57 26 42 27 56 28 43 29 46 30 55 31 69 32 44 33 45 34
REMARK SMILES IDX 54 36 70 37 47 38 36 39 37 40 41 41 38 42 40 43 39 44 58 45
REMARK SMILES IDX 59 46 63 47 60 48 62 49 61 50 48 51 49 52 53 53 50 54 52 55
REMARK SMILES IDX 51 56 6 57 7 58 8 59 9 61 10 62 11 63 26 64 12 65 14 66
REMARK SMILES IDX 13 67 15 68 16 69 17 70 18 71 25 72 19 73 21 74 24 75 20 76
REMARK SMILES IDX 22 77 23 78
REMARK H PARENT 3 6 68 24 46 35 7 60 22 79
REMARK Flexibility Score: inf
ROOT
ATOM      1  C   UNL A   1      36.658  23.135  23.497  1.00  0.00     0.042 C 
ENDROOT
BRANCH   1   2
ATOM      2  C   UNL A   1      37.090  23.471  24.920  1.00  0.00     0.118 C 
BRANCH   2   3
ATOM      3  N   UNL A   1      37.994  22.471  25.471  1.00  0.00    -0.352 N 
ATOM      4  O   UNL A   1      39.890  21.662  26.371  1.00  0.00    -0.269 OA
ATOM      5  C   UNL A   1      39.143  22.626  26.205  1.00  0.00     0.251 C 
ATOM      6  H   UNL A   1      37.741  21.538  25.290  1.00  0.00     0.163 HD
BRANCH   5   7
ATOM      7  C   UNL A   1      39.499  23.933  26.794  1.00  0.00     0.039 A 
ATOM      8  C   UNL A   1      39.157  24.253  28.111  1.00  0.00     0.014 A 
ATOM      9  C   UNL A   1      40.255  24.831  26.034  1.00  0.00     0.014 A 
ATOM     10  C   UNL A   1      39.465  25.511  28.625  1.00  0.00     0.010 A 
ATOM     11  C   UNL A   1      40.627  26.063  26.575  1.00  0.00     0.010 A 
ATOM     12  C   UNL A   1      40.215  26.423  27.868  1.00  0.00    -0.014 A 
BRANCH  12  13
ATOM     13  C   UNL A   1      40.609  27.730  28.449  1.00  0.00     0.031 A 
ATOM     14  C   UNL A   1      42.014  27.967  28.924  1.00  0.00     0.074 A 
ATOM     15  C   UNL A   1      39.684  28.701  28.570  1.00  0.00     0.049 A 
ATOM     16  N   UNL A   1      42.516  29.018  29.522  1.00  0.00    -0.248 NA
ATOM     17  C   UNL A   1      42.979  26.878  28.710  1.00  0.00     0.031 C 
ATOM     18  C   UNL A   1      38.288  28.595  28.144  1.00  0.00     0.029 A 
ATOM     19  N   UNL A   1      39.779  29.966  29.091  1.00  0.00    -0.354 N 
ATOM     20  C   UNL A   1      43.846  28.710  29.778  1.00  0.00     0.074 A 
ATOM     21  C   UNL A   1      44.066  27.365  29.290  1.00  0.00     0.031 C 
ATOM     22  C   UNL A   1      37.662  29.753  28.401  1.00  0.00     0.029 A 
ATOM     23  C   UNL A   1      38.594  30.659  29.063  1.00  0.00     0.049 A 
ATOM     24  H   UNL A   1      40.615  30.341  29.450  1.00  0.00     0.167 HD
ATOM     25  C   UNL A   1      44.795  29.478  30.365  1.00  0.00     0.031 A 
ATOM     26  C   UNL A   1      38.280  31.877  29.540  1.00  0.00     0.031 A 
ATOM     27  C   UNL A   1      44.572  30.816  30.848  1.00  0.00     0.049 A 
ATOM     28  C   UNL A   1      39.338  32.694  30.220  1.00  0.00     0.074 A 
ATOM     29  C   UNL A   1      45.479  31.686  31.429  1.00  0.00     0.029 A 
ATOM     30  N   UNL A   1      43.353  31.475  30.813  1.00  0.00    -0.354 N 
ATOM     31  N   UNL A   1      40.597  32.399  30.433  1.00  0.00    -0.248 NA
ATOM     32  C   UNL A   1      38.933  34.014  30.724  1.00  0.00     0.031 C 
ATOM     33  C   UNL A   1      44.797  32.853  31.788  1.00  0.00     0.029 A 
ATOM     34  C   UNL A   1      43.478  32.732  31.382  1.00  0.00     0.049 A 
ATOM     35  H   UNL A   1      42.521  31.105  30.438  1.00  0.00     0.167 HD
ATOM     36  C   UNL A   1      41.141  33.503  31.074  1.00  0.00     0.074 A 
ATOM     37  C   UNL A   1      40.077  34.477  31.207  1.00  0.00     0.031 C 
ATOM     38  C   UNL A   1      42.411  33.691  31.508  1.00  0.00     0.031 A 
BRANCH  25  39
ATOM     39  C   UNL A   1      46.157  28.868  30.551  1.00  0.00    -0.014 A 
ATOM     40  C   UNL A   1      47.157  28.997  29.573  1.00  0.00     0.009 A 
ATOM     41  C   UNL A   1      46.451  28.174  31.735  1.00  0.00     0.009 A 
ATOM     42  C   UNL A   1      48.409  28.406  29.761  1.00  0.00     0.001 A 
ATOM     43  C   UNL A   1      47.713  27.609  31.932  1.00  0.00     0.001 A 
ATOM     44  C   UNL A   1      48.686  27.715  30.941  1.00  0.00     0.000 A 
ENDBRANCH  25  39
BRANCH  26  45
ATOM     45  C   UNL A   1      36.891  32.380  29.396  1.00  0.00    -0.014 A 
ATOM     46  C   UNL A   1      35.960  32.210  30.432  1.00  0.00     0.009 A 
ATOM     47  C   UNL A   1      36.502  33.071  28.238  1.00  0.00     0.009 A 
ATOM     48  C   UNL A   1      34.664  32.714  30.305  1.00  0.00     0.001 A 
ATOM     49  C   UNL A   1      35.214  33.596  28.125  1.00  0.00     0.001 A 
ATOM     50  C   UNL A   1      34.293  33.413  29.156  1.00  0.00     0.000 A 
ENDBRANCH  26  45
BRANCH  38  51
ATOM     51  C   UNL A   1      42.733  35.018  32.131  1.00  0.00    -0.014 A 
ATOM     52  C   UNL A   1      42.400  35.298  33.465  1.00  0.00     0.009 A 
ATOM     53  C   UNL A   1      43.426  35.984  31.384  1.00  0.00     0.009 A 
ATOM     54  C   UNL A   1      42.735  36.530  34.031  1.00  0.00     0.001 A 
ATOM     55  C   UNL A   1      43.780  37.204  31.960  1.00  0.00     0.001 A 
ATOM     56  C   UNL A   1      43.428  37.479  33.280  1.00  0.00     0.000 A 
ENDBRANCH  38  51
ENDBRANCH  12  13
ENDBRANCH   5   7
ENDBRANCH   2   3
ENDBRANCH   1   2
BRANCH   1  57
ATOM     57  C   UNL A   1      35.165  22.858  23.358  1.00  0.00     0.117 C 
BRANCH  57  58
ATOM     58  N   UNL A   1      34.659  21.950  24.376  1.00  0.00    -0.356 N 
ATOM     59  C   UNL A   1      33.623  22.096  25.251  1.00  0.00     0.224 C 
ATOM     60  H   UNL A   1      35.142  21.093  24.445  1.00  0.00     0.163 HD
ATOM     61  O   UNL A   1      33.376  21.171  26.025  1.00  0.00    -0.275 OA
BRANCH  59  62
ATOM     62  C   UNL A   1      32.841  23.393  25.274  1.00  0.00     0.098 C 
ATOM     63  C   UNL A   1      31.420  23.197  25.825  1.00  0.00     0.017 C 
ATOM     64  C   UNL A   1      33.564  24.410  26.151  1.00  0.00     0.133 C 
ATOM     65  C   UNL A   1      30.674  24.535  25.839  1.00  0.00     0.022 C 
ATOM     66  N   UNL A   1      32.850  25.684  26.084  1.00  0.00    -0.338 N 
ATOM     67  C   UNL A   1      31.463  25.631  26.563  1.00  0.00     0.120 C 
BRANCH  66  68
ATOM     68  C   UNL A   1      33.446  26.741  25.395  1.00  0.00     0.254 C 
ATOM     69  O   UNL A   1      34.083  26.582  24.357  1.00  0.00    -0.269 OA
BRANCH  68  70
ATOM     70  C   UNL A   1      33.306  28.115  25.919  1.00  0.00     0.049 A 
ATOM     71  C   UNL A   1      34.200  28.602  26.889  1.00  0.00     0.014 A 
ATOM     72  C   UNL A   1      32.303  28.966  25.404  1.00  0.00     0.012 A 
ATOM     73  C   UNL A   1      34.059  29.892  27.395  1.00  0.00     0.003 A 
ATOM     74  C   UNL A   1      32.193  30.255  25.932  1.00  0.00     0.046 A 
ATOM     75  C   UNL A   1      31.290  28.843  24.407  1.00  0.00     0.029 A 
ATOM     76  C   UNL A   1      33.046  30.738  26.933  1.00  0.00     0.027 A 
ATOM     77  N   UNL A   1      31.147  30.875  25.283  1.00  0.00    -0.361 N 
ATOM     78  C   UNL A   1      30.600  30.032  24.354  1.00  0.00     0.083 A 
ATOM     79  H   UNL A   1      30.838  31.792  25.462  1.00  0.00     0.166 HD
ENDBRANCH  68  70
ENDBRANCH  66  68
ENDBRANCH  59  62
ENDBRANCH  57  58
ENDBRANCH   1  57
TORSDOF 12
ENDMDL
MODEL 3
REMARK VINA RESULT:     -11.9      1.822      7.430
REMARK SMILES O=C(NCCCNC(=O)[C@H]1CCCN(C(=O)c2cccc3[nH]ccc23)C1)c1ccc(-c2c3nc(c(-c4ccccc4)c4ccc([nH]4)c(-c4ccccc4)c4nc(c(-c5ccccc5)c5ccc2[nH]5)C=C4)C=C3)cc1
REMARK SMILES IDX 5 1 4 2 3 3 1 4 2 5 27 7 28 8 74 9 29 10 73 11 30 12 31 13
REMARK SMILES IDX 32 14 67 15 33 16 72 17 66 18 68 19 34 20 71 21 65 22 64 23
REMARK SMILES IDX 35 25 57 26 42 27 56 28 43 29 46 30 55 31 69 32 44 33 45 34
REMARK SMILES IDX 54 36 70 37 47 38 36 39 37 40 41 41 38 42 40 43 39 44 58 45
REMARK SMILES IDX 59 46 63 47 60 48 62 49 61 50 48 51 49 52 53 53 50 54 52 55
REMARK SMILES IDX 51 56 6 57 7 58 8 59 9 61 10 62 11 63 26 64 12 65 14 66
REMARK SMILES IDX 13 67 15 68 16 69 17 70 18 71 25 72 19 73 21 74 24 75 20 76
REMARK SMILES IDX 22 77 23 78
REMARK H PARENT 3 6 68 24 46 35 7 60 22 79
REMARK Flexibility Score: inf
ROOT
ATOM      1  C   UNL A   1      37.179  19.756  24.841  1.00  0.00     0.042 C 
ENDROOT
BRANCH   1   2
ATOM      2  C   UNL A   1      38.400  20.405  25.483  1.00  0.00     0.118 C 
BRANCH   2   3
ATOM      3  N   UNL A   1      39.494  19.461  25.663  1.00  0.00    -0.352 N 
ATOM      4  O   UNL A   1      41.624  18.774  25.889  1.00  0.00    -0.269 OA
ATOM      5  C   UNL A   1      40.799  19.677  26.025  1.00  0.00     0.251 C 
ATOM      6  H   UNL A   1      39.261  18.519  25.500  1.00  0.00     0.163 HD
BRANCH   5   7
ATOM      7  C   UNL A   1      41.230  20.981  26.572  1.00  0.00     0.039 A 
ATOM      8  C   UNL A   1      41.673  22.008  25.734  1.00  0.00     0.014 A 
ATOM      9  C   UNL A   1      41.121  21.204  27.948  1.00  0.00     0.014 A 
ATOM     10  C   UNL A   1      42.118  23.210  26.279  1.00  0.00     0.010 A 
ATOM     11  C   UNL A   1      41.498  22.436  28.487  1.00  0.00     0.010 A 
ATOM     12  C   UNL A   1      42.021  23.442  27.660  1.00  0.00    -0.014 A 
BRANCH  12  13
ATOM     13  C   UNL A   1      42.421  24.753  28.228  1.00  0.00     0.031 A 
ATOM     14  C   UNL A   1      41.407  25.840  28.437  1.00  0.00     0.074 A 
ATOM     15  C   UNL A   1      43.714  24.970  28.532  1.00  0.00     0.049 A 
ATOM     16  N   UNL A   1      41.589  27.068  28.853  1.00  0.00    -0.248 NA
ATOM     17  C   UNL A   1      40.007  25.510  28.131  1.00  0.00     0.031 C 
ATOM     18  C   UNL A   1      44.794  23.994  28.376  1.00  0.00     0.029 A 
ATOM     19  N   UNL A   1      44.341  26.083  29.031  1.00  0.00    -0.354 N 
ATOM     20  C   UNL A   1      40.334  27.665  28.835  1.00  0.00     0.074 A 
ATOM     21  C   UNL A   1      39.404  26.670  28.345  1.00  0.00     0.031 C 
ATOM     22  C   UNL A   1      45.945  24.544  28.792  1.00  0.00     0.029 A 
ATOM     23  C   UNL A   1      45.696  25.926  29.184  1.00  0.00     0.049 A 
ATOM     24  H   UNL A   1      43.865  26.915  29.258  1.00  0.00     0.167 HD
ATOM     25  C   UNL A   1      39.991  28.925  29.194  1.00  0.00     0.031 A 
ATOM     26  C   UNL A   1      46.641  26.802  29.571  1.00  0.00     0.031 A 
ATOM     27  C   UNL A   1      40.919  29.912  29.680  1.00  0.00     0.049 A 
ATOM     28  C   UNL A   1      46.243  28.203  29.927  1.00  0.00     0.074 A 
ATOM     29  C   UNL A   1      40.662  31.206  30.099  1.00  0.00     0.029 A 
ATOM     30  N   UNL A   1      42.286  29.715  29.807  1.00  0.00    -0.354 N 
ATOM     31  N   UNL A   1      45.050  28.745  29.928  1.00  0.00    -0.248 NA
ATOM     32  C   UNL A   1      47.320  29.114  30.338  1.00  0.00     0.031 C 
ATOM     33  C   UNL A   1      41.880  31.809  30.434  1.00  0.00     0.029 A 
ATOM     34  C   UNL A   1      42.889  30.872  30.276  1.00  0.00     0.049 A 
ATOM     35  H   UNL A   1      42.759  28.878  29.596  1.00  0.00     0.167 HD
ATOM     36  C   UNL A   1      45.227  30.051  30.360  1.00  0.00     0.074 A 
ATOM     37  C   UNL A   1      46.643  30.218  30.621  1.00  0.00     0.031 C 
ATOM     38  C   UNL A   1      44.298  31.023  30.531  1.00  0.00     0.031 A 
BRANCH  25  39
ATOM     39  C   UNL A   1      38.548  29.319  29.033  1.00  0.00    -0.014 A 
ATOM     40  C   UNL A   1      37.659  29.301  30.121  1.00  0.00     0.009 A 
ATOM     41  C   UNL A   1      38.077  29.736  27.779  1.00  0.00     0.009 A 
ATOM     42  C   UNL A   1      36.319  29.653  29.943  1.00  0.00     0.001 A 
ATOM     43  C   UNL A   1      36.743  30.114  27.610  1.00  0.00     0.001 A 
ATOM     44  C   UNL A   1      35.863  30.062  28.689  1.00  0.00     0.000 A 
ENDBRANCH  25  39
BRANCH  26  45
ATOM     45  C   UNL A   1      48.060  26.367  29.623  1.00  0.00    -0.014 A 
ATOM     46  C   UNL A   1      48.586  25.793  30.790  1.00  0.00     0.009 A 
ATOM     47  C   UNL A   1      48.881  26.484  28.491  1.00  0.00     0.009 A 
ATOM     48  C   UNL A   1      49.912  25.355  30.823  1.00  0.00     0.001 A 
ATOM     49  C   UNL A   1      50.197  26.021  28.519  1.00  0.00     0.001 A 
ATOM     50  C   UNL A   1      50.714  25.462  29.687  1.00  0.00     0.000 A 
ENDBRANCH  26  45
BRANCH  38  51
ATOM     51  C   UNL A   1      44.776  32.343  31.061  1.00  0.00    -0.014 A 
ATOM     52  C   UNL A   1      44.862  32.589  32.440  1.00  0.00     0.009 A 
ATOM     53  C   UNL A   1      45.193  33.339  30.163  1.00  0.00     0.009 A 
ATOM     54  C   UNL A   1      45.335  33.816  32.908  1.00  0.00     0.001 A 
ATOM     55  C   UNL A   1      45.688  34.555  30.635  1.00  0.00     0.001 A 
ATOM     56  C   UNL A   1      45.752  34.795  32.006  1.00  0.00     0.000 A 
ENDBRANCH  38  51
ENDBRANCH  12  13
ENDBRANCH   5   7
ENDBRANCH   2   3
ENDBRANCH   1   2
BRANCH   1  57
ATOM     57  C   UNL A   1      35.900  20.572  24.990  1.00  0.00     0.117 C 
BRANCH  57  58
ATOM     58  N   UNL A   1      34.736  19.751  25.293  1.00  0.00    -0.356 N 
ATOM     59  C   UNL A   1      33.420  20.093  25.396  1.00  0.00     0.224 C 
ATOM     60  H   UNL A   1      34.931  18.797  25.447  1.00  0.00     0.163 HD
ATOM     61  O   UNL A   1      32.604  19.208  25.656  1.00  0.00    -0.275 OA
BRANCH  59  62
ATOM     62  C   UNL A   1      33.007  21.540  25.231  1.00  0.00     0.098 C 
ATOM     63  C   UNL A   1      31.485  21.718  25.326  1.00  0.00     0.017 C 
ATOM     64  C   UNL A   1      33.663  22.386  26.319  1.00  0.00     0.133 C 
ATOM     65  C   UNL A   1      31.118  23.197  25.164  1.00  0.00     0.022 C 
ATOM     66  N   UNL A   1      33.334  23.791  26.087  1.00  0.00    -0.338 N 
ATOM     67  C   UNL A   1      31.899  24.096  26.129  1.00  0.00     0.120 C 
BRANCH  66  68
ATOM     68  C   UNL A   1      34.347  24.643  25.645  1.00  0.00     0.254 C 
ATOM     69  O   UNL A   1      35.533  24.322  25.645  1.00  0.00    -0.269 OA
BRANCH  68  70
ATOM     70  C   UNL A   1      33.993  25.988  25.145  1.00  0.00     0.049 A 
ATOM     71  C   UNL A   1      34.076  27.106  25.992  1.00  0.00     0.014 A 
ATOM     72  C   UNL A   1      33.622  26.160  23.793  1.00  0.00     0.012 A 
ATOM     73  C   UNL A   1      33.727  28.372  25.525  1.00  0.00     0.003 A 
ATOM     74  C   UNL A   1      33.283  27.445  23.359  1.00  0.00     0.046 A 
ATOM     75  C   UNL A   1      33.491  25.297  22.664  1.00  0.00     0.029 A 
ATOM     76  C   UNL A   1      33.314  28.562  24.203  1.00  0.00     0.027 A 
ATOM     77  N   UNL A   1      32.951  27.350  22.025  1.00  0.00    -0.361 N 
ATOM     78  C   UNL A   1      33.081  26.058  21.594  1.00  0.00     0.083 A 
ATOM     79  H   UNL A   1      32.662  28.104  21.462  1.00  0.00     0.166 HD
ENDBRANCH  68  70
ENDBRANCH  66  68
ENDBRANCH  59  62
ENDBRANCH  57  58
ENDBRANCH   1  57
TORSDOF 12
ENDMDL
