MODEL 1
REMARK VINA RESULT:     -10.7      0.000      0.000
REMARK SMILES CC[C@H](C)[C@@H](NC(=O)[C@@H]1CCCN1C(=O)C1CC1)C(=O)NCCCNC(=O)c1ccc(-c2c3nc(c(-c4ccccc4)c4ccc([nH]4)c(-c4ccccc4)c4nc(c(-c5ccccc5)c5ccc2[nH]5)C=C4)C=C3)cc1
REMARK SMILES IDX 22 1 21 2 19 3 20 4 5 6 3 7 4 8 2 9 1 10 6 11 7 12 8 14 9 15
REMARK SMILES IDX 10 16 13 17 11 18 12 19 14 20 15 21 16 22 17 23 18 24 23 25
REMARK SMILES IDX 24 26 25 27 26 28 27 30 28 31 29 32 75 33 30 34 74 35 31 36
REMARK SMILES IDX 32 37 33 38 68 39 34 40 73 41 67 42 69 43 35 44 72 45 66 46
REMARK SMILES IDX 65 47 36 49 58 50 43 51 57 52 44 53 47 54 56 55 70 56 45 57
REMARK SMILES IDX 46 58 55 60 71 61 48 62 37 63 38 64 42 65 39 66 41 67 40 68
REMARK SMILES IDX 59 69 60 70 64 71 61 72 63 73 62 74 49 75 50 76 54 77 51 78
REMARK SMILES IDX 53 79 52 80
REMARK H PARENT 21 5 6 13 25 29 69 48 47 59
REMARK Flexibility Score: inf
ROOT
ATOM      1  C   UNL A   1      36.588  22.097  25.328  1.00  0.00     0.117 C 
ENDROOT
BRANCH   1   2
ATOM      2  N   UNL A   1      35.785  21.735  26.482  1.00  0.00    -0.354 N 
ATOM      3  C   UNL A   1      34.471  21.979  26.730  1.00  0.00     0.242 C 
ATOM      4  O   UNL A   1      34.047  21.770  27.866  1.00  0.00    -0.273 OA
ATOM      5  H   UNL A   1      36.261  21.240  27.188  1.00  0.00     0.163 HD
BRANCH   3   6
ATOM      6  C   UNL A   1      33.580  22.541  25.610  1.00  0.00     0.174 C 
BRANCH   6   7
ATOM      7  C   UNL A   1      33.369  21.463  24.508  1.00  0.00     0.018 C 
ATOM      8  C   UNL A   1      32.193  20.549  24.880  1.00  0.00     0.010 C 
BRANCH   7   9
ATOM      9  C   UNL A   1      33.167  22.107  23.115  1.00  0.00     0.002 C 
ATOM     10  C   UNL A   1      34.145  23.237  22.822  1.00  0.00     0.004 C 
ENDBRANCH   7   9
ENDBRANCH   6   7
BRANCH   6  11
ATOM     11  N   UNL A   1      32.297  22.996  26.195  1.00  0.00    -0.342 N 
ATOM     12  C   UNL A   1      31.846  24.285  26.363  1.00  0.00     0.243 C 
ATOM     13  H   UNL A   1      31.689  22.285  26.501  1.00  0.00     0.164 HD
ATOM     14  O   UNL A   1      30.883  24.472  27.109  1.00  0.00    -0.273 OA
BRANCH  12  15
ATOM     15  C   UNL A   1      32.673  25.429  25.794  1.00  0.00     0.174 C 
ATOM     16  C   UNL A   1      32.762  26.770  26.502  1.00  0.00     0.037 C 
ATOM     17  N   UNL A   1      32.580  25.831  24.398  1.00  0.00    -0.330 N 
ATOM     18  C   UNL A   1      33.799  27.477  25.606  1.00  0.00     0.024 C 
ATOM     19  C   UNL A   1      33.602  26.857  24.207  1.00  0.00     0.120 C 
BRANCH  17  20
ATOM     20  C   UNL A   1      31.390  25.968  23.678  1.00  0.00     0.226 C 
ATOM     21  O   UNL A   1      31.009  25.127  22.870  1.00  0.00    -0.275 OA
BRANCH  20  22
ATOM     22  C   UNL A   1      30.423  27.054  24.035  1.00  0.00     0.079 C 
ATOM     23  C   UNL A   1      30.639  28.549  23.986  1.00  0.00     0.014 C 
ATOM     24  C   UNL A   1      29.869  27.898  22.896  1.00  0.00     0.014 C 
ENDBRANCH  20  22
ENDBRANCH  17  20
ENDBRANCH  12  15
ENDBRANCH   6  11
ENDBRANCH   3   6
ENDBRANCH   1   2
BRANCH   1  25
ATOM     25  C   UNL A   1      37.568  20.998  25.018  1.00  0.00     0.042 C 
BRANCH  25  26
ATOM     26  C   UNL A   1      38.859  21.191  25.774  1.00  0.00     0.118 C 
BRANCH  26  27
ATOM     27  N   UNL A   1      39.671  19.974  25.815  1.00  0.00    -0.352 N 
ATOM     28  C   UNL A   1      41.014  19.894  26.084  1.00  0.00     0.251 C 
ATOM     29  H   UNL A   1      39.207  19.127  25.630  1.00  0.00     0.163 HD
ATOM     30  O   UNL A   1      41.659  18.871  25.908  1.00  0.00    -0.269 OA
BRANCH  28  31
ATOM     31  C   UNL A   1      41.633  21.125  26.587  1.00  0.00     0.039 A 
ATOM     32  C   UNL A   1      42.081  22.088  25.688  1.00  0.00     0.014 A 
ATOM     33  C   UNL A   1      41.532  21.379  27.959  1.00  0.00     0.014 A 
ATOM     34  C   UNL A   1      42.419  23.343  26.182  1.00  0.00     0.010 A 
ATOM     35  C   UNL A   1      41.699  22.671  28.409  1.00  0.00     0.010 A 
ATOM     36  C   UNL A   1      42.213  23.643  27.540  1.00  0.00    -0.014 A 
BRANCH  36  37
ATOM     37  C   UNL A   1      42.654  24.927  28.120  1.00  0.00     0.031 A 
ATOM     38  C   UNL A   1      41.620  25.995  28.358  1.00  0.00     0.074 A 
ATOM     39  C   UNL A   1      43.953  25.137  28.391  1.00  0.00     0.049 A 
ATOM     40  N   UNL A   1      41.776  27.204  28.827  1.00  0.00    -0.248 NA
ATOM     41  C   UNL A   1      40.232  25.684  27.963  1.00  0.00     0.031 C 
ATOM     42  C   UNL A   1      45.046  24.196  28.132  1.00  0.00     0.029 A 
ATOM     43  N   UNL A   1      44.572  26.218  28.960  1.00  0.00    -0.354 N 
ATOM     44  C   UNL A   1      40.519  27.791  28.755  1.00  0.00     0.074 A 
ATOM     45  C   UNL A   1      39.639  26.857  28.100  1.00  0.00     0.031 C 
ATOM     46  C   UNL A   1      46.195  24.721  28.591  1.00  0.00     0.029 A 
ATOM     47  C   UNL A   1      45.921  26.042  29.147  1.00  0.00     0.049 A 
ATOM     48  H   UNL A   1      44.095  27.042  29.211  1.00  0.00     0.167 HD
ATOM     49  C   UNL A   1      40.111  28.982  29.245  1.00  0.00     0.031 A 
ATOM     50  C   UNL A   1      46.823  26.856  29.723  1.00  0.00     0.031 A 
ATOM     51  C   UNL A   1      40.984  29.885  29.936  1.00  0.00     0.049 A 
ATOM     52  C   UNL A   1      46.345  28.162  30.298  1.00  0.00     0.074 A 
ATOM     53  C   UNL A   1      40.685  31.099  30.525  1.00  0.00     0.029 A 
ATOM     54  N   UNL A   1      42.337  29.654  30.140  1.00  0.00    -0.354 N 
ATOM     55  N   UNL A   1      45.139  28.678  30.289  1.00  0.00    -0.248 NA
ATOM     56  C   UNL A   1      47.348  28.983  30.987  1.00  0.00     0.031 C 
ATOM     57  C   UNL A   1      41.870  31.622  31.052  1.00  0.00     0.029 A 
ATOM     58  C   UNL A   1      42.891  30.707  30.842  1.00  0.00     0.049 A 
ATOM     59  H   UNL A   1      42.827  28.859  29.832  1.00  0.00     0.167 HD
ATOM     60  C   UNL A   1      45.230  29.870  30.995  1.00  0.00     0.074 A 
ATOM     61  C   UNL A   1      46.607  29.987  31.434  1.00  0.00     0.031 C 
ATOM     62  C   UNL A   1      44.267  30.787  31.261  1.00  0.00     0.031 A 
BRANCH  49  63
ATOM     63  C   UNL A   1      38.664  29.342  29.054  1.00  0.00    -0.014 A 
ATOM     64  C   UNL A   1      37.735  29.211  30.103  1.00  0.00     0.009 A 
ATOM     65  C   UNL A   1      38.212  29.786  27.803  1.00  0.00     0.009 A 
ATOM     66  C   UNL A   1      36.379  29.464  29.887  1.00  0.00     0.001 A 
ATOM     67  C   UNL A   1      36.862  30.076  27.600  1.00  0.00     0.001 A 
ATOM     68  C   UNL A   1      35.945  29.901  28.637  1.00  0.00     0.000 A 
ENDBRANCH  49  63
BRANCH  50  69
ATOM     69  C   UNL A   1      48.244  26.435  29.831  1.00  0.00    -0.014 A 
ATOM     70  C   UNL A   1      49.156  26.722  28.803  1.00  0.00     0.009 A 
ATOM     71  C   UNL A   1      48.701  25.755  30.970  1.00  0.00     0.009 A 
ATOM     72  C   UNL A   1      50.487  26.311  28.900  1.00  0.00     0.001 A 
ATOM     73  C   UNL A   1      50.039  25.370  31.078  1.00  0.00     0.001 A 
ATOM     74  C   UNL A   1      50.929  25.640  30.039  1.00  0.00     0.000 A 
ENDBRANCH  50  69
BRANCH  62  75
ATOM     75  C   UNL A   1      44.665  31.970  32.095  1.00  0.00    -0.014 A 
ATOM     76  C   UNL A   1      45.139  33.152  31.507  1.00  0.00     0.009 A 
ATOM     77  C   UNL A   1      44.522  31.909  33.490  1.00  0.00     0.009 A 
ATOM     78  C   UNL A   1      45.502  34.237  32.307  1.00  0.00     0.001 A 
ATOM     79  C   UNL A   1      44.854  33.006  34.283  1.00  0.00     0.001 A 
ATOM     80  C   UNL A   1      45.355  34.164  33.691  1.00  0.00     0.000 A 
ENDBRANCH  62  75
ENDBRANCH  36  37
ENDBRANCH  28  31
ENDBRANCH  26  27
ENDBRANCH  25  26
ENDBRANCH   1  25
TORSDOF 16
ENDMDL
MODEL 2
REMARK VINA RESULT:     -10.7      0.608      5.970
REMARK SMILES CC[C@H](C)[C@@H](NC(=O)[C@@H]1CCCN1C(=O)C1CC1)C(=O)NCCCNC(=O)c1ccc(-c2c3nc(c(-c4ccccc4)c4ccc([nH]4)c(-c4ccccc4)c4nc(c(-c5ccccc5)c5ccc2[nH]5)C=C4)C=C3)cc1
REMARK SMILES IDX 22 1 21 2 19 3 20 4 5 6 3 7 4 8 2 9 1 10 6 11 7 12 8 14 9 15
REMARK SMILES IDX 10 16 13 17 11 18 12 19 14 20 15 21 16 22 17 23 18 24 23 25
REMARK SMILES IDX 24 26 25 27 26 28 27 30 28 31 29 32 75 33 30 34 74 35 31 36
REMARK SMILES IDX 32 37 33 38 68 39 34 40 73 41 67 42 69 43 35 44 72 45 66 46
REMARK SMILES IDX 65 47 36 49 58 50 43 51 57 52 44 53 47 54 56 55 70 56 45 57
REMARK SMILES IDX 46 58 55 60 71 61 48 62 37 63 38 64 42 65 39 66 41 67 40 68
REMARK SMILES IDX 59 69 60 70 64 71 61 72 63 73 62 74 49 75 50 76 54 77 51 78
REMARK SMILES IDX 53 79 52 80
REMARK H PARENT 21 5 6 13 25 29 69 48 47 59
REMARK Flexibility Score: inf
ROOT
ATOM      1  C   UNL A   1      36.553  21.675  25.072  1.00  0.00     0.117 C 
ENDROOT
BRANCH   1   2
ATOM      2  N   UNL A   1      35.797  21.335  26.265  1.00  0.00    -0.354 N 
ATOM      3  C   UNL A   1      34.510  21.633  26.584  1.00  0.00     0.242 C 
ATOM      4  O   UNL A   1      34.139  21.431  27.740  1.00  0.00    -0.273 OA
ATOM      5  H   UNL A   1      36.288  20.814  26.940  1.00  0.00     0.163 HD
BRANCH   3   6
ATOM      6  C   UNL A   1      33.586  22.242  25.517  1.00  0.00     0.174 C 
BRANCH   6   7
ATOM      7  C   UNL A   1      33.270  21.185  24.421  1.00  0.00     0.018 C 
ATOM      8  C   UNL A   1      32.525  19.992  25.034  1.00  0.00     0.010 C 
BRANCH   7   9
ATOM      9  C   UNL A   1      32.475  21.805  23.246  1.00  0.00     0.002 C 
ATOM     10  C   UNL A   1      33.266  22.842  22.458  1.00  0.00     0.004 C 
ENDBRANCH   7   9
ENDBRANCH   6   7
BRANCH   6  11
ATOM     11  N   UNL A   1      32.357  22.746  26.173  1.00  0.00    -0.342 N 
ATOM     12  C   UNL A   1      31.939  24.050  26.317  1.00  0.00     0.243 C 
ATOM     13  H   UNL A   1      31.762  22.060  26.554  1.00  0.00     0.164 HD
ATOM     14  O   UNL A   1      31.037  24.286  27.122  1.00  0.00    -0.273 OA
BRANCH  12  15
ATOM     15  C   UNL A   1      32.740  25.152  25.639  1.00  0.00     0.174 C 
ATOM     16  C   UNL A   1      32.980  26.489  26.320  1.00  0.00     0.037 C 
ATOM     17  N   UNL A   1      32.491  25.555  24.262  1.00  0.00    -0.330 N 
ATOM     18  C   UNL A   1      33.928  27.144  25.295  1.00  0.00     0.024 C 
ATOM     19  C   UNL A   1      33.527  26.532  23.937  1.00  0.00     0.120 C 
BRANCH  17  20
ATOM     20  C   UNL A   1      31.227  25.747  23.697  1.00  0.00     0.226 C 
ATOM     21  O   UNL A   1      30.335  24.909  23.781  1.00  0.00    -0.275 OA
BRANCH  20  22
ATOM     22  C   UNL A   1      30.849  27.090  23.154  1.00  0.00     0.079 C 
ATOM     23  C   UNL A   1      29.478  27.722  23.098  1.00  0.00     0.014 C 
ATOM     24  C   UNL A   1      30.426  28.155  24.156  1.00  0.00     0.014 C 
ENDBRANCH  20  22
ENDBRANCH  17  20
ENDBRANCH  12  15
ENDBRANCH   6  11
ENDBRANCH   3   6
ENDBRANCH   1   2
BRANCH   1  25
ATOM     25  C   UNL A   1      37.617  20.639  24.826  1.00  0.00     0.042 C 
BRANCH  25  26
ATOM     26  C   UNL A   1      38.834  20.895  25.678  1.00  0.00     0.118 C 
BRANCH  26  27
ATOM     27  N   UNL A   1      39.744  19.749  25.716  1.00  0.00    -0.352 N 
ATOM     28  C   UNL A   1      41.080  19.774  26.024  1.00  0.00     0.251 C 
ATOM     29  H   UNL A   1      39.358  18.871  25.497  1.00  0.00     0.163 HD
ATOM     30  O   UNL A   1      41.813  18.813  25.844  1.00  0.00    -0.269 OA
BRANCH  28  31
ATOM     31  C   UNL A   1      41.579  21.038  26.575  1.00  0.00     0.039 A 
ATOM     32  C   UNL A   1      42.029  22.035  25.714  1.00  0.00     0.014 A 
ATOM     33  C   UNL A   1      41.362  21.275  27.936  1.00  0.00     0.014 A 
ATOM     34  C   UNL A   1      42.248  23.305  26.235  1.00  0.00     0.010 A 
ATOM     35  C   UNL A   1      41.411  22.571  28.401  1.00  0.00     0.010 A 
ATOM     36  C   UNL A   1      41.924  23.581  27.575  1.00  0.00    -0.014 A 
BRANCH  36  37
ATOM     37  C   UNL A   1      42.237  24.886  28.190  1.00  0.00     0.031 A 
ATOM     38  C   UNL A   1      43.660  25.155  28.605  1.00  0.00     0.074 A 
ATOM     39  C   UNL A   1      41.264  25.788  28.400  1.00  0.00     0.049 A 
ATOM     40  N   UNL A   1      44.163  26.211  29.187  1.00  0.00    -0.248 NA
ATOM     41  C   UNL A   1      44.638  24.071  28.389  1.00  0.00     0.031 C 
ATOM     42  C   UNL A   1      39.842  25.599  28.101  1.00  0.00     0.029 A 
ATOM     43  N   UNL A   1      41.332  27.057  28.909  1.00  0.00    -0.354 N 
ATOM     44  C   UNL A   1      45.496  25.899  29.424  1.00  0.00     0.074 A 
ATOM     45  C   UNL A   1      45.699  24.528  29.029  1.00  0.00     0.031 C 
ATOM     46  C   UNL A   1      39.180  26.734  28.383  1.00  0.00     0.029 A 
ATOM     47  C   UNL A   1      40.126  27.714  28.908  1.00  0.00     0.049 A 
ATOM     48  H   UNL A   1      42.166  27.460  29.243  1.00  0.00     0.167 HD
ATOM     49  C   UNL A   1      46.486  26.701  29.874  1.00  0.00     0.031 A 
ATOM     50  C   UNL A   1      39.832  28.975  29.273  1.00  0.00     0.031 A 
ATOM     51  C   UNL A   1      46.283  28.076  30.221  1.00  0.00     0.049 A 
ATOM     52  C   UNL A   1      40.953  29.865  29.736  1.00  0.00     0.074 A 
ATOM     53  C   UNL A   1      47.211  29.010  30.641  1.00  0.00     0.029 A 
ATOM     54  N   UNL A   1      45.054  28.718  30.169  1.00  0.00    -0.354 N 
ATOM     55  N   UNL A   1      42.225  29.583  29.888  1.00  0.00    -0.248 NA
ATOM     56  C   UNL A   1      40.601  31.256  30.049  1.00  0.00     0.031 C 
ATOM     57  C   UNL A   1      46.533  30.209  30.883  1.00  0.00     0.029 A 
ATOM     58  C   UNL A   1      45.196  30.036  30.557  1.00  0.00     0.049 A 
ATOM     59  H   UNL A   1      44.208  28.296  29.896  1.00  0.00     0.167 HD
ATOM     60  C   UNL A   1      42.832  30.766  30.287  1.00  0.00     0.074 A 
ATOM     61  C   UNL A   1      41.789  31.772  30.332  1.00  0.00     0.031 C 
ATOM     62  C   UNL A   1      44.133  31.006  30.589  1.00  0.00     0.031 A 
BRANCH  49  63
ATOM     63  C   UNL A   1      47.857  26.095  29.992  1.00  0.00    -0.014 A 
ATOM     64  C   UNL A   1      48.381  25.715  31.242  1.00  0.00     0.009 A 
ATOM     65  C   UNL A   1      48.650  25.930  28.849  1.00  0.00     0.009 A 
ATOM     66  C   UNL A   1      49.688  25.235  31.348  1.00  0.00     0.001 A 
ATOM     67  C   UNL A   1      49.944  25.414  28.953  1.00  0.00     0.001 A 
ATOM     68  C   UNL A   1      50.467  25.081  30.202  1.00  0.00     0.000 A 
ENDBRANCH  49  63
BRANCH  50  69
ATOM     69  C   UNL A   1      38.438  29.476  29.162  1.00  0.00    -0.014 A 
ATOM     70  C   UNL A   1      37.563  29.406  30.257  1.00  0.00     0.009 A 
ATOM     71  C   UNL A   1      37.978  30.042  27.964  1.00  0.00     0.009 A 
ATOM     72  C   UNL A   1      36.248  29.863  30.144  1.00  0.00     0.001 A 
ATOM     73  C   UNL A   1      36.672  30.526  27.862  1.00  0.00     0.001 A 
ATOM     74  C   UNL A   1      35.804  30.427  28.949  1.00  0.00     0.000 A 
ENDBRANCH  50  69
BRANCH  62  75
ATOM     75  C   UNL A   1      44.498  32.416  30.952  1.00  0.00    -0.014 A 
ATOM     76  C   UNL A   1      44.863  33.352  29.972  1.00  0.00     0.009 A 
ATOM     77  C   UNL A   1      44.432  32.821  32.294  1.00  0.00     0.009 A 
ATOM     78  C   UNL A   1      45.196  34.657  30.338  1.00  0.00     0.001 A 
ATOM     79  C   UNL A   1      44.734  34.135  32.652  1.00  0.00     0.001 A 
ATOM     80  C   UNL A   1      45.127  35.047  31.675  1.00  0.00     0.000 A 
ENDBRANCH  62  75
ENDBRANCH  36  37
ENDBRANCH  28  31
ENDBRANCH  26  27
ENDBRANCH  25  26
ENDBRANCH   1  25
TORSDOF 16
ENDMDL
MODEL 3
REMARK VINA RESULT:     -10.5      2.908      8.321
REMARK SMILES CC[C@H](C)[C@@H](NC(=O)[C@@H]1CCCN1C(=O)C1CC1)C(=O)NCCCNC(=O)c1ccc(-c2c3nc(c(-c4ccccc4)c4ccc([nH]4)c(-c4ccccc4)c4nc(c(-c5ccccc5)c5ccc2[nH]5)C=C4)C=C3)cc1
REMARK SMILES IDX 22 1 21 2 19 3 20 4 5 6 3 7 4 8 2 9 1 10 6 11 7 12 8 14 9 15
REMARK SMILES IDX 10 16 13 17 11 18 12 19 14 20 15 21 16 22 17 23 18 24 23 25
REMARK SMILES IDX 24 26 25 27 26 28 27 30 28 31 29 32 75 33 30 34 74 35 31 36
REMARK SMILES IDX 32 37 33 38 68 39 34 40 73 41 67 42 69 43 35 44 72 45 66 46
REMARK SMILES IDX 65 47 36 49 58 50 43 51 57 52 44 53 47 54 56 55 70 56 45 57
REMARK SMILES IDX 46 58 55 60 71 61 48 62 37 63 38 64 42 65 39 66 41 67 40 68
REMARK SMILES IDX 59 69 60 70 64 71 61 72 63 73 62 74 49 75 50 76 54 77 51 78
REMARK SMILES IDX 53 79 52 80
REMARK H PARENT 21 5 6 13 25 29 69 48 47 59
REMARK Flexibility Score: inf
ROOT
ATOM      1  C   UNL A   1      32.826  29.535  26.009  1.00  0.00     0.117 C 
ENDROOT
BRANCH   1   2
ATOM      2  N   UNL A   1      33.095  29.689  24.590  1.00  0.00    -0.354 N 
ATOM      3  C   UNL A   1      32.957  28.787  23.583  1.00  0.00     0.242 C 
ATOM      4  O   UNL A   1      33.446  29.063  22.488  1.00  0.00    -0.273 OA
ATOM      5  H   UNL A   1      33.425  30.576  24.318  1.00  0.00     0.163 HD
BRANCH   3   6
ATOM      6  C   UNL A   1      32.242  27.454  23.853  1.00  0.00     0.174 C 
BRANCH   6   7
ATOM      7  C   UNL A   1      30.716  27.696  24.036  1.00  0.00     0.018 C 
ATOM      8  C   UNL A   1      30.052  27.944  22.675  1.00  0.00     0.010 C 
BRANCH   7   9
ATOM      9  C   UNL A   1      30.042  26.525  24.790  1.00  0.00     0.002 C 
ATOM     10  C   UNL A   1      30.636  26.268  26.169  1.00  0.00     0.004 C 
ENDBRANCH   7   9
ENDBRANCH   6   7
BRANCH   6  11
ATOM     11  N   UNL A   1      32.526  26.519  22.739  1.00  0.00    -0.342 N 
ATOM     12  C   UNL A   1      33.300  25.381  22.755  1.00  0.00     0.243 C 
ATOM     13  H   UNL A   1      32.106  26.740  21.876  1.00  0.00     0.164 HD
ATOM     14  O   UNL A   1      33.635  24.889  21.676  1.00  0.00    -0.273 OA
BRANCH  12  15
ATOM     15  C   UNL A   1      33.871  24.906  24.083  1.00  0.00     0.174 C 
ATOM     16  C   UNL A   1      35.245  24.263  24.168  1.00  0.00     0.037 C 
ATOM     17  N   UNL A   1      33.099  24.093  25.012  1.00  0.00    -0.330 N 
ATOM     18  C   UNL A   1      35.376  24.115  25.698  1.00  0.00     0.024 C 
ATOM     19  C   UNL A   1      33.929  23.951  26.206  1.00  0.00     0.120 C 
BRANCH  17  20
ATOM     20  C   UNL A   1      32.298  23.005  24.653  1.00  0.00     0.226 C 
ATOM     21  O   UNL A   1      31.076  23.023  24.766  1.00  0.00    -0.275 OA
BRANCH  20  22
ATOM     22  C   UNL A   1      32.895  21.852  23.909  1.00  0.00     0.079 C 
ATOM     23  C   UNL A   1      32.240  20.543  23.534  1.00  0.00     0.014 C 
ATOM     24  C   UNL A   1      32.389  21.595  22.496  1.00  0.00     0.014 C 
ENDBRANCH  20  22
ENDBRANCH  17  20
ENDBRANCH  12  15
ENDBRANCH   6  11
ENDBRANCH   3   6
ENDBRANCH   1   2
BRANCH   1  25
ATOM     25  C   UNL A   1      32.181  30.783  26.549  1.00  0.00     0.042 C 
BRANCH  25  26
ATOM     26  C   UNL A   1      33.178  31.631  27.298  1.00  0.00     0.118 C 
BRANCH  26  27
ATOM     27  N   UNL A   1      32.696  32.994  27.525  1.00  0.00    -0.352 N 
ATOM     28  C   UNL A   1      33.219  33.913  28.398  1.00  0.00     0.251 C 
ATOM     29  H   UNL A   1      31.917  33.281  26.997  1.00  0.00     0.163 HD
ATOM     30  O   UNL A   1      32.647  34.957  28.674  1.00  0.00    -0.269 OA
BRANCH  28  31
ATOM     31  C   UNL A   1      34.511  33.556  28.994  1.00  0.00     0.039 A 
ATOM     32  C   UNL A   1      34.546  32.771  30.143  1.00  0.00     0.014 A 
ATOM     33  C   UNL A   1      35.660  33.826  28.245  1.00  0.00     0.014 A 
ATOM     34  C   UNL A   1      35.765  32.232  30.536  1.00  0.00     0.010 A 
ATOM     35  C   UNL A   1      36.821  33.146  28.541  1.00  0.00     0.010 A 
ATOM     36  C   UNL A   1      36.903  32.404  29.728  1.00  0.00    -0.014 A 
BRANCH  36  37
ATOM     37  C   UNL A   1      38.233  31.935  30.162  1.00  0.00     0.031 A 
ATOM     38  C   UNL A   1      38.744  30.630  29.612  1.00  0.00     0.074 A 
ATOM     39  C   UNL A   1      38.945  32.646  31.052  1.00  0.00     0.049 A 
ATOM     40  N   UNL A   1      39.863  30.008  29.870  1.00  0.00    -0.248 NA
ATOM     41  C   UNL A   1      37.854  29.895  28.691  1.00  0.00     0.031 C 
ATOM     42  C   UNL A   1      38.512  33.887  31.701  1.00  0.00     0.029 A 
ATOM     43  N   UNL A   1      40.199  32.427  31.557  1.00  0.00    -0.354 N 
ATOM     44  C   UNL A   1      39.790  28.811  29.167  1.00  0.00     0.074 A 
ATOM     45  C   UNL A   1      38.482  28.741  28.566  1.00  0.00     0.031 C 
ATOM     46  C   UNL A   1      39.508  34.346  32.478  1.00  0.00     0.029 A 
ATOM     47  C   UNL A   1      40.632  33.418  32.402  1.00  0.00     0.049 A 
ATOM     48  H   UNL A   1      40.738  31.633  31.335  1.00  0.00     0.167 HD
ATOM     49  C   UNL A   1      40.747  27.875  28.985  1.00  0.00     0.031 A 
ATOM     50  C   UNL A   1      41.815  33.562  33.025  1.00  0.00     0.031 A 
ATOM     51  C   UNL A   1      42.059  27.978  29.550  1.00  0.00     0.049 A 
ATOM     52  C   UNL A   1      42.883  32.531  32.781  1.00  0.00     0.074 A 
ATOM     53  C   UNL A   1      43.136  27.125  29.401  1.00  0.00     0.029 A 
ATOM     54  N   UNL A   1      42.474  29.018  30.370  1.00  0.00    -0.354 N 
ATOM     55  N   UNL A   1      42.829  31.439  32.056  1.00  0.00    -0.248 NA
ATOM     56  C   UNL A   1      44.184  32.769  33.417  1.00  0.00     0.031 C 
ATOM     57  C   UNL A   1      44.193  27.630  30.166  1.00  0.00     0.029 A 
ATOM     58  C   UNL A   1      43.790  28.826  30.742  1.00  0.00     0.049 A 
ATOM     59  H   UNL A   1      41.913  29.779  30.645  1.00  0.00     0.167 HD
ATOM     60  C   UNL A   1      44.094  30.873  32.125  1.00  0.00     0.074 A 
ATOM     61  C   UNL A   1      44.899  31.757  32.946  1.00  0.00     0.031 C 
ATOM     62  C   UNL A   1      44.556  29.729  31.561  1.00  0.00     0.031 A 
BRANCH  49  63
ATOM     63  C   UNL A   1      40.391  26.690  28.131  1.00  0.00    -0.014 A 
ATOM     64  C   UNL A   1      40.819  26.602  26.793  1.00  0.00     0.009 A 
ATOM     65  C   UNL A   1      39.594  25.664  28.654  1.00  0.00     0.009 A 
ATOM     66  C   UNL A   1      40.409  25.540  25.985  1.00  0.00     0.001 A 
ATOM     67  C   UNL A   1      39.216  24.583  27.855  1.00  0.00     0.001 A 
ATOM     68  C   UNL A   1      39.611  24.528  26.519  1.00  0.00     0.000 A 
ENDBRANCH  49  63
BRANCH  50  69
ATOM     69  C   UNL A   1      42.064  34.747  33.887  1.00  0.00    -0.014 A 
ATOM     70  C   UNL A   1      41.789  34.702  35.263  1.00  0.00     0.009 A 
ATOM     71  C   UNL A   1      42.590  35.927  33.340  1.00  0.00     0.009 A 
ATOM     72  C   UNL A   1      42.009  35.823  36.067  1.00  0.00     0.001 A 
ATOM     73  C   UNL A   1      42.836  37.037  34.151  1.00  0.00     0.001 A 
ATOM     74  C   UNL A   1      42.536  36.988  35.512  1.00  0.00     0.000 A 
ENDBRANCH  50  69
BRANCH  62  75
ATOM     75  C   UNL A   1      46.003  29.397  31.785  1.00  0.00    -0.014 A 
ATOM     76  C   UNL A   1      47.002  29.862  30.916  1.00  0.00     0.009 A 
ATOM     77  C   UNL A   1      46.371  28.640  32.908  1.00  0.00     0.009 A 
ATOM     78  C   UNL A   1      48.340  29.540  31.148  1.00  0.00     0.001 A 
ATOM     79  C   UNL A   1      47.712  28.348  33.155  1.00  0.00     0.001 A 
ATOM     80  C   UNL A   1      48.693  28.787  32.268  1.00  0.00     0.000 A 
ENDBRANCH  62  75
ENDBRANCH  36  37
ENDBRANCH  28  31
ENDBRANCH  26  27
ENDBRANCH  25  26
ENDBRANCH   1  25
TORSDOF 16
ENDMDL
