MODEL 1
REMARK VINA RESULT:     -11.6      0.000      0.000
REMARK SMILES O=C(NCCCNC(=O)c1ccc(-c2ccn(C(F)F)c(=O)c2)cc1O)c1ccc(-c2c3nc(c(-c4ccccc4)c4ccc([nH]4)c(-c4ccccc4)c4nc(c(-c5ccccc5)c5ccc2[nH]5)C=C4)C=C3)cc1
REMARK SMILES IDX 5 1 4 2 3 3 1 4 2 5 27 7 28 8 74 9 29 10 73 11 30 12 31 13
REMARK SMILES IDX 32 14 67 15 33 16 72 17 66 18 68 19 34 20 71 21 65 22 64 23
REMARK SMILES IDX 35 25 57 26 42 27 56 28 43 29 46 30 55 31 69 32 44 33 45 34
REMARK SMILES IDX 54 36 70 37 47 38 36 39 37 40 41 41 38 42 40 43 39 44 58 45
REMARK SMILES IDX 59 46 63 47 60 48 62 49 61 50 48 51 49 52 53 53 50 54 52 55
REMARK SMILES IDX 51 56 6 57 7 58 8 59 9 61 10 62 11 63 25 64 12 65 24 66
REMARK SMILES IDX 13 67 26 68 14 70 15 71 23 72 16 73 21 74 17 75 22 76 18 77
REMARK SMILES IDX 19 78 20 79
REMARK H PARENT 3 6 68 24 46 35 7 60 26 69
REMARK Flexibility Score: inf
ROOT
ATOM      1  C   UNL A   1      38.047  19.498  24.999  1.00  0.00     0.042 C 
ENDROOT
BRANCH   1   2
ATOM      2  C   UNL A   1      39.108  19.977  25.976  1.00  0.00     0.118 C 
BRANCH   2   3
ATOM      3  N   UNL A   1      40.347  19.222  25.868  1.00  0.00    -0.352 N 
ATOM      4  O   UNL A   1      42.556  18.872  25.651  1.00  0.00    -0.269 OA
ATOM      5  C   UNL A   1      41.651  19.631  25.985  1.00  0.00     0.251 C 
ATOM      6  H   UNL A   1      40.231  18.262  25.681  1.00  0.00     0.163 HD
BRANCH   5   7
ATOM      7  C   UNL A   1      41.979  20.976  26.505  1.00  0.00     0.039 A 
ATOM      8  C   UNL A   1      41.949  21.189  27.887  1.00  0.00     0.014 A 
ATOM      9  C   UNL A   1      42.250  22.042  25.643  1.00  0.00     0.014 A 
ATOM     10  C   UNL A   1      42.219  22.459  28.402  1.00  0.00     0.010 A 
ATOM     11  C   UNL A   1      42.609  23.282  26.159  1.00  0.00     0.010 A 
ATOM     12  C   UNL A   1      42.565  23.512  27.541  1.00  0.00    -0.014 A 
BRANCH  12  13
ATOM     13  C   UNL A   1      42.821  24.880  28.053  1.00  0.00     0.031 A 
ATOM     14  C   UNL A   1      44.219  25.282  28.435  1.00  0.00     0.074 A 
ATOM     15  C   UNL A   1      41.799  25.737  28.227  1.00  0.00     0.049 A 
ATOM     16  N   UNL A   1      44.638  26.401  28.971  1.00  0.00    -0.248 NA
ATOM     17  C   UNL A   1      45.283  24.289  28.211  1.00  0.00     0.031 C 
ATOM     18  C   UNL A   1      40.398  25.458  27.911  1.00  0.00     0.029 A 
ATOM     19  N   UNL A   1      41.783  27.018  28.718  1.00  0.00    -0.354 N 
ATOM     20  C   UNL A   1      46.002  26.232  29.171  1.00  0.00     0.074 A 
ATOM     21  C   UNL A   1      46.334  24.891  28.748  1.00  0.00     0.031 C 
ATOM     22  C   UNL A   1      39.664  26.546  28.183  1.00  0.00     0.029 A 
ATOM     23  C   UNL A   1      40.530  27.582  28.739  1.00  0.00     0.049 A 
ATOM     24  H   UNL A   1      42.591  27.490  29.025  1.00  0.00     0.167 HD
ATOM     25  C   UNL A   1      46.902  27.125  29.644  1.00  0.00     0.031 A 
ATOM     26  C   UNL A   1      40.122  28.794  29.163  1.00  0.00     0.031 A 
ATOM     27  C   UNL A   1      46.570  28.470  30.031  1.00  0.00     0.049 A 
ATOM     28  C   UNL A   1      41.131  29.764  29.709  1.00  0.00     0.074 A 
ATOM     29  C   UNL A   1      47.425  29.477  30.439  1.00  0.00     0.029 A 
ATOM     30  N   UNL A   1      45.287  28.991  30.061  1.00  0.00    -0.354 N 
ATOM     31  N   UNL A   1      42.428  29.615  29.834  1.00  0.00    -0.248 NA
ATOM     32  C   UNL A   1      40.627  31.065  30.171  1.00  0.00     0.031 C 
ATOM     33  C   UNL A   1      46.652  30.586  30.787  1.00  0.00     0.029 A 
ATOM     34  C   UNL A   1      45.321  30.294  30.526  1.00  0.00     0.049 A 
ATOM     35  H   UNL A   1      44.472  28.508  29.792  1.00  0.00     0.167 HD
ATOM     36  C   UNL A   1      42.898  30.805  30.375  1.00  0.00     0.074 A 
ATOM     37  C   UNL A   1      41.750  31.671  30.541  1.00  0.00     0.031 C 
ATOM     38  C   UNL A   1      44.170  31.143  30.703  1.00  0.00     0.031 A 
BRANCH  25  39
ATOM     39  C   UNL A   1      48.334  26.683  29.774  1.00  0.00    -0.014 A 
ATOM     40  C   UNL A   1      49.223  26.885  28.707  1.00  0.00     0.009 A 
ATOM     41  C   UNL A   1      48.790  26.008  30.917  1.00  0.00     0.009 A 
ATOM     42  C   UNL A   1      50.536  26.417  28.777  1.00  0.00     0.001 A 
ATOM     43  C   UNL A   1      50.114  25.571  31.000  1.00  0.00     0.001 A 
ATOM     44  C   UNL A   1      50.983  25.767  29.926  1.00  0.00     0.000 A 
ENDBRANCH  25  39
BRANCH  26  45
ATOM     45  C   UNL A   1      38.683  29.148  29.042  1.00  0.00    -0.014 A 
ATOM     46  C   UNL A   1      38.172  29.671  27.843  1.00  0.00     0.009 A 
ATOM     47  C   UNL A   1      37.838  29.058  30.158  1.00  0.00     0.009 A 
ATOM     48  C   UNL A   1      36.855  30.133  27.775  1.00  0.00     0.001 A 
ATOM     49  C   UNL A   1      36.514  29.497  30.079  1.00  0.00     0.001 A 
ATOM     50  C   UNL A   1      36.028  30.047  28.893  1.00  0.00     0.000 A 
ENDBRANCH  26  45
BRANCH  38  51
ATOM     51  C   UNL A   1      44.412  32.506  31.288  1.00  0.00    -0.014 A 
ATOM     52  C   UNL A   1      44.302  32.700  32.675  1.00  0.00     0.009 A 
ATOM     53  C   UNL A   1      44.609  33.621  30.459  1.00  0.00     0.009 A 
ATOM     54  C   UNL A   1      44.354  33.984  33.218  1.00  0.00     0.001 A 
ATOM     55  C   UNL A   1      44.690  34.902  31.008  1.00  0.00     0.001 A 
ATOM     56  C   UNL A   1      44.550  35.084  32.384  1.00  0.00     0.000 A 
ENDBRANCH  38  51
ENDBRANCH  12  13
ENDBRANCH   5   7
ENDBRANCH   2   3
ENDBRANCH   1   2
BRANCH   1  57
ATOM     57  C   UNL A   1      36.861  20.438  24.865  1.00  0.00     0.118 C 
BRANCH  57  58
ATOM     58  N   UNL A   1      35.585  19.742  24.927  1.00  0.00    -0.352 N 
ATOM     59  C   UNL A   1      34.328  20.278  25.072  1.00  0.00     0.255 C 
ATOM     60  H   UNL A   1      35.627  18.761  24.855  1.00  0.00     0.163 HD
ATOM     61  O   UNL A   1      33.348  19.550  25.197  1.00  0.00    -0.269 OA
BRANCH  59  62
ATOM     62  C   UNL A   1      34.175  21.743  25.168  1.00  0.00     0.081 A 
ATOM     63  C   UNL A   1      33.771  22.429  24.017  1.00  0.00     0.018 A 
ATOM     64  C   UNL A   1      34.353  22.430  26.371  1.00  0.00     0.128 A 
ATOM     65  C   UNL A   1      33.461  23.789  24.093  1.00  0.00     0.010 A 
ATOM     66  C   UNL A   1      34.031  23.781  26.451  1.00  0.00     0.055 A 
ATOM     67  C   UNL A   1      33.558  24.463  25.318  1.00  0.00    -0.014 A 
BRANCH  64  68
ATOM     68  O   UNL A   1      34.792  21.775  27.489  1.00  0.00    -0.507 OA
ATOM     69  H   UNL A   1      34.220  21.669  28.224  1.00  0.00     0.293 HD
ENDBRANCH  64  68
BRANCH  67  70
ATOM     70  C   UNL A   1      33.124  25.862  25.479  1.00  0.00    -0.011 A 
ATOM     71  C   UNL A   1      33.668  26.943  24.681  1.00  0.00     0.027 A 
ATOM     72  C   UNL A   1      32.289  26.152  26.493  1.00  0.00     0.080 A 
ATOM     73  C   UNL A   1      33.405  28.216  24.995  1.00  0.00     0.095 A 
ATOM     74  C   UNL A   1      31.958  27.563  26.831  1.00  0.00     0.255 A 
ATOM     75  N   UNL A   1      32.583  28.531  26.061  1.00  0.00    -0.258 N 
ATOM     76  O   UNL A   1      31.197  27.775  27.770  1.00  0.00    -0.269 OA
BRANCH  75  77
ATOM     77  C   UNL A   1      32.365  29.903  26.434  1.00  0.00     0.451 C 
ATOM     78  F   UNL A   1      33.534  30.537  26.693  1.00  0.00    -0.185 F 
ATOM     79  F   UNL A   1      31.732  30.576  25.442  1.00  0.00    -0.185 F 
ENDBRANCH  75  77
ENDBRANCH  67  70
ENDBRANCH  59  62
ENDBRANCH  57  58
ENDBRANCH   1  57
TORSDOF 13
ENDMDL
MODEL 2
REMARK VINA RESULT:     -11.6      4.076      9.453
REMARK SMILES O=C(NCCCNC(=O)c1ccc(-c2ccn(C(F)F)c(=O)c2)cc1O)c1ccc(-c2c3nc(c(-c4ccccc4)c4ccc([nH]4)c(-c4ccccc4)c4nc(c(-c5ccccc5)c5ccc2[nH]5)C=C4)C=C3)cc1
REMARK SMILES IDX 5 1 4 2 3 3 1 4 2 5 27 7 28 8 74 9 29 10 73 11 30 12 31 13
REMARK SMILES IDX 32 14 67 15 33 16 72 17 66 18 68 19 34 20 71 21 65 22 64 23
REMARK SMILES IDX 35 25 57 26 42 27 56 28 43 29 46 30 55 31 69 32 44 33 45 34
REMARK SMILES IDX 54 36 70 37 47 38 36 39 37 40 41 41 38 42 40 43 39 44 58 45
REMARK SMILES IDX 59 46 63 47 60 48 62 49 61 50 48 51 49 52 53 53 50 54 52 55
REMARK SMILES IDX 51 56 6 57 7 58 8 59 9 61 10 62 11 63 25 64 12 65 24 66
REMARK SMILES IDX 13 67 26 68 14 70 15 71 23 72 16 73 21 74 17 75 22 76 18 77
REMARK SMILES IDX 19 78 20 79
REMARK H PARENT 3 6 68 24 46 35 7 60 26 69
REMARK Flexibility Score: inf
ROOT
ATOM      1  C   UNL A   1      31.353  32.245  26.525  1.00  0.00     0.042 C 
ENDROOT
BRANCH   1   2
ATOM      2  C   UNL A   1      32.622  32.827  27.127  1.00  0.00     0.118 C 
BRANCH   2   3
ATOM      3  N   UNL A   1      32.430  34.179  27.630  1.00  0.00    -0.352 N 
ATOM      4  O   UNL A   1      32.598  35.911  29.050  1.00  0.00    -0.269 OA
ATOM      5  C   UNL A   1      33.055  34.843  28.654  1.00  0.00     0.251 C 
ATOM      6  H   UNL A   1      31.742  34.701  27.159  1.00  0.00     0.163 HD
BRANCH   5   7
ATOM      7  C   UNL A   1      34.270  34.288  29.289  1.00  0.00     0.039 A 
ATOM      8  C   UNL A   1      35.513  34.538  28.698  1.00  0.00     0.014 A 
ATOM      9  C   UNL A   1      34.189  33.470  30.419  1.00  0.00     0.014 A 
ATOM     10  C   UNL A   1      36.671  33.994  29.257  1.00  0.00     0.010 A 
ATOM     11  C   UNL A   1      35.350  33.005  31.027  1.00  0.00     0.010 A 
ATOM     12  C   UNL A   1      36.599  33.235  30.435  1.00  0.00    -0.014 A 
BRANCH  12  13
ATOM     13  C   UNL A   1      37.806  32.613  31.031  1.00  0.00     0.031 A 
ATOM     14  C   UNL A   1      38.412  31.397  30.387  1.00  0.00     0.074 A 
ATOM     15  C   UNL A   1      38.321  33.102  32.174  1.00  0.00     0.049 A 
ATOM     16  N   UNL A   1      39.419  30.664  30.792  1.00  0.00    -0.248 NA
ATOM     17  C   UNL A   1      37.793  30.927  29.137  1.00  0.00     0.031 C 
ATOM     18  C   UNL A   1      37.812  34.263  32.902  1.00  0.00     0.029 A 
ATOM     19  N   UNL A   1      39.389  32.677  32.924  1.00  0.00    -0.354 N 
ATOM     20  C   UNL A   1      39.531  29.637  29.864  1.00  0.00     0.074 A 
ATOM     21  C   UNL A   1      38.465  29.808  28.905  1.00  0.00     0.031 C 
ATOM     22  C   UNL A   1      38.586  34.480  33.976  1.00  0.00     0.029 A 
ATOM     23  C   UNL A   1      39.615  33.444  34.041  1.00  0.00     0.049 A 
ATOM     24  H   UNL A   1      39.940  31.896  32.686  1.00  0.00     0.167 HD
ATOM     25  C   UNL A   1      40.456  28.651  29.806  1.00  0.00     0.031 A 
ATOM     26  C   UNL A   1      40.542  33.328  35.011  1.00  0.00     0.031 A 
ATOM     27  C   UNL A   1      41.535  28.506  30.745  1.00  0.00     0.049 A 
ATOM     28  C   UNL A   1      41.545  32.212  34.944  1.00  0.00     0.074 A 
ATOM     29  C   UNL A   1      42.572  27.593  30.720  1.00  0.00     0.029 A 
ATOM     30  N   UNL A   1      41.711  29.289  31.875  1.00  0.00    -0.354 N 
ATOM     31  N   UNL A   1      41.679  31.284  34.027  1.00  0.00    -0.248 NA
ATOM     32  C   UNL A   1      42.523  32.124  36.037  1.00  0.00     0.031 C 
ATOM     33  C   UNL A   1      43.337  27.775  31.874  1.00  0.00     0.029 A 
ATOM     34  C   UNL A   1      42.818  28.850  32.580  1.00  0.00     0.049 A 
ATOM     35  H   UNL A   1      41.138  30.045  32.136  1.00  0.00     0.167 HD
ATOM     36  C   UNL A   1      42.763  30.510  34.423  1.00  0.00     0.074 A 
ATOM     37  C   UNL A   1      43.259  31.085  35.656  1.00  0.00     0.031 C 
ATOM     38  C   UNL A   1      43.294  29.421  33.816  1.00  0.00     0.031 A 
BRANCH  25  39
ATOM     39  C   UNL A   1      40.346  27.645  28.692  1.00  0.00    -0.014 A 
ATOM     40  C   UNL A   1      39.644  26.448  28.904  1.00  0.00     0.009 A 
ATOM     41  C   UNL A   1      40.991  27.844  27.461  1.00  0.00     0.009 A 
ATOM     42  C   UNL A   1      39.592  25.469  27.910  1.00  0.00     0.001 A 
ATOM     43  C   UNL A   1      40.909  26.878  26.456  1.00  0.00     0.001 A 
ATOM     44  C   UNL A   1      40.218  25.688  26.684  1.00  0.00     0.000 A 
ENDBRANCH  25  39
BRANCH  26  45
ATOM     45  C   UNL A   1      40.565  34.334  36.105  1.00  0.00    -0.014 A 
ATOM     46  C   UNL A   1      39.815  34.137  37.277  1.00  0.00     0.009 A 
ATOM     47  C   UNL A   1      41.256  35.543  35.938  1.00  0.00     0.009 A 
ATOM     48  C   UNL A   1      39.727  35.145  38.240  1.00  0.00     0.001 A 
ATOM     49  C   UNL A   1      41.186  36.539  36.915  1.00  0.00     0.001 A 
ATOM     50  C   UNL A   1      40.411  36.345  38.058  1.00  0.00     0.000 A 
ENDBRANCH  26  45
BRANCH  38  51
ATOM     51  C   UNL A   1      44.474  28.752  34.464  1.00  0.00    -0.014 A 
ATOM     52  C   UNL A   1      45.777  29.123  34.092  1.00  0.00     0.009 A 
ATOM     53  C   UNL A   1      44.299  27.665  35.333  1.00  0.00     0.009 A 
ATOM     54  C   UNL A   1      46.879  28.401  34.553  1.00  0.00     0.001 A 
ATOM     55  C   UNL A   1      45.404  26.963  35.816  1.00  0.00     0.001 A 
ATOM     56  C   UNL A   1      46.691  27.322  35.416  1.00  0.00     0.000 A 
ENDBRANCH  38  51
ENDBRANCH  12  13
ENDBRANCH   5   7
ENDBRANCH   2   3
ENDBRANCH   1   2
BRANCH   1  57
ATOM     57  C   UNL A   1      31.510  30.825  26.007  1.00  0.00     0.118 C 
BRANCH  57  58
ATOM     58  N   UNL A   1      30.732  30.578  24.803  1.00  0.00    -0.352 N 
ATOM     59  C   UNL A   1      30.755  29.474  23.985  1.00  0.00     0.255 C 
ATOM     60  H   UNL A   1      30.110  31.294  24.541  1.00  0.00     0.163 HD
ATOM     61  O   UNL A   1      30.099  29.451  22.948  1.00  0.00    -0.269 OA
BRANCH  59  62
ATOM     62  C   UNL A   1      31.647  28.347  24.317  1.00  0.00     0.081 A 
ATOM     63  C   UNL A   1      31.072  27.218  24.911  1.00  0.00     0.018 A 
ATOM     64  C   UNL A   1      33.007  28.359  23.996  1.00  0.00     0.128 A 
ATOM     65  C   UNL A   1      31.841  26.068  25.103  1.00  0.00     0.010 A 
ATOM     66  C   UNL A   1      33.769  27.209  24.173  1.00  0.00     0.055 A 
ATOM     67  C   UNL A   1      33.184  26.047  24.703  1.00  0.00    -0.014 A 
BRANCH  64  68
ATOM     68  O   UNL A   1      33.586  29.475  23.458  1.00  0.00    -0.507 OA
ATOM     69  H   UNL A   1      34.367  29.826  23.838  1.00  0.00     0.293 HD
ENDBRANCH  64  68
BRANCH  67  70
ATOM     70  C   UNL A   1      34.003  24.823  24.767  1.00  0.00    -0.011 A 
ATOM     71  C   UNL A   1      34.230  24.102  26.004  1.00  0.00     0.027 A 
ATOM     72  C   UNL A   1      34.661  24.445  23.658  1.00  0.00     0.080 A 
ATOM     73  C   UNL A   1      35.139  23.123  26.061  1.00  0.00     0.095 A 
ATOM     74  C   UNL A   1      35.650  23.333  23.697  1.00  0.00     0.255 A 
ATOM     75  N   UNL A   1      35.855  22.752  24.938  1.00  0.00    -0.258 N 
ATOM     76  O   UNL A   1      36.230  23.031  22.659  1.00  0.00    -0.269 OA
BRANCH  75  77
ATOM     77  C   UNL A   1      36.882  21.747  25.026  1.00  0.00     0.451 C 
ATOM     78  F   UNL A   1      37.746  22.011  26.034  1.00  0.00    -0.185 F 
ATOM     79  F   UNL A   1      36.339  20.524  25.246  1.00  0.00    -0.185 F 
ENDBRANCH  75  77
ENDBRANCH  67  70
ENDBRANCH  59  62
ENDBRANCH  57  58
ENDBRANCH   1  57
TORSDOF 13
ENDMDL
MODEL 3
REMARK VINA RESULT:     -11.6      2.923      8.133
REMARK SMILES O=C(NCCCNC(=O)c1ccc(-c2ccn(C(F)F)c(=O)c2)cc1O)c1ccc(-c2c3nc(c(-c4ccccc4)c4ccc([nH]4)c(-c4ccccc4)c4nc(c(-c5ccccc5)c5ccc2[nH]5)C=C4)C=C3)cc1
REMARK SMILES IDX 5 1 4 2 3 3 1 4 2 5 27 7 28 8 74 9 29 10 73 11 30 12 31 13
REMARK SMILES IDX 32 14 67 15 33 16 72 17 66 18 68 19 34 20 71 21 65 22 64 23
REMARK SMILES IDX 35 25 57 26 42 27 56 28 43 29 46 30 55 31 69 32 44 33 45 34
REMARK SMILES IDX 54 36 70 37 47 38 36 39 37 40 41 41 38 42 40 43 39 44 58 45
REMARK SMILES IDX 59 46 63 47 60 48 62 49 61 50 48 51 49 52 53 53 50 54 52 55
REMARK SMILES IDX 51 56 6 57 7 58 8 59 9 61 10 62 11 63 25 64 12 65 24 66
REMARK SMILES IDX 13 67 26 68 14 70 15 71 23 72 16 73 21 74 17 75 22 76 18 77
REMARK SMILES IDX 19 78 20 79
REMARK H PARENT 3 6 68 24 46 35 7 60 26 69
REMARK Flexibility Score: inf
ROOT
ATOM      1  C   UNL A   1      32.123  28.069  27.100  1.00  0.00     0.042 C 
ENDROOT
BRANCH   1   2
ATOM      2  C   UNL A   1      33.530  28.607  27.301  1.00  0.00     0.118 C 
BRANCH   2   3
ATOM      3  N   UNL A   1      33.541  30.015  27.666  1.00  0.00    -0.352 N 
ATOM      4  O   UNL A   1      34.230  31.893  28.690  1.00  0.00    -0.269 OA
ATOM      5  C   UNL A   1      34.506  30.766  28.288  1.00  0.00     0.251 C 
ATOM      6  H   UNL A   1      32.724  30.510  27.427  1.00  0.00     0.163 HD
BRANCH   5   7
ATOM      7  C   UNL A   1      35.872  30.233  28.482  1.00  0.00     0.039 A 
ATOM      8  C   UNL A   1      36.214  29.693  29.725  1.00  0.00     0.014 A 
ATOM      9  C   UNL A   1      36.835  30.323  27.474  1.00  0.00     0.014 A 
ATOM     10  C   UNL A   1      37.508  29.218  29.946  1.00  0.00     0.010 A 
ATOM     11  C   UNL A   1      38.096  29.766  27.663  1.00  0.00     0.010 A 
ATOM     12  C   UNL A   1      38.455  29.238  28.910  1.00  0.00    -0.014 A 
BRANCH  12  13
ATOM     13  C   UNL A   1      39.847  28.775  29.124  1.00  0.00     0.031 A 
ATOM     14  C   UNL A   1      40.853  29.705  29.746  1.00  0.00     0.074 A 
ATOM     15  C   UNL A   1      40.221  27.550  28.712  1.00  0.00     0.049 A 
ATOM     16  N   UNL A   1      42.133  29.518  29.948  1.00  0.00    -0.248 NA
ATOM     17  C   UNL A   1      40.365  31.026  30.173  1.00  0.00     0.031 C 
ATOM     18  C   UNL A   1      39.343  26.566  28.081  1.00  0.00     0.029 A 
ATOM     19  N   UNL A   1      41.443  26.927  28.763  1.00  0.00    -0.354 N 
ATOM     20  C   UNL A   1      42.602  30.705  30.497  1.00  0.00     0.074 A 
ATOM     21  C   UNL A   1      41.486  31.621  30.551  1.00  0.00     0.031 C 
ATOM     22  C   UNL A   1      40.044  25.450  27.833  1.00  0.00     0.029 A 
ATOM     23  C   UNL A   1      41.432  25.657  28.240  1.00  0.00     0.049 A 
ATOM     24  H   UNL A   1      42.250  27.349  29.137  1.00  0.00     0.167 HD
ATOM     25  C   UNL A   1      43.847  30.996  30.938  1.00  0.00     0.031 A 
ATOM     26  C   UNL A   1      42.427  24.759  28.100  1.00  0.00     0.031 A 
ATOM     27  C   UNL A   1      44.945  30.068  30.913  1.00  0.00     0.049 A 
ATOM     28  C   UNL A   1      43.809  25.108  28.572  1.00  0.00     0.074 A 
ATOM     29  C   UNL A   1      46.221  30.239  31.417  1.00  0.00     0.029 A 
ATOM     30  N   UNL A   1      44.897  28.801  30.352  1.00  0.00    -0.354 N 
ATOM     31  N   UNL A   1      44.225  26.211  29.147  1.00  0.00    -0.248 NA
ATOM     32  C   UNL A   1      44.858  24.097  28.379  1.00  0.00     0.031 C 
ATOM     33  C   UNL A   1      46.969  29.104  31.096  1.00  0.00     0.029 A 
ATOM     34  C   UNL A   1      46.137  28.196  30.457  1.00  0.00     0.049 A 
ATOM     35  H   UNL A   1      44.102  28.392  29.942  1.00  0.00     0.167 HD
ATOM     36  C   UNL A   1      45.579  26.023  29.398  1.00  0.00     0.074 A 
ATOM     37  C   UNL A   1      45.911  24.695  28.926  1.00  0.00     0.031 C 
ATOM     38  C   UNL A   1      46.462  26.879  29.969  1.00  0.00     0.031 A 
BRANCH  25  39
ATOM     39  C   UNL A   1      44.098  32.375  31.486  1.00  0.00    -0.014 A 
ATOM     40  C   UNL A   1      44.552  33.390  30.629  1.00  0.00     0.009 A 
ATOM     41  C   UNL A   1      43.956  32.656  32.854  1.00  0.00     0.009 A 
ATOM     42  C   UNL A   1      44.862  34.656  31.129  1.00  0.00     0.001 A 
ATOM     43  C   UNL A   1      44.233  33.933  33.346  1.00  0.00     0.001 A 
ATOM     44  C   UNL A   1      44.695  34.929  32.486  1.00  0.00     0.000 A 
ENDBRANCH  25  39
BRANCH  26  45
ATOM     45  C   UNL A   1      42.115  23.430  27.511  1.00  0.00    -0.014 A 
ATOM     46  C   UNL A   1      41.602  22.394  28.311  1.00  0.00     0.009 A 
ATOM     47  C   UNL A   1      42.422  23.161  26.169  1.00  0.00     0.009 A 
ATOM     48  C   UNL A   1      41.442  21.108  27.789  1.00  0.00     0.001 A 
ATOM     49  C   UNL A   1      42.236  21.881  25.644  1.00  0.00     0.001 A 
ATOM     50  C   UNL A   1      41.760  20.853  26.457  1.00  0.00     0.000 A 
ENDBRANCH  26  45
BRANCH  38  51
ATOM     51  C   UNL A   1      47.888  26.430  30.118  1.00  0.00    -0.014 A 
ATOM     52  C   UNL A   1      48.759  26.492  29.017  1.00  0.00     0.009 A 
ATOM     53  C   UNL A   1      48.331  25.818  31.300  1.00  0.00     0.009 A 
ATOM     54  C   UNL A   1      50.032  25.924  29.085  1.00  0.00     0.001 A 
ATOM     55  C   UNL A   1      49.617  25.278  31.376  1.00  0.00     0.001 A 
ATOM     56  C   UNL A   1      50.460  25.319  30.266  1.00  0.00     0.000 A 
ENDBRANCH  38  51
ENDBRANCH  12  13
ENDBRANCH   5   7
ENDBRANCH   2   3
ENDBRANCH   1   2
BRANCH   1  57
ATOM     57  C   UNL A   1      31.887  27.453  25.731  1.00  0.00     0.118 C 
BRANCH  57  58
ATOM     58  N   UNL A   1      32.658  28.104  24.683  1.00  0.00    -0.352 N 
ATOM     59  C   UNL A   1      33.607  27.553  23.857  1.00  0.00     0.255 C 
ATOM     60  H   UNL A   1      32.476  29.062  24.549  1.00  0.00     0.163 HD
ATOM     61  O   UNL A   1      34.240  28.257  23.074  1.00  0.00    -0.269 OA
BRANCH  59  62
ATOM     62  C   UNL A   1      33.926  26.118  23.979  1.00  0.00     0.081 A 
ATOM     63  C   UNL A   1      34.261  25.634  25.250  1.00  0.00     0.018 A 
ATOM     64  C   UNL A   1      33.836  25.242  22.894  1.00  0.00     0.128 A 
ATOM     65  C   UNL A   1      34.419  24.261  25.449  1.00  0.00     0.010 A 
ATOM     66  C   UNL A   1      33.979  23.874  23.096  1.00  0.00     0.055 A 
ATOM     67  C   UNL A   1      34.245  23.372  24.380  1.00  0.00    -0.014 A 
BRANCH  64  68
ATOM     68  O   UNL A   1      33.554  25.713  21.641  1.00  0.00    -0.507 OA
ATOM     69  H   UNL A   1      32.705  26.063  21.453  1.00  0.00     0.293 HD
ENDBRANCH  64  68
BRANCH  67  70
ATOM     70  C   UNL A   1      34.277  21.910  24.563  1.00  0.00    -0.011 A 
ATOM     71  C   UNL A   1      35.484  21.197  24.932  1.00  0.00     0.027 A 
ATOM     72  C   UNL A   1      33.173  21.210  24.248  1.00  0.00     0.080 A 
ATOM     73  C   UNL A   1      35.523  19.861  24.886  1.00  0.00     0.095 A 
ATOM     74  C   UNL A   1      33.191  19.722  24.228  1.00  0.00     0.255 A 
ATOM     75  N   UNL A   1      34.408  19.129  24.523  1.00  0.00    -0.258 N 
ATOM     76  O   UNL A   1      32.160  19.130  23.927  1.00  0.00    -0.269 OA
BRANCH  75  77
ATOM     77  C   UNL A   1      34.482  17.696  24.407  1.00  0.00     0.451 C 
ATOM     78  F   UNL A   1      34.389  17.300  23.115  1.00  0.00    -0.185 F 
ATOM     79  F   UNL A   1      35.654  17.233  24.906  1.00  0.00    -0.185 F 
ENDBRANCH  75  77
ENDBRANCH  67  70
ENDBRANCH  59  62
ENDBRANCH  57  58
ENDBRANCH   1  57
TORSDOF 13
ENDMDL
