MODEL 1
REMARK VINA RESULT:     -11.4      0.000      0.000
REMARK SMILES CC1=CC2=[NH+]C(=O)[C@](C)(CC(=O)NCCCNC(=O)c3ccc(-c4c5nc(c(-c6ccccc6)c6ccc([nH]6)c(-c6ccccc6)c6nc(c(-c7ccccc7)c7ccc4[nH]7)C=C6)C=C5)cc3)N2C=C1
REMARK SMILES IDX 15 1 14 2 13 3 11 4 12 5 10 7 8 8 1 9 2 10 3 11 70 12 4 13
REMARK SMILES IDX 69 14 5 15 68 16 6 17 7 19 9 20 16 21 17 22 18 23 19 25
REMARK SMILES IDX 20 26 21 27 67 28 22 29 66 30 23 31 24 32 25 33 60 34 26 35
REMARK SMILES IDX 65 36 59 37 61 38 27 39 64 40 58 41 57 42 28 44 50 45 35 46
REMARK SMILES IDX 49 47 36 48 39 49 48 50 62 51 37 52 38 53 47 55 63 56 40 57
REMARK SMILES IDX 29 58 30 59 34 60 31 61 33 62 32 63 51 64 52 65 56 66 53 67
REMARK SMILES IDX 55 68 54 69 41 70 42 71 46 72 43 73 45 74 44 75
REMARK H PARENT 13 6 5 18 17 24 61 43 39 54
REMARK Flexibility Score: inf
ROOT
ATOM      1  C   UNL A   1      36.940  20.069  24.861  1.00  0.00     0.042 C 
ENDROOT
BRANCH   1   2
ATOM      2  C   UNL A   1      35.684  20.935  25.066  1.00  0.00     0.117 C 
BRANCH   2   3
ATOM      3  N   UNL A   1      34.428  20.196  25.049  1.00  0.00    -0.356 N 
ATOM      4  C   UNL A   1      33.194  20.442  25.573  1.00  0.00     0.225 C 
ATOM      5  O   UNL A   1      32.319  19.600  25.366  1.00  0.00    -0.275 OA
ATOM      6  H   UNL A   1      34.482  19.345  24.557  1.00  0.00     0.163 HD
BRANCH   4   7
ATOM      7  C   UNL A   1      32.883  21.690  26.363  1.00  0.00     0.166 C 
BRANCH   7   8
ATOM      8  C   UNL A   1      32.130  22.823  25.658  1.00  0.00     0.217 C 
ATOM      9  C   UNL A   1      33.353  28.384  26.426  1.00  0.00     0.045 C 
ATOM     10  C   UNL A   1      32.986  26.944  26.246  1.00  0.00    -0.039 C 
ATOM     11  C   UNL A   1      31.742  26.455  26.448  1.00  0.00     0.102 C 
ATOM     12  C   UNL A   1      34.081  26.062  25.863  1.00  0.00     0.047 C 
ATOM     13  C   UNL A   1      31.565  24.984  26.279  1.00  0.00     0.283 C 
ATOM     14  C   UNL A   1      33.849  24.758  25.664  1.00  0.00     0.202 C 
ATOM     15  N   UNL A   1      30.453  24.353  26.531  1.00  0.00    -0.206 N 
ATOM     16  N   UNL A   1      32.614  24.194  25.842  1.00  0.00    -0.217 N 
ATOM     17  C   UNL A   1      30.711  23.009  26.289  1.00  0.00     0.356 C 
ATOM     18  H   UNL A   1      29.603  24.749  26.832  1.00  0.00     0.315 HD
ATOM     19  O   UNL A   1      29.922  22.097  26.491  1.00  0.00    -0.242 OA
ATOM     20  C   UNL A   1      31.882  22.504  24.180  1.00  0.00     0.076 C 
ENDBRANCH   7   8
ENDBRANCH   4   7
ENDBRANCH   2   3
ENDBRANCH   1   2
BRANCH   1  21
ATOM     21  C   UNL A   1      38.247  20.610  25.455  1.00  0.00     0.118 C 
BRANCH  21  22
ATOM     22  N   UNL A   1      39.288  19.604  25.542  1.00  0.00    -0.352 N 
ATOM     23  C   UNL A   1      40.598  19.714  25.946  1.00  0.00     0.251 C 
ATOM     24  H   UNL A   1      39.014  18.699  25.266  1.00  0.00     0.163 HD
ATOM     25  O   UNL A   1      41.360  18.766  25.769  1.00  0.00    -0.269 OA
BRANCH  23  26
ATOM     26  C   UNL A   1      41.121  20.956  26.564  1.00  0.00     0.039 A 
ATOM     27  C   UNL A   1      41.745  21.896  25.736  1.00  0.00     0.014 A 
ATOM     28  C   UNL A   1      41.072  21.180  27.944  1.00  0.00     0.014 A 
ATOM     29  C   UNL A   1      42.251  23.085  26.274  1.00  0.00     0.010 A 
ATOM     30  C   UNL A   1      41.542  22.388  28.476  1.00  0.00     0.010 A 
ATOM     31  C   UNL A   1      42.119  23.362  27.645  1.00  0.00    -0.014 A 
BRANCH  31  32
ATOM     32  C   UNL A   1      42.506  24.690  28.199  1.00  0.00     0.031 A 
ATOM     33  C   UNL A   1      41.493  25.787  28.393  1.00  0.00     0.074 A 
ATOM     34  C   UNL A   1      43.806  24.935  28.471  1.00  0.00     0.049 A 
ATOM     35  N   UNL A   1      41.682  27.024  28.782  1.00  0.00    -0.248 NA
ATOM     36  C   UNL A   1      40.090  25.456  28.104  1.00  0.00     0.031 C 
ATOM     37  C   UNL A   1      44.898  23.971  28.316  1.00  0.00     0.029 A 
ATOM     38  N   UNL A   1      44.432  26.073  28.919  1.00  0.00    -0.354 N 
ATOM     39  C   UNL A   1      40.429  27.625  28.770  1.00  0.00     0.074 A 
ATOM     40  C   UNL A   1      39.490  26.622  28.311  1.00  0.00     0.031 C 
ATOM     41  C   UNL A   1      46.054  24.556  28.664  1.00  0.00     0.029 A 
ATOM     42  C   UNL A   1      45.797  25.948  29.019  1.00  0.00     0.049 A 
ATOM     43  H   UNL A   1      43.948  26.901  29.145  1.00  0.00     0.167 HD
ATOM     44  C   UNL A   1      40.091  28.893  29.111  1.00  0.00     0.031 A 
ATOM     45  C   UNL A   1      46.745  26.852  29.332  1.00  0.00     0.031 A 
ATOM     46  C   UNL A   1      41.020  29.894  29.571  1.00  0.00     0.049 A 
ATOM     47  C   UNL A   1      46.343  28.263  29.662  1.00  0.00     0.074 A 
ATOM     48  C   UNL A   1      40.752  31.185  29.997  1.00  0.00     0.029 A 
ATOM     49  N   UNL A   1      42.393  29.726  29.653  1.00  0.00    -0.354 N 
ATOM     50  N   UNL A   1      45.145  28.791  29.712  1.00  0.00    -0.248 NA
ATOM     51  C   UNL A   1      47.428  29.203  29.983  1.00  0.00     0.031 C 
ATOM     52  C   UNL A   1      41.967  31.819  30.271  1.00  0.00     0.029 A 
ATOM     53  C   UNL A   1      42.988  30.902  30.081  1.00  0.00     0.049 A 
ATOM     54  H   UNL A   1      42.875  28.894  29.438  1.00  0.00     0.167 HD
ATOM     55  C   UNL A   1      45.330  30.114  30.093  1.00  0.00     0.074 A 
ATOM     56  C   UNL A   1      46.753  30.302  30.284  1.00  0.00     0.031 C 
ATOM     57  C   UNL A   1      44.403  31.086  30.265  1.00  0.00     0.031 A 
BRANCH  44  58
ATOM     58  C   UNL A   1      38.645  29.295  28.987  1.00  0.00    -0.014 A 
ATOM     59  C   UNL A   1      38.113  29.741  27.768  1.00  0.00     0.009 A 
ATOM     60  C   UNL A   1      37.785  29.137  30.086  1.00  0.00     0.009 A 
ATOM     61  C   UNL A   1      36.754  30.045  27.660  1.00  0.00     0.001 A 
ATOM     62  C   UNL A   1      36.422  29.415  29.968  1.00  0.00     0.001 A 
ATOM     63  C   UNL A   1      35.908  29.874  28.756  1.00  0.00     0.000 A 
ENDBRANCH  44  58
BRANCH  45  64
ATOM     64  C   UNL A   1      48.182  26.466  29.316  1.00  0.00    -0.014 A 
ATOM     65  C   UNL A   1      48.938  26.565  28.138  1.00  0.00     0.009 A 
ATOM     66  C   UNL A   1      48.795  25.963  30.474  1.00  0.00     0.009 A 
ATOM     67  C   UNL A   1      50.267  26.132  28.113  1.00  0.00     0.001 A 
ATOM     68  C   UNL A   1      50.133  25.564  30.455  1.00  0.00     0.001 A 
ATOM     69  C   UNL A   1      50.864  25.636  29.270  1.00  0.00     0.000 A 
ENDBRANCH  45  64
BRANCH  57  70
ATOM     70  C   UNL A   1      44.894  32.437  30.710  1.00  0.00    -0.014 A 
ATOM     71  C   UNL A   1      45.040  32.749  32.071  1.00  0.00     0.009 A 
ATOM     72  C   UNL A   1      45.247  33.400  29.751  1.00  0.00     0.009 A 
ATOM     73  C   UNL A   1      45.497  34.010  32.461  1.00  0.00     0.001 A 
ATOM     74  C   UNL A   1      45.733  34.649  30.144  1.00  0.00     0.001 A 
ATOM     75  C   UNL A   1      45.848  34.956  31.499  1.00  0.00     0.000 A 
ENDBRANCH  57  70
ENDBRANCH  31  32
ENDBRANCH  23  26
ENDBRANCH  21  22
ENDBRANCH   1  21
TORSDOF 11
ENDMDL
MODEL 2
REMARK VINA RESULT:     -11.2      0.485      6.135
REMARK SMILES CC1=CC2=[NH+]C(=O)[C@](C)(CC(=O)NCCCNC(=O)c3ccc(-c4c5nc(c(-c6ccccc6)c6ccc([nH]6)c(-c6ccccc6)c6nc(c(-c7ccccc7)c7ccc4[nH]7)C=C6)C=C5)cc3)N2C=C1
REMARK SMILES IDX 15 1 14 2 13 3 11 4 12 5 10 7 8 8 1 9 2 10 3 11 70 12 4 13
REMARK SMILES IDX 69 14 5 15 68 16 6 17 7 19 9 20 16 21 17 22 18 23 19 25
REMARK SMILES IDX 20 26 21 27 67 28 22 29 66 30 23 31 24 32 25 33 60 34 26 35
REMARK SMILES IDX 65 36 59 37 61 38 27 39 64 40 58 41 57 42 28 44 50 45 35 46
REMARK SMILES IDX 49 47 36 48 39 49 48 50 62 51 37 52 38 53 47 55 63 56 40 57
REMARK SMILES IDX 29 58 30 59 34 60 31 61 33 62 32 63 51 64 52 65 56 66 53 67
REMARK SMILES IDX 55 68 54 69 41 70 42 71 46 72 43 73 45 74 44 75
REMARK H PARENT 13 6 5 18 17 24 61 43 39 54
REMARK Flexibility Score: inf
ROOT
ATOM      1  C   UNL A   1      37.141  19.784  25.009  1.00  0.00     0.042 C 
ENDROOT
BRANCH   1   2
ATOM      2  C   UNL A   1      35.890  20.676  25.082  1.00  0.00     0.117 C 
BRANCH   2   3
ATOM      3  N   UNL A   1      34.626  19.951  25.081  1.00  0.00    -0.356 N 
ATOM      4  C   UNL A   1      33.388  20.236  25.575  1.00  0.00     0.225 C 
ATOM      5  O   UNL A   1      32.506  19.393  25.395  1.00  0.00    -0.275 OA
ATOM      6  H   UNL A   1      34.677  19.076  24.632  1.00  0.00     0.163 HD
BRANCH   4   7
ATOM      7  C   UNL A   1      33.079  21.523  26.299  1.00  0.00     0.166 C 
BRANCH   7   8
ATOM      8  C   UNL A   1      32.396  22.648  25.514  1.00  0.00     0.217 C 
ATOM      9  C   UNL A   1      33.591  28.215  26.289  1.00  0.00     0.045 C 
ATOM     10  C   UNL A   1      33.230  26.773  26.103  1.00  0.00    -0.039 C 
ATOM     11  C   UNL A   1      31.970  26.296  26.208  1.00  0.00     0.102 C 
ATOM     12  C   UNL A   1      34.347  25.878  25.827  1.00  0.00     0.047 C 
ATOM     13  C   UNL A   1      31.797  24.823  26.050  1.00  0.00     0.283 C 
ATOM     14  C   UNL A   1      34.123  24.573  25.632  1.00  0.00     0.202 C 
ATOM     15  N   UNL A   1      30.664  24.203  26.218  1.00  0.00    -0.206 N 
ATOM     16  N   UNL A   1      32.873  24.019  25.715  1.00  0.00    -0.217 N 
ATOM     17  C   UNL A   1      30.930  22.853  26.021  1.00  0.00     0.356 C 
ATOM     18  H   UNL A   1      29.794  24.609  26.440  1.00  0.00     0.315 HD
ATOM     19  O   UNL A   1      30.121  21.950  26.172  1.00  0.00    -0.242 OA
ATOM     20  C   UNL A   1      32.270  22.305  24.026  1.00  0.00     0.076 C 
ENDBRANCH   7   8
ENDBRANCH   4   7
ENDBRANCH   2   3
ENDBRANCH   1   2
BRANCH   1  21
ATOM     21  C   UNL A   1      38.462  20.419  25.467  1.00  0.00     0.118 C 
BRANCH  21  22
ATOM     22  N   UNL A   1      39.540  19.457  25.589  1.00  0.00    -0.352 N 
ATOM     23  C   UNL A   1      40.849  19.634  25.972  1.00  0.00     0.251 C 
ATOM     24  H   UNL A   1      39.297  18.531  25.360  1.00  0.00     0.163 HD
ATOM     25  O   UNL A   1      41.643  18.707  25.832  1.00  0.00    -0.269 OA
BRANCH  23  26
ATOM     26  C   UNL A   1      41.332  20.923  26.524  1.00  0.00     0.039 A 
ATOM     27  C   UNL A   1      41.942  21.830  25.652  1.00  0.00     0.014 A 
ATOM     28  C   UNL A   1      41.257  21.223  27.889  1.00  0.00     0.014 A 
ATOM     29  C   UNL A   1      42.410  23.061  26.127  1.00  0.00     0.010 A 
ATOM     30  C   UNL A   1      41.689  22.472  28.356  1.00  0.00     0.010 A 
ATOM     31  C   UNL A   1      42.252  23.412  27.478  1.00  0.00    -0.014 A 
BRANCH  31  32
ATOM     32  C   UNL A   1      42.598  24.779  27.960  1.00  0.00     0.031 A 
ATOM     33  C   UNL A   1      43.995  25.126  28.401  1.00  0.00     0.074 A 
ATOM     34  C   UNL A   1      41.622  25.705  28.066  1.00  0.00     0.049 A 
ATOM     35  N   UNL A   1      44.441  26.241  28.927  1.00  0.00    -0.248 NA
ATOM     36  C   UNL A   1      45.023  24.086  28.239  1.00  0.00     0.031 C 
ATOM     37  C   UNL A   1      40.221  25.502  27.692  1.00  0.00     0.029 A 
ATOM     38  N   UNL A   1      41.654  26.996  28.536  1.00  0.00    -0.354 N 
ATOM     39  C   UNL A   1      45.792  26.035  29.174  1.00  0.00     0.074 A 
ATOM     40  C   UNL A   1      46.089  24.678  28.764  1.00  0.00     0.031 C 
ATOM     41  C   UNL A   1      39.531  26.625  27.943  1.00  0.00     0.029 A 
ATOM     42  C   UNL A   1      40.426  27.612  28.541  1.00  0.00     0.049 A 
ATOM     43  H   UNL A   1      42.480  27.437  28.841  1.00  0.00     0.167 HD
ATOM     44  C   UNL A   1      46.702  26.895  29.693  1.00  0.00     0.031 A 
ATOM     45  C   UNL A   1      40.046  28.820  28.999  1.00  0.00     0.031 A 
ATOM     46  C   UNL A   1      46.413  28.247  30.101  1.00  0.00     0.049 A 
ATOM     47  C   UNL A   1      41.070  29.735  29.612  1.00  0.00     0.074 A 
ATOM     48  C   UNL A   1      47.291  29.207  30.579  1.00  0.00     0.029 A 
ATOM     49  N   UNL A   1      45.156  28.828  30.093  1.00  0.00    -0.354 N 
ATOM     50  N   UNL A   1      42.357  29.546  29.772  1.00  0.00    -0.248 NA
ATOM     51  C   UNL A   1      40.587  31.035  30.104  1.00  0.00     0.031 C 
ATOM     52  C   UNL A   1      46.554  30.344  30.925  1.00  0.00     0.029 A 
ATOM     53  C   UNL A   1      45.228  30.117  30.598  1.00  0.00     0.049 A 
ATOM     54  H   UNL A   1      44.333  28.390  29.777  1.00  0.00     0.167 HD
ATOM     55  C   UNL A   1      42.840  30.709  30.359  1.00  0.00     0.074 A 
ATOM     56  C   UNL A   1      41.713  31.607  30.504  1.00  0.00     0.031 C 
ATOM     57  C   UNL A   1      44.104  31.004  30.745  1.00  0.00     0.031 A 
BRANCH  44  58
ATOM     58  C   UNL A   1      48.114  26.404  29.875  1.00  0.00    -0.014 A 
ATOM     59  C   UNL A   1      49.092  26.609  28.889  1.00  0.00     0.009 A 
ATOM     60  C   UNL A   1      48.489  25.807  31.090  1.00  0.00     0.009 A 
ATOM     61  C   UNL A   1      50.410  26.204  29.109  1.00  0.00     0.001 A 
ATOM     62  C   UNL A   1      49.813  25.428  31.317  1.00  0.00     0.001 A 
ATOM     63  C   UNL A   1      50.772  25.621  30.324  1.00  0.00     0.000 A 
ENDBRANCH  44  58
BRANCH  45  64
ATOM     64  C   UNL A   1      38.618  29.231  28.933  1.00  0.00    -0.014 A 
ATOM     65  C   UNL A   1      37.782  29.106  30.054  1.00  0.00     0.009 A 
ATOM     66  C   UNL A   1      38.074  29.718  27.734  1.00  0.00     0.009 A 
ATOM     67  C   UNL A   1      36.426  29.426  29.963  1.00  0.00     0.001 A 
ATOM     68  C   UNL A   1      36.725  30.071  27.656  1.00  0.00     0.001 A 
ATOM     69  C   UNL A   1      35.899  29.911  28.767  1.00  0.00     0.000 A 
ENDBRANCH  45  64
BRANCH  57  70
ATOM     70  C   UNL A   1      44.345  32.366  31.338  1.00  0.00    -0.014 A 
ATOM     71  C   UNL A   1      44.676  33.465  30.531  1.00  0.00     0.009 A 
ATOM     72  C   UNL A   1      44.205  32.558  32.721  1.00  0.00     0.009 A 
ATOM     73  C   UNL A   1      44.897  34.720  31.102  1.00  0.00     0.001 A 
ATOM     74  C   UNL A   1      44.394  33.821  33.286  1.00  0.00     0.001 A 
ATOM     75  C   UNL A   1      44.750  34.898  32.477  1.00  0.00     0.000 A 
ENDBRANCH  57  70
ENDBRANCH  31  32
ENDBRANCH  23  26
ENDBRANCH  21  22
ENDBRANCH   1  21
TORSDOF 11
ENDMDL
MODEL 3
REMARK VINA RESULT:     -11.1      2.636      7.087
REMARK SMILES CC1=CC2=[NH+]C(=O)[C@](C)(CC(=O)NCCCNC(=O)c3ccc(-c4c5nc(c(-c6ccccc6)c6ccc([nH]6)c(-c6ccccc6)c6nc(c(-c7ccccc7)c7ccc4[nH]7)C=C6)C=C5)cc3)N2C=C1
REMARK SMILES IDX 15 1 14 2 13 3 11 4 12 5 10 7 8 8 1 9 2 10 3 11 70 12 4 13
REMARK SMILES IDX 69 14 5 15 68 16 6 17 7 19 9 20 16 21 17 22 18 23 19 25
REMARK SMILES IDX 20 26 21 27 67 28 22 29 66 30 23 31 24 32 25 33 60 34 26 35
REMARK SMILES IDX 65 36 59 37 61 38 27 39 64 40 58 41 57 42 28 44 50 45 35 46
REMARK SMILES IDX 49 47 36 48 39 49 48 50 62 51 37 52 38 53 47 55 63 56 40 57
REMARK SMILES IDX 29 58 30 59 34 60 31 61 33 62 32 63 51 64 52 65 56 66 53 67
REMARK SMILES IDX 55 68 54 69 41 70 42 71 46 72 43 73 45 74 44 75
REMARK H PARENT 13 6 5 18 17 24 61 43 39 54
REMARK Flexibility Score: inf
ROOT
ATOM      1  C   UNL A   1      36.326  23.405  26.120  1.00  0.00     0.042 C 
ENDROOT
BRANCH   1   2
ATOM      2  C   UNL A   1      35.560  22.090  26.342  1.00  0.00     0.117 C 
BRANCH   2   3
ATOM      3  N   UNL A   1      34.520  22.158  27.360  1.00  0.00    -0.356 N 
ATOM      4  C   UNL A   1      33.158  22.176  27.302  1.00  0.00     0.225 C 
ATOM      5  O   UNL A   1      32.552  22.230  28.374  1.00  0.00    -0.275 OA
ATOM      6  H   UNL A   1      34.873  22.200  28.278  1.00  0.00     0.163 HD
BRANCH   4   7
ATOM      7  C   UNL A   1      32.401  22.118  25.998  1.00  0.00     0.166 C 
BRANCH   7   8
ATOM      8  C   UNL A   1      31.664  23.378  25.534  1.00  0.00     0.217 C 
ATOM      9  C   UNL A   1      33.786  28.683  26.145  1.00  0.00     0.045 C 
ATOM     10  C   UNL A   1      33.192  27.314  26.017  1.00  0.00    -0.039 C 
ATOM     11  C   UNL A   1      31.978  26.974  26.504  1.00  0.00     0.102 C 
ATOM     12  C   UNL A   1      34.033  26.327  25.350  1.00  0.00     0.047 C 
ATOM     13  C   UNL A   1      31.566  25.550  26.340  1.00  0.00     0.283 C 
ATOM     14  C   UNL A   1      33.583  25.078  25.176  1.00  0.00     0.202 C 
ATOM     15  N   UNL A   1      30.471  25.050  26.838  1.00  0.00    -0.206 N 
ATOM     16  N   UNL A   1      32.361  24.663  25.634  1.00  0.00    -0.217 N 
ATOM     17  C   UNL A   1      30.476  23.701  26.500  1.00  0.00     0.356 C 
ATOM     18  H   UNL A   1      29.781  25.530  27.350  1.00  0.00     0.315 HD
ATOM     19  O   UNL A   1      29.642  22.885  26.862  1.00  0.00    -0.242 OA
ATOM     20  C   UNL A   1      31.027  23.187  24.153  1.00  0.00     0.076 C 
ENDBRANCH   7   8
ENDBRANCH   4   7
ENDBRANCH   2   3
ENDBRANCH   1   2
BRANCH   1  21
ATOM     21  C   UNL A   1      37.438  23.379  25.062  1.00  0.00     0.118 C 
BRANCH  21  22
ATOM     22  N   UNL A   1      38.560  22.542  25.440  1.00  0.00    -0.352 N 
ATOM     23  C   UNL A   1      39.710  22.855  26.125  1.00  0.00     0.251 C 
ATOM     24  H   UNL A   1      38.487  21.600  25.162  1.00  0.00     0.163 HD
ATOM     25  O   UNL A   1      40.617  22.027  26.181  1.00  0.00    -0.269 OA
BRANCH  23  26
ATOM     26  C   UNL A   1      39.896  24.175  26.775  1.00  0.00     0.039 A 
ATOM     27  C   UNL A   1      39.336  24.375  28.042  1.00  0.00     0.014 A 
ATOM     28  C   UNL A   1      40.546  25.236  26.134  1.00  0.00     0.014 A 
ATOM     29  C   UNL A   1      39.488  25.603  28.695  1.00  0.00     0.010 A 
ATOM     30  C   UNL A   1      40.732  26.451  26.806  1.00  0.00     0.010 A 
ATOM     31  C   UNL A   1      40.223  26.642  28.100  1.00  0.00    -0.014 A 
BRANCH  31  32
ATOM     32  C   UNL A   1      40.528  27.893  28.852  1.00  0.00     0.031 A 
ATOM     33  C   UNL A   1      41.795  28.039  29.651  1.00  0.00     0.074 A 
ATOM     34  C   UNL A   1      39.617  28.888  28.868  1.00  0.00     0.049 A 
ATOM     35  N   UNL A   1      42.170  29.026  30.430  1.00  0.00    -0.248 NA
ATOM     36  C   UNL A   1      42.762  26.934  29.577  1.00  0.00     0.031 C 
ATOM     37  C   UNL A   1      38.339  28.876  28.153  1.00  0.00     0.029 A 
ATOM     38  N   UNL A   1      39.617  30.096  29.523  1.00  0.00    -0.354 N 
ATOM     39  C   UNL A   1      43.404  28.656  30.949  1.00  0.00     0.074 A 
ATOM     40  C   UNL A   1      43.704  27.343  30.418  1.00  0.00     0.031 C 
ATOM     41  C   UNL A   1      37.683  30.019  28.405  1.00  0.00     0.029 A 
ATOM     42  C   UNL A   1      38.466  30.824  29.337  1.00  0.00     0.049 A 
ATOM     43  H   UNL A   1      40.370  30.410  30.075  1.00  0.00     0.167 HD
ATOM     44  C   UNL A   1      44.214  29.347  31.789  1.00  0.00     0.031 A 
ATOM     45  C   UNL A   1      38.065  31.993  29.873  1.00  0.00     0.031 A 
ATOM     46  C   UNL A   1      43.921  30.654  32.320  1.00  0.00     0.049 A 
ATOM     47  C   UNL A   1      38.965  32.714  30.838  1.00  0.00     0.074 A 
ATOM     48  C   UNL A   1      44.716  31.452  33.128  1.00  0.00     0.029 A 
ATOM     49  N   UNL A   1      42.743  31.353  32.109  1.00  0.00    -0.354 N 
ATOM     50  N   UNL A   1      40.159  32.379  31.261  1.00  0.00    -0.248 NA
ATOM     51  C   UNL A   1      38.461  33.978  31.396  1.00  0.00     0.031 C 
ATOM     52  C   UNL A   1      43.991  32.600  33.462  1.00  0.00     0.029 A 
ATOM     53  C   UNL A   1      42.773  32.550  32.807  1.00  0.00     0.049 A 
ATOM     54  H   UNL A   1      41.996  31.043  31.548  1.00  0.00     0.167 HD
ATOM     55  C   UNL A   1      40.558  33.401  32.113  1.00  0.00     0.074 A 
ATOM     56  C   UNL A   1      39.490  34.378  32.128  1.00  0.00     0.031 C 
ATOM     57  C   UNL A   1      41.706  33.516  32.822  1.00  0.00     0.031 A 
BRANCH  44  58
ATOM     58  C   UNL A   1      45.504  28.699  32.217  1.00  0.00    -0.014 A 
ATOM     59  C   UNL A   1      45.564  27.863  33.342  1.00  0.00     0.009 A 
ATOM     60  C   UNL A   1      46.654  28.858  31.426  1.00  0.00     0.009 A 
ATOM     61  C   UNL A   1      46.757  27.219  33.680  1.00  0.00     0.001 A 
ATOM     62  C   UNL A   1      47.837  28.191  31.751  1.00  0.00     0.001 A 
ATOM     63  C   UNL A   1      47.890  27.377  32.881  1.00  0.00     0.000 A 
ENDBRANCH  44  58
BRANCH  45  64
ATOM     64  C   UNL A   1      36.724  32.548  29.541  1.00  0.00    -0.014 A 
ATOM     65  C   UNL A   1      36.518  33.264  28.352  1.00  0.00     0.009 A 
ATOM     66  C   UNL A   1      35.652  32.395  30.434  1.00  0.00     0.009 A 
ATOM     67  C   UNL A   1      35.276  33.844  28.082  1.00  0.00     0.001 A 
ATOM     68  C   UNL A   1      34.402  32.946  30.145  1.00  0.00     0.001 A 
ATOM     69  C   UNL A   1      34.219  33.682  28.976  1.00  0.00     0.000 A 
ENDBRANCH  45  64
BRANCH  57  70
ATOM     70  C   UNL A   1      41.882  34.757  33.655  1.00  0.00    -0.014 A 
ATOM     71  C   UNL A   1      42.670  35.830  33.208  1.00  0.00     0.009 A 
ATOM     72  C   UNL A   1      41.223  34.868  34.889  1.00  0.00     0.009 A 
ATOM     73  C   UNL A   1      42.821  36.972  33.997  1.00  0.00     0.001 A 
ATOM     74  C   UNL A   1      41.349  36.024  35.661  1.00  0.00     0.001 A 
ATOM     75  C   UNL A   1      42.156  37.071  35.219  1.00  0.00     0.000 A 
ENDBRANCH  57  70
ENDBRANCH  31  32
ENDBRANCH  23  26
ENDBRANCH  21  22
ENDBRANCH   1  21
TORSDOF 11
ENDMDL
