MODEL 1
REMARK VINA RESULT:     -10.6      0.000      0.000
REMARK SMILES C[N@H+]1CCO[C@H](C[C@@H](NC(=O)OC(C)(C)C)C(=O)NCCCNC(=O)c2ccc(-c3c4nc(c(-c5ccccc5)c5ccc([nH]5)c(-c5ccccc5)c5nc(c(-c6ccccc6)c6ccc3[nH]6)C=C5)C=C4)cc2)C1
REMARK SMILES IDX 20 1 19 2 17 3 18 4 8 6 7 7 6 8 1 9 2 10 3 11 74 12 4 14
REMARK SMILES IDX 5 15 9 16 10 17 11 19 12 20 13 21 14 22 15 23 16 24 21 25
REMARK SMILES IDX 22 26 23 27 24 28 25 30 26 31 27 32 73 33 28 34 72 35 29 36
REMARK SMILES IDX 30 37 31 38 66 39 32 40 71 41 65 42 67 43 33 44 70 45 64 46
REMARK SMILES IDX 63 47 34 49 56 50 41 51 55 52 42 53 45 54 54 55 68 56 43 57
REMARK SMILES IDX 44 58 53 60 69 61 46 62 35 63 36 64 40 65 37 66 39 67 38 68
REMARK SMILES IDX 57 69 58 70 62 71 59 72 61 73 60 74 47 75 48 76 52 77 49 78
REMARK SMILES IDX 51 79 50 80
REMARK H PARENT 19 5 2 13 9 18 23 29 67 48 45 59
REMARK Flexibility Score: inf
ROOT
ATOM      1  C   UNL A   1      32.448  28.088  25.839  1.00  0.00     0.117 C 
ENDROOT
BRANCH   1   2
ATOM      2  N   UNL A   1      32.508  27.137  24.744  1.00  0.00    -0.354 N 
ATOM      3  C   UNL A   1      31.485  26.433  24.171  1.00  0.00     0.242 C 
ATOM      4  O   UNL A   1      31.764  25.672  23.241  1.00  0.00    -0.273 OA
ATOM      5  H   UNL A   1      33.402  26.980  24.363  1.00  0.00     0.163 HD
BRANCH   3   6
ATOM      6  C   UNL A   1      30.080  26.435  24.813  1.00  0.00     0.177 C 
BRANCH   6   7
ATOM      7  C   UNL A   1      29.143  26.846  23.648  1.00  0.00     0.073 C 
BRANCH   7   8
ATOM      8  C   UNL A   1      29.070  28.325  23.279  1.00  0.00     0.176 C 
ATOM      9  C   UNL A   1      27.549  31.073  23.581  1.00  0.00     0.332 C 
ATOM     10  N   UNL A   1      27.395  30.079  22.523  1.00  0.00    -0.333 N 
ATOM     11  C   UNL A   1      28.319  30.317  21.396  1.00  0.00     0.290 C 
ATOM     12  C   UNL A   1      27.590  28.702  23.006  1.00  0.00     0.294 C 
ATOM     13  H   UNL A   1      26.432  30.183  22.200  1.00  0.00     0.348 HD
ATOM     14  C   UNL A   1      29.778  29.910  21.680  1.00  0.00     0.222 C 
ATOM     15  O   UNL A   1      29.882  28.549  22.125  1.00  0.00    -0.366 OA
ENDBRANCH   7   8
ENDBRANCH   6   7
BRANCH   6  16
ATOM     16  N   UNL A   1      29.681  25.182  25.471  1.00  0.00    -0.310 N 
ATOM     17  C   UNL A   1      30.385  24.471  26.407  1.00  0.00     0.408 C 
ATOM     18  H   UNL A   1      28.807  24.811  25.208  1.00  0.00     0.167 HD
ATOM     19  O   UNL A   1      29.823  23.643  27.114  1.00  0.00    -0.225 OA
BRANCH  17  20
ATOM     20  O   UNL A   1      31.714  24.695  26.366  1.00  0.00    -0.444 OA
BRANCH  20  21
ATOM     21  C   UNL A   1      32.689  23.627  26.215  1.00  0.00     0.106 C 
ATOM     22  C   UNL A   1      32.782  22.795  27.493  1.00  0.00     0.056 C 
ATOM     23  C   UNL A   1      32.415  22.740  24.992  1.00  0.00     0.056 C 
ATOM     24  C   UNL A   1      34.027  24.351  25.987  1.00  0.00     0.056 C 
ENDBRANCH  20  21
ENDBRANCH  17  20
ENDBRANCH   6  16
ENDBRANCH   3   6
ENDBRANCH   1   2
BRANCH   1  25
ATOM     25  C   UNL A   1      33.683  28.038  26.712  1.00  0.00     0.042 C 
BRANCH  25  26
ATOM     26  C   UNL A   1      34.657  29.170  26.432  1.00  0.00     0.118 C 
BRANCH  26  27
ATOM     27  N   UNL A   1      34.181  30.465  26.905  1.00  0.00    -0.352 N 
ATOM     28  C   UNL A   1      34.632  31.220  27.960  1.00  0.00     0.251 C 
ATOM     29  H   UNL A   1      33.431  30.851  26.398  1.00  0.00     0.163 HD
ATOM     30  O   UNL A   1      34.015  32.214  28.327  1.00  0.00    -0.269 OA
BRANCH  28  31
ATOM     31  C   UNL A   1      35.854  30.795  28.668  1.00  0.00     0.039 A 
ATOM     32  C   UNL A   1      35.767  29.800  29.643  1.00  0.00     0.014 A 
ATOM     33  C   UNL A   1      37.092  31.334  28.310  1.00  0.00     0.014 A 
ATOM     34  C   UNL A   1      36.940  29.282  30.194  1.00  0.00     0.010 A 
ATOM     35  C   UNL A   1      38.256  30.745  28.780  1.00  0.00     0.010 A 
ATOM     36  C   UNL A   1      38.192  29.714  29.728  1.00  0.00    -0.014 A 
BRANCH  36  37
ATOM     37  C   UNL A   1      39.454  29.102  30.208  1.00  0.00     0.031 A 
ATOM     38  C   UNL A   1      40.145  29.664  31.419  1.00  0.00     0.074 A 
ATOM     39  C   UNL A   1      40.022  28.103  29.505  1.00  0.00     0.049 A 
ATOM     40  N   UNL A   1      41.294  29.325  31.945  1.00  0.00    -0.248 NA
ATOM     41  C   UNL A   1      39.473  30.776  32.112  1.00  0.00     0.031 C 
ATOM     42  C   UNL A   1      39.478  27.509  28.280  1.00  0.00     0.029 A 
ATOM     43  N   UNL A   1      41.191  27.416  29.714  1.00  0.00    -0.354 N 
ATOM     44  C   UNL A   1      41.492  30.197  33.008  1.00  0.00     0.074 A 
ATOM     45  C   UNL A   1      40.374  31.114  33.020  1.00  0.00     0.031 C 
ATOM     46  C   UNL A   1      40.298  26.530  27.864  1.00  0.00     0.029 A 
ATOM     47  C   UNL A   1      41.443  26.456  28.765  1.00  0.00     0.049 A 
ATOM     48  H   UNL A   1      41.793  27.596  30.472  1.00  0.00     0.167 HD
ATOM     49  C   UNL A   1      42.503  30.220  33.908  1.00  0.00     0.031 A 
ATOM     50  C   UNL A   1      42.485  25.614  28.630  1.00  0.00     0.031 A 
ATOM     51  C   UNL A   1      43.602  29.294  33.904  1.00  0.00     0.049 A 
ATOM     52  C   UNL A   1      43.595  25.657  29.642  1.00  0.00     0.074 A 
ATOM     53  C   UNL A   1      44.637  29.182  34.816  1.00  0.00     0.029 A 
ATOM     54  N   UNL A   1      43.811  28.322  32.938  1.00  0.00    -0.354 N 
ATOM     55  N   UNL A   1      43.724  26.432  30.692  1.00  0.00    -0.248 NA
ATOM     56  C   UNL A   1      44.697  24.703  29.457  1.00  0.00     0.031 C 
ATOM     57  C   UNL A   1      45.503  28.178  34.370  1.00  0.00     0.029 A 
ATOM     58  C   UNL A   1      44.976  27.626  33.213  1.00  0.00     0.049 A 
ATOM     59  H   UNL A   1      43.219  28.152  32.170  1.00  0.00     0.167 HD
ATOM     60  C   UNL A   1      44.909  26.045  31.304  1.00  0.00     0.074 A 
ATOM     61  C   UNL A   1      45.450  24.954  30.519  1.00  0.00     0.031 C 
ATOM     62  C   UNL A   1      45.499  26.548  32.416  1.00  0.00     0.031 A 
BRANCH  49  63
ATOM     63  C   UNL A   1      42.463  31.286  34.966  1.00  0.00    -0.014 A 
ATOM     64  C   UNL A   1      41.800  31.079  36.187  1.00  0.00     0.009 A 
ATOM     65  C   UNL A   1      43.120  32.507  34.750  1.00  0.00     0.009 A 
ATOM     66  C   UNL A   1      41.762  32.087  37.152  1.00  0.00     0.001 A 
ATOM     67  C   UNL A   1      43.106  33.502  35.729  1.00  0.00     0.001 A 
ATOM     68  C   UNL A   1      42.419  33.296  36.924  1.00  0.00     0.000 A 
ENDBRANCH  49  63
BRANCH  50  69
ATOM     69  C   UNL A   1      42.522  24.650  27.499  1.00  0.00    -0.014 A 
ATOM     70  C   UNL A   1      43.146  24.996  26.289  1.00  0.00     0.009 A 
ATOM     71  C   UNL A   1      41.937  23.381  27.621  1.00  0.00     0.009 A 
ATOM     72  C   UNL A   1      43.160  24.099  25.219  1.00  0.00     0.001 A 
ATOM     73  C   UNL A   1      41.979  22.475  26.558  1.00  0.00     0.001 A 
ATOM     74  C   UNL A   1      42.582  22.839  25.355  1.00  0.00     0.000 A 
ENDBRANCH  50  69
BRANCH  62  75
ATOM     75  C   UNL A   1      46.783  25.908  32.862  1.00  0.00    -0.014 A 
ATOM     76  C   UNL A   1      48.025  26.364  32.393  1.00  0.00     0.009 A 
ATOM     77  C   UNL A   1      46.749  24.862  33.798  1.00  0.00     0.009 A 
ATOM     78  C   UNL A   1      49.206  25.765  32.833  1.00  0.00     0.001 A 
ATOM     79  C   UNL A   1      47.933  24.287  34.257  1.00  0.00     0.001 A 
ATOM     80  C   UNL A   1      49.161  24.732  33.768  1.00  0.00     0.000 A 
ENDBRANCH  62  75
ENDBRANCH  36  37
ENDBRANCH  28  31
ENDBRANCH  26  27
ENDBRANCH  25  26
ENDBRANCH   1  25
TORSDOF 15
ENDMDL
MODEL 2
REMARK VINA RESULT:     -10.5      2.101      2.755
REMARK SMILES C[N@H+]1CCO[C@H](C[C@@H](NC(=O)OC(C)(C)C)C(=O)NCCCNC(=O)c2ccc(-c3c4nc(c(-c5ccccc5)c5ccc([nH]5)c(-c5ccccc5)c5nc(c(-c6ccccc6)c6ccc3[nH]6)C=C5)C=C4)cc2)C1
REMARK SMILES IDX 20 1 19 2 17 3 18 4 8 6 7 7 6 8 1 9 2 10 3 11 74 12 4 14
REMARK SMILES IDX 5 15 9 16 10 17 11 19 12 20 13 21 14 22 15 23 16 24 21 25
REMARK SMILES IDX 22 26 23 27 24 28 25 30 26 31 27 32 73 33 28 34 72 35 29 36
REMARK SMILES IDX 30 37 31 38 66 39 32 40 71 41 65 42 67 43 33 44 70 45 64 46
REMARK SMILES IDX 63 47 34 49 56 50 41 51 55 52 42 53 45 54 54 55 68 56 43 57
REMARK SMILES IDX 44 58 53 60 69 61 46 62 35 63 36 64 40 65 37 66 39 67 38 68
REMARK SMILES IDX 57 69 58 70 62 71 59 72 61 73 60 74 47 75 48 76 52 77 49 78
REMARK SMILES IDX 51 79 50 80
REMARK H PARENT 19 5 2 13 9 18 23 29 67 48 45 59
REMARK Flexibility Score: inf
ROOT
ATOM      1  C   UNL A   1      31.606  29.615  25.833  1.00  0.00     0.117 C 
ENDROOT
BRANCH   1   2
ATOM      2  N   UNL A   1      32.442  29.672  24.647  1.00  0.00    -0.354 N 
ATOM      3  C   UNL A   1      32.432  28.847  23.557  1.00  0.00     0.242 C 
ATOM      4  O   UNL A   1      33.237  29.082  22.653  1.00  0.00    -0.273 OA
ATOM      5  H   UNL A   1      33.103  30.402  24.625  1.00  0.00     0.163 HD
BRANCH   3   6
ATOM      6  C   UNL A   1      31.592  27.550  23.568  1.00  0.00     0.177 C 
BRANCH   6   7
ATOM      7  C   UNL A   1      30.505  27.806  22.491  1.00  0.00     0.073 C 
BRANCH   7   8
ATOM      8  C   UNL A   1      29.788  29.153  22.509  1.00  0.00     0.176 C 
ATOM      9  C   UNL A   1      27.549  30.960  23.802  1.00  0.00     0.332 C 
ATOM     10  N   UNL A   1      27.443  30.127  22.609  1.00  0.00    -0.333 N 
ATOM     11  C   UNL A   1      27.814  30.861  21.382  1.00  0.00     0.290 C 
ATOM     12  C   UNL A   1      28.267  28.910  22.693  1.00  0.00     0.294 C 
ATOM     13  H   UNL A   1      26.459  29.858  22.559  1.00  0.00     0.348 HD
ATOM     14  C   UNL A   1      29.332  31.067  21.206  1.00  0.00     0.222 C 
ATOM     15  O   UNL A   1      30.057  29.831  21.280  1.00  0.00    -0.366 OA
ENDBRANCH   7   8
ENDBRANCH   6   7
BRANCH   6  16
ATOM     16  N   UNL A   1      32.344  26.305  23.355  1.00  0.00    -0.310 N 
ATOM     17  C   UNL A   1      31.883  25.021  23.481  1.00  0.00     0.408 C 
ATOM     18  H   UNL A   1      33.288  26.406  23.091  1.00  0.00     0.167 HD
ATOM     19  O   UNL A   1      32.487  24.087  22.966  1.00  0.00    -0.225 OA
BRANCH  17  20
ATOM     20  O   UNL A   1      30.816  24.910  24.297  1.00  0.00    -0.444 OA
BRANCH  20  21
ATOM     21  C   UNL A   1      30.925  24.486  25.684  1.00  0.00     0.106 C 
ATOM     22  C   UNL A   1      30.711  22.978  25.807  1.00  0.00     0.056 C 
ATOM     23  C   UNL A   1      32.247  24.916  26.334  1.00  0.00     0.056 C 
ATOM     24  C   UNL A   1      29.781  25.218  26.406  1.00  0.00     0.056 C 
ENDBRANCH  20  21
ENDBRANCH  17  20
ENDBRANCH   6  16
ENDBRANCH   3   6
ENDBRANCH   1   2
BRANCH   1  25
ATOM     25  C   UNL A   1      32.167  28.684  26.887  1.00  0.00     0.042 C 
BRANCH  25  26
ATOM     26  C   UNL A   1      33.579  29.048  27.312  1.00  0.00     0.118 C 
BRANCH  26  27
ATOM     27  N   UNL A   1      33.687  30.405  27.835  1.00  0.00    -0.352 N 
ATOM     28  C   UNL A   1      34.736  30.998  28.495  1.00  0.00     0.251 C 
ATOM     29  H   UNL A   1      32.898  30.977  27.695  1.00  0.00     0.163 HD
ATOM     30  O   UNL A   1      34.606  32.101  29.014  1.00  0.00    -0.269 OA
BRANCH  28  31
ATOM     31  C   UNL A   1      36.014  30.269  28.600  1.00  0.00     0.039 A 
ATOM     32  C   UNL A   1      36.905  30.295  27.525  1.00  0.00     0.014 A 
ATOM     33  C   UNL A   1      36.355  29.624  29.791  1.00  0.00     0.014 A 
ATOM     34  C   UNL A   1      38.179  29.748  27.683  1.00  0.00     0.010 A 
ATOM     35  C   UNL A   1      37.654  29.178  29.979  1.00  0.00     0.010 A 
ATOM     36  C   UNL A   1      38.579  29.233  28.926  1.00  0.00    -0.014 A 
BRANCH  36  37
ATOM     37  C   UNL A   1      39.961  28.752  29.160  1.00  0.00     0.031 A 
ATOM     38  C   UNL A   1      40.987  29.679  29.750  1.00  0.00     0.074 A 
ATOM     39  C   UNL A   1      40.314  27.514  28.760  1.00  0.00     0.049 A 
ATOM     40  N   UNL A   1      42.264  29.475  29.952  1.00  0.00    -0.248 NA
ATOM     41  C   UNL A   1      40.526  31.025  30.130  1.00  0.00     0.031 C 
ATOM     42  C   UNL A   1      39.424  26.540  28.123  1.00  0.00     0.029 A 
ATOM     43  N   UNL A   1      41.522  26.867  28.821  1.00  0.00    -0.354 N 
ATOM     44  C   UNL A   1      42.759  30.671  30.457  1.00  0.00     0.074 A 
ATOM     45  C   UNL A   1      41.661  31.611  30.478  1.00  0.00     0.031 C 
ATOM     46  C   UNL A   1      40.109  25.412  27.878  1.00  0.00     0.029 A 
ATOM     47  C   UNL A   1      41.494  25.597  28.301  1.00  0.00     0.049 A 
ATOM     48  H   UNL A   1      42.333  27.275  29.202  1.00  0.00     0.167 HD
ATOM     49  C   UNL A   1      44.011  30.956  30.885  1.00  0.00     0.031 A 
ATOM     50  C   UNL A   1      42.474  24.683  28.170  1.00  0.00     0.031 A 
ATOM     51  C   UNL A   1      45.096  30.012  30.881  1.00  0.00     0.049 A 
ATOM     52  C   UNL A   1      43.857  25.022  28.654  1.00  0.00     0.074 A 
ATOM     53  C   UNL A   1      46.381  30.176  31.363  1.00  0.00     0.029 A 
ATOM     54  N   UNL A   1      45.020  28.728  30.364  1.00  0.00    -0.354 N 
ATOM     55  N   UNL A   1      44.288  26.130  29.208  1.00  0.00    -0.248 NA
ATOM     56  C   UNL A   1      44.883  23.982  28.504  1.00  0.00     0.031 C 
ATOM     57  C   UNL A   1      47.101  29.009  31.088  1.00  0.00     0.029 A 
ATOM     58  C   UNL A   1      46.247  28.098  30.487  1.00  0.00     0.049 A 
ATOM     59  H   UNL A   1      44.215  28.324  29.967  1.00  0.00     0.167 HD
ATOM     60  C   UNL A   1      45.630  25.912  29.492  1.00  0.00     0.074 A 
ATOM     61  C   UNL A   1      45.935  24.561  29.067  1.00  0.00     0.031 C 
ATOM     62  C   UNL A   1      46.531  26.756  30.052  1.00  0.00     0.031 A 
BRANCH  49  63
ATOM     63  C   UNL A   1      44.270  32.348  31.387  1.00  0.00    -0.014 A 
ATOM     64  C   UNL A   1      44.669  33.377  30.518  1.00  0.00     0.009 A 
ATOM     65  C   UNL A   1      44.090  32.643  32.747  1.00  0.00     0.009 A 
ATOM     66  C   UNL A   1      44.920  34.660  31.007  1.00  0.00     0.001 A 
ATOM     67  C   UNL A   1      44.312  33.935  33.228  1.00  0.00     0.001 A 
ATOM     68  C   UNL A   1      44.737  34.939  32.360  1.00  0.00     0.000 A 
ENDBRANCH  49  63
BRANCH  50  69
ATOM     69  C   UNL A   1      42.182  23.358  27.566  1.00  0.00    -0.014 A 
ATOM     70  C   UNL A   1      42.503  23.102  26.223  1.00  0.00     0.009 A 
ATOM     71  C   UNL A   1      41.583  22.342  28.325  1.00  0.00     0.009 A 
ATOM     72  C   UNL A   1      42.207  21.863  25.649  1.00  0.00     0.001 A 
ATOM     73  C   UNL A   1      41.315  21.094  27.756  1.00  0.00     0.001 A 
ATOM     74  C   UNL A   1      41.619  20.859  26.416  1.00  0.00     0.000 A 
ENDBRANCH  50  69
BRANCH  62  75
ATOM     75  C   UNL A   1      47.924  26.233  30.260  1.00  0.00    -0.014 A 
ATOM     76  C   UNL A   1      48.343  25.757  31.513  1.00  0.00     0.009 A 
ATOM     77  C   UNL A   1      48.813  26.175  29.176  1.00  0.00     0.009 A 
ATOM     78  C   UNL A   1      49.637  25.261  31.680  1.00  0.00     0.001 A 
ATOM     79  C   UNL A   1      50.095  25.651  29.340  1.00  0.00     0.001 A 
ATOM     80  C   UNL A   1      50.509  25.202  30.594  1.00  0.00     0.000 A 
ENDBRANCH  62  75
ENDBRANCH  36  37
ENDBRANCH  28  31
ENDBRANCH  26  27
ENDBRANCH  25  26
ENDBRANCH   1  25
TORSDOF 15
ENDMDL
MODEL 3
REMARK VINA RESULT:     -10.5      2.429      3.334
REMARK SMILES C[N@H+]1CCO[C@H](C[C@@H](NC(=O)OC(C)(C)C)C(=O)NCCCNC(=O)c2ccc(-c3c4nc(c(-c5ccccc5)c5ccc([nH]5)c(-c5ccccc5)c5nc(c(-c6ccccc6)c6ccc3[nH]6)C=C5)C=C4)cc2)C1
REMARK SMILES IDX 20 1 19 2 17 3 18 4 8 6 7 7 6 8 1 9 2 10 3 11 74 12 4 14
REMARK SMILES IDX 5 15 9 16 10 17 11 19 12 20 13 21 14 22 15 23 16 24 21 25
REMARK SMILES IDX 22 26 23 27 24 28 25 30 26 31 27 32 73 33 28 34 72 35 29 36
REMARK SMILES IDX 30 37 31 38 66 39 32 40 71 41 65 42 67 43 33 44 70 45 64 46
REMARK SMILES IDX 63 47 34 49 56 50 41 51 55 52 42 53 45 54 54 55 68 56 43 57
REMARK SMILES IDX 44 58 53 60 69 61 46 62 35 63 36 64 40 65 37 66 39 67 38 68
REMARK SMILES IDX 57 69 58 70 62 71 59 72 61 73 60 74 47 75 48 76 52 77 49 78
REMARK SMILES IDX 51 79 50 80
REMARK H PARENT 19 5 2 13 9 18 23 29 67 48 45 59
REMARK Flexibility Score: inf
ROOT
ATOM      1  C   UNL A   1      32.121  29.613  25.986  1.00  0.00     0.117 C 
ENDROOT
BRANCH   1   2
ATOM      2  N   UNL A   1      32.928  29.711  24.783  1.00  0.00    -0.354 N 
ATOM      3  C   UNL A   1      32.693  29.160  23.553  1.00  0.00     0.242 C 
ATOM      4  O   UNL A   1      33.520  29.374  22.663  1.00  0.00    -0.273 OA
ATOM      5  H   UNL A   1      33.751  30.244  24.863  1.00  0.00     0.163 HD
BRANCH   3   6
ATOM      6  C   UNL A   1      31.553  28.136  23.362  1.00  0.00     0.177 C 
BRANCH   6   7
ATOM      7  C   UNL A   1      30.287  28.905  23.823  1.00  0.00     0.073 C 
BRANCH   7   8
ATOM      8  C   UNL A   1      29.835  30.099  22.987  1.00  0.00     0.176 C 
ATOM      9  C   UNL A   1      29.047  33.153  22.914  1.00  0.00     0.332 C 
ATOM     10  N   UNL A   1      28.154  32.004  23.034  1.00  0.00    -0.333 N 
ATOM     11  C   UNL A   1      27.713  31.502  21.717  1.00  0.00     0.290 C 
ATOM     12  C   UNL A   1      28.762  30.890  23.780  1.00  0.00     0.294 C 
ATOM     13  H   UNL A   1      27.346  32.349  23.554  1.00  0.00     0.348 HD
ATOM     14  C   UNL A   1      28.786  30.696  20.958  1.00  0.00     0.222 C 
ATOM     15  O   UNL A   1      29.310  29.618  21.747  1.00  0.00    -0.366 OA
ENDBRANCH   7   8
ENDBRANCH   6   7
BRANCH   6  16
ATOM     16  N   UNL A   1      31.431  27.566  22.012  1.00  0.00    -0.310 N 
ATOM     17  C   UNL A   1      31.926  26.368  21.565  1.00  0.00     0.408 C 
ATOM     18  H   UNL A   1      30.938  28.107  21.353  1.00  0.00     0.167 HD
ATOM     19  O   UNL A   1      31.489  25.855  20.542  1.00  0.00    -0.225 OA
BRANCH  17  20
ATOM     20  O   UNL A   1      32.975  25.919  22.282  1.00  0.00    -0.444 OA
BRANCH  20  21
ATOM     21  C   UNL A   1      32.909  24.729  23.115  1.00  0.00     0.106 C 
ATOM     22  C   UNL A   1      31.477  24.478  23.586  1.00  0.00     0.056 C 
ATOM     23  C   UNL A   1      33.495  23.488  22.427  1.00  0.00     0.056 C 
ATOM     24  C   UNL A   1      33.790  25.057  24.333  1.00  0.00     0.056 C 
ENDBRANCH  20  21
ENDBRANCH  17  20
ENDBRANCH   6  16
ENDBRANCH   3   6
ENDBRANCH   1   2
BRANCH   1  25
ATOM     25  C   UNL A   1      31.698  30.970  26.506  1.00  0.00     0.042 C 
BRANCH  25  26
ATOM     26  C   UNL A   1      32.819  31.715  27.208  1.00  0.00     0.118 C 
BRANCH  26  27
ATOM     27  N   UNL A   1      32.484  33.103  27.508  1.00  0.00    -0.352 N 
ATOM     28  C   UNL A   1      33.140  33.995  28.321  1.00  0.00     0.251 C 
ATOM     29  H   UNL A   1      31.675  33.447  27.067  1.00  0.00     0.163 HD
ATOM     30  O   UNL A   1      32.636  35.079  28.595  1.00  0.00    -0.269 OA
BRANCH  28  31
ATOM     31  C   UNL A   1      34.448  33.614  28.887  1.00  0.00     0.039 A 
ATOM     32  C   UNL A   1      34.493  32.941  30.109  1.00  0.00     0.014 A 
ATOM     33  C   UNL A   1      35.619  33.861  28.167  1.00  0.00     0.014 A 
ATOM     34  C   UNL A   1      35.711  32.435  30.564  1.00  0.00     0.010 A 
ATOM     35  C   UNL A   1      36.806  33.267  28.568  1.00  0.00     0.010 A 
ATOM     36  C   UNL A   1      36.865  32.550  29.772  1.00  0.00    -0.014 A 
BRANCH  36  37
ATOM     37  C   UNL A   1      38.147  31.923  30.171  1.00  0.00     0.031 A 
ATOM     38  C   UNL A   1      39.087  32.659  31.086  1.00  0.00     0.074 A 
ATOM     39  C   UNL A   1      38.504  30.737  29.642  1.00  0.00     0.049 A 
ATOM     40  N   UNL A   1      40.287  32.320  31.482  1.00  0.00    -0.248 NA
ATOM     41  C   UNL A   1      38.634  33.965  31.594  1.00  0.00     0.031 C 
ATOM     42  C   UNL A   1      37.705  29.950  28.699  1.00  0.00     0.029 A 
ATOM     43  N   UNL A   1      39.641  29.988  29.815  1.00  0.00    -0.354 N 
ATOM     44  C   UNL A   1      40.737  33.378  32.261  1.00  0.00     0.074 A 
ATOM     45  C   UNL A   1      39.708  34.392  32.237  1.00  0.00     0.031 C 
ATOM     46  C   UNL A   1      38.363  28.819  28.399  1.00  0.00     0.029 A 
ATOM     47  C   UNL A   1      39.647  28.820  29.094  1.00  0.00     0.049 A 
ATOM     48  H   UNL A   1      40.383  30.263  30.401  1.00  0.00     0.167 HD
ATOM     49  C   UNL A   1      41.895  33.487  32.953  1.00  0.00     0.031 A 
ATOM     50  C   UNL A   1      40.584  27.858  28.994  1.00  0.00     0.031 A 
ATOM     51  C   UNL A   1      42.908  32.467  32.990  1.00  0.00     0.049 A 
ATOM     52  C   UNL A   1      41.862  28.001  29.773  1.00  0.00     0.074 A 
ATOM     53  C   UNL A   1      44.082  32.446  33.721  1.00  0.00     0.029 A 
ATOM     54  N   UNL A   1      42.866  31.289  32.261  1.00  0.00    -0.354 N 
ATOM     55  N   UNL A   1      42.236  28.970  30.574  1.00  0.00    -0.248 NA
ATOM     56  C   UNL A   1      42.841  26.914  29.642  1.00  0.00     0.031 C 
ATOM     57  C   UNL A   1      44.779  31.279  33.392  1.00  0.00     0.029 A 
ATOM     58  C   UNL A   1      44.011  30.546  32.501  1.00  0.00     0.049 A 
ATOM     59  H   UNL A   1      42.133  31.020  31.662  1.00  0.00     0.167 HD
ATOM     60  C   UNL A   1      43.483  28.599  31.059  1.00  0.00     0.074 A 
ATOM     61  C   UNL A   1      43.792  27.308  30.477  1.00  0.00     0.031 C 
ATOM     62  C   UNL A   1      44.301  29.267  31.908  1.00  0.00     0.031 A 
BRANCH  49  63
ATOM     63  C   UNL A   1      42.126  34.758  33.720  1.00  0.00    -0.014 A 
ATOM     64  C   UNL A   1      42.775  35.858  33.133  1.00  0.00     0.009 A 
ATOM     65  C   UNL A   1      41.667  34.868  35.041  1.00  0.00     0.009 A 
ATOM     66  C   UNL A   1      42.993  37.025  33.868  1.00  0.00     0.001 A 
ATOM     67  C   UNL A   1      41.859  36.048  35.763  1.00  0.00     0.001 A 
ATOM     68  C   UNL A   1      42.531  37.121  35.180  1.00  0.00     0.000 A 
ENDBRANCH  49  63
BRANCH  50  69
ATOM     69  C   UNL A   1      40.345  26.671  28.134  1.00  0.00    -0.014 A 
ATOM     70  C   UNL A   1      40.870  26.617  26.833  1.00  0.00     0.009 A 
ATOM     71  C   UNL A   1      39.593  25.585  28.607  1.00  0.00     0.009 A 
ATOM     72  C   UNL A   1      40.625  25.511  26.016  1.00  0.00     0.001 A 
ATOM     73  C   UNL A   1      39.375  24.466  27.798  1.00  0.00     0.001 A 
ATOM     74  C   UNL A   1      39.883  24.435  26.500  1.00  0.00     0.000 A 
ENDBRANCH  50  69
BRANCH  62  75
ATOM     75  C   UNL A   1      45.597  28.603  32.278  1.00  0.00    -0.014 A 
ATOM     76  C   UNL A   1      46.772  28.843  31.548  1.00  0.00     0.009 A 
ATOM     77  C   UNL A   1      45.651  27.761  33.399  1.00  0.00     0.009 A 
ATOM     78  C   UNL A   1      47.969  28.228  31.919  1.00  0.00     0.001 A 
ATOM     79  C   UNL A   1      46.855  27.172  33.784  1.00  0.00     0.001 A 
ATOM     80  C   UNL A   1      48.011  27.399  33.039  1.00  0.00     0.000 A 
ENDBRANCH  62  75
ENDBRANCH  36  37
ENDBRANCH  28  31
ENDBRANCH  26  27
ENDBRANCH  25  26
ENDBRANCH   1  25
TORSDOF 15
ENDMDL
