MODEL 1
REMARK VINA RESULT:     -12.6      0.000      0.000
REMARK SMILES Cc1cccc(C(=O)NCCCNC(=O)c2ccc(-c3c4nc(c(-c5ccccc5)c5ccc([nH]5)c(-c5ccccc5)c5nc(c(-c6ccccc6)c6ccc3[nH]6)C=C5)C=C4)cc2)c1OC[C@@H]1C[C@H]2CC[C@@H]1C2
REMARK SMILES IDX 10 1 9 2 7 3 8 4 6 6 1 7 2 8 3 9 64 10 4 11 5 12 65 13 66 14
REMARK SMILES IDX 67 15 68 16 72 17 69 18 71 19 73 20 70 21 11 22 12 23 13 24
REMARK SMILES IDX 14 25 15 27 16 28 17 29 63 30 18 31 62 32 19 33 20 34 21 35
REMARK SMILES IDX 56 36 22 37 61 38 55 39 57 40 23 41 60 42 54 43 53 44 24 46
REMARK SMILES IDX 46 47 31 48 45 49 32 50 35 51 44 52 58 53 33 54 34 55 43 57
REMARK SMILES IDX 59 58 36 59 25 60 26 61 30 62 27 63 29 64 28 65 47 66 48 67
REMARK SMILES IDX 52 68 49 69 51 70 50 71 37 72 38 73 42 74 39 75 41 76 40 77
REMARK H PARENT 9 5 13 26 57 45 35 56
REMARK Flexibility Score: inf
ROOT
ATOM      1  C   UNL A   1      37.855  21.844  25.618  1.00  0.00     0.118 C 
ENDROOT
BRANCH   1   2
ATOM      2  N   UNL A   1      37.406  22.379  24.356  1.00  0.00    -0.352 N 
ATOM      3  C   UNL A   1      36.227  22.935  23.946  1.00  0.00     0.255 C 
ATOM      4  O   UNL A   1      36.151  23.120  22.724  1.00  0.00    -0.269 OA
ATOM      5  H   UNL A   1      38.087  22.334  23.646  1.00  0.00     0.163 HD
BRANCH   3   6
ATOM      6  C   UNL A   1      35.070  23.386  24.793  1.00  0.00     0.082 A 
ATOM      7  C   UNL A   1      31.593  22.546  26.183  1.00  0.00     0.048 C 
ATOM      8  C   UNL A   1      32.879  23.257  25.856  1.00  0.00    -0.008 A 
ATOM      9  C   UNL A   1      32.771  24.660  25.788  1.00  0.00     0.007 A 
ATOM     10  C   UNL A   1      34.086  22.622  25.471  1.00  0.00     0.134 A 
ATOM     11  C   UNL A   1      33.785  25.427  25.244  1.00  0.00     0.001 A 
ATOM     12  C   UNL A   1      34.900  24.789  24.719  1.00  0.00     0.018 A 
BRANCH  10  13
ATOM     13  O   UNL A   1      34.271  21.280  25.632  1.00  0.00    -0.492 OA
BRANCH  13  14
ATOM     14  C   UNL A   1      33.772  20.346  24.648  1.00  0.00     0.233 C 
BRANCH  14  15
ATOM     15  C   UNL A   1      33.744  18.854  25.038  1.00  0.00     0.030 C 
ATOM     16  C   UNL A   1      34.855  18.022  24.330  1.00  0.00     0.011 C 
ATOM     17  C   UNL A   1      32.466  18.168  24.484  1.00  0.00    -0.004 C 
ATOM     18  C   UNL A   1      34.069  16.972  23.521  1.00  0.00    -0.010 C 
ATOM     19  C   UNL A   1      32.311  16.792  25.147  1.00  0.00     0.004 C 
ATOM     20  C   UNL A   1      32.867  17.785  23.057  1.00  0.00     0.007 C 
ATOM     21  C   UNL A   1      33.421  15.967  24.486  1.00  0.00     0.004 C 
ENDBRANCH  14  15
ENDBRANCH  13  14
ENDBRANCH  10  13
ENDBRANCH   3   6
ENDBRANCH   1   2
BRANCH   1  22
ATOM     22  C   UNL A   1      39.001  22.698  26.148  1.00  0.00     0.042 C 
BRANCH  22  23
ATOM     23  C   UNL A   1      40.011  21.945  26.983  1.00  0.00     0.118 C 
BRANCH  23  24
ATOM     24  N   UNL A   1      40.749  20.951  26.196  1.00  0.00    -0.352 N 
ATOM     25  C   UNL A   1      42.119  20.793  26.062  1.00  0.00     0.251 C 
ATOM     26  H   UNL A   1      40.196  20.309  25.695  1.00  0.00     0.163 HD
ATOM     27  O   UNL A   1      42.597  19.882  25.412  1.00  0.00    -0.269 OA
BRANCH  25  28
ATOM     28  C   UNL A   1      42.980  21.693  26.860  1.00  0.00     0.039 A 
ATOM     29  C   UNL A   1      42.818  21.633  28.244  1.00  0.00     0.014 A 
ATOM     30  C   UNL A   1      43.552  22.799  26.239  1.00  0.00     0.014 A 
ATOM     31  C   UNL A   1      42.958  22.802  28.977  1.00  0.00     0.010 A 
ATOM     32  C   UNL A   1      43.575  23.984  26.947  1.00  0.00     0.010 A 
ATOM     33  C   UNL A   1      43.199  23.994  28.297  1.00  0.00    -0.014 A 
BRANCH  33  34
ATOM     34  C   UNL A   1      42.949  25.299  28.902  1.00  0.00     0.031 A 
ATOM     35  C   UNL A   1      41.771  26.081  28.486  1.00  0.00     0.074 A 
ATOM     36  C   UNL A   1      43.792  25.793  29.837  1.00  0.00     0.049 A 
ATOM     37  N   UNL A   1      41.682  27.364  28.575  1.00  0.00    -0.248 NA
ATOM     38  C   UNL A   1      40.616  25.462  27.847  1.00  0.00     0.031 C 
ATOM     39  C   UNL A   1      43.583  26.951  30.703  1.00  0.00     0.029 A 
ATOM     40  N   UNL A   1      45.137  25.465  30.018  1.00  0.00    -0.354 N 
ATOM     41  C   UNL A   1      40.385  27.707  28.275  1.00  0.00     0.074 A 
ATOM     42  C   UNL A   1      39.788  26.503  27.747  1.00  0.00     0.031 C 
ATOM     43  C   UNL A   1      44.776  27.400  31.122  1.00  0.00     0.029 A 
ATOM     44  C   UNL A   1      45.797  26.640  30.421  1.00  0.00     0.049 A 
ATOM     45  H   UNL A   1      45.546  24.578  29.888  1.00  0.00     0.167 HD
ATOM     46  C   UNL A   1      39.916  28.935  28.631  1.00  0.00     0.031 A 
ATOM     47  C   UNL A   1      46.799  27.187  29.673  1.00  0.00     0.031 A 
ATOM     48  C   UNL A   1      40.972  29.782  29.178  1.00  0.00     0.049 A 
ATOM     49  C   UNL A   1      46.509  28.596  29.197  1.00  0.00     0.074 A 
ATOM     50  C   UNL A   1      41.349  30.112  30.470  1.00  0.00     0.029 A 
ATOM     51  N   UNL A   1      42.012  30.184  28.350  1.00  0.00    -0.354 N 
ATOM     52  N   UNL A   1      45.319  29.129  29.177  1.00  0.00    -0.248 NA
ATOM     53  C   UNL A   1      47.530  29.491  28.655  1.00  0.00     0.031 C 
ATOM     54  C   UNL A   1      42.661  30.651  30.420  1.00  0.00     0.029 A 
ATOM     55  C   UNL A   1      43.064  30.678  29.097  1.00  0.00     0.049 A 
ATOM     56  H   UNL A   1      42.002  30.125  27.367  1.00  0.00     0.167 HD
ATOM     57  C   UNL A   1      45.388  30.381  28.623  1.00  0.00     0.074 A 
ATOM     58  C   UNL A   1      46.795  30.570  28.330  1.00  0.00     0.031 C 
ATOM     59  C   UNL A   1      44.274  31.146  28.435  1.00  0.00     0.031 A 
BRANCH  46  60
ATOM     60  C   UNL A   1      38.443  29.244  28.753  1.00  0.00    -0.014 A 
ATOM     61  C   UNL A   1      37.737  29.706  27.628  1.00  0.00     0.009 A 
ATOM     62  C   UNL A   1      37.711  29.179  29.951  1.00  0.00     0.009 A 
ATOM     63  C   UNL A   1      36.419  30.174  27.717  1.00  0.00     0.001 A 
ATOM     64  C   UNL A   1      36.409  29.685  30.061  1.00  0.00     0.001 A 
ATOM     65  C   UNL A   1      35.766  30.195  28.944  1.00  0.00     0.000 A 
ENDBRANCH  46  60
BRANCH  47  66
ATOM     66  C   UNL A   1      47.591  26.189  28.903  1.00  0.00    -0.014 A 
ATOM     67  C   UNL A   1      47.324  26.036  27.526  1.00  0.00     0.009 A 
ATOM     68  C   UNL A   1      48.789  25.672  29.413  1.00  0.00     0.009 A 
ATOM     69  C   UNL A   1      48.281  25.487  26.668  1.00  0.00     0.001 A 
ATOM     70  C   UNL A   1      49.739  25.109  28.550  1.00  0.00     0.001 A 
ATOM     71  C   UNL A   1      49.499  25.051  27.176  1.00  0.00     0.000 A 
ENDBRANCH  47  66
BRANCH  59  72
ATOM     72  C   UNL A   1      44.202  32.434  27.652  1.00  0.00    -0.014 A 
ATOM     73  C   UNL A   1      44.356  32.525  26.263  1.00  0.00     0.009 A 
ATOM     74  C   UNL A   1      43.812  33.614  28.325  1.00  0.00     0.009 A 
ATOM     75  C   UNL A   1      44.169  33.741  25.588  1.00  0.00     0.001 A 
ATOM     76  C   UNL A   1      43.581  34.816  27.652  1.00  0.00     0.001 A 
ATOM     77  C   UNL A   1      43.772  34.881  26.281  1.00  0.00     0.000 A 
ENDBRANCH  59  72
ENDBRANCH  33  34
ENDBRANCH  25  28
ENDBRANCH  23  24
ENDBRANCH  22  23
ENDBRANCH   1  22
TORSDOF 13
ENDMDL
MODEL 2
REMARK VINA RESULT:     -12.4      2.400      3.978
REMARK SMILES Cc1cccc(C(=O)NCCCNC(=O)c2ccc(-c3c4nc(c(-c5ccccc5)c5ccc([nH]5)c(-c5ccccc5)c5nc(c(-c6ccccc6)c6ccc3[nH]6)C=C5)C=C4)cc2)c1OC[C@@H]1C[C@H]2CC[C@@H]1C2
REMARK SMILES IDX 10 1 9 2 7 3 8 4 6 6 1 7 2 8 3 9 64 10 4 11 5 12 65 13 66 14
REMARK SMILES IDX 67 15 68 16 72 17 69 18 71 19 73 20 70 21 11 22 12 23 13 24
REMARK SMILES IDX 14 25 15 27 16 28 17 29 63 30 18 31 62 32 19 33 20 34 21 35
REMARK SMILES IDX 56 36 22 37 61 38 55 39 57 40 23 41 60 42 54 43 53 44 24 46
REMARK SMILES IDX 46 47 31 48 45 49 32 50 35 51 44 52 58 53 33 54 34 55 43 57
REMARK SMILES IDX 59 58 36 59 25 60 26 61 30 62 27 63 29 64 28 65 47 66 48 67
REMARK SMILES IDX 52 68 49 69 51 70 50 71 37 72 38 73 42 74 39 75 41 76 40 77
REMARK H PARENT 9 5 13 26 57 45 35 56
REMARK Flexibility Score: inf
ROOT
ATOM      1  C   UNL A   1      37.710  20.997  25.280  1.00  0.00     0.118 C 
ENDROOT
BRANCH   1   2
ATOM      2  N   UNL A   1      37.406  21.850  24.158  1.00  0.00    -0.352 N 
ATOM      3  C   UNL A   1      36.375  22.707  23.892  1.00  0.00     0.255 C 
ATOM      4  O   UNL A   1      36.362  23.141  22.732  1.00  0.00    -0.269 OA
ATOM      5  H   UNL A   1      38.075  21.806  23.437  1.00  0.00     0.163 HD
BRANCH   3   6
ATOM      6  C   UNL A   1      35.321  23.212  24.837  1.00  0.00     0.082 A 
ATOM      7  C   UNL A   1      31.935  22.546  26.518  1.00  0.00     0.048 C 
ATOM      8  C   UNL A   1      33.225  23.191  26.084  1.00  0.00    -0.008 A 
ATOM      9  C   UNL A   1      33.187  24.598  26.031  1.00  0.00     0.007 A 
ATOM     10  C   UNL A   1      34.359  22.496  25.595  1.00  0.00     0.134 A 
ATOM     11  C   UNL A   1      34.190  25.315  25.405  1.00  0.00     0.001 A 
ATOM     12  C   UNL A   1      35.220  24.623  24.783  1.00  0.00     0.018 A 
BRANCH  10  13
ATOM     13  O   UNL A   1      34.485  21.145  25.734  1.00  0.00    -0.492 OA
BRANCH  13  14
ATOM     14  C   UNL A   1      34.038  20.252  24.688  1.00  0.00     0.233 C 
BRANCH  14  15
ATOM     15  C   UNL A   1      33.904  18.757  25.042  1.00  0.00     0.030 C 
ATOM     16  C   UNL A   1      34.858  17.850  24.208  1.00  0.00     0.011 C 
ATOM     17  C   UNL A   1      32.520  18.213  24.598  1.00  0.00    -0.004 C 
ATOM     18  C   UNL A   1      33.901  16.906  23.454  1.00  0.00    -0.010 C 
ATOM     19  C   UNL A   1      32.296  16.836  25.239  1.00  0.00     0.004 C 
ATOM     20  C   UNL A   1      32.745  17.843  23.130  1.00  0.00     0.007 C 
ATOM     21  C   UNL A   1      33.254  15.934  24.453  1.00  0.00     0.004 C 
ENDBRANCH  14  15
ENDBRANCH  13  14
ENDBRANCH  10  13
ENDBRANCH   3   6
ENDBRANCH   1   2
BRANCH   1  22
ATOM     22  C   UNL A   1      39.085  21.359  25.830  1.00  0.00     0.042 C 
BRANCH  22  23
ATOM     23  C   UNL A   1      39.173  22.737  26.443  1.00  0.00     0.118 C 
BRANCH  23  24
ATOM     24  N   UNL A   1      40.466  22.972  27.094  1.00  0.00    -0.352 N 
ATOM     25  C   UNL A   1      40.967  24.145  27.633  1.00  0.00     0.251 C 
ATOM     26  H   UNL A   1      41.059  22.188  27.157  1.00  0.00     0.163 HD
ATOM     27  O   UNL A   1      42.044  24.181  28.196  1.00  0.00    -0.269 OA
BRANCH  25  28
ATOM     28  C   UNL A   1      40.073  25.323  27.623  1.00  0.00     0.039 A 
ATOM     29  C   UNL A   1      40.501  26.414  26.865  1.00  0.00     0.014 A 
ATOM     30  C   UNL A   1      39.138  25.466  28.643  1.00  0.00     0.014 A 
ATOM     31  C   UNL A   1      40.213  27.691  27.324  1.00  0.00     0.010 A 
ATOM     32  C   UNL A   1      38.953  26.731  29.165  1.00  0.00     0.010 A 
ATOM     33  C   UNL A   1      39.560  27.832  28.547  1.00  0.00    -0.014 A 
BRANCH  33  34
ATOM     34  C   UNL A   1      39.586  29.081  29.302  1.00  0.00     0.031 A 
ATOM     35  C   UNL A   1      38.599  30.134  29.003  1.00  0.00     0.074 A 
ATOM     36  C   UNL A   1      40.511  29.278  30.268  1.00  0.00     0.049 A 
ATOM     37  N   UNL A   1      38.779  31.388  29.238  1.00  0.00    -0.248 NA
ATOM     38  C   UNL A   1      37.341  29.847  28.323  1.00  0.00     0.031 C 
ATOM     39  C   UNL A   1      40.546  30.346  31.264  1.00  0.00     0.029 A 
ATOM     40  N   UNL A   1      41.758  28.658  30.381  1.00  0.00    -0.354 N 
ATOM     41  C   UNL A   1      37.583  32.026  29.008  1.00  0.00     0.074 A 
ATOM     42  C   UNL A   1      36.749  31.042  28.360  1.00  0.00     0.031 C 
ATOM     43  C   UNL A   1      41.806  30.486  31.705  1.00  0.00     0.029 A 
ATOM     44  C   UNL A   1      42.648  29.617  30.900  1.00  0.00     0.049 A 
ATOM     45  H   UNL A   1      41.973  27.728  30.143  1.00  0.00     0.167 HD
ATOM     46  C   UNL A   1      37.380  33.275  29.511  1.00  0.00     0.031 A 
ATOM     47  C   UNL A   1      43.743  30.026  30.198  1.00  0.00     0.031 A 
ATOM     48  C   UNL A   1      38.589  33.815  30.128  1.00  0.00     0.049 A 
ATOM     49  C   UNL A   1      43.755  31.509  29.892  1.00  0.00     0.074 A 
ATOM     50  C   UNL A   1      39.023  33.907  31.440  1.00  0.00     0.029 A 
ATOM     51  N   UNL A   1      39.692  34.085  29.329  1.00  0.00    -0.354 N 
ATOM     52  N   UNL A   1      42.704  32.277  29.958  1.00  0.00    -0.248 NA
ATOM     53  C   UNL A   1      44.942  32.229  29.433  1.00  0.00     0.031 C 
ATOM     54  C   UNL A   1      40.419  34.164  31.424  1.00  0.00     0.029 A 
ATOM     55  C   UNL A   1      40.822  34.260  30.103  1.00  0.00     0.049 A 
ATOM     56  H   UNL A   1      39.672  34.143  28.346  1.00  0.00     0.167 HD
ATOM     57  C   UNL A   1      43.034  33.543  29.549  1.00  0.00     0.074 A 
ATOM     58  C   UNL A   1      44.450  33.468  29.248  1.00  0.00     0.031 C 
ATOM     59  C   UNL A   1      42.104  34.539  29.473  1.00  0.00     0.031 A 
BRANCH  46  60
ATOM     60  C   UNL A   1      36.004  33.867  29.700  1.00  0.00    -0.014 A 
ATOM     61  C   UNL A   1      35.350  34.459  28.605  1.00  0.00     0.009 A 
ATOM     62  C   UNL A   1      35.332  33.946  30.931  1.00  0.00     0.009 A 
ATOM     63  C   UNL A   1      34.155  35.177  28.752  1.00  0.00     0.001 A 
ATOM     64  C   UNL A   1      34.161  34.698  31.097  1.00  0.00     0.001 A 
ATOM     65  C   UNL A   1      33.578  35.326  30.007  1.00  0.00     0.000 A 
ENDBRANCH  46  60
BRANCH  47  66
ATOM     66  C   UNL A   1      44.312  28.981  29.302  1.00  0.00    -0.014 A 
ATOM     67  C   UNL A   1      43.901  28.956  27.953  1.00  0.00     0.009 A 
ATOM     68  C   UNL A   1      45.465  28.272  29.664  1.00  0.00     0.009 A 
ATOM     69  C   UNL A   1      44.688  28.338  26.977  1.00  0.00     0.001 A 
ATOM     70  C   UNL A   1      46.241  27.642  28.683  1.00  0.00     0.001 A 
ATOM     71  C   UNL A   1      45.872  27.706  27.339  1.00  0.00     0.000 A 
ENDBRANCH  47  66
BRANCH  59  72
ATOM     72  C   UNL A   1      42.305  35.896  28.843  1.00  0.00    -0.014 A 
ATOM     73  C   UNL A   1      43.103  36.910  29.387  1.00  0.00     0.009 A 
ATOM     74  C   UNL A   1      41.780  36.126  27.551  1.00  0.00     0.009 A 
ATOM     75  C   UNL A   1      43.331  38.108  28.693  1.00  0.00     0.001 A 
ATOM     76  C   UNL A   1      42.041  37.299  26.838  1.00  0.00     0.001 A 
ATOM     77  C   UNL A   1      42.810  38.297  27.417  1.00  0.00     0.000 A 
ENDBRANCH  59  72
ENDBRANCH  33  34
ENDBRANCH  25  28
ENDBRANCH  23  24
ENDBRANCH  22  23
ENDBRANCH   1  22
TORSDOF 13
ENDMDL
MODEL 3
REMARK VINA RESULT:     -12.3      4.194      8.947
REMARK SMILES Cc1cccc(C(=O)NCCCNC(=O)c2ccc(-c3c4nc(c(-c5ccccc5)c5ccc([nH]5)c(-c5ccccc5)c5nc(c(-c6ccccc6)c6ccc3[nH]6)C=C5)C=C4)cc2)c1OC[C@@H]1C[C@H]2CC[C@@H]1C2
REMARK SMILES IDX 10 1 9 2 7 3 8 4 6 6 1 7 2 8 3 9 64 10 4 11 5 12 65 13 66 14
REMARK SMILES IDX 67 15 68 16 72 17 69 18 71 19 73 20 70 21 11 22 12 23 13 24
REMARK SMILES IDX 14 25 15 27 16 28 17 29 63 30 18 31 62 32 19 33 20 34 21 35
REMARK SMILES IDX 56 36 22 37 61 38 55 39 57 40 23 41 60 42 54 43 53 44 24 46
REMARK SMILES IDX 46 47 31 48 45 49 32 50 35 51 44 52 58 53 33 54 34 55 43 57
REMARK SMILES IDX 59 58 36 59 25 60 26 61 30 62 27 63 29 64 28 65 47 66 48 67
REMARK SMILES IDX 52 68 49 69 51 70 50 71 37 72 38 73 42 74 39 75 41 76 40 77
REMARK H PARENT 9 5 13 26 57 45 35 56
REMARK Flexibility Score: inf
ROOT
ATOM      1  C   UNL A   1      34.369  29.371  27.268  1.00  0.00     0.118 C 
ENDROOT
BRANCH   1   2
ATOM      2  N   UNL A   1      33.207  28.701  27.800  1.00  0.00    -0.352 N 
ATOM      3  C   UNL A   1      32.144  28.074  27.214  1.00  0.00     0.255 C 
ATOM      4  O   UNL A   1      31.239  27.767  28.002  1.00  0.00    -0.269 OA
ATOM      5  H   UNL A   1      33.173  28.696  28.784  1.00  0.00     0.163 HD
BRANCH   3   6
ATOM      6  C   UNL A   1      31.981  27.674  25.774  1.00  0.00     0.082 A 
ATOM      7  C   UNL A   1      33.671  26.295  22.616  1.00  0.00     0.048 C 
ATOM      8  C   UNL A   1      32.658  26.858  23.578  1.00  0.00    -0.008 A 
ATOM      9  C   UNL A   1      31.669  27.664  22.980  1.00  0.00     0.007 A 
ATOM     10  C   UNL A   1      32.737  26.766  24.989  1.00  0.00     0.134 A 
ATOM     11  C   UNL A   1      30.838  28.459  23.749  1.00  0.00     0.001 A 
ATOM     12  C   UNL A   1      31.024  28.490  25.123  1.00  0.00     0.018 A 
BRANCH  10  13
ATOM     13  O   UNL A   1      33.602  25.909  25.603  1.00  0.00    -0.492 OA
BRANCH  13  14
ATOM     14  C   UNL A   1      33.270  24.510  25.754  1.00  0.00     0.233 C 
BRANCH  14  15
ATOM     15  C   UNL A   1      34.437  23.501  25.769  1.00  0.00     0.030 C 
ATOM     16  C   UNL A   1      35.768  24.108  25.235  1.00  0.00     0.011 C 
ATOM     17  C   UNL A   1      34.195  22.370  24.734  1.00  0.00    -0.004 C 
ATOM     18  C   UNL A   1      36.114  23.226  24.020  1.00  0.00    -0.010 C 
ATOM     19  C   UNL A   1      35.194  21.233  24.994  1.00  0.00     0.004 C 
ATOM     20  C   UNL A   1      34.732  22.968  23.432  1.00  0.00     0.007 C 
ATOM     21  C   UNL A   1      36.520  21.827  24.506  1.00  0.00     0.004 C 
ENDBRANCH  14  15
ENDBRANCH  13  14
ENDBRANCH  10  13
ENDBRANCH   3   6
ENDBRANCH   1   2
BRANCH   1  22
ATOM     22  C   UNL A   1      34.121  30.874  27.251  1.00  0.00     0.042 C 
BRANCH  22  23
ATOM     23  C   UNL A   1      34.653  31.612  28.459  1.00  0.00     0.118 C 
BRANCH  23  24
ATOM     24  N   UNL A   1      33.747  32.677  28.899  1.00  0.00    -0.352 N 
ATOM     25  C   UNL A   1      34.021  33.774  29.700  1.00  0.00     0.251 C 
ATOM     26  H   UNL A   1      32.818  32.604  28.582  1.00  0.00     0.163 HD
ATOM     27  O   UNL A   1      33.176  34.615  29.943  1.00  0.00    -0.269 OA
BRANCH  25  28
ATOM     28  C   UNL A   1      35.423  33.956  30.132  1.00  0.00     0.039 A 
ATOM     29  C   UNL A   1      36.335  34.300  29.135  1.00  0.00     0.014 A 
ATOM     30  C   UNL A   1      35.835  33.386  31.333  1.00  0.00     0.014 A 
ATOM     31  C   UNL A   1      37.627  33.802  29.220  1.00  0.00     0.010 A 
ATOM     32  C   UNL A   1      37.081  32.791  31.359  1.00  0.00     0.010 A 
ATOM     33  C   UNL A   1      37.944  32.936  30.265  1.00  0.00    -0.014 A 
BRANCH  33  34
ATOM     34  C   UNL A   1      39.101  32.049  30.215  1.00  0.00     0.031 A 
ATOM     35  C   UNL A   1      38.931  30.653  29.775  1.00  0.00     0.074 A 
ATOM     36  C   UNL A   1      40.326  32.499  30.573  1.00  0.00     0.049 A 
ATOM     37  N   UNL A   1      39.714  29.684  30.107  1.00  0.00    -0.248 NA
ATOM     38  C   UNL A   1      37.788  30.225  28.976  1.00  0.00     0.031 C 
ATOM     39  C   UNL A   1      41.612  31.838  30.371  1.00  0.00     0.029 A 
ATOM     40  N   UNL A   1      40.615  33.569  31.423  1.00  0.00    -0.354 N 
ATOM     41  C   UNL A   1      39.352  28.588  29.361  1.00  0.00     0.074 A 
ATOM     42  C   UNL A   1      38.100  28.950  28.741  1.00  0.00     0.031 C 
ATOM     43  C   UNL A   1      42.496  32.332  31.252  1.00  0.00     0.029 A 
ATOM     44  C   UNL A   1      41.770  33.217  32.147  1.00  0.00     0.049 A 
ATOM     45  H   UNL A   1      40.108  34.409  31.501  1.00  0.00     0.167 HD
ATOM     46  C   UNL A   1      40.217  27.543  29.240  1.00  0.00     0.031 A 
ATOM     47  C   UNL A   1      41.752  33.107  33.507  1.00  0.00     0.031 A 
ATOM     48  C   UNL A   1      41.395  27.712  30.087  1.00  0.00     0.049 A 
ATOM     49  C   UNL A   1      42.117  31.727  34.014  1.00  0.00     0.074 A 
ATOM     50  C   UNL A   1      42.685  28.150  29.838  1.00  0.00     0.029 A 
ATOM     51  N   UNL A   1      41.241  27.701  31.467  1.00  0.00    -0.354 N 
ATOM     52  N   UNL A   1      42.109  30.653  33.275  1.00  0.00    -0.248 NA
ATOM     53  C   UNL A   1      42.465  31.445  35.405  1.00  0.00     0.031 C 
ATOM     54  C   UNL A   1      43.286  28.475  31.084  1.00  0.00     0.029 A 
ATOM     55  C   UNL A   1      42.370  28.201  32.085  1.00  0.00     0.049 A 
ATOM     56  H   UNL A   1      40.439  27.382  31.940  1.00  0.00     0.167 HD
ATOM     57  C   UNL A   1      42.414  29.563  34.049  1.00  0.00     0.074 A 
ATOM     58  C   UNL A   1      42.646  30.112  35.371  1.00  0.00     0.031 C 
ATOM     59  C   UNL A   1      42.427  28.298  33.537  1.00  0.00     0.031 A 
BRANCH  46  60
ATOM     60  C   UNL A   1      40.121  26.526  28.128  1.00  0.00    -0.014 A 
ATOM     61  C   UNL A   1      39.463  25.305  28.362  1.00  0.00     0.009 A 
ATOM     62  C   UNL A   1      40.715  26.668  26.863  1.00  0.00     0.009 A 
ATOM     63  C   UNL A   1      39.491  24.255  27.434  1.00  0.00     0.001 A 
ATOM     64  C   UNL A   1      40.787  25.611  25.946  1.00  0.00     0.001 A 
ATOM     65  C   UNL A   1      40.184  24.397  26.238  1.00  0.00     0.000 A 
ENDBRANCH  46  60
BRANCH  47  66
ATOM     66  C   UNL A   1      40.777  34.014  34.174  1.00  0.00    -0.014 A 
ATOM     67  C   UNL A   1      39.575  33.464  34.665  1.00  0.00     0.009 A 
ATOM     68  C   UNL A   1      41.165  35.283  34.623  1.00  0.00     0.009 A 
ATOM     69  C   UNL A   1      38.846  34.115  35.665  1.00  0.00     0.001 A 
ATOM     70  C   UNL A   1      40.423  35.937  35.614  1.00  0.00     0.001 A 
ATOM     71  C   UNL A   1      39.287  35.338  36.159  1.00  0.00     0.000 A 
ENDBRANCH  47  66
BRANCH  59  72
ATOM     72  C   UNL A   1      42.538  27.019  34.330  1.00  0.00    -0.014 A 
ATOM     73  C   UNL A   1      41.513  26.488  35.123  1.00  0.00     0.009 A 
ATOM     74  C   UNL A   1      43.689  26.217  34.161  1.00  0.00     0.009 A 
ATOM     75  C   UNL A   1      41.648  25.239  35.746  1.00  0.00     0.001 A 
ATOM     76  C   UNL A   1      43.811  24.953  34.744  1.00  0.00     0.001 A 
ATOM     77  C   UNL A   1      42.791  24.468  35.548  1.00  0.00     0.000 A 
ENDBRANCH  59  72
ENDBRANCH  33  34
ENDBRANCH  25  28
ENDBRANCH  23  24
ENDBRANCH  22  23
ENDBRANCH   1  22
TORSDOF 13
ENDMDL
