MODEL 1
REMARK VINA RESULT:      -9.5      0.000      0.000
REMARK SMILES O=C(NCCCNC(=O)[C@@]12CCC[C@@H](C[NH2+]1)C2)c1ccc(-c2c3nc(c(-c4ccccc4)c4ccc([nH]4)c(-c4ccccc4)c4nc(c(-c5ccccc5)c5ccc2[nH]5)C=C4)C=C3)cc1
REMARK SMILES IDX 4 1 3 2 1 3 2 4 18 6 19 7 65 8 20 9 64 10 21 11 22 12 23 13
REMARK SMILES IDX 58 14 24 15 63 16 57 17 59 18 25 19 62 20 56 21 55 22 26 24
REMARK SMILES IDX 48 25 33 26 47 27 34 28 37 29 46 30 60 31 35 32 36 33 45 35
REMARK SMILES IDX 61 36 38 37 27 38 28 39 32 40 29 41 31 42 30 43 49 44 50 45
REMARK SMILES IDX 54 46 51 47 53 48 52 49 39 50 40 51 44 52 41 53 43 54 42 55
REMARK SMILES IDX 5 56 6 57 7 58 8 59 9 61 10 62 11 63 16 64 17 65 12 66 15 67
REMARK SMILES IDX 14 70 13 71
REMARK H PARENT 3 5 59 23 37 34 7 60 16 68 16 69
REMARK Flexibility Score: inf
ROOT
ATOM      1  C   UNL A   1      40.705  21.399  27.185  1.00  0.00     0.118 C 
ENDROOT
BRANCH   1   2
ATOM      2  N   UNL A   1      39.574  21.643  26.299  1.00  0.00    -0.352 N 
ATOM      3  O   UNL A   1      37.759  22.717  25.510  1.00  0.00    -0.269 OA
ATOM      4  C   UNL A   1      38.814  22.773  26.142  1.00  0.00     0.251 C 
ATOM      5  H   UNL A   1      39.316  20.882  25.730  1.00  0.00     0.163 HD
BRANCH   4   6
ATOM      6  C   UNL A   1      39.251  24.053  26.734  1.00  0.00     0.039 A 
ATOM      7  C   UNL A   1      38.965  24.356  28.067  1.00  0.00     0.014 A 
ATOM      8  C   UNL A   1      39.991  24.950  25.957  1.00  0.00     0.014 A 
ATOM      9  C   UNL A   1      39.289  25.605  28.580  1.00  0.00     0.010 A 
ATOM     10  C   UNL A   1      40.413  26.162  26.509  1.00  0.00     0.010 A 
ATOM     11  C   UNL A   1      40.047  26.507  27.819  1.00  0.00    -0.014 A 
BRANCH  11  12
ATOM     12  C   UNL A   1      40.521  27.760  28.455  1.00  0.00     0.031 A 
ATOM     13  C   UNL A   1      41.962  27.946  28.835  1.00  0.00     0.074 A 
ATOM     14  C   UNL A   1      39.628  28.747  28.667  1.00  0.00     0.049 A 
ATOM     15  N   UNL A   1      42.537  28.988  29.382  1.00  0.00    -0.248 NA
ATOM     16  C   UNL A   1      42.874  26.822  28.577  1.00  0.00     0.031 C 
ATOM     17  C   UNL A   1      38.200  28.677  28.339  1.00  0.00     0.029 A 
ATOM     18  N   UNL A   1      39.786  30.005  29.184  1.00  0.00    -0.354 N 
ATOM     19  C   UNL A   1      43.872  28.644  29.543  1.00  0.00     0.074 A 
ATOM     20  C   UNL A   1      44.016  27.284  29.068  1.00  0.00     0.031 C 
ATOM     21  C   UNL A   1      37.627  29.856  28.614  1.00  0.00     0.029 A 
ATOM     22  C   UNL A   1      38.624  30.737  29.206  1.00  0.00     0.049 A 
ATOM     23  H   UNL A   1      40.649  30.352  29.508  1.00  0.00     0.167 HD
ATOM     24  C   UNL A   1      44.886  29.396  30.037  1.00  0.00     0.031 A 
ATOM     25  C   UNL A   1      38.379  31.975  29.672  1.00  0.00     0.031 A 
ATOM     26  C   UNL A   1      44.730  30.744  30.523  1.00  0.00     0.049 A 
ATOM     27  C   UNL A   1      39.509  32.759  30.270  1.00  0.00     0.074 A 
ATOM     28  C   UNL A   1      45.698  31.596  31.027  1.00  0.00     0.029 A 
ATOM     29  N   UNL A   1      43.527  31.433  30.574  1.00  0.00    -0.354 N 
ATOM     30  N   UNL A   1      40.773  32.432  30.381  1.00  0.00    -0.248 NA
ATOM     31  C   UNL A   1      39.177  34.086  30.804  1.00  0.00     0.031 C 
ATOM     32  C   UNL A   1      45.071  32.776  31.439  1.00  0.00     0.029 A 
ATOM     33  C   UNL A   1      43.724  32.688  31.128  1.00  0.00     0.049 A 
ATOM     34  H   UNL A   1      42.662  31.082  30.263  1.00  0.00     0.167 HD
ATOM     35  C   UNL A   1      41.394  33.522  30.976  1.00  0.00     0.074 A 
ATOM     36  C   UNL A   1      40.369  34.527  31.178  1.00  0.00     0.031 C 
ATOM     37  C   UNL A   1      42.694  33.676  31.325  1.00  0.00     0.031 A 
BRANCH  24  38
ATOM     38  C   UNL A   1      46.252  28.768  30.103  1.00  0.00    -0.014 A 
ATOM     39  C   UNL A   1      46.665  28.035  31.228  1.00  0.00     0.009 A 
ATOM     40  C   UNL A   1      47.121  28.871  29.006  1.00  0.00     0.009 A 
ATOM     41  C   UNL A   1      47.933  27.450  31.265  1.00  0.00     0.001 A 
ATOM     42  C   UNL A   1      48.376  28.259  29.034  1.00  0.00     0.001 A 
ATOM     43  C   UNL A   1      48.785  27.557  30.167  1.00  0.00     0.000 A 
ENDBRANCH  24  38
BRANCH  25  44
ATOM     44  C   UNL A   1      37.003  32.534  29.612  1.00  0.00    -0.014 A 
ATOM     45  C   UNL A   1      36.584  33.293  28.510  1.00  0.00     0.009 A 
ATOM     46  C   UNL A   1      36.101  32.313  30.666  1.00  0.00     0.009 A 
ATOM     47  C   UNL A   1      35.302  33.845  28.479  1.00  0.00     0.001 A 
ATOM     48  C   UNL A   1      34.808  32.836  30.616  1.00  0.00     0.001 A 
ATOM     49  C   UNL A   1      34.414  33.613  29.528  1.00  0.00     0.000 A 
ENDBRANCH  25  44
BRANCH  37  50
ATOM     50  C   UNL A   1      43.085  34.998  31.924  1.00  0.00    -0.014 A 
ATOM     51  C   UNL A   1      42.981  35.236  33.303  1.00  0.00     0.009 A 
ATOM     52  C   UNL A   1      43.588  36.012  31.094  1.00  0.00     0.009 A 
ATOM     53  C   UNL A   1      43.335  36.480  33.832  1.00  0.00     0.001 A 
ATOM     54  C   UNL A   1      43.973  37.241  31.630  1.00  0.00     0.001 A 
ATOM     55  C   UNL A   1      43.835  37.478  32.996  1.00  0.00     0.000 A 
ENDBRANCH  37  50
ENDBRANCH  11  12
ENDBRANCH   4   6
ENDBRANCH   1   2
BRANCH   1  56
ATOM     56  C   UNL A   1      41.991  21.196  26.409  1.00  0.00     0.042 C 
BRANCH  56  57
ATOM     57  C   UNL A   1      42.657  22.516  26.039  1.00  0.00     0.118 C 
BRANCH  57  58
ATOM     58  N   UNL A   1      43.364  22.417  24.770  1.00  0.00    -0.351 N 
ATOM     59  C   UNL A   1      44.540  23.008  24.382  1.00  0.00     0.281 C 
ATOM     60  H   UNL A   1      42.937  21.843  24.093  1.00  0.00     0.163 HD
ATOM     61  O   UNL A   1      44.926  22.821  23.227  1.00  0.00    -0.268 OA
BRANCH  59  62
ATOM     62  C   UNL A   1      45.353  23.839  25.407  1.00  0.00     0.176 C 
ATOM     63  C   UNL A   1      45.527  23.096  26.755  1.00  0.00     0.079 C 
ATOM     64  N   UNL A   1      46.689  24.184  24.800  1.00  0.00    -0.333 N 
ATOM     65  C   UNL A   1      44.755  25.212  25.731  1.00  0.00     0.088 C 
ATOM     66  C   UNL A   1      45.835  24.022  27.938  1.00  0.00     0.008 C 
ATOM     67  C   UNL A   1      46.926  25.613  25.045  1.00  0.00     0.265 C 
ATOM     68  H   UNL A   1      46.672  24.001  23.797  1.00  0.00     0.347 HD
ATOM     69  H   UNL A   1      47.429  23.619  25.214  1.00  0.00     0.347 HD
ATOM     70  C   UNL A   1      46.017  25.921  26.224  1.00  0.00     0.051 C 
ATOM     71  C   UNL A   1      46.597  25.273  27.510  1.00  0.00     0.010 C 
ENDBRANCH  59  62
ENDBRANCH  57  58
ENDBRANCH  56  57
ENDBRANCH   1  56
TORSDOF 10
ENDMDL
MODEL 2
REMARK VINA RESULT:      -9.4      3.016      6.185
REMARK SMILES O=C(NCCCNC(=O)[C@@]12CCC[C@@H](C[NH2+]1)C2)c1ccc(-c2c3nc(c(-c4ccccc4)c4ccc([nH]4)c(-c4ccccc4)c4nc(c(-c5ccccc5)c5ccc2[nH]5)C=C4)C=C3)cc1
REMARK SMILES IDX 4 1 3 2 1 3 2 4 18 6 19 7 65 8 20 9 64 10 21 11 22 12 23 13
REMARK SMILES IDX 58 14 24 15 63 16 57 17 59 18 25 19 62 20 56 21 55 22 26 24
REMARK SMILES IDX 48 25 33 26 47 27 34 28 37 29 46 30 60 31 35 32 36 33 45 35
REMARK SMILES IDX 61 36 38 37 27 38 28 39 32 40 29 41 31 42 30 43 49 44 50 45
REMARK SMILES IDX 54 46 51 47 53 48 52 49 39 50 40 51 44 52 41 53 43 54 42 55
REMARK SMILES IDX 5 56 6 57 7 58 8 59 9 61 10 62 11 63 16 64 17 65 12 66 15 67
REMARK SMILES IDX 14 70 13 71
REMARK H PARENT 3 5 59 23 37 34 7 60 16 68 16 69
REMARK Flexibility Score: inf
ROOT
ATOM      1  C   UNL A   1      38.697  20.317  25.483  1.00  0.00     0.118 C 
ENDROOT
BRANCH   1   2
ATOM      2  N   UNL A   1      39.797  19.376  25.659  1.00  0.00    -0.352 N 
ATOM      3  O   UNL A   1      41.934  18.719  25.917  1.00  0.00    -0.269 OA
ATOM      4  C   UNL A   1      41.092  19.608  26.042  1.00  0.00     0.251 C 
ATOM      5  H   UNL A   1      39.575  18.435  25.476  1.00  0.00     0.163 HD
BRANCH   4   6
ATOM      6  C   UNL A   1      41.483  20.920  26.595  1.00  0.00     0.039 A 
ATOM      7  C   UNL A   1      41.917  21.947  25.755  1.00  0.00     0.014 A 
ATOM      8  C   UNL A   1      41.378  21.142  27.972  1.00  0.00     0.014 A 
ATOM      9  C   UNL A   1      42.381  23.138  26.296  1.00  0.00     0.010 A 
ATOM     10  C   UNL A   1      41.742  22.380  28.505  1.00  0.00     0.010 A 
ATOM     11  C   UNL A   1      42.265  23.382  27.673  1.00  0.00    -0.014 A 
BRANCH  11  12
ATOM     12  C   UNL A   1      42.611  24.726  28.195  1.00  0.00     0.031 A 
ATOM     13  C   UNL A   1      44.026  25.089  28.540  1.00  0.00     0.074 A 
ATOM     14  C   UNL A   1      41.622  25.631  28.332  1.00  0.00     0.049 A 
ATOM     15  N   UNL A   1      44.494  26.227  28.989  1.00  0.00    -0.248 NA
ATOM     16  C   UNL A   1      45.048  24.046  28.368  1.00  0.00     0.031 C 
ATOM     17  C   UNL A   1      40.208  25.389  28.029  1.00  0.00     0.029 A 
ATOM     18  N   UNL A   1      41.652  26.939  28.738  1.00  0.00    -0.354 N 
ATOM     19  C   UNL A   1      45.857  26.036  29.164  1.00  0.00     0.074 A 
ATOM     20  C   UNL A   1      46.138  24.662  28.805  1.00  0.00     0.031 C 
ATOM     21  C   UNL A   1      39.518  26.523  28.209  1.00  0.00     0.029 A 
ATOM     22  C   UNL A   1      40.422  27.549  28.711  1.00  0.00     0.049 A 
ATOM     23  H   UNL A   1      42.477  27.398  29.021  1.00  0.00     0.167 HD
ATOM     24  C   UNL A   1      46.790  26.926  29.579  1.00  0.00     0.031 A 
ATOM     25  C   UNL A   1      40.053  28.791  29.073  1.00  0.00     0.031 A 
ATOM     26  C   UNL A   1      46.499  28.289  29.951  1.00  0.00     0.049 A 
ATOM     27  C   UNL A   1      41.099  29.734  29.589  1.00  0.00     0.074 A 
ATOM     28  C   UNL A   1      47.377  29.275  30.370  1.00  0.00     0.029 A 
ATOM     29  N   UNL A   1      45.232  28.854  29.958  1.00  0.00    -0.354 N 
ATOM     30  N   UNL A   1      42.390  29.548  29.713  1.00  0.00    -0.248 NA
ATOM     31  C   UNL A   1      40.634  31.061  30.012  1.00  0.00     0.031 C 
ATOM     32  C   UNL A   1      46.634  30.416  30.687  1.00  0.00     0.029 A 
ATOM     33  C   UNL A   1      45.302  30.165  30.400  1.00  0.00     0.049 A 
ATOM     34  H   UNL A   1      44.406  28.391  29.688  1.00  0.00     0.167 HD
ATOM     35  C   UNL A   1      42.898  30.742  30.206  1.00  0.00     0.074 A 
ATOM     36  C   UNL A   1      41.776  31.651  30.334  1.00  0.00     0.031 C 
ATOM     37  C   UNL A   1      44.176  31.056  30.525  1.00  0.00     0.031 A 
BRANCH  24  38
ATOM     38  C   UNL A   1      48.213  26.448  29.683  1.00  0.00    -0.014 A 
ATOM     39  C   UNL A   1      49.115  26.601  28.617  1.00  0.00     0.009 A 
ATOM     40  C   UNL A   1      48.673  25.878  30.881  1.00  0.00     0.009 A 
ATOM     41  C   UNL A   1      50.435  26.162  28.738  1.00  0.00     0.001 A 
ATOM     42  C   UNL A   1      50.001  25.467  31.009  1.00  0.00     0.001 A 
ATOM     43  C   UNL A   1      50.879  25.600  29.934  1.00  0.00     0.000 A 
ENDBRANCH  24  38
BRANCH  25  44
ATOM     44  C   UNL A   1      38.627  29.199  28.983  1.00  0.00    -0.014 A 
ATOM     45  C   UNL A   1      38.101  29.707  27.785  1.00  0.00     0.009 A 
ATOM     46  C   UNL A   1      37.784  29.089  30.101  1.00  0.00     0.009 A 
ATOM     47  C   UNL A   1      36.769  30.123  27.720  1.00  0.00     0.001 A 
ATOM     48  C   UNL A   1      36.445  29.472  30.022  1.00  0.00     0.001 A 
ATOM     49  C   UNL A   1      35.942  30.001  28.835  1.00  0.00     0.000 A 
ENDBRANCH  25  44
BRANCH  37  50
ATOM     50  C   UNL A   1      44.433  32.458  31.004  1.00  0.00    -0.014 A 
ATOM     51  C   UNL A   1      44.402  32.781  32.370  1.00  0.00     0.009 A 
ATOM     52  C   UNL A   1      44.732  33.464  30.073  1.00  0.00     0.009 A 
ATOM     53  C   UNL A   1      44.626  34.095  32.788  1.00  0.00     0.001 A 
ATOM     54  C   UNL A   1      44.989  34.768  30.497  1.00  0.00     0.001 A 
ATOM     55  C   UNL A   1      44.924  35.085  31.852  1.00  0.00     0.000 A 
ENDBRANCH  37  50
ENDBRANCH  11  12
ENDBRANCH   4   6
ENDBRANCH   1   2
BRANCH   1  56
ATOM     56  C   UNL A   1      37.450  19.630  24.964  1.00  0.00     0.042 C 
BRANCH  56  57
ATOM     57  C   UNL A   1      36.224  20.533  25.028  1.00  0.00     0.118 C 
BRANCH  57  58
ATOM     58  N   UNL A   1      34.994  19.757  25.082  1.00  0.00    -0.351 N 
ATOM     59  C   UNL A   1      33.710  20.178  25.318  1.00  0.00     0.281 C 
ATOM     60  H   UNL A   1      35.098  18.790  24.926  1.00  0.00     0.163 HD
ATOM     61  O   UNL A   1      32.823  19.324  25.371  1.00  0.00    -0.268 OA
BRANCH  59  62
ATOM     62  C   UNL A   1      33.416  21.693  25.462  1.00  0.00     0.176 C 
ATOM     63  C   UNL A   1      33.701  22.471  24.154  1.00  0.00     0.079 C 
ATOM     64  N   UNL A   1      31.984  21.869  25.899  1.00  0.00    -0.333 N 
ATOM     65  C   UNL A   1      34.205  22.392  26.574  1.00  0.00     0.088 C 
ATOM     66  C   UNL A   1      33.941  23.971  24.364  1.00  0.00     0.008 C 
ATOM     67  C   UNL A   1      31.977  22.839  27.002  1.00  0.00     0.265 C 
ATOM     68  H   UNL A   1      31.606  20.977  26.218  1.00  0.00     0.347 HD
ATOM     69  H   UNL A   1      31.410  22.199  25.125  1.00  0.00     0.347 HD
ATOM     70  C   UNL A   1      33.286  23.591  26.814  1.00  0.00     0.051 C 
ATOM     71  C   UNL A   1      33.182  24.514  25.571  1.00  0.00     0.010 C 
ENDBRANCH  59  62
ENDBRANCH  57  58
ENDBRANCH  56  57
ENDBRANCH   1  56
TORSDOF 10
ENDMDL
MODEL 3
REMARK VINA RESULT:      -9.4      3.012      8.862
REMARK SMILES O=C(NCCCNC(=O)[C@@]12CCC[C@@H](C[NH2+]1)C2)c1ccc(-c2c3nc(c(-c4ccccc4)c4ccc([nH]4)c(-c4ccccc4)c4nc(c(-c5ccccc5)c5ccc2[nH]5)C=C4)C=C3)cc1
REMARK SMILES IDX 4 1 3 2 1 3 2 4 18 6 19 7 65 8 20 9 64 10 21 11 22 12 23 13
REMARK SMILES IDX 58 14 24 15 63 16 57 17 59 18 25 19 62 20 56 21 55 22 26 24
REMARK SMILES IDX 48 25 33 26 47 27 34 28 37 29 46 30 60 31 35 32 36 33 45 35
REMARK SMILES IDX 61 36 38 37 27 38 28 39 32 40 29 41 31 42 30 43 49 44 50 45
REMARK SMILES IDX 54 46 51 47 53 48 52 49 39 50 40 51 44 52 41 53 43 54 42 55
REMARK SMILES IDX 5 56 6 57 7 58 8 59 9 61 10 62 11 63 16 64 17 65 12 66 15 67
REMARK SMILES IDX 14 70 13 71
REMARK H PARENT 3 5 59 23 37 34 7 60 16 68 16 69
REMARK Flexibility Score: inf
ROOT
ATOM      1  C   UNL A   1      38.695  20.327  25.477  1.00  0.00     0.118 C 
ENDROOT
BRANCH   1   2
ATOM      2  N   UNL A   1      39.785  19.379  25.677  1.00  0.00    -0.352 N 
ATOM      3  O   UNL A   1      41.915  18.706  25.952  1.00  0.00    -0.269 OA
ATOM      4  C   UNL A   1      41.082  19.605  26.057  1.00  0.00     0.251 C 
ATOM      5  H   UNL A   1      39.554  18.436  25.513  1.00  0.00     0.163 HD
BRANCH   4   6
ATOM      6  C   UNL A   1      41.485  20.926  26.582  1.00  0.00     0.039 A 
ATOM      7  C   UNL A   1      41.943  21.926  25.721  1.00  0.00     0.014 A 
ATOM      8  C   UNL A   1      41.368  21.183  27.951  1.00  0.00     0.014 A 
ATOM      9  C   UNL A   1      42.418  23.123  26.239  1.00  0.00     0.010 A 
ATOM     10  C   UNL A   1      41.743  22.429  28.459  1.00  0.00     0.010 A 
ATOM     11  C   UNL A   1      42.290  23.402  27.608  1.00  0.00    -0.014 A 
BRANCH  11  12
ATOM     12  C   UNL A   1      42.648  24.754  28.100  1.00  0.00     0.031 A 
ATOM     13  C   UNL A   1      41.603  25.812  28.310  1.00  0.00     0.074 A 
ATOM     14  C   UNL A   1      43.941  25.010  28.381  1.00  0.00     0.049 A 
ATOM     15  N   UNL A   1      41.752  27.035  28.752  1.00  0.00    -0.248 NA
ATOM     16  C   UNL A   1      40.215  25.458  27.977  1.00  0.00     0.031 C 
ATOM     17  C   UNL A   1      45.045  24.058  28.214  1.00  0.00     0.029 A 
ATOM     18  N   UNL A   1      44.546  26.131  28.884  1.00  0.00    -0.354 N 
ATOM     19  C   UNL A   1      40.485  27.601  28.740  1.00  0.00     0.074 A 
ATOM     20  C   UNL A   1      39.582  26.598  28.215  1.00  0.00     0.031 C 
ATOM     21  C   UNL A   1      46.180  24.617  28.655  1.00  0.00     0.029 A 
ATOM     22  C   UNL A   1      45.900  25.987  29.064  1.00  0.00     0.049 A 
ATOM     23  H   UNL A   1      44.058  26.959  29.096  1.00  0.00     0.167 HD
ATOM     24  C   UNL A   1      40.109  28.841  29.137  1.00  0.00     0.031 A 
ATOM     25  C   UNL A   1      46.824  26.868  29.490  1.00  0.00     0.031 A 
ATOM     26  C   UNL A   1      41.018  29.839  29.643  1.00  0.00     0.049 A 
ATOM     27  C   UNL A   1      46.385  28.252  29.862  1.00  0.00     0.074 A 
ATOM     28  C   UNL A   1      40.732  31.119  30.087  1.00  0.00     0.029 A 
ATOM     29  N   UNL A   1      42.389  29.672  29.764  1.00  0.00    -0.354 N 
ATOM     30  N   UNL A   1      45.177  28.760  29.880  1.00  0.00    -0.248 NA
ATOM     31  C   UNL A   1      47.440  29.186  30.277  1.00  0.00     0.031 C 
ATOM     32  C   UNL A   1      41.937  31.746  30.418  1.00  0.00     0.029 A 
ATOM     33  C   UNL A   1      42.966  30.835  30.248  1.00  0.00     0.049 A 
ATOM     34  H   UNL A   1      42.879  28.848  29.539  1.00  0.00     0.167 HD
ATOM     35  C   UNL A   1      45.322  30.064  30.330  1.00  0.00     0.074 A 
ATOM     36  C   UNL A   1      46.733  30.259  30.597  1.00  0.00     0.031 C 
ATOM     37  C   UNL A   1      44.373  31.015  30.506  1.00  0.00     0.031 A 
BRANCH  24  38
ATOM     38  C   UNL A   1      38.652  29.200  29.013  1.00  0.00    -0.014 A 
ATOM     39  C   UNL A   1      37.784  29.125  30.115  1.00  0.00     0.009 A 
ATOM     40  C   UNL A   1      38.151  29.666  27.787  1.00  0.00     0.009 A 
ATOM     41  C   UNL A   1      36.439  29.475  29.982  1.00  0.00     0.001 A 
ATOM     42  C   UNL A   1      36.812  30.043  27.665  1.00  0.00     0.001 A 
ATOM     43  C   UNL A   1      35.955  29.939  28.759  1.00  0.00     0.000 A 
ENDBRANCH  24  38
BRANCH  25  44
ATOM     44  C   UNL A   1      48.255  26.469  29.561  1.00  0.00    -0.014 A 
ATOM     45  C   UNL A   1      48.776  25.869  30.716  1.00  0.00     0.009 A 
ATOM     46  C   UNL A   1      49.110  26.696  28.469  1.00  0.00     0.009 A 
ATOM     47  C   UNL A   1      50.129  25.532  30.787  1.00  0.00     0.001 A 
ATOM     48  C   UNL A   1      50.453  26.325  28.530  1.00  0.00     0.001 A 
ATOM     49  C   UNL A   1      50.965  25.755  29.695  1.00  0.00     0.000 A 
ENDBRANCH  25  44
BRANCH  37  50
ATOM     50  C   UNL A   1      44.829  32.339  31.050  1.00  0.00    -0.014 A 
ATOM     51  C   UNL A   1      45.208  33.389  30.199  1.00  0.00     0.009 A 
ATOM     52  C   UNL A   1      44.857  32.545  32.438  1.00  0.00     0.009 A 
ATOM     53  C   UNL A   1      45.646  34.605  30.731  1.00  0.00     0.001 A 
ATOM     54  C   UNL A   1      45.261  33.771  32.965  1.00  0.00     0.001 A 
ATOM     55  C   UNL A   1      45.667  34.796  32.113  1.00  0.00     0.000 A 
ENDBRANCH  37  50
ENDBRANCH  11  12
ENDBRANCH   4   6
ENDBRANCH   1   2
BRANCH   1  56
ATOM     56  C   UNL A   1      37.446  19.643  24.959  1.00  0.00     0.042 C 
BRANCH  56  57
ATOM     57  C   UNL A   1      36.221  20.547  25.028  1.00  0.00     0.118 C 
BRANCH  57  58
ATOM     58  N   UNL A   1      34.992  19.772  25.102  1.00  0.00    -0.351 N 
ATOM     59  C   UNL A   1      33.711  20.195  25.355  1.00  0.00     0.281 C 
ATOM     60  H   UNL A   1      35.093  18.805  24.947  1.00  0.00     0.163 HD
ATOM     61  O   UNL A   1      32.824  19.343  25.422  1.00  0.00    -0.268 OA
BRANCH  59  62
ATOM     62  C   UNL A   1      33.421  21.711  25.500  1.00  0.00     0.176 C 
ATOM     63  C   UNL A   1      33.743  22.495  24.203  1.00  0.00     0.079 C 
ATOM     64  N   UNL A   1      31.979  21.892  25.900  1.00  0.00    -0.333 N 
ATOM     65  C   UNL A   1      34.185  22.400  26.635  1.00  0.00     0.088 C 
ATOM     66  C   UNL A   1      33.985  23.992  24.427  1.00  0.00     0.008 C 
ATOM     67  C   UNL A   1      31.949  22.856  27.008  1.00  0.00     0.265 C 
ATOM     68  H   UNL A   1      31.589  21.001  26.205  1.00  0.00     0.347 HD
ATOM     69  H   UNL A   1      31.426  22.229  25.113  1.00  0.00     0.347 HD
ATOM     70  C   UNL A   1      33.266  23.602  26.858  1.00  0.00     0.051 C 
ATOM     71  C   UNL A   1      33.197  24.533  25.617  1.00  0.00     0.010 C 
ENDBRANCH  59  62
ENDBRANCH  57  58
ENDBRANCH  56  57
ENDBRANCH   1  56
TORSDOF 10
ENDMDL
