MODEL 1
REMARK VINA RESULT:     -11.2      0.000      0.000
REMARK SMILES CC[C@@]1(CO)CCCN(c2nc(-c3ccc(C)s3)ccc2C(=O)NCCCNC(=O)c2ccc(-c3c4nc(c(-c5ccccc5)c5ccc([nH]5)c(-c5ccccc5)c5nc(c(-c6ccccc6)c6ccc3[nH]6)C=C5)C=C4)cc2)C1
REMARK SMILES IDX 25 1 24 2 22 3 23 4 21 6 10 7 11 8 12 9 20 10 19 11 9 12
REMARK SMILES IDX 3 13 6 14 79 15 7 16 8 17 2 18 1 19 4 20 5 21 13 23 14 24
REMARK SMILES IDX 18 25 15 26 16 27 17 28 26 29 27 30 28 31 29 32 30 34 31 35
REMARK SMILES IDX 32 36 78 37 33 38 77 39 34 40 35 41 36 42 71 43 37 44 76 45
REMARK SMILES IDX 70 46 72 47 38 48 75 49 69 50 68 51 39 53 61 54 46 55 60 56
REMARK SMILES IDX 47 57 50 58 59 59 73 60 48 61 49 62 58 64 74 65 51 66 40 67
REMARK SMILES IDX 41 68 45 69 42 70 44 71 43 72 62 73 63 74 67 75 64 76 66 77
REMARK SMILES IDX 65 78 52 79 53 80 57 81 54 82 56 83 55 84
REMARK H PARENT 24 5 5 22 28 33 72 52 50 63
REMARK Flexibility Score: inf
ROOT
ATOM      1  C   UNL A   1      33.731  26.848  25.429  1.00  0.00     0.118 C 
ENDROOT
BRANCH   1   2
ATOM      2  N   UNL A   1      32.694  26.249  26.247  1.00  0.00    -0.352 N 
ATOM      3  C   UNL A   1      32.153  24.998  26.409  1.00  0.00     0.255 C 
ATOM      4  O   UNL A   1      31.263  24.987  27.256  1.00  0.00    -0.269 OA
ATOM      5  H   UNL A   1      32.267  26.910  26.837  1.00  0.00     0.163 HD
BRANCH   3   6
ATOM      6  C   UNL A   1      32.614  23.753  25.696  1.00  0.00     0.082 A 
ATOM      7  C   UNL A   1      32.275  23.462  24.354  1.00  0.00     0.142 A 
ATOM      8  N   UNL A   1      32.452  22.206  23.839  1.00  0.00    -0.229 NA
ATOM      9  C   UNL A   1      33.030  21.251  24.596  1.00  0.00     0.083 A 
ATOM     10  C   UNL A   1      33.330  22.770  26.391  1.00  0.00     0.020 A 
ATOM     11  C   UNL A   1      33.520  21.501  25.859  1.00  0.00     0.031 A 
BRANCH   7  12
ATOM     12  N   UNL A   1      31.787  24.334  23.407  1.00  0.00    -0.355 N 
ATOM     13  C   UNL A   1      32.531  25.705  21.455  1.00  0.00     0.011 C 
ATOM     14  C   UNL A   1      31.187  26.468  21.606  1.00  0.00     0.013 C 
ATOM     15  C   UNL A   1      32.413  24.293  22.091  1.00  0.00     0.127 C 
ATOM     16  C   UNL A   1      30.585  26.426  23.011  1.00  0.00     0.022 C 
ATOM     17  C   UNL A   1      30.490  24.992  23.511  1.00  0.00     0.118 C 
BRANCH  13  18
ATOM     18  C   UNL A   1      32.913  25.490  19.949  1.00  0.00     0.008 C 
ATOM     19  C   UNL A   1      31.763  25.465  18.951  1.00  0.00     0.004 C 
ENDBRANCH  13  18
BRANCH  13  20
ATOM     20  C   UNL A   1      33.696  26.490  22.124  1.00  0.00     0.164 C 
BRANCH  20  21
ATOM     21  O   UNL A   1      33.977  27.744  21.524  1.00  0.00    -0.396 OA
ATOM     22  H   UNL A   1      33.737  27.715  20.584  1.00  0.00     0.210 HD
ENDBRANCH  20  21
ENDBRANCH  13  20
ENDBRANCH   7  12
BRANCH   9  23
ATOM     23  C   UNL A   1      33.085  19.905  24.038  1.00  0.00     0.053 A 
ATOM     24  C   UNL A   1      32.267  19.340  23.077  1.00  0.00     0.022 A 
ATOM     25  S   UNL A   1      34.216  18.773  24.640  1.00  0.00    -0.139 S 
ATOM     26  C   UNL A   1      32.548  17.959  22.869  1.00  0.00     0.016 A 
ATOM     27  C   UNL A   1      33.571  17.511  23.678  1.00  0.00     0.002 A 
ATOM     28  C   UNL A   1      34.127  16.134  23.792  1.00  0.00     0.056 C 
ENDBRANCH   9  23
ENDBRANCH   3   6
ENDBRANCH   1   2
BRANCH   1  29
ATOM     29  C   UNL A   1      34.037  28.272  25.893  1.00  0.00     0.042 C 
BRANCH  29  30
ATOM     30  C   UNL A   1      33.676  28.523  27.357  1.00  0.00     0.118 C 
BRANCH  30  31
ATOM     31  N   UNL A   1      33.631  29.944  27.672  1.00  0.00    -0.352 N 
ATOM     32  C   UNL A   1      34.550  30.738  28.308  1.00  0.00     0.251 C 
ATOM     33  H   UNL A   1      32.812  30.407  27.383  1.00  0.00     0.163 HD
ATOM     34  O   UNL A   1      34.218  31.850  28.707  1.00  0.00    -0.269 OA
BRANCH  32  35
ATOM     35  C   UNL A   1      35.937  30.268  28.517  1.00  0.00     0.039 A 
ATOM     36  C   UNL A   1      36.289  29.746  29.765  1.00  0.00     0.014 A 
ATOM     37  C   UNL A   1      36.903  30.399  27.515  1.00  0.00     0.014 A 
ATOM     38  C   UNL A   1      37.597  29.312  29.992  1.00  0.00     0.010 A 
ATOM     39  C   UNL A   1      38.187  29.904  27.720  1.00  0.00     0.010 A 
ATOM     40  C   UNL A   1      38.551  29.366  28.963  1.00  0.00    -0.014 A 
BRANCH  40  41
ATOM     41  C   UNL A   1      39.934  28.871  29.171  1.00  0.00     0.031 A 
ATOM     42  C   UNL A   1      40.984  29.778  29.750  1.00  0.00     0.074 A 
ATOM     43  C   UNL A   1      40.260  27.625  28.779  1.00  0.00     0.049 A 
ATOM     44  N   UNL A   1      42.258  29.548  29.945  1.00  0.00    -0.248 NA
ATOM     45  C   UNL A   1      40.551  31.130  30.140  1.00  0.00     0.031 C 
ATOM     46  C   UNL A   1      39.342  26.660  28.170  1.00  0.00     0.029 A 
ATOM     47  N   UNL A   1      41.459  26.958  28.827  1.00  0.00    -0.354 N 
ATOM     48  C   UNL A   1      42.781  30.729  30.458  1.00  0.00     0.074 A 
ATOM     49  C   UNL A   1      41.697  31.687  30.504  1.00  0.00     0.031 C 
ATOM     50  C   UNL A   1      40.004  25.518  27.925  1.00  0.00     0.029 A 
ATOM     51  C   UNL A   1      41.398  25.683  28.322  1.00  0.00     0.049 A 
ATOM     52  H   UNL A   1      42.282  27.356  29.190  1.00  0.00     0.167 HD
ATOM     53  C   UNL A   1      44.045  30.989  30.871  1.00  0.00     0.031 A 
ATOM     54  C   UNL A   1      42.361  24.751  28.186  1.00  0.00     0.031 A 
ATOM     55  C   UNL A   1      45.119  30.032  30.838  1.00  0.00     0.049 A 
ATOM     56  C   UNL A   1      43.756  25.065  28.646  1.00  0.00     0.074 A 
ATOM     57  C   UNL A   1      46.421  30.181  31.283  1.00  0.00     0.029 A 
ATOM     58  N   UNL A   1      45.014  28.748  30.329  1.00  0.00    -0.354 N 
ATOM     59  N   UNL A   1      44.220  26.167  29.186  1.00  0.00    -0.248 NA
ATOM     60  C   UNL A   1      44.758  24.002  28.489  1.00  0.00     0.031 C 
ATOM     61  C   UNL A   1      47.116  28.999  31.003  1.00  0.00     0.029 A 
ATOM     62  C   UNL A   1      46.233  28.098  30.430  1.00  0.00     0.049 A 
ATOM     63  H   UNL A   1      44.194  28.354  29.950  1.00  0.00     0.167 HD
ATOM     64  C   UNL A   1      45.559  25.920  29.456  1.00  0.00     0.074 A 
ATOM     65  C   UNL A   1      45.829  24.560  29.036  1.00  0.00     0.031 C 
ATOM     66  C   UNL A   1      46.483  26.746  30.005  1.00  0.00     0.031 A 
BRANCH  53  67
ATOM     67  C   UNL A   1      44.333  32.371  31.387  1.00  0.00    -0.014 A 
ATOM     68  C   UNL A   1      44.738  33.401  30.523  1.00  0.00     0.009 A 
ATOM     69  C   UNL A   1      44.167  32.656  32.751  1.00  0.00     0.009 A 
ATOM     70  C   UNL A   1      45.010  34.677  31.021  1.00  0.00     0.001 A 
ATOM     71  C   UNL A   1      44.413  33.941  33.242  1.00  0.00     0.001 A 
ATOM     72  C   UNL A   1      44.842  34.947  32.379  1.00  0.00     0.000 A 
ENDBRANCH  53  67
BRANCH  54  73
ATOM     73  C   UNL A   1      42.033  23.424  27.606  1.00  0.00    -0.014 A 
ATOM     74  C   UNL A   1      41.500  22.409  28.415  1.00  0.00     0.009 A 
ATOM     75  C   UNL A   1      42.250  23.164  26.245  1.00  0.00     0.009 A 
ATOM     76  C   UNL A   1      41.215  21.152  27.876  1.00  0.00     0.001 A 
ATOM     77  C   UNL A   1      41.938  21.915  25.703  1.00  0.00     0.001 A 
ATOM     78  C   UNL A   1      41.430  20.907  26.521  1.00  0.00     0.000 A 
ENDBRANCH  54  73
BRANCH  66  79
ATOM     79  C   UNL A   1      47.862  26.187  30.213  1.00  0.00    -0.014 A 
ATOM     80  C   UNL A   1      48.793  26.138  29.165  1.00  0.00     0.009 A 
ATOM     81  C   UNL A   1      48.243  25.735  31.486  1.00  0.00     0.009 A 
ATOM     82  C   UNL A   1      50.070  25.616  29.380  1.00  0.00     0.001 A 
ATOM     83  C   UNL A   1      49.528  25.240  31.705  1.00  0.00     0.001 A 
ATOM     84  C   UNL A   1      50.437  25.172  30.650  1.00  0.00     0.000 A 
ENDBRANCH  66  79
ENDBRANCH  40  41
ENDBRANCH  32  35
ENDBRANCH  30  31
ENDBRANCH  29  30
ENDBRANCH   1  29
TORSDOF 15
ENDMDL
MODEL 2
REMARK VINA RESULT:     -11.1      5.330      9.658
REMARK SMILES CC[C@@]1(CO)CCCN(c2nc(-c3ccc(C)s3)ccc2C(=O)NCCCNC(=O)c2ccc(-c3c4nc(c(-c5ccccc5)c5ccc([nH]5)c(-c5ccccc5)c5nc(c(-c6ccccc6)c6ccc3[nH]6)C=C5)C=C4)cc2)C1
REMARK SMILES IDX 25 1 24 2 22 3 23 4 21 6 10 7 11 8 12 9 20 10 19 11 9 12
REMARK SMILES IDX 3 13 6 14 79 15 7 16 8 17 2 18 1 19 4 20 5 21 13 23 14 24
REMARK SMILES IDX 18 25 15 26 16 27 17 28 26 29 27 30 28 31 29 32 30 34 31 35
REMARK SMILES IDX 32 36 78 37 33 38 77 39 34 40 35 41 36 42 71 43 37 44 76 45
REMARK SMILES IDX 70 46 72 47 38 48 75 49 69 50 68 51 39 53 61 54 46 55 60 56
REMARK SMILES IDX 47 57 50 58 59 59 73 60 48 61 49 62 58 64 74 65 51 66 40 67
REMARK SMILES IDX 41 68 45 69 42 70 44 71 43 72 62 73 63 74 67 75 64 76 66 77
REMARK SMILES IDX 65 78 52 79 53 80 57 81 54 82 56 83 55 84
REMARK H PARENT 24 5 5 22 28 33 72 52 50 63
REMARK Flexibility Score: inf
ROOT
ATOM      1  C   UNL A   1      34.961  32.896  31.183  1.00  0.00     0.118 C 
ENDROOT
BRANCH   1   2
ATOM      2  N   UNL A   1      35.442  33.874  32.138  1.00  0.00    -0.352 N 
ATOM      3  C   UNL A   1      36.636  34.494  32.413  1.00  0.00     0.255 C 
ATOM      4  O   UNL A   1      36.542  35.278  33.353  1.00  0.00    -0.269 OA
ATOM      5  H   UNL A   1      34.729  34.169  32.749  1.00  0.00     0.163 HD
BRANCH   3   6
ATOM      6  C   UNL A   1      37.911  34.307  31.632  1.00  0.00     0.082 A 
ATOM      7  C   UNL A   1      39.192  34.324  32.233  1.00  0.00     0.142 A 
ATOM      8  N   UNL A   1      40.324  34.451  31.473  1.00  0.00    -0.229 NA
ATOM      9  C   UNL A   1      40.224  34.483  30.128  1.00  0.00     0.083 A 
ATOM     10  C   UNL A   1      37.872  34.207  30.236  1.00  0.00     0.020 A 
ATOM     11  C   UNL A   1      39.025  34.322  29.470  1.00  0.00     0.031 A 
BRANCH   7  12
ATOM     12  N   UNL A   1      39.492  34.185  33.569  1.00  0.00    -0.355 N 
ATOM     13  C   UNL A   1      39.042  32.692  35.521  1.00  0.00     0.011 C 
ATOM     14  C   UNL A   1      39.568  33.855  36.405  1.00  0.00     0.013 C 
ATOM     15  C   UNL A   1      39.606  32.825  34.080  1.00  0.00     0.127 C 
ATOM     16  C   UNL A   1      39.443  35.242  35.773  1.00  0.00     0.022 C 
ATOM     17  C   UNL A   1      40.058  35.256  34.381  1.00  0.00     0.118 C 
BRANCH  13  18
ATOM     18  C   UNL A   1      39.509  31.295  36.060  1.00  0.00     0.008 C 
ATOM     19  C   UNL A   1      39.756  30.211  35.019  1.00  0.00     0.004 C 
ENDBRANCH  13  18
BRANCH  13  20
ATOM     20  C   UNL A   1      37.487  32.681  35.482  1.00  0.00     0.164 C 
BRANCH  20  21
ATOM     21  O   UNL A   1      36.934  31.958  34.394  1.00  0.00    -0.396 OA
ATOM     22  H   UNL A   1      35.984  31.827  34.542  1.00  0.00     0.210 HD
ENDBRANCH  20  21
ENDBRANCH  13  20
ENDBRANCH   7  12
BRANCH   9  23
ATOM     23  C   UNL A   1      41.448  34.738  29.377  1.00  0.00     0.053 A 
ATOM     24  C   UNL A   1      42.652  34.061  29.445  1.00  0.00     0.022 A 
ATOM     25  S   UNL A   1      41.539  36.072  28.312  1.00  0.00    -0.139 S 
ATOM     26  C   UNL A   1      43.663  34.672  28.648  1.00  0.00     0.016 A 
ATOM     27  C   UNL A   1      43.200  35.796  27.997  1.00  0.00     0.002 A 
ATOM     28  C   UNL A   1      43.952  36.730  27.113  1.00  0.00     0.056 C 
ENDBRANCH   9  23
ENDBRANCH   3   6
ENDBRANCH   1   2
BRANCH   1  29
ATOM     29  C   UNL A   1      34.374  33.581  29.949  1.00  0.00     0.042 C 
BRANCH  29  30
ATOM     30  C   UNL A   1      34.985  33.093  28.636  1.00  0.00     0.118 C 
BRANCH  30  31
ATOM     31  N   UNL A   1      34.222  32.000  28.052  1.00  0.00    -0.352 N 
ATOM     32  C   UNL A   1      34.619  30.737  27.693  1.00  0.00     0.251 C 
ATOM     33  H   UNL A   1      33.272  32.198  27.889  1.00  0.00     0.163 HD
ATOM     34  O   UNL A   1      33.892  30.053  26.980  1.00  0.00    -0.269 OA
BRANCH  32  35
ATOM     35  C   UNL A   1      35.914  30.193  28.156  1.00  0.00     0.039 A 
ATOM     36  C   UNL A   1      37.008  30.226  27.287  1.00  0.00     0.014 A 
ATOM     37  C   UNL A   1      36.037  29.595  29.413  1.00  0.00     0.014 A 
ATOM     38  C   UNL A   1      38.237  29.703  27.695  1.00  0.00     0.010 A 
ATOM     39  C   UNL A   1      37.278  29.135  29.845  1.00  0.00     0.010 A 
ATOM     40  C   UNL A   1      38.387  29.174  28.987  1.00  0.00    -0.014 A 
BRANCH  40  41
ATOM     41  C   UNL A   1      39.694  28.651  29.455  1.00  0.00     0.031 A 
ATOM     42  C   UNL A   1      40.540  29.460  30.400  1.00  0.00     0.074 A 
ATOM     43  C   UNL A   1      40.149  27.476  28.980  1.00  0.00     0.049 A 
ATOM     44  N   UNL A   1      41.735  29.200  30.868  1.00  0.00    -0.248 NA
ATOM     45  C   UNL A   1      39.978  30.740  30.862  1.00  0.00     0.031 C 
ATOM     46  C   UNL A   1      39.440  26.614  28.032  1.00  0.00     0.029 A 
ATOM     47  N   UNL A   1      41.321  26.807  29.226  1.00  0.00    -0.354 N 
ATOM     48  C   UNL A   1      42.075  30.291  31.658  1.00  0.00     0.074 A 
ATOM     49  C   UNL A   1      40.981  31.234  31.574  1.00  0.00     0.031 C 
ATOM     50  C   UNL A   1      40.181  25.520  27.795  1.00  0.00     0.029 A 
ATOM     51  C   UNL A   1      41.430  25.621  28.542  1.00  0.00     0.049 A 
ATOM     52  H   UNL A   1      42.017  27.145  29.834  1.00  0.00     0.167 HD
ATOM     53  C   UNL A   1      43.191  30.484  32.402  1.00  0.00     0.031 A 
ATOM     54  C   UNL A   1      42.428  24.717  28.515  1.00  0.00     0.031 A 
ATOM     55  C   UNL A   1      44.273  29.541  32.498  1.00  0.00     0.049 A 
ATOM     56  C   UNL A   1      43.658  24.956  29.345  1.00  0.00     0.074 A 
ATOM     57  C   UNL A   1      45.422  29.619  33.266  1.00  0.00     0.029 A 
ATOM     58  N   UNL A   1      44.339  28.346  31.798  1.00  0.00    -0.354 N 
ATOM     59  N   UNL A   1      43.937  25.965  30.136  1.00  0.00    -0.248 NA
ATOM     60  C   UNL A   1      44.703  23.926  29.288  1.00  0.00     0.031 C 
ATOM     61  C   UNL A   1      46.204  28.490  32.998  1.00  0.00     0.029 A 
ATOM     62  C   UNL A   1      45.518  27.686  32.102  1.00  0.00     0.049 A 
ATOM     63  H   UNL A   1      43.651  28.015  31.177  1.00  0.00     0.167 HD
ATOM     64  C   UNL A   1      45.178  25.678  30.689  1.00  0.00     0.074 A 
ATOM     65  C   UNL A   1      45.588  24.395  30.156  1.00  0.00     0.031 C 
ATOM     66  C   UNL A   1      45.911  26.411  31.561  1.00  0.00     0.031 A 
BRANCH  53  67
ATOM     67  C   UNL A   1      43.297  31.774  33.168  1.00  0.00    -0.014 A 
ATOM     68  C   UNL A   1      43.667  32.969  32.531  1.00  0.00     0.009 A 
ATOM     69  C   UNL A   1      42.992  31.801  34.537  1.00  0.00     0.009 A 
ATOM     70  C   UNL A   1      43.769  34.157  33.258  1.00  0.00     0.001 A 
ATOM     71  C   UNL A   1      43.067  32.996  35.257  1.00  0.00     0.001 A 
ATOM     72  C   UNL A   1      43.464  34.170  34.619  1.00  0.00     0.000 A 
ENDBRANCH  53  67
BRANCH  54  73
ATOM     73  C   UNL A   1      42.297  23.491  27.687  1.00  0.00    -0.014 A 
ATOM     74  C   UNL A   1      41.677  22.346  28.209  1.00  0.00     0.009 A 
ATOM     75  C   UNL A   1      42.790  23.458  26.374  1.00  0.00     0.009 A 
ATOM     76  C   UNL A   1      41.577  21.184  27.440  1.00  0.00     0.001 A 
ATOM     77  C   UNL A   1      42.663  22.304  25.598  1.00  0.00     0.001 A 
ATOM     78  C   UNL A   1      42.065  21.165  26.135  1.00  0.00     0.000 A 
ENDBRANCH  54  73
BRANCH  66  79
ATOM     79  C   UNL A   1      47.216  25.824  32.019  1.00  0.00    -0.014 A 
ATOM     80  C   UNL A   1      48.384  25.960  31.254  1.00  0.00     0.009 A 
ATOM     81  C   UNL A   1      47.282  25.157  33.252  1.00  0.00     0.009 A 
ATOM     82  C   UNL A   1      49.587  25.408  31.700  1.00  0.00     0.001 A 
ATOM     83  C   UNL A   1      48.491  24.631  33.708  1.00  0.00     0.001 A 
ATOM     84  C   UNL A   1      49.640  24.748  32.927  1.00  0.00     0.000 A 
ENDBRANCH  66  79
ENDBRANCH  40  41
ENDBRANCH  32  35
ENDBRANCH  30  31
ENDBRANCH  29  30
ENDBRANCH   1  29
TORSDOF 15
ENDMDL
MODEL 3
REMARK VINA RESULT:     -10.8      5.141     11.177
REMARK SMILES CC[C@@]1(CO)CCCN(c2nc(-c3ccc(C)s3)ccc2C(=O)NCCCNC(=O)c2ccc(-c3c4nc(c(-c5ccccc5)c5ccc([nH]5)c(-c5ccccc5)c5nc(c(-c6ccccc6)c6ccc3[nH]6)C=C5)C=C4)cc2)C1
REMARK SMILES IDX 25 1 24 2 22 3 23 4 21 6 10 7 11 8 12 9 20 10 19 11 9 12
REMARK SMILES IDX 3 13 6 14 79 15 7 16 8 17 2 18 1 19 4 20 5 21 13 23 14 24
REMARK SMILES IDX 18 25 15 26 16 27 17 28 26 29 27 30 28 31 29 32 30 34 31 35
REMARK SMILES IDX 32 36 78 37 33 38 77 39 34 40 35 41 36 42 71 43 37 44 76 45
REMARK SMILES IDX 70 46 72 47 38 48 75 49 69 50 68 51 39 53 61 54 46 55 60 56
REMARK SMILES IDX 47 57 50 58 59 59 73 60 48 61 49 62 58 64 74 65 51 66 40 67
REMARK SMILES IDX 41 68 45 69 42 70 44 71 43 72 62 73 63 74 67 75 64 76 66 77
REMARK SMILES IDX 65 78 52 79 53 80 57 81 54 82 56 83 55 84
REMARK H PARENT 24 5 5 22 28 33 72 52 50 63
REMARK Flexibility Score: inf
ROOT
ATOM      1  C   UNL A   1      35.394  32.485  31.527  1.00  0.00     0.118 C 
ENDROOT
BRANCH   1   2
ATOM      2  N   UNL A   1      35.822  33.564  32.396  1.00  0.00    -0.352 N 
ATOM      3  C   UNL A   1      36.947  34.338  32.542  1.00  0.00     0.255 C 
ATOM      4  O   UNL A   1      36.829  35.153  33.453  1.00  0.00    -0.269 OA
ATOM      5  H   UNL A   1      35.128  33.802  33.052  1.00  0.00     0.163 HD
BRANCH   3   6
ATOM      6  C   UNL A   1      38.170  34.266  31.666  1.00  0.00     0.082 A 
ATOM      7  C   UNL A   1      39.488  34.257  32.180  1.00  0.00     0.142 A 
ATOM      8  N   UNL A   1      40.564  34.493  31.366  1.00  0.00    -0.229 NA
ATOM      9  C   UNL A   1      40.372  34.659  30.042  1.00  0.00     0.083 A 
ATOM     10  C   UNL A   1      38.040  34.309  30.272  1.00  0.00     0.020 A 
ATOM     11  C   UNL A   1      39.136  34.533  29.449  1.00  0.00     0.031 A 
BRANCH   7  12
ATOM     12  N   UNL A   1      39.879  33.992  33.473  1.00  0.00    -0.355 N 
ATOM     13  C   UNL A   1      39.489  32.367  35.331  1.00  0.00     0.011 C 
ATOM     14  C   UNL A   1      40.151  33.422  36.259  1.00  0.00     0.013 C 
ATOM     15  C   UNL A   1      39.949  32.589  33.864  1.00  0.00     0.127 C 
ATOM     16  C   UNL A   1      40.063  34.862  35.751  1.00  0.00     0.022 C 
ATOM     17  C   UNL A   1      40.570  34.958  34.319  1.00  0.00     0.118 C 
BRANCH  13  18
ATOM     18  C   UNL A   1      39.909  30.906  35.718  1.00  0.00     0.008 C 
ATOM     19  C   UNL A   1      40.306  29.984  34.573  1.00  0.00     0.004 C 
ENDBRANCH  13  18
BRANCH  13  20
ATOM     20  C   UNL A   1      37.938  32.445  35.417  1.00  0.00     0.164 C 
BRANCH  20  21
ATOM     21  O   UNL A   1      37.258  31.587  34.514  1.00  0.00    -0.396 OA
ATOM     22  H   UNL A   1      37.849  30.866  34.245  1.00  0.00     0.210 HD
ENDBRANCH  20  21
ENDBRANCH  13  20
ENDBRANCH   7  12
BRANCH   9  23
ATOM     23  C   UNL A   1      41.538  35.023  29.244  1.00  0.00     0.053 A 
ATOM     24  C   UNL A   1      41.679  36.080  28.364  1.00  0.00     0.022 A 
ATOM     25  S   UNL A   1      42.931  34.032  29.259  1.00  0.00    -0.139 S 
ATOM     26  C   UNL A   1      42.924  36.047  27.672  1.00  0.00     0.016 A 
ATOM     27  C   UNL A   1      43.694  34.966  28.043  1.00  0.00     0.002 A 
ATOM     28  C   UNL A   1      45.029  34.556  27.523  1.00  0.00     0.056 C 
ENDBRANCH   9  23
ENDBRANCH   3   6
ENDBRANCH   1   2
BRANCH   1  29
ATOM     29  C   UNL A   1      34.388  32.986  30.491  1.00  0.00     0.042 C 
BRANCH  29  30
ATOM     30  C   UNL A   1      34.839  32.759  29.048  1.00  0.00     0.118 C 
BRANCH  30  31
ATOM     31  N   UNL A   1      34.153  31.631  28.434  1.00  0.00    -0.352 N 
ATOM     32  C   UNL A   1      34.653  30.445  27.960  1.00  0.00     0.251 C 
ATOM     33  H   UNL A   1      33.179  31.736  28.344  1.00  0.00     0.163 HD
ATOM     34  O   UNL A   1      33.953  29.735  27.245  1.00  0.00    -0.269 OA
BRANCH  32  35
ATOM     35  C   UNL A   1      36.025  30.013  28.301  1.00  0.00     0.039 A 
ATOM     36  C   UNL A   1      36.263  29.460  29.562  1.00  0.00     0.014 A 
ATOM     37  C   UNL A   1      37.086  30.209  27.412  1.00  0.00     0.014 A 
ATOM     38  C   UNL A   1      37.554  29.060  29.914  1.00  0.00     0.010 A 
ATOM     39  C   UNL A   1      38.359  29.749  27.737  1.00  0.00     0.010 A 
ATOM     40  C   UNL A   1      38.608  29.180  28.995  1.00  0.00    -0.014 A 
BRANCH  40  41
ATOM     41  C   UNL A   1      39.979  28.723  29.333  1.00  0.00     0.031 A 
ATOM     42  C   UNL A   1      40.464  27.376  28.874  1.00  0.00     0.074 A 
ATOM     43  C   UNL A   1      40.764  29.495  30.108  1.00  0.00     0.049 A 
ATOM     44  N   UNL A   1      41.601  26.777  29.124  1.00  0.00    -0.248 NA
ATOM     45  C   UNL A   1      39.539  26.586  28.042  1.00  0.00     0.031 C 
ATOM     46  C   UNL A   1      40.397  30.806  30.647  1.00  0.00     0.029 A 
ATOM     47  N   UNL A   1      42.034  29.283  30.583  1.00  0.00    -0.354 N 
ATOM     48  C   UNL A   1      41.520  25.538  28.502  1.00  0.00     0.074 A 
ATOM     49  C   UNL A   1      40.207  25.451  27.899  1.00  0.00     0.031 C 
ATOM     50  C   UNL A   1      41.427  31.292  31.358  1.00  0.00     0.029 A 
ATOM     51  C   UNL A   1      42.509  30.313  31.357  1.00  0.00     0.049 A 
ATOM     52  H   UNL A   1      42.555  28.472  30.387  1.00  0.00     0.167 HD
ATOM     53  C   UNL A   1      42.460  24.564  28.424  1.00  0.00     0.031 A 
ATOM     54  C   UNL A   1      43.684  30.451  32.001  1.00  0.00     0.031 A 
ATOM     55  C   UNL A   1      43.769  24.656  29.012  1.00  0.00     0.049 A 
ATOM     56  C   UNL A   1      44.708  29.356  31.903  1.00  0.00     0.074 A 
ATOM     57  C   UNL A   1      44.812  23.748  28.944  1.00  0.00     0.029 A 
ATOM     58  N   UNL A   1      44.215  25.721  29.779  1.00  0.00    -0.354 N 
ATOM     59  N   UNL A   1      44.638  28.216  31.260  1.00  0.00    -0.248 NA
ATOM     60  C   UNL A   1      45.976  29.574  32.612  1.00  0.00     0.031 C 
ATOM     61  C   UNL A   1      45.874  24.245  29.706  1.00  0.00     0.029 A 
ATOM     62  C   UNL A   1      45.511  25.485  30.206  1.00  0.00     0.049 A 
ATOM     63  H   UNL A   1      43.689  26.526  29.989  1.00  0.00     0.167 HD
ATOM     64  C   UNL A   1      45.862  27.592  31.464  1.00  0.00     0.074 A 
ATOM     65  C   UNL A   1      46.659  28.488  32.277  1.00  0.00     0.031 C 
ATOM     66  C   UNL A   1      46.288  26.386  31.017  1.00  0.00     0.031 A 
BRANCH  53  67
ATOM     67  C   UNL A   1      42.096  23.310  27.679  1.00  0.00    -0.014 A 
ATOM     68  C   UNL A   1      41.366  22.283  28.297  1.00  0.00     0.009 A 
ATOM     69  C   UNL A   1      42.460  23.167  26.331  1.00  0.00     0.009 A 
ATOM     70  C   UNL A   1      41.043  21.121  27.593  1.00  0.00     0.001 A 
ATOM     71  C   UNL A   1      42.112  22.016  25.621  1.00  0.00     0.001 A 
ATOM     72  C   UNL A   1      41.412  20.991  26.255  1.00  0.00     0.000 A 
ENDBRANCH  53  67
BRANCH  54  73
ATOM     73  C   UNL A   1      43.963  31.686  32.779  1.00  0.00    -0.014 A 
ATOM     74  C   UNL A   1      44.683  32.741  32.199  1.00  0.00     0.009 A 
ATOM     75  C   UNL A   1      43.514  31.815  34.102  1.00  0.00     0.009 A 
ATOM     76  C   UNL A   1      44.968  33.892  32.938  1.00  0.00     0.001 A 
ATOM     77  C   UNL A   1      43.778  32.978  34.829  1.00  0.00     0.001 A 
ATOM     78  C   UNL A   1      44.512  34.011  34.250  1.00  0.00     0.000 A 
ENDBRANCH  54  73
BRANCH  66  79
ATOM     79  C   UNL A   1      47.691  25.983  31.370  1.00  0.00    -0.014 A 
ATOM     80  C   UNL A   1      47.994  25.416  32.618  1.00  0.00     0.009 A 
ATOM     81  C   UNL A   1      48.717  26.141  30.426  1.00  0.00     0.009 A 
ATOM     82  C   UNL A   1      49.305  25.047  32.925  1.00  0.00     0.001 A 
ATOM     83  C   UNL A   1      50.021  25.745  30.725  1.00  0.00     0.001 A 
ATOM     84  C   UNL A   1      50.315  25.208  31.977  1.00  0.00     0.000 A 
ENDBRANCH  66  79
ENDBRANCH  40  41
ENDBRANCH  32  35
ENDBRANCH  30  31
ENDBRANCH  29  30
ENDBRANCH   1  29
TORSDOF 15
ENDMDL
