MODEL 1
REMARK VINA RESULT:      -9.3      0.000      0.000
REMARK SMILES C[C@H](C(=O)NCCCNC(=O)c1ccc(-c2c3nc(c(-c4ccccc4)c4ccc([nH]4)c(-c4ccccc4)c4nc(c(-c5ccccc5)c5ccc2[nH]5)C=C4)C=C3)cc1)N1CCc2ccccc21
REMARK SMILES IDX 7 1 6 2 5 3 3 4 4 5 2 7 1 8 60 9 61 10 68 11 62 12 63 13
REMARK SMILES IDX 67 14 64 15 66 16 65 17 8 18 9 19 10 20 11 22 12 23 13 24
REMARK SMILES IDX 59 25 14 26 58 27 15 28 16 29 17 30 52 31 18 32 57 33 51 34
REMARK SMILES IDX 53 35 19 36 56 37 50 38 49 39 20 41 42 42 27 43 41 44 28 45
REMARK SMILES IDX 31 46 40 47 54 48 29 49 30 50 39 52 55 53 32 54 21 55 22 56
REMARK SMILES IDX 26 57 23 58 25 59 24 60 43 61 44 62 48 63 45 64 47 65 46 66
REMARK SMILES IDX 33 67 34 68 38 69 35 70 37 71 36 72
REMARK H PARENT 5 6 9 21 53 40 31 51
REMARK Flexibility Score: inf
ROOT
ATOM      1  C   UNL A   1      44.882  20.418  24.591  1.00  0.00     0.042 C 
ENDROOT
BRANCH   1   2
ATOM      2  C   UNL A   1      45.512  21.682  25.181  1.00  0.00     0.117 C 
BRANCH   2   3
ATOM      3  N   UNL A   1      46.319  22.442  24.245  1.00  0.00    -0.354 N 
ATOM      4  C   UNL A   1      46.774  23.728  24.292  1.00  0.00     0.242 C 
ATOM      5  O   UNL A   1      47.437  24.104  23.318  1.00  0.00    -0.273 OA
ATOM      6  H   UNL A   1      46.584  21.945  23.438  1.00  0.00     0.163 HD
BRANCH   4   7
ATOM      7  C   UNL A   1      46.566  24.628  25.532  1.00  0.00     0.168 C 
ATOM      8  C   UNL A   1      47.888  25.272  25.968  1.00  0.00     0.042 C 
BRANCH   7   9
ATOM      9  N   UNL A   1      45.536  25.660  25.369  1.00  0.00    -0.359 N 
ATOM     10  C   UNL A   1      44.148  25.276  25.085  1.00  0.00     0.122 C 
ATOM     11  C   UNL A   1      45.491  26.889  26.009  1.00  0.00     0.041 A 
ATOM     12  C   UNL A   1      43.274  26.531  25.256  1.00  0.00     0.059 C 
ATOM     13  C   UNL A   1      44.207  27.445  25.978  1.00  0.00    -0.023 A 
ATOM     14  C   UNL A   1      46.528  27.606  26.582  1.00  0.00     0.026 A 
ATOM     15  C   UNL A   1      43.927  28.692  26.514  1.00  0.00     0.006 A 
ATOM     16  C   UNL A   1      46.266  28.870  27.124  1.00  0.00     0.002 A 
ATOM     17  C   UNL A   1      44.973  29.407  27.094  1.00  0.00     0.000 A 
ENDBRANCH   7   9
ENDBRANCH   4   7
ENDBRANCH   2   3
ENDBRANCH   1   2
BRANCH   1  18
ATOM     18  C   UNL A   1      44.411  19.374  25.602  1.00  0.00     0.118 C 
BRANCH  18  19
ATOM     19  N   UNL A   1      43.036  18.971  25.361  1.00  0.00    -0.352 N 
ATOM     20  C   UNL A   1      41.880  19.510  25.867  1.00  0.00     0.251 C 
ATOM     21  H   UNL A   1      42.917  18.208  24.752  1.00  0.00     0.163 HD
ATOM     22  O   UNL A   1      40.826  18.884  25.751  1.00  0.00    -0.269 OA
BRANCH  20  23
ATOM     23  C   UNL A   1      41.866  20.833  26.540  1.00  0.00     0.039 A 
ATOM     24  C   UNL A   1      41.864  21.985  25.741  1.00  0.00     0.014 A 
ATOM     25  C   UNL A   1      41.989  20.958  27.928  1.00  0.00     0.014 A 
ATOM     26  C   UNL A   1      42.002  23.249  26.324  1.00  0.00     0.010 A 
ATOM     27  C   UNL A   1      42.089  22.226  28.513  1.00  0.00     0.010 A 
ATOM     28  C   UNL A   1      42.132  23.380  27.715  1.00  0.00    -0.014 A 
BRANCH  28  29
ATOM     29  C   UNL A   1      42.408  24.709  28.323  1.00  0.00     0.031 A 
ATOM     30  C   UNL A   1      43.794  25.042  28.812  1.00  0.00     0.074 A 
ATOM     31  C   UNL A   1      41.427  25.624  28.439  1.00  0.00     0.049 A 
ATOM     32  N   UNL A   1      44.238  26.149  29.354  1.00  0.00    -0.248 NA
ATOM     33  C   UNL A   1      44.811  23.985  28.686  1.00  0.00     0.031 C 
ATOM     34  C   UNL A   1      40.038  25.437  28.019  1.00  0.00     0.029 A 
ATOM     35  N   UNL A   1      41.456  26.901  28.946  1.00  0.00    -0.354 N 
ATOM     36  C   UNL A   1      45.576  25.916  29.649  1.00  0.00     0.074 A 
ATOM     37  C   UNL A   1      45.863  24.552  29.258  1.00  0.00     0.031 C 
ATOM     38  C   UNL A   1      39.353  26.566  28.267  1.00  0.00     0.029 A 
ATOM     39  C   UNL A   1      40.246  27.547  28.879  1.00  0.00     0.049 A 
ATOM     40  H   UNL A   1      42.268  27.314  29.320  1.00  0.00     0.167 HD
ATOM     41  C   UNL A   1      46.491  26.760  30.184  1.00  0.00     0.031 A 
ATOM     42  C   UNL A   1      39.895  28.789  29.262  1.00  0.00     0.031 A 
ATOM     43  C   UNL A   1      46.225  28.122  30.560  1.00  0.00     0.049 A 
ATOM     44  C   UNL A   1      40.929  29.709  29.852  1.00  0.00     0.074 A 
ATOM     45  C   UNL A   1      47.103  29.067  31.065  1.00  0.00     0.029 A 
ATOM     46  N   UNL A   1      44.986  28.736  30.471  1.00  0.00    -0.354 N 
ATOM     47  N   UNL A   1      42.201  29.491  30.071  1.00  0.00    -0.248 NA
ATOM     48  C   UNL A   1      40.475  31.057  30.231  1.00  0.00     0.031 C 
ATOM     49  C   UNL A   1      46.387  30.242  31.316  1.00  0.00     0.029 A 
ATOM     50  C   UNL A   1      45.073  30.042  30.927  1.00  0.00     0.049 A 
ATOM     51  H   UNL A   1      44.166  28.308  30.135  1.00  0.00     0.167 HD
ATOM     52  C   UNL A   1      42.707  30.680  30.580  1.00  0.00     0.074 A 
ATOM     53  C   UNL A   1      41.606  31.619  30.632  1.00  0.00     0.031 C 
ATOM     54  C   UNL A   1      43.974  30.969  30.966  1.00  0.00     0.031 A 
BRANCH  41  55
ATOM     55  C   UNL A   1      47.877  26.222  30.406  1.00  0.00    -0.014 A 
ATOM     56  C   UNL A   1      48.837  26.242  29.382  1.00  0.00     0.009 A 
ATOM     57  C   UNL A   1      48.234  25.715  31.665  1.00  0.00     0.009 A 
ATOM     58  C   UNL A   1      50.117  25.730  29.605  1.00  0.00     0.001 A 
ATOM     59  C   UNL A   1      49.522  25.228  31.893  1.00  0.00     0.001 A 
ATOM     60  C   UNL A   1      50.459  25.226  30.860  1.00  0.00     0.000 A 
ENDBRANCH  41  55
BRANCH  42  61
ATOM     61  C   UNL A   1      38.499  29.257  29.070  1.00  0.00    -0.014 A 
ATOM     62  C   UNL A   1      37.589  29.232  30.138  1.00  0.00     0.009 A 
ATOM     63  C   UNL A   1      38.068  29.722  27.819  1.00  0.00     0.009 A 
ATOM     64  C   UNL A   1      36.268  29.639  29.950  1.00  0.00     0.001 A 
ATOM     65  C   UNL A   1      36.751  30.151  27.641  1.00  0.00     0.001 A 
ATOM     66  C   UNL A   1      35.850  30.102  28.703  1.00  0.00     0.000 A 
ENDBRANCH  42  61
BRANCH  54  67
ATOM     67  C   UNL A   1      44.249  32.370  31.433  1.00  0.00    -0.014 A 
ATOM     68  C   UNL A   1      44.195  32.708  32.795  1.00  0.00     0.009 A 
ATOM     69  C   UNL A   1      44.603  33.356  30.500  1.00  0.00     0.009 A 
ATOM     70  C   UNL A   1      44.459  34.015  33.207  1.00  0.00     0.001 A 
ATOM     71  C   UNL A   1      44.889  34.656  30.916  1.00  0.00     0.001 A 
ATOM     72  C   UNL A   1      44.809  34.987  32.269  1.00  0.00     0.000 A 
ENDBRANCH  54  67
ENDBRANCH  28  29
ENDBRANCH  20  23
ENDBRANCH  18  19
ENDBRANCH   1  18
TORSDOF 11
ENDMDL
MODEL 2
REMARK VINA RESULT:      -9.1      3.789      6.240
REMARK SMILES C[C@H](C(=O)NCCCNC(=O)c1ccc(-c2c3nc(c(-c4ccccc4)c4ccc([nH]4)c(-c4ccccc4)c4nc(c(-c5ccccc5)c5ccc2[nH]5)C=C4)C=C3)cc1)N1CCc2ccccc21
REMARK SMILES IDX 7 1 6 2 5 3 3 4 4 5 2 7 1 8 60 9 61 10 68 11 62 12 63 13
REMARK SMILES IDX 67 14 64 15 66 16 65 17 8 18 9 19 10 20 11 22 12 23 13 24
REMARK SMILES IDX 59 25 14 26 58 27 15 28 16 29 17 30 52 31 18 32 57 33 51 34
REMARK SMILES IDX 53 35 19 36 56 37 50 38 49 39 20 41 42 42 27 43 41 44 28 45
REMARK SMILES IDX 31 46 40 47 54 48 29 49 30 50 39 52 55 53 32 54 21 55 22 56
REMARK SMILES IDX 26 57 23 58 25 59 24 60 43 61 44 62 48 63 45 64 47 65 46 66
REMARK SMILES IDX 33 67 34 68 38 69 35 70 37 71 36 72
REMARK H PARENT 5 6 9 21 53 40 31 51
REMARK Flexibility Score: inf
ROOT
ATOM      1  C   UNL A   1      37.395  20.066  24.819  1.00  0.00     0.042 C 
ENDROOT
BRANCH   1   2
ATOM      2  C   UNL A   1      36.082  20.805  25.087  1.00  0.00     0.117 C 
BRANCH   2   3
ATOM      3  N   UNL A   1      34.907  19.956  25.095  1.00  0.00    -0.354 N 
ATOM      4  C   UNL A   1      33.631  20.185  24.666  1.00  0.00     0.242 C 
ATOM      5  O   UNL A   1      32.830  19.256  24.824  1.00  0.00    -0.273 OA
ATOM      6  H   UNL A   1      35.054  19.060  25.476  1.00  0.00     0.163 HD
BRANCH   4   7
ATOM      7  C   UNL A   1      33.234  21.485  23.929  1.00  0.00     0.168 C 
ATOM      8  C   UNL A   1      32.182  21.202  22.850  1.00  0.00     0.042 C 
BRANCH   7   9
ATOM      9  N   UNL A   1      32.772  22.566  24.807  1.00  0.00    -0.359 N 
ATOM     10  C   UNL A   1      32.453  22.285  26.212  1.00  0.00     0.122 C 
ATOM     11  C   UNL A   1      33.137  23.901  24.736  1.00  0.00     0.041 A 
ATOM     12  C   UNL A   1      32.285  23.637  26.929  1.00  0.00     0.059 C 
ATOM     13  C   UNL A   1      32.881  24.576  25.934  1.00  0.00    -0.023 A 
ATOM     14  C   UNL A   1      33.638  24.605  23.654  1.00  0.00     0.026 A 
ATOM     15  C   UNL A   1      33.121  25.933  26.086  1.00  0.00     0.006 A 
ATOM     16  C   UNL A   1      33.883  25.977  23.786  1.00  0.00     0.002 A 
ATOM     17  C   UNL A   1      33.629  26.635  24.996  1.00  0.00     0.000 A 
ENDBRANCH   7   9
ENDBRANCH   4   7
ENDBRANCH   2   3
ENDBRANCH   1   2
BRANCH   1  18
ATOM     18  C   UNL A   1      38.599  20.528  25.638  1.00  0.00     0.118 C 
BRANCH  18  19
ATOM     19  N   UNL A   1      39.622  19.500  25.719  1.00  0.00    -0.352 N 
ATOM     20  C   UNL A   1      40.961  19.638  25.984  1.00  0.00     0.251 C 
ATOM     21  H   UNL A   1      39.313  18.579  25.563  1.00  0.00     0.163 HD
ATOM     22  O   UNL A   1      41.717  18.689  25.764  1.00  0.00    -0.269 OA
BRANCH  20  23
ATOM     23  C   UNL A   1      41.522  20.895  26.537  1.00  0.00     0.039 A 
ATOM     24  C   UNL A   1      41.390  21.133  27.912  1.00  0.00     0.014 A 
ATOM     25  C   UNL A   1      42.050  21.895  25.714  1.00  0.00     0.014 A 
ATOM     26  C   UNL A   1      41.766  22.366  28.455  1.00  0.00     0.010 A 
ATOM     27  C   UNL A   1      42.462  23.116  26.264  1.00  0.00     0.010 A 
ATOM     28  C   UNL A   1      42.291  23.375  27.633  1.00  0.00    -0.014 A 
BRANCH  28  29
ATOM     29  C   UNL A   1      42.569  24.727  28.186  1.00  0.00     0.031 A 
ATOM     30  C   UNL A   1      43.973  25.106  28.580  1.00  0.00     0.074 A 
ATOM     31  C   UNL A   1      41.575  25.622  28.335  1.00  0.00     0.049 A 
ATOM     32  N   UNL A   1      44.421  26.239  29.063  1.00  0.00    -0.248 NA
ATOM     33  C   UNL A   1      45.006  24.070  28.424  1.00  0.00     0.031 C 
ATOM     34  C   UNL A   1      40.168  25.391  28.005  1.00  0.00     0.029 A 
ATOM     35  N   UNL A   1      41.602  26.914  28.802  1.00  0.00    -0.354 N 
ATOM     36  C   UNL A   1      45.780  26.047  29.283  1.00  0.00     0.074 A 
ATOM     37  C   UNL A   1      46.077  24.679  28.914  1.00  0.00     0.031 C 
ATOM     38  C   UNL A   1      39.470  26.510  28.261  1.00  0.00     0.029 A 
ATOM     39  C   UNL A   1      40.374  27.529  28.790  1.00  0.00     0.049 A 
ATOM     40  H   UNL A   1      42.424  27.357  29.115  1.00  0.00     0.167 HD
ATOM     41  C   UNL A   1      46.704  26.927  29.738  1.00  0.00     0.031 A 
ATOM     42  C   UNL A   1      40.016  28.774  29.159  1.00  0.00     0.031 A 
ATOM     43  C   UNL A   1      46.426  28.293  30.091  1.00  0.00     0.049 A 
ATOM     44  C   UNL A   1      41.059  29.735  29.659  1.00  0.00     0.074 A 
ATOM     45  C   UNL A   1      47.310  29.272  30.515  1.00  0.00     0.029 A 
ATOM     46  N   UNL A   1      45.170  28.875  30.059  1.00  0.00    -0.354 N 
ATOM     47  N   UNL A   1      42.348  29.553  29.807  1.00  0.00    -0.248 NA
ATOM     48  C   UNL A   1      40.595  31.083  30.026  1.00  0.00     0.031 C 
ATOM     49  C   UNL A   1      46.580  30.437  30.775  1.00  0.00     0.029 A 
ATOM     50  C   UNL A   1      45.251  30.196  30.472  1.00  0.00     0.049 A 
ATOM     51  H   UNL A   1      44.342  28.418  29.786  1.00  0.00     0.167 HD
ATOM     52  C   UNL A   1      42.854  30.768  30.251  1.00  0.00     0.074 A 
ATOM     53  C   UNL A   1      41.734  31.683  30.342  1.00  0.00     0.031 C 
ATOM     54  C   UNL A   1      44.133  31.098  30.551  1.00  0.00     0.031 A 
BRANCH  41  55
ATOM     55  C   UNL A   1      48.113  26.428  29.891  1.00  0.00    -0.014 A 
ATOM     56  C   UNL A   1      49.044  26.547  28.847  1.00  0.00     0.009 A 
ATOM     57  C   UNL A   1      48.522  25.858  31.106  1.00  0.00     0.009 A 
ATOM     58  C   UNL A   1      50.347  26.070  29.006  1.00  0.00     0.001 A 
ATOM     59  C   UNL A   1      49.832  25.405  31.271  1.00  0.00     0.001 A 
ATOM     60  C   UNL A   1      50.741  25.503  30.217  1.00  0.00     0.000 A 
ENDBRANCH  41  55
BRANCH  42  61
ATOM     61  C   UNL A   1      38.600  29.204  29.038  1.00  0.00    -0.014 A 
ATOM     62  C   UNL A   1      38.108  29.690  27.818  1.00  0.00     0.009 A 
ATOM     63  C   UNL A   1      37.737  29.139  30.143  1.00  0.00     0.009 A 
ATOM     64  C   UNL A   1      36.786  30.127  27.712  1.00  0.00     0.001 A 
ATOM     65  C   UNL A   1      36.409  29.554  30.027  1.00  0.00     0.001 A 
ATOM     66  C   UNL A   1      35.936  30.055  28.815  1.00  0.00     0.000 A 
ENDBRANCH  42  61
BRANCH  54  67
ATOM     67  C   UNL A   1      44.401  32.518  30.961  1.00  0.00    -0.014 A 
ATOM     68  C   UNL A   1      44.380  32.903  32.311  1.00  0.00     0.009 A 
ATOM     69  C   UNL A   1      44.714  33.475  29.984  1.00  0.00     0.009 A 
ATOM     70  C   UNL A   1      44.637  34.228  32.669  1.00  0.00     0.001 A 
ATOM     71  C   UNL A   1      44.992  34.793  30.346  1.00  0.00     0.001 A 
ATOM     72  C   UNL A   1      44.945  35.170  31.688  1.00  0.00     0.000 A 
ENDBRANCH  54  67
ENDBRANCH  28  29
ENDBRANCH  20  23
ENDBRANCH  18  19
ENDBRANCH   1  18
TORSDOF 11
ENDMDL
MODEL 3
REMARK VINA RESULT:      -9.1      4.163      6.697
REMARK SMILES C[C@H](C(=O)NCCCNC(=O)c1ccc(-c2c3nc(c(-c4ccccc4)c4ccc([nH]4)c(-c4ccccc4)c4nc(c(-c5ccccc5)c5ccc2[nH]5)C=C4)C=C3)cc1)N1CCc2ccccc21
REMARK SMILES IDX 7 1 6 2 5 3 3 4 4 5 2 7 1 8 60 9 61 10 68 11 62 12 63 13
REMARK SMILES IDX 67 14 64 15 66 16 65 17 8 18 9 19 10 20 11 22 12 23 13 24
REMARK SMILES IDX 59 25 14 26 58 27 15 28 16 29 17 30 52 31 18 32 57 33 51 34
REMARK SMILES IDX 53 35 19 36 56 37 50 38 49 39 20 41 42 42 27 43 41 44 28 45
REMARK SMILES IDX 31 46 40 47 54 48 29 49 30 50 39 52 55 53 32 54 21 55 22 56
REMARK SMILES IDX 26 57 23 58 25 59 24 60 43 61 44 62 48 63 45 64 47 65 46 66
REMARK SMILES IDX 33 67 34 68 38 69 35 70 37 71 36 72
REMARK H PARENT 5 6 9 21 53 40 31 51
REMARK Flexibility Score: inf
ROOT
ATOM      1  C   UNL A   1      38.047  19.862  24.711  1.00  0.00     0.042 C 
ENDROOT
BRANCH   1   2
ATOM      2  C   UNL A   1      36.606  20.289  25.001  1.00  0.00     0.117 C 
BRANCH   2   3
ATOM      3  N   UNL A   1      36.475  21.629  25.541  1.00  0.00    -0.354 N 
ATOM      4  C   UNL A   1      35.423  22.253  26.148  1.00  0.00     0.242 C 
ATOM      5  O   UNL A   1      35.612  23.426  26.491  1.00  0.00    -0.273 OA
ATOM      6  H   UNL A   1      37.283  22.185  25.454  1.00  0.00     0.163 HD
BRANCH   4   7
ATOM      7  C   UNL A   1      34.110  21.508  26.484  1.00  0.00     0.168 C 
ATOM      8  C   UNL A   1      33.363  22.207  27.627  1.00  0.00     0.042 C 
BRANCH   7   9
ATOM      9  N   UNL A   1      33.210  21.315  25.342  1.00  0.00    -0.359 N 
ATOM     10  C   UNL A   1      32.928  22.432  24.431  1.00  0.00     0.122 C 
ATOM     11  C   UNL A   1      33.038  20.149  24.614  1.00  0.00     0.041 A 
ATOM     12  C   UNL A   1      32.205  21.857  23.201  1.00  0.00     0.059 C 
ATOM     13  C   UNL A   1      32.461  20.396  23.363  1.00  0.00    -0.023 A 
ATOM     14  C   UNL A   1      33.303  18.844  24.993  1.00  0.00     0.026 A 
ATOM     15  C   UNL A   1      32.150  19.376  22.476  1.00  0.00     0.006 A 
ATOM     16  C   UNL A   1      32.992  17.800  24.114  1.00  0.00     0.002 A 
ATOM     17  C   UNL A   1      32.422  18.065  22.862  1.00  0.00     0.000 A 
ENDBRANCH   7   9
ENDBRANCH   4   7
ENDBRANCH   2   3
ENDBRANCH   1   2
BRANCH   1  18
ATOM     18  C   UNL A   1      39.084  20.262  25.759  1.00  0.00     0.118 C 
BRANCH  18  19
ATOM     19  N   UNL A   1      40.120  19.255  25.903  1.00  0.00    -0.352 N 
ATOM     20  C   UNL A   1      41.463  19.427  26.125  1.00  0.00     0.251 C 
ATOM     21  H   UNL A   1      39.819  18.321  25.833  1.00  0.00     0.163 HD
ATOM     22  O   UNL A   1      42.225  18.471  25.970  1.00  0.00    -0.269 OA
BRANCH  20  23
ATOM     23  C   UNL A   1      42.021  20.733  26.559  1.00  0.00     0.039 A 
ATOM     24  C   UNL A   1      42.019  21.035  27.927  1.00  0.00     0.014 A 
ATOM     25  C   UNL A   1      42.418  21.710  25.638  1.00  0.00     0.014 A 
ATOM     26  C   UNL A   1      42.394  22.308  28.370  1.00  0.00     0.010 A 
ATOM     27  C   UNL A   1      42.828  22.972  26.086  1.00  0.00     0.010 A 
ATOM     28  C   UNL A   1      42.786  23.294  27.452  1.00  0.00    -0.014 A 
BRANCH  28  29
ATOM     29  C   UNL A   1      43.059  24.682  27.908  1.00  0.00     0.031 A 
ATOM     30  C   UNL A   1      44.480  25.149  28.097  1.00  0.00     0.074 A 
ATOM     31  C   UNL A   1      42.045  25.532  28.154  1.00  0.00     0.049 A 
ATOM     32  N   UNL A   1      44.923  26.323  28.471  1.00  0.00    -0.248 NA
ATOM     33  C   UNL A   1      45.540  24.159  27.845  1.00  0.00     0.031 C 
ATOM     34  C   UNL A   1      40.623  25.216  28.024  1.00  0.00     0.029 A 
ATOM     35  N   UNL A   1      42.062  26.844  28.562  1.00  0.00    -0.354 N 
ATOM     36  C   UNL A   1      46.308  26.209  28.515  1.00  0.00     0.074 A 
ATOM     37  C   UNL A   1      46.630  24.842  28.164  1.00  0.00     0.031 C 
ATOM     38  C   UNL A   1      39.903  26.311  28.326  1.00  0.00     0.029 A 
ATOM     39  C   UNL A   1      40.810  27.396  28.690  1.00  0.00     0.049 A 
ATOM     40  H   UNL A   1      42.891  27.342  28.745  1.00  0.00     0.167 HD
ATOM     41  C   UNL A   1      47.233  27.155  28.808  1.00  0.00     0.031 A 
ATOM     42  C   UNL A   1      40.435  28.638  29.054  1.00  0.00     0.031 A 
ATOM     43  C   UNL A   1      46.929  28.520  29.140  1.00  0.00     0.049 A 
ATOM     44  C   UNL A   1      41.480  29.672  29.372  1.00  0.00     0.074 A 
ATOM     45  C   UNL A   1      47.805  29.561  29.404  1.00  0.00     0.029 A 
ATOM     46  N   UNL A   1      45.649  29.037  29.254  1.00  0.00    -0.354 N 
ATOM     47  N   UNL A   1      42.785  29.561  29.353  1.00  0.00    -0.248 NA
ATOM     48  C   UNL A   1      40.994  31.010  29.744  1.00  0.00     0.031 C 
ATOM     49  C   UNL A   1      47.052  30.699  29.713  1.00  0.00     0.029 A 
ATOM     50  C   UNL A   1      45.710  30.377  29.600  1.00  0.00     0.049 A 
ATOM     51  H   UNL A   1      44.819  28.527  29.112  1.00  0.00     0.167 HD
ATOM     52  C   UNL A   1      43.276  30.819  29.678  1.00  0.00     0.074 A 
ATOM     53  C   UNL A   1      42.130  31.680  29.881  1.00  0.00     0.031 C 
ATOM     54  C   UNL A   1      44.564  31.226  29.791  1.00  0.00     0.031 A 
BRANCH  41  55
ATOM     55  C   UNL A   1      48.676  26.735  28.791  1.00  0.00    -0.014 A 
ATOM     56  C   UNL A   1      49.297  26.218  29.939  1.00  0.00     0.009 A 
ATOM     57  C   UNL A   1      49.416  26.830  27.602  1.00  0.00     0.009 A 
ATOM     58  C   UNL A   1      50.640  25.840  29.905  1.00  0.00     0.001 A 
ATOM     59  C   UNL A   1      50.751  26.428  27.564  1.00  0.00     0.001 A 
ATOM     60  C   UNL A   1      51.366  25.942  28.718  1.00  0.00     0.000 A 
ENDBRANCH  41  55
BRANCH  42  61
ATOM     61  C   UNL A   1      38.994  28.990  29.106  1.00  0.00    -0.014 A 
ATOM     62  C   UNL A   1      38.320  29.397  27.944  1.00  0.00     0.009 A 
ATOM     63  C   UNL A   1      38.288  28.931  30.317  1.00  0.00     0.009 A 
ATOM     64  C   UNL A   1      36.974  29.761  27.999  1.00  0.00     0.001 A 
ATOM     65  C   UNL A   1      36.935  29.274  30.363  1.00  0.00     0.001 A 
ATOM     66  C   UNL A   1      36.281  29.696  29.207  1.00  0.00     0.000 A 
ENDBRANCH  42  61
BRANCH  54  67
ATOM     67  C   UNL A   1      44.804  32.674  30.106  1.00  0.00    -0.014 A 
ATOM     68  C   UNL A   1      44.943  33.120  31.430  1.00  0.00     0.009 A 
ATOM     69  C   UNL A   1      44.929  33.601  29.059  1.00  0.00     0.009 A 
ATOM     70  C   UNL A   1      45.170  34.471  31.699  1.00  0.00     0.001 A 
ATOM     71  C   UNL A   1      45.179  34.946  29.329  1.00  0.00     0.001 A 
ATOM     72  C   UNL A   1      45.291  35.382  30.649  1.00  0.00     0.000 A 
ENDBRANCH  54  67
ENDBRANCH  28  29
ENDBRANCH  20  23
ENDBRANCH  18  19
ENDBRANCH   1  18
TORSDOF 11
ENDMDL
