MODEL 1
REMARK VINA RESULT:     -12.2      0.000      0.000
REMARK SMILES CC(C)(CC(=O)NCCCNC(=O)c1ccc(-c2c3nc(c(-c4ccccc4)c4ccc([nH]4)c(-c4ccccc4)c4nc(c(-c5ccccc5)c5ccc2[nH]5)C=C4)C=C3)cc1)CC(=O)N1CCN(c2nc3ccc(Cl)cc3s2)CC1
REMARK SMILES IDX 8 1 7 2 5 3 6 4 4 6 2 7 1 8 3 9 62 10 63 11 64 12 65 13
REMARK SMILES IDX 66 14 80 15 67 16 79 17 68 18 69 19 70 20 78 21 71 22 77 23
REMARK SMILES IDX 72 24 76 25 73 26 74 27 75 28 9 29 10 30 11 31 12 32 13 34
REMARK SMILES IDX 14 35 15 36 61 37 16 38 60 39 17 40 18 41 19 42 54 43 20 44
REMARK SMILES IDX 59 45 53 46 55 47 21 48 58 49 52 50 51 51 22 53 44 54 29 55
REMARK SMILES IDX 43 56 30 57 33 58 42 59 56 60 31 61 32 62 41 64 57 65 34 66
REMARK SMILES IDX 23 67 24 68 28 69 25 70 27 71 26 72 45 73 46 74 50 75 47 76
REMARK SMILES IDX 49 77 48 78 35 79 36 80 40 81 37 82 39 83 38 84
REMARK H PARENT 7 5 11 33 55 52 33 63
REMARK Flexibility Score: inf
ROOT
ATOM      1  C   UNL A   1      36.198  19.889  24.966  1.00  0.00     0.117 C 
ENDROOT
BRANCH   1   2
ATOM      2  N   UNL A   1      35.193  18.859  24.800  1.00  0.00    -0.356 N 
ATOM      3  C   UNL A   1      33.850  19.058  24.706  1.00  0.00     0.220 C 
ATOM      4  O   UNL A   1      33.224  18.444  23.836  1.00  0.00    -0.275 OA
ATOM      5  H   UNL A   1      35.512  17.928  24.752  1.00  0.00     0.163 HD
BRANCH   3   6
ATOM      6  C   UNL A   1      33.119  19.967  25.661  1.00  0.00     0.107 C 
BRANCH   6   7
ATOM      7  C   UNL A   1      32.933  21.480  25.315  1.00  0.00    -0.018 C 
ATOM      8  C   UNL A   1      33.226  21.747  23.828  1.00  0.00     0.012 C 
ATOM      9  C   UNL A   1      31.395  21.723  25.487  1.00  0.00     0.012 C 
BRANCH   7  10
ATOM     10  C   UNL A   1      33.615  22.491  26.294  1.00  0.00     0.107 C 
BRANCH  10  11
ATOM     11  C   UNL A   1      34.455  23.726  25.875  1.00  0.00     0.223 C 
ATOM     12  O   UNL A   1      35.676  23.767  25.981  1.00  0.00    -0.275 OA
ATOM     13  N   UNL A   1      33.746  24.662  25.136  1.00  0.00    -0.339 N 
ATOM     14  C   UNL A   1      34.145  25.211  23.833  1.00  0.00     0.141 C 
ATOM     15  C   UNL A   1      32.634  25.368  25.726  1.00  0.00     0.141 C 
ATOM     16  C   UNL A   1      32.911  25.478  22.879  1.00  0.00     0.140 C 
ATOM     17  C   UNL A   1      31.417  25.182  24.852  1.00  0.00     0.140 C 
ATOM     18  N   UNL A   1      31.686  25.884  23.596  1.00  0.00    -0.345 N 
BRANCH  18  19
ATOM     19  C   UNL A   1      31.060  27.083  23.460  1.00  0.00     0.186 A 
ATOM     20  N   UNL A   1      29.779  27.214  23.731  1.00  0.00    -0.220 NA
ATOM     21  S   UNL A   1      31.761  28.464  22.708  1.00  0.00    -0.097 S 
ATOM     22  C   UNL A   1      29.254  28.320  23.110  1.00  0.00     0.084 A 
ATOM     23  C   UNL A   1      30.181  29.129  22.457  1.00  0.00     0.058 A 
ATOM     24  C   UNL A   1      27.883  28.647  23.052  1.00  0.00     0.031 A 
ATOM     25  C   UNL A   1      29.781  30.261  21.727  1.00  0.00     0.042 A 
ATOM     26  C   UNL A   1      27.469  29.755  22.312  1.00  0.00     0.023 A 
ATOM     27  C   UNL A   1      28.410  30.544  21.658  1.00  0.00     0.042 A 
ATOM     28  Cl  UNL A   1      27.874  31.890  20.726  1.00  0.00    -0.084 Cl
ENDBRANCH  18  19
ENDBRANCH  10  11
ENDBRANCH   7  10
ENDBRANCH   6   7
ENDBRANCH   3   6
ENDBRANCH   1   2
BRANCH   1  29
ATOM     29  C   UNL A   1      37.630  19.449  24.683  1.00  0.00     0.042 C 
BRANCH  29  30
ATOM     30  C   UNL A   1      38.698  20.084  25.564  1.00  0.00     0.118 C 
BRANCH  30  31
ATOM     31  N   UNL A   1      39.848  19.213  25.753  1.00  0.00    -0.352 N 
ATOM     32  C   UNL A   1      41.139  19.504  26.108  1.00  0.00     0.251 C 
ATOM     33  H   UNL A   1      39.669  18.257  25.599  1.00  0.00     0.163 HD
ATOM     34  O   UNL A   1      42.008  18.639  25.959  1.00  0.00    -0.269 OA
BRANCH  32  35
ATOM     35  C   UNL A   1      41.529  20.828  26.648  1.00  0.00     0.039 A 
ATOM     36  C   UNL A   1      41.994  21.804  25.759  1.00  0.00     0.014 A 
ATOM     37  C   UNL A   1      41.534  21.096  28.019  1.00  0.00     0.014 A 
ATOM     38  C   UNL A   1      42.415  23.051  26.235  1.00  0.00     0.010 A 
ATOM     39  C   UNL A   1      41.886  22.365  28.488  1.00  0.00     0.010 A 
ATOM     40  C   UNL A   1      42.340  23.355  27.603  1.00  0.00    -0.014 A 
BRANCH  40  41
ATOM     41  C   UNL A   1      42.737  24.694  28.120  1.00  0.00     0.031 A 
ATOM     42  C   UNL A   1      41.701  25.757  28.380  1.00  0.00     0.074 A 
ATOM     43  C   UNL A   1      44.042  24.979  28.303  1.00  0.00     0.049 A 
ATOM     44  N   UNL A   1      41.869  26.995  28.777  1.00  0.00    -0.248 NA
ATOM     45  C   UNL A   1      40.296  25.391  28.142  1.00  0.00     0.031 C 
ATOM     46  C   UNL A   1      45.155  24.061  28.051  1.00  0.00     0.029 A 
ATOM     47  N   UNL A   1      44.655  26.131  28.732  1.00  0.00    -0.354 N 
ATOM     48  C   UNL A   1      40.599  27.559  28.810  1.00  0.00     0.074 A 
ATOM     49  C   UNL A   1      39.674  26.542  28.362  1.00  0.00     0.031 C 
ATOM     50  C   UNL A   1      46.310  24.679  28.343  1.00  0.00     0.029 A 
ATOM     51  C   UNL A   1      46.026  26.046  28.766  1.00  0.00     0.049 A 
ATOM     52  H   UNL A   1      44.159  26.941  28.990  1.00  0.00     0.167 HD
ATOM     53  C   UNL A   1      40.234  28.808  29.190  1.00  0.00     0.031 A 
ATOM     54  C   UNL A   1      46.956  26.967  29.087  1.00  0.00     0.031 A 
ATOM     55  C   UNL A   1      41.146  29.816  29.661  1.00  0.00     0.049 A 
ATOM     56  C   UNL A   1      46.521  28.343  29.511  1.00  0.00     0.074 A 
ATOM     57  C   UNL A   1      40.854  31.080  30.146  1.00  0.00     0.029 A 
ATOM     58  N   UNL A   1      42.523  29.680  29.702  1.00  0.00    -0.354 N 
ATOM     59  N   UNL A   1      45.309  28.828  29.620  1.00  0.00    -0.248 NA
ATOM     60  C   UNL A   1      47.585  29.292  29.870  1.00  0.00     0.031 C 
ATOM     61  C   UNL A   1      42.059  31.730  30.430  1.00  0.00     0.029 A 
ATOM     62  C   UNL A   1      43.098  30.848  30.175  1.00  0.00     0.049 A 
ATOM     63  H   UNL A   1      43.020  28.873  29.436  1.00  0.00     0.167 HD
ATOM     64  C   UNL A   1      45.464  30.130  30.082  1.00  0.00     0.074 A 
ATOM     65  C   UNL A   1      46.884  30.350  30.253  1.00  0.00     0.031 C 
ATOM     66  C   UNL A   1      44.511  31.057  30.342  1.00  0.00     0.031 A 
BRANCH  53  67
ATOM     67  C   UNL A   1      38.776  29.167  29.105  1.00  0.00    -0.014 A 
ATOM     68  C   UNL A   1      37.916  28.997  30.201  1.00  0.00     0.009 A 
ATOM     69  C   UNL A   1      38.271  29.747  27.930  1.00  0.00     0.009 A 
ATOM     70  C   UNL A   1      36.574  29.374  30.113  1.00  0.00     0.001 A 
ATOM     71  C   UNL A   1      36.936  30.149  27.853  1.00  0.00     0.001 A 
ATOM     72  C   UNL A   1      36.087  29.955  28.942  1.00  0.00     0.000 A 
ENDBRANCH  53  67
BRANCH  54  73
ATOM     73  C   UNL A   1      48.401  26.625  29.015  1.00  0.00    -0.014 A 
ATOM     74  C   UNL A   1      49.063  26.078  30.126  1.00  0.00     0.009 A 
ATOM     75  C   UNL A   1      49.131  26.862  27.841  1.00  0.00     0.009 A 
ATOM     76  C   UNL A   1      50.432  25.809  30.072  1.00  0.00     0.001 A 
ATOM     77  C   UNL A   1      50.494  26.562  27.778  1.00  0.00     0.001 A 
ATOM     78  C   UNL A   1      51.146  26.047  28.898  1.00  0.00     0.000 A 
ENDBRANCH  54  73
BRANCH  66  79
ATOM     79  C   UNL A   1      44.971  32.388  30.869  1.00  0.00    -0.014 A 
ATOM     80  C   UNL A   1      45.233  33.463  30.007  1.00  0.00     0.009 A 
ATOM     81  C   UNL A   1      45.105  32.577  32.254  1.00  0.00     0.009 A 
ATOM     82  C   UNL A   1      45.652  34.693  30.519  1.00  0.00     0.001 A 
ATOM     83  C   UNL A   1      45.496  33.816  32.764  1.00  0.00     0.001 A 
ATOM     84  C   UNL A   1      45.778  34.870  31.897  1.00  0.00     0.000 A 
ENDBRANCH  66  79
ENDBRANCH  40  41
ENDBRANCH  32  35
ENDBRANCH  30  31
ENDBRANCH  29  30
ENDBRANCH   1  29
TORSDOF 14
ENDMDL
MODEL 2
REMARK VINA RESULT:     -12.0      0.486      5.737
REMARK SMILES CC(C)(CC(=O)NCCCNC(=O)c1ccc(-c2c3nc(c(-c4ccccc4)c4ccc([nH]4)c(-c4ccccc4)c4nc(c(-c5ccccc5)c5ccc2[nH]5)C=C4)C=C3)cc1)CC(=O)N1CCN(c2nc3ccc(Cl)cc3s2)CC1
REMARK SMILES IDX 8 1 7 2 5 3 6 4 4 6 2 7 1 8 3 9 62 10 63 11 64 12 65 13
REMARK SMILES IDX 66 14 80 15 67 16 79 17 68 18 69 19 70 20 78 21 71 22 77 23
REMARK SMILES IDX 72 24 76 25 73 26 74 27 75 28 9 29 10 30 11 31 12 32 13 34
REMARK SMILES IDX 14 35 15 36 61 37 16 38 60 39 17 40 18 41 19 42 54 43 20 44
REMARK SMILES IDX 59 45 53 46 55 47 21 48 58 49 52 50 51 51 22 53 44 54 29 55
REMARK SMILES IDX 43 56 30 57 33 58 42 59 56 60 31 61 32 62 41 64 57 65 34 66
REMARK SMILES IDX 23 67 24 68 28 69 25 70 27 71 26 72 45 73 46 74 50 75 47 76
REMARK SMILES IDX 49 77 48 78 35 79 36 80 40 81 37 82 39 83 38 84
REMARK H PARENT 7 5 11 33 55 52 33 63
REMARK Flexibility Score: inf
ROOT
ATOM      1  C   UNL A   1      36.326  19.832  24.895  1.00  0.00     0.117 C 
ENDROOT
BRANCH   1   2
ATOM      2  N   UNL A   1      35.229  18.895  24.765  1.00  0.00    -0.356 N 
ATOM      3  C   UNL A   1      33.906  19.213  24.723  1.00  0.00     0.220 C 
ATOM      4  O   UNL A   1      33.195  18.662  23.877  1.00  0.00    -0.275 OA
ATOM      5  H   UNL A   1      35.462  17.941  24.701  1.00  0.00     0.163 HD
BRANCH   3   6
ATOM      6  C   UNL A   1      33.295  20.176  25.709  1.00  0.00     0.107 C 
BRANCH   6   7
ATOM      7  C   UNL A   1      33.093  21.675  25.316  1.00  0.00    -0.018 C 
ATOM      8  C   UNL A   1      33.368  21.896  23.819  1.00  0.00     0.012 C 
ATOM      9  C   UNL A   1      31.555  21.912  25.498  1.00  0.00     0.012 C 
BRANCH   7  10
ATOM     10  C   UNL A   1      33.778  22.723  26.254  1.00  0.00     0.107 C 
BRANCH  10  11
ATOM     11  C   UNL A   1      34.529  23.998  25.787  1.00  0.00     0.223 C 
ATOM     12  O   UNL A   1      35.753  24.081  25.778  1.00  0.00    -0.275 OA
ATOM     13  N   UNL A   1      33.720  24.921  25.142  1.00  0.00    -0.339 N 
ATOM     14  C   UNL A   1      33.973  25.511  23.820  1.00  0.00     0.141 C 
ATOM     15  C   UNL A   1      32.646  25.572  25.852  1.00  0.00     0.141 C 
ATOM     16  C   UNL A   1      32.644  25.751  22.995  1.00  0.00     0.140 C 
ATOM     17  C   UNL A   1      31.357  25.359  25.093  1.00  0.00     0.140 C 
ATOM     18  N   UNL A   1      31.480  26.096  23.835  1.00  0.00    -0.345 N 
BRANCH  18  19
ATOM     19  C   UNL A   1      30.801  27.273  23.788  1.00  0.00     0.186 A 
ATOM     20  N   UNL A   1      29.489  27.297  23.691  1.00  0.00    -0.220 NA
ATOM     21  S   UNL A   1      31.545  28.815  23.601  1.00  0.00    -0.097 S 
ATOM     22  C   UNL A   1      29.052  28.504  23.204  1.00  0.00     0.084 A 
ATOM     23  C   UNL A   1      30.041  29.473  23.049  1.00  0.00     0.058 A 
ATOM     24  C   UNL A   1      27.728  28.794  22.817  1.00  0.00     0.031 A 
ATOM     25  C   UNL A   1      29.750  30.735  22.502  1.00  0.00     0.042 A 
ATOM     26  C   UNL A   1      27.429  30.034  22.251  1.00  0.00     0.023 A 
ATOM     27  C   UNL A   1      28.433  30.985  22.096  1.00  0.00     0.042 A 
ATOM     28  Cl  UNL A   1      28.049  32.498  21.369  1.00  0.00    -0.084 Cl
ENDBRANCH  18  19
ENDBRANCH  10  11
ENDBRANCH   7  10
ENDBRANCH   6   7
ENDBRANCH   3   6
ENDBRANCH   1   2
BRANCH   1  29
ATOM     29  C   UNL A   1      37.718  19.215  24.820  1.00  0.00     0.042 C 
BRANCH  29  30
ATOM     30  C   UNL A   1      38.812  19.970  25.563  1.00  0.00     0.118 C 
BRANCH  30  31
ATOM     31  N   UNL A   1      39.992  19.150  25.790  1.00  0.00    -0.352 N 
ATOM     32  C   UNL A   1      41.273  19.504  26.125  1.00  0.00     0.251 C 
ATOM     33  H   UNL A   1      39.848  18.182  25.685  1.00  0.00     0.163 HD
ATOM     34  O   UNL A   1      42.172  18.664  26.015  1.00  0.00    -0.269 OA
BRANCH  32  35
ATOM     35  C   UNL A   1      41.618  20.866  26.596  1.00  0.00     0.039 A 
ATOM     36  C   UNL A   1      41.429  21.176  27.948  1.00  0.00     0.014 A 
ATOM     37  C   UNL A   1      42.034  21.870  25.718  1.00  0.00     0.014 A 
ATOM     38  C   UNL A   1      41.699  22.464  28.423  1.00  0.00     0.010 A 
ATOM     39  C   UNL A   1      42.373  23.136  26.204  1.00  0.00     0.010 A 
ATOM     40  C   UNL A   1      42.200  23.452  27.561  1.00  0.00    -0.014 A 
BRANCH  40  41
ATOM     41  C   UNL A   1      42.540  24.813  28.061  1.00  0.00     0.031 A 
ATOM     42  C   UNL A   1      43.949  25.153  28.471  1.00  0.00     0.074 A 
ATOM     43  C   UNL A   1      41.566  25.735  28.202  1.00  0.00     0.049 A 
ATOM     44  N   UNL A   1      44.416  26.267  28.979  1.00  0.00    -0.248 NA
ATOM     45  C   UNL A   1      44.963  24.098  28.312  1.00  0.00     0.031 C 
ATOM     46  C   UNL A   1      40.151  25.530  27.883  1.00  0.00     0.029 A 
ATOM     47  N   UNL A   1      41.618  27.028  28.663  1.00  0.00    -0.354 N 
ATOM     48  C   UNL A   1      45.765  26.038  29.224  1.00  0.00     0.074 A 
ATOM     49  C   UNL A   1      46.037  24.671  28.841  1.00  0.00     0.031 C 
ATOM     50  C   UNL A   1      39.474  26.659  28.145  1.00  0.00     0.029 A 
ATOM     51  C   UNL A   1      40.395  27.654  28.684  1.00  0.00     0.049 A 
ATOM     52  H   UNL A   1      42.451  27.464  28.952  1.00  0.00     0.167 HD
ATOM     53  C   UNL A   1      46.697  26.892  29.713  1.00  0.00     0.031 A 
ATOM     54  C   UNL A   1      40.046  28.887  29.102  1.00  0.00     0.031 A 
ATOM     55  C   UNL A   1      46.439  28.262  30.071  1.00  0.00     0.049 A 
ATOM     56  C   UNL A   1      41.102  29.816  29.634  1.00  0.00     0.074 A 
ATOM     57  C   UNL A   1      47.341  29.224  30.496  1.00  0.00     0.029 A 
ATOM     58  N   UNL A   1      45.192  28.862  30.054  1.00  0.00    -0.354 N 
ATOM     59  N   UNL A   1      42.389  29.608  29.774  1.00  0.00    -0.248 NA
ATOM     60  C   UNL A   1      40.658  31.154  30.051  1.00  0.00     0.031 C 
ATOM     61  C   UNL A   1      46.630  30.392  30.788  1.00  0.00     0.029 A 
ATOM     62  C   UNL A   1      45.294  30.174  30.490  1.00  0.00     0.049 A 
ATOM     63  H   UNL A   1      44.357  28.424  29.774  1.00  0.00     0.167 HD
ATOM     64  C   UNL A   1      42.910  30.796  30.273  1.00  0.00     0.074 A 
ATOM     65  C   UNL A   1      41.806  31.724  30.390  1.00  0.00     0.031 C 
ATOM     66  C   UNL A   1      44.191  31.089  30.602  1.00  0.00     0.031 A 
BRANCH  53  67
ATOM     67  C   UNL A   1      48.095  26.371  29.900  1.00  0.00    -0.014 A 
ATOM     68  C   UNL A   1      49.048  26.447  28.873  1.00  0.00     0.009 A 
ATOM     69  C   UNL A   1      48.482  25.856  31.149  1.00  0.00     0.009 A 
ATOM     70  C   UNL A   1      50.352  25.992  29.083  1.00  0.00     0.001 A 
ATOM     71  C   UNL A   1      49.793  25.427  31.365  1.00  0.00     0.001 A 
ATOM     72  C   UNL A   1      50.725  25.489  30.329  1.00  0.00     0.000 A 
ENDBRANCH  53  67
BRANCH  54  73
ATOM     73  C   UNL A   1      38.625  29.321  29.043  1.00  0.00    -0.014 A 
ATOM     74  C   UNL A   1      37.797  29.218  30.171  1.00  0.00     0.009 A 
ATOM     75  C   UNL A   1      38.084  29.822  27.849  1.00  0.00     0.009 A 
ATOM     76  C   UNL A   1      36.449  29.576  30.095  1.00  0.00     0.001 A 
ATOM     77  C   UNL A   1      36.744  30.209  27.784  1.00  0.00     0.001 A 
ATOM     78  C   UNL A   1      35.924  30.075  28.903  1.00  0.00     0.000 A 
ENDBRANCH  54  73
BRANCH  66  79
ATOM     79  C   UNL A   1      44.475  32.481  31.093  1.00  0.00    -0.014 A 
ATOM     80  C   UNL A   1      44.750  33.528  30.201  1.00  0.00     0.009 A 
ATOM     81  C   UNL A   1      44.426  32.755  32.470  1.00  0.00     0.009 A 
ATOM     82  C   UNL A   1      45.004  34.815  30.680  1.00  0.00     0.001 A 
ATOM     83  C   UNL A   1      44.652  34.048  32.943  1.00  0.00     0.001 A 
ATOM     84  C   UNL A   1      44.949  35.075  32.049  1.00  0.00     0.000 A 
ENDBRANCH  66  79
ENDBRANCH  40  41
ENDBRANCH  32  35
ENDBRANCH  30  31
ENDBRANCH  29  30
ENDBRANCH   1  29
TORSDOF 14
ENDMDL
MODEL 3
REMARK VINA RESULT:     -11.5      3.832      7.267
REMARK SMILES CC(C)(CC(=O)NCCCNC(=O)c1ccc(-c2c3nc(c(-c4ccccc4)c4ccc([nH]4)c(-c4ccccc4)c4nc(c(-c5ccccc5)c5ccc2[nH]5)C=C4)C=C3)cc1)CC(=O)N1CCN(c2nc3ccc(Cl)cc3s2)CC1
REMARK SMILES IDX 8 1 7 2 5 3 6 4 4 6 2 7 1 8 3 9 62 10 63 11 64 12 65 13
REMARK SMILES IDX 66 14 80 15 67 16 79 17 68 18 69 19 70 20 78 21 71 22 77 23
REMARK SMILES IDX 72 24 76 25 73 26 74 27 75 28 9 29 10 30 11 31 12 32 13 34
REMARK SMILES IDX 14 35 15 36 61 37 16 38 60 39 17 40 18 41 19 42 54 43 20 44
REMARK SMILES IDX 59 45 53 46 55 47 21 48 58 49 52 50 51 51 22 53 44 54 29 55
REMARK SMILES IDX 43 56 30 57 33 58 42 59 56 60 31 61 32 62 41 64 57 65 34 66
REMARK SMILES IDX 23 67 24 68 28 69 25 70 27 71 26 72 45 73 46 74 50 75 47 76
REMARK SMILES IDX 49 77 48 78 35 79 36 80 40 81 37 82 39 83 38 84
REMARK H PARENT 7 5 11 33 55 52 33 63
REMARK Flexibility Score: inf
ROOT
ATOM      1  C   UNL A   1      41.085  22.915  26.793  1.00  0.00     0.117 C 
ENDROOT
BRANCH   1   2
ATOM      2  N   UNL A   1      39.980  23.572  26.126  1.00  0.00    -0.356 N 
ATOM      3  C   UNL A   1      38.673  23.201  26.189  1.00  0.00     0.220 C 
ATOM      4  O   UNL A   1      37.820  24.078  26.358  1.00  0.00    -0.275 OA
ATOM      5  H   UNL A   1      40.196  24.359  25.575  1.00  0.00     0.163 HD
BRANCH   3   6
ATOM      6  C   UNL A   1      38.251  21.764  26.013  1.00  0.00     0.107 C 
BRANCH   6   7
ATOM      7  C   UNL A   1      37.030  21.412  25.104  1.00  0.00    -0.018 C 
ATOM      8  C   UNL A   1      37.028  22.268  23.825  1.00  0.00     0.012 C 
ATOM      9  C   UNL A   1      37.320  19.949  24.626  1.00  0.00     0.012 C 
BRANCH   7  10
ATOM     10  C   UNL A   1      35.644  21.335  25.825  1.00  0.00     0.107 C 
BRANCH  10  11
ATOM     11  C   UNL A   1      34.271  21.152  25.124  1.00  0.00     0.223 C 
ATOM     12  O   UNL A   1      33.910  20.084  24.640  1.00  0.00    -0.275 OA
ATOM     13  N   UNL A   1      33.394  22.208  25.323  1.00  0.00    -0.339 N 
ATOM     14  C   UNL A   1      32.017  22.100  25.824  1.00  0.00     0.141 C 
ATOM     15  C   UNL A   1      33.705  23.521  24.812  1.00  0.00     0.141 C 
ATOM     16  C   UNL A   1      31.606  23.316  26.749  1.00  0.00     0.140 C 
ATOM     17  C   UNL A   1      33.639  24.516  25.946  1.00  0.00     0.140 C 
ATOM     18  N   UNL A   1      32.236  24.594  26.360  1.00  0.00    -0.345 N 
BRANCH  18  19
ATOM     19  C   UNL A   1      31.570  25.699  25.933  1.00  0.00     0.186 A 
ATOM     20  N   UNL A   1      30.349  25.612  25.452  1.00  0.00    -0.220 NA
ATOM     21  S   UNL A   1      32.291  27.249  25.734  1.00  0.00    -0.097 S 
ATOM     22  C   UNL A   1      30.044  26.702  24.675  1.00  0.00     0.084 A 
ATOM     23  C   UNL A   1      31.006  27.710  24.668  1.00  0.00     0.058 A 
ATOM     24  C   UNL A   1      28.891  26.836  23.876  1.00  0.00     0.031 A 
ATOM     25  C   UNL A   1      30.858  28.858  23.870  1.00  0.00     0.042 A 
ATOM     26  C   UNL A   1      28.742  27.960  23.062  1.00  0.00     0.023 A 
ATOM     27  C   UNL A   1      29.718  28.950  23.061  1.00  0.00     0.042 A 
ATOM     28  Cl  UNL A   1      29.528  30.314  22.026  1.00  0.00    -0.084 Cl
ENDBRANCH  18  19
ENDBRANCH  10  11
ENDBRANCH   7  10
ENDBRANCH   6   7
ENDBRANCH   3   6
ENDBRANCH   1   2
BRANCH   1  29
ATOM     29  C   UNL A   1      42.022  22.133  25.879  1.00  0.00     0.042 C 
BRANCH  29  30
ATOM     30  C   UNL A   1      43.022  22.970  25.092  1.00  0.00     0.118 C 
BRANCH  30  31
ATOM     31  N   UNL A   1      44.393  22.740  25.520  1.00  0.00    -0.352 N 
ATOM     32  C   UNL A   1      45.151  23.378  26.467  1.00  0.00     0.251 C 
ATOM     33  H   UNL A   1      44.852  22.005  25.052  1.00  0.00     0.163 HD
ATOM     34  O   UNL A   1      46.370  23.183  26.485  1.00  0.00    -0.269 OA
BRANCH  32  35
ATOM     35  C   UNL A   1      44.558  24.307  27.457  1.00  0.00     0.039 A 
ATOM     36  C   UNL A   1      44.754  25.682  27.288  1.00  0.00     0.014 A 
ATOM     37  C   UNL A   1      43.893  23.848  28.597  1.00  0.00     0.014 A 
ATOM     38  C   UNL A   1      44.249  26.590  28.226  1.00  0.00     0.010 A 
ATOM     39  C   UNL A   1      43.326  24.755  29.496  1.00  0.00     0.010 A 
ATOM     40  C   UNL A   1      43.505  26.137  29.328  1.00  0.00    -0.014 A 
BRANCH  40  41
ATOM     41  C   UNL A   1      42.918  27.092  30.309  1.00  0.00     0.031 A 
ATOM     42  C   UNL A   1      43.540  27.278  31.668  1.00  0.00     0.074 A 
ATOM     43  C   UNL A   1      41.787  27.756  29.998  1.00  0.00     0.049 A 
ATOM     44  N   UNL A   1      43.134  28.024  32.667  1.00  0.00    -0.248 NA
ATOM     45  C   UNL A   1      44.762  26.510  31.955  1.00  0.00     0.031 C 
ATOM     46  C   UNL A   1      41.055  27.641  28.735  1.00  0.00     0.029 A 
ATOM     47  N   UNL A   1      41.046  28.651  30.730  1.00  0.00    -0.354 N 
ATOM     48  C   UNL A   1      44.032  27.794  33.703  1.00  0.00     0.074 A 
ATOM     49  C   UNL A   1      44.985  26.816  33.226  1.00  0.00     0.031 C 
ATOM     50  C   UNL A   1      39.980  28.445  28.775  1.00  0.00     0.029 A 
ATOM     51  C   UNL A   1      39.924  29.102  30.076  1.00  0.00     0.049 A 
ATOM     52  H   UNL A   1      41.293  28.943  31.637  1.00  0.00     0.167 HD
ATOM     53  C   UNL A   1      44.069  28.355  34.936  1.00  0.00     0.031 A 
ATOM     54  C   UNL A   1      38.949  29.940  30.480  1.00  0.00     0.031 A 
ATOM     55  C   UNL A   1      43.139  29.347  35.408  1.00  0.00     0.049 A 
ATOM     56  C   UNL A   1      39.019  30.553  31.851  1.00  0.00     0.074 A 
ATOM     57  C   UNL A   1      43.151  30.031  36.612  1.00  0.00     0.029 A 
ATOM     58  N   UNL A   1      42.034  29.793  34.705  1.00  0.00    -0.354 N 
ATOM     59  N   UNL A   1      39.926  30.390  32.783  1.00  0.00    -0.248 NA
ATOM     60  C   UNL A   1      37.936  31.477  32.219  1.00  0.00     0.031 C 
ATOM     61  C   UNL A   1      42.019  30.852  36.660  1.00  0.00     0.029 A 
ATOM     62  C   UNL A   1      41.336  30.720  35.462  1.00  0.00     0.049 A 
ATOM     63  H   UNL A   1      41.780  29.496  33.801  1.00  0.00     0.167 HD
ATOM     64  C   UNL A   1      39.536  31.208  33.836  1.00  0.00     0.074 A 
ATOM     65  C   UNL A   1      38.324  31.881  33.421  1.00  0.00     0.031 C 
ATOM     66  C   UNL A   1      40.132  31.385  35.040  1.00  0.00     0.031 A 
BRANCH  53  67
ATOM     67  C   UNL A   1      45.150  27.904  35.879  1.00  0.00    -0.014 A 
ATOM     68  C   UNL A   1      46.378  28.578  35.960  1.00  0.00     0.009 A 
ATOM     69  C   UNL A   1      44.908  26.826  36.748  1.00  0.00     0.009 A 
ATOM     70  C   UNL A   1      47.353  28.165  36.871  1.00  0.00     0.001 A 
ATOM     71  C   UNL A   1      45.873  26.433  37.677  1.00  0.00     0.001 A 
ATOM     72  C   UNL A   1      47.098  27.098  37.732  1.00  0.00     0.000 A 
ENDBRANCH  53  67
BRANCH  54  73
ATOM     73  C   UNL A   1      37.810  30.251  29.575  1.00  0.00    -0.014 A 
ATOM     74  C   UNL A   1      36.766  29.331  29.398  1.00  0.00     0.009 A 
ATOM     75  C   UNL A   1      37.774  31.462  28.868  1.00  0.00     0.009 A 
ATOM     76  C   UNL A   1      35.726  29.604  28.506  1.00  0.00     0.001 A 
ATOM     77  C   UNL A   1      36.717  31.747  28.001  1.00  0.00     0.001 A 
ATOM     78  C   UNL A   1      35.700  30.813  27.811  1.00  0.00     0.000 A 
ENDBRANCH  54  73
BRANCH  66  79
ATOM     79  C   UNL A   1      39.499  32.367  35.985  1.00  0.00    -0.014 A 
ATOM     80  C   UNL A   1      39.884  33.716  36.002  1.00  0.00     0.009 A 
ATOM     81  C   UNL A   1      38.473  31.942  36.843  1.00  0.00     0.009 A 
ATOM     82  C   UNL A   1      39.277  34.613  36.883  1.00  0.00     0.001 A 
ATOM     83  C   UNL A   1      37.849  32.846  37.703  1.00  0.00     0.001 A 
ATOM     84  C   UNL A   1      38.256  34.178  37.729  1.00  0.00     0.000 A 
ENDBRANCH  66  79
ENDBRANCH  40  41
ENDBRANCH  32  35
ENDBRANCH  30  31
ENDBRANCH  29  30
ENDBRANCH   1  29
TORSDOF 14
ENDMDL
