MODEL 1
REMARK VINA RESULT:     -10.4      0.000      0.000
REMARK SMILES [NH3+][C@@]1(C(=O)NCCCNC(=O)c2ccc(-c3c4nc(c(-c5ccccc5)c5ccc([nH]5)c(-c5ccccc5)c5nc(c(-c6ccccc6)c6ccc3[nH]6)C=C5)C=C4)cc2)CCC[C@H]1CCOc1ccccc1
REMARK SMILES IDX 6 1 5 2 3 3 4 4 2 6 60 7 63 8 61 9 62 10 1 11 64 15 65 16
REMARK SMILES IDX 66 17 67 18 68 19 72 20 69 21 71 22 70 23 7 24 8 25 9 26
REMARK SMILES IDX 10 27 11 29 12 30 13 31 59 32 14 33 58 34 15 35 16 36 17 37
REMARK SMILES IDX 52 38 18 39 57 40 51 41 53 42 19 43 56 44 50 45 49 46 20 48
REMARK SMILES IDX 42 49 27 50 41 51 28 52 31 53 40 54 54 55 29 56 30 57 39 59
REMARK SMILES IDX 55 60 32 61 21 62 22 63 26 64 23 65 25 66 24 67 43 68 44 69
REMARK SMILES IDX 48 70 45 71 47 72 46 73 33 74 34 75 38 76 35 77 37 78 36 79
REMARK H PARENT 5 5 1 12 1 13 1 14 9 28 53 47 31 58
REMARK Flexibility Score: inf
ROOT
ATOM      1  C   UNL A   1      33.398  29.017  24.949  1.00  0.00     0.118 C 
ENDROOT
BRANCH   1   2
ATOM      2  N   UNL A   1      33.971  28.881  23.629  1.00  0.00    -0.351 N 
ATOM      3  C   UNL A   1      33.691  28.059  22.589  1.00  0.00     0.281 C 
ATOM      4  O   UNL A   1      34.324  28.289  21.548  1.00  0.00    -0.268 OA
ATOM      5  H   UNL A   1      34.710  29.507  23.451  1.00  0.00     0.163 HD
BRANCH   3   6
ATOM      6  C   UNL A   1      32.647  26.870  22.620  1.00  0.00     0.176 C 
ATOM      7  C   UNL A   1      31.298  27.258  23.246  1.00  0.00     0.079 C 
ATOM      8  C   UNL A   1      33.172  25.636  23.403  1.00  0.00     0.064 C 
ATOM      9  C   UNL A   1      31.146  26.521  24.563  1.00  0.00     0.008 C 
ATOM     10  C   UNL A   1      32.235  25.464  24.620  1.00  0.00     0.011 C 
BRANCH   6  11
ATOM     11  N   UNL A   1      32.359  26.567  21.188  1.00  0.00    -0.345 N 
ATOM     12  H   UNL A   1      32.439  25.562  21.031  1.00  0.00     0.345 HD
ATOM     13  H   UNL A   1      33.027  27.059  20.595  1.00  0.00     0.345 HD
ATOM     14  H   UNL A   1      31.412  26.871  20.960  1.00  0.00     0.345 HD
ENDBRANCH   6  11
BRANCH   8  15
ATOM     15  C   UNL A   1      33.257  24.272  22.666  1.00  0.00     0.052 C 
BRANCH  15  16
ATOM     16  C   UNL A   1      34.001  23.115  23.347  1.00  0.00     0.230 C 
BRANCH  16  17
ATOM     17  O   UNL A   1      35.360  23.020  22.899  1.00  0.00    -0.494 OA
BRANCH  17  18
ATOM     18  C   UNL A   1      36.248  22.899  23.929  1.00  0.00     0.119 A 
ATOM     19  C   UNL A   1      37.084  21.794  24.069  1.00  0.00     0.046 A 
ATOM     20  C   UNL A   1      36.247  23.911  24.884  1.00  0.00     0.046 A 
ATOM     21  C   UNL A   1      37.982  21.745  25.137  1.00  0.00     0.004 A 
ATOM     22  C   UNL A   1      37.152  23.868  25.942  1.00  0.00     0.004 A 
ATOM     23  C   UNL A   1      38.028  22.790  26.061  1.00  0.00     0.000 A 
ENDBRANCH  17  18
ENDBRANCH  16  17
ENDBRANCH  15  16
ENDBRANCH   8  15
ENDBRANCH   3   6
ENDBRANCH   1   2
BRANCH   1  24
ATOM     24  C   UNL A   1      34.116  28.201  26.010  1.00  0.00     0.042 C 
BRANCH  24  25
ATOM     25  C   UNL A   1      33.693  28.534  27.433  1.00  0.00     0.118 C 
BRANCH  25  26
ATOM     26  N   UNL A   1      33.606  29.971  27.658  1.00  0.00    -0.352 N 
ATOM     27  C   UNL A   1      34.517  30.821  28.241  1.00  0.00     0.251 C 
ATOM     28  H   UNL A   1      32.774  30.395  27.348  1.00  0.00     0.163 HD
ATOM     29  O   UNL A   1      34.181  31.955  28.562  1.00  0.00    -0.269 OA
BRANCH  27  30
ATOM     30  C   UNL A   1      35.900  30.360  28.490  1.00  0.00     0.039 A 
ATOM     31  C   UNL A   1      36.237  29.852  29.748  1.00  0.00     0.014 A 
ATOM     32  C   UNL A   1      36.868  30.448  27.487  1.00  0.00     0.014 A 
ATOM     33  C   UNL A   1      37.531  29.376  29.977  1.00  0.00     0.010 A 
ATOM     34  C   UNL A   1      38.125  29.892  27.688  1.00  0.00     0.010 A 
ATOM     35  C   UNL A   1      38.477  29.363  28.939  1.00  0.00    -0.014 A 
BRANCH  35  36
ATOM     36  C   UNL A   1      39.857  28.853  29.142  1.00  0.00     0.031 A 
ATOM     37  C   UNL A   1      40.917  29.775  29.688  1.00  0.00     0.074 A 
ATOM     38  C   UNL A   1      40.177  27.595  28.778  1.00  0.00     0.049 A 
ATOM     39  N   UNL A   1      42.202  29.569  29.824  1.00  0.00    -0.248 NA
ATOM     40  C   UNL A   1      40.476  31.116  30.111  1.00  0.00     0.031 C 
ATOM     41  C   UNL A   1      39.253  26.609  28.216  1.00  0.00     0.029 A 
ATOM     42  N   UNL A   1      41.382  26.936  28.819  1.00  0.00    -0.354 N 
ATOM     43  C   UNL A   1      42.720  30.755  30.332  1.00  0.00     0.074 A 
ATOM     44  C   UNL A   1      41.626  31.695  30.423  1.00  0.00     0.031 C 
ATOM     45  C   UNL A   1      39.919  25.465  27.983  1.00  0.00     0.029 A 
ATOM     46  C   UNL A   1      41.323  25.651  28.334  1.00  0.00     0.049 A 
ATOM     47  H   UNL A   1      42.209  27.344  29.162  1.00  0.00     0.167 HD
ATOM     48  C   UNL A   1      43.988  31.031  30.718  1.00  0.00     0.031 A 
ATOM     49  C   UNL A   1      42.296  24.732  28.178  1.00  0.00     0.031 A 
ATOM     50  C   UNL A   1      45.076  30.095  30.646  1.00  0.00     0.049 A 
ATOM     51  C   UNL A   1      43.705  25.079  28.582  1.00  0.00     0.074 A 
ATOM     52  C   UNL A   1      46.393  30.272  31.034  1.00  0.00     0.029 A 
ATOM     53  N   UNL A   1      44.968  28.799  30.166  1.00  0.00    -0.354 N 
ATOM     54  N   UNL A   1      44.167  26.191  29.098  1.00  0.00    -0.248 NA
ATOM     55  C   UNL A   1      44.723  24.036  28.392  1.00  0.00     0.031 C 
ATOM     56  C   UNL A   1      47.091  29.095  30.751  1.00  0.00     0.029 A 
ATOM     57  C   UNL A   1      46.197  28.169  30.240  1.00  0.00     0.049 A 
ATOM     58  H   UNL A   1      44.141  28.391  29.821  1.00  0.00     0.167 HD
ATOM     59  C   UNL A   1      45.519  25.967  29.332  1.00  0.00     0.074 A 
ATOM     60  C   UNL A   1      45.797  24.609  28.915  1.00  0.00     0.031 C 
ATOM     61  C   UNL A   1      46.447  26.808  29.846  1.00  0.00     0.031 A 
BRANCH  48  62
ATOM     62  C   UNL A   1      44.264  32.401  31.272  1.00  0.00    -0.014 A 
ATOM     63  C   UNL A   1      44.081  32.676  32.637  1.00  0.00     0.009 A 
ATOM     64  C   UNL A   1      44.763  33.411  30.436  1.00  0.00     0.009 A 
ATOM     65  C   UNL A   1      44.364  33.944  33.148  1.00  0.00     0.001 A 
ATOM     66  C   UNL A   1      45.073  34.669  30.956  1.00  0.00     0.001 A 
ATOM     67  C   UNL A   1      44.866  34.937  32.309  1.00  0.00     0.000 A 
ENDBRANCH  48  62
BRANCH  49  68
ATOM     68  C   UNL A   1      41.989  23.391  27.611  1.00  0.00    -0.014 A 
ATOM     69  C   UNL A   1      42.135  23.147  26.235  1.00  0.00     0.009 A 
ATOM     70  C   UNL A   1      41.498  22.363  28.430  1.00  0.00     0.009 A 
ATOM     71  C   UNL A   1      41.751  21.922  25.687  1.00  0.00     0.001 A 
ATOM     72  C   UNL A   1      41.147  21.127  27.883  1.00  0.00     0.001 A 
ATOM     73  C   UNL A   1      41.259  20.912  26.511  1.00  0.00     0.000 A 
ENDBRANCH  49  68
BRANCH  61  74
ATOM     74  C   UNL A   1      47.834  26.267  30.051  1.00  0.00    -0.014 A 
ATOM     75  C   UNL A   1      48.792  26.297  29.026  1.00  0.00     0.009 A 
ATOM     76  C   UNL A   1      48.199  25.766  31.311  1.00  0.00     0.009 A 
ATOM     77  C   UNL A   1      50.079  25.805  29.252  1.00  0.00     0.001 A 
ATOM     78  C   UNL A   1      49.494  25.304  31.542  1.00  0.00     0.001 A 
ATOM     79  C   UNL A   1      50.431  25.316  30.509  1.00  0.00     0.000 A 
ENDBRANCH  61  74
ENDBRANCH  35  36
ENDBRANCH  27  30
ENDBRANCH  25  26
ENDBRANCH  24  25
ENDBRANCH   1  24
TORSDOF 15
ENDMDL
MODEL 2
REMARK VINA RESULT:     -10.1      3.163      5.592
REMARK SMILES [NH3+][C@@]1(C(=O)NCCCNC(=O)c2ccc(-c3c4nc(c(-c5ccccc5)c5ccc([nH]5)c(-c5ccccc5)c5nc(c(-c6ccccc6)c6ccc3[nH]6)C=C5)C=C4)cc2)CCC[C@H]1CCOc1ccccc1
REMARK SMILES IDX 6 1 5 2 3 3 4 4 2 6 60 7 63 8 61 9 62 10 1 11 64 15 65 16
REMARK SMILES IDX 66 17 67 18 68 19 72 20 69 21 71 22 70 23 7 24 8 25 9 26
REMARK SMILES IDX 10 27 11 29 12 30 13 31 59 32 14 33 58 34 15 35 16 36 17 37
REMARK SMILES IDX 52 38 18 39 57 40 51 41 53 42 19 43 56 44 50 45 49 46 20 48
REMARK SMILES IDX 42 49 27 50 41 51 28 52 31 53 40 54 54 55 29 56 30 57 39 59
REMARK SMILES IDX 55 60 32 61 21 62 22 63 26 64 23 65 25 66 24 67 43 68 44 69
REMARK SMILES IDX 48 70 45 71 47 72 46 73 33 74 34 75 38 76 35 77 37 78 36 79
REMARK H PARENT 5 5 1 12 1 13 1 14 9 28 53 47 31 58
REMARK Flexibility Score: inf
ROOT
ATOM      1  C   UNL A   1      31.521  30.644  26.255  1.00  0.00     0.118 C 
ENDROOT
BRANCH   1   2
ATOM      2  N   UNL A   1      32.725  30.032  26.770  1.00  0.00    -0.351 N 
ATOM      3  C   UNL A   1      33.223  28.775  26.684  1.00  0.00     0.281 C 
ATOM      4  O   UNL A   1      34.356  28.621  27.165  1.00  0.00    -0.268 OA
ATOM      5  H   UNL A   1      33.294  30.649  27.285  1.00  0.00     0.163 HD
BRANCH   3   6
ATOM      6  C   UNL A   1      32.478  27.541  26.032  1.00  0.00     0.176 C 
ATOM      7  C   UNL A   1      33.305  26.247  26.054  1.00  0.00     0.079 C 
ATOM      8  C   UNL A   1      32.077  27.799  24.554  1.00  0.00     0.064 C 
ATOM      9  C   UNL A   1      33.690  25.894  24.630  1.00  0.00     0.008 C 
ATOM     10  C   UNL A   1      32.870  26.778  23.706  1.00  0.00     0.011 C 
BRANCH   6  11
ATOM     11  N   UNL A   1      31.301  27.286  26.914  1.00  0.00    -0.345 N 
ATOM     12  H   UNL A   1      30.481  27.095  26.339  1.00  0.00     0.345 HD
ATOM     13  H   UNL A   1      31.126  28.108  27.493  1.00  0.00     0.345 HD
ATOM     14  H   UNL A   1      31.492  26.482  27.512  1.00  0.00     0.345 HD
ENDBRANCH   6  11
BRANCH   8  15
ATOM     15  C   UNL A   1      30.579  27.687  24.162  1.00  0.00     0.052 C 
BRANCH  15  16
ATOM     16  C   UNL A   1      30.130  28.258  22.809  1.00  0.00     0.230 C 
BRANCH  16  17
ATOM     17  O   UNL A   1      28.761  28.683  22.841  1.00  0.00    -0.494 OA
BRANCH  17  18
ATOM     18  C   UNL A   1      28.611  30.005  22.532  1.00  0.00     0.119 A 
ATOM     19  C   UNL A   1      28.216  30.436  21.268  1.00  0.00     0.046 A 
ATOM     20  C   UNL A   1      28.931  30.925  23.525  1.00  0.00     0.046 A 
ATOM     21  C   UNL A   1      28.064  31.802  21.026  1.00  0.00     0.004 A 
ATOM     22  C   UNL A   1      28.768  32.288  23.287  1.00  0.00     0.004 A 
ATOM     23  C   UNL A   1      28.322  32.726  22.041  1.00  0.00     0.000 A 
ENDBRANCH  17  18
ENDBRANCH  16  17
ENDBRANCH  15  16
ENDBRANCH   8  15
ENDBRANCH   3   6
ENDBRANCH   1   2
BRANCH   1  24
ATOM     24  C   UNL A   1      31.396  32.120  26.596  1.00  0.00     0.042 C 
BRANCH  24  25
ATOM     25  C   UNL A   1      32.715  32.776  26.978  1.00  0.00     0.118 C 
BRANCH  25  26
ATOM     26  N   UNL A   1      32.519  34.060  27.638  1.00  0.00    -0.352 N 
ATOM     27  C   UNL A   1      33.167  34.590  28.729  1.00  0.00     0.251 C 
ATOM     28  H   UNL A   1      31.821  34.632  27.245  1.00  0.00     0.163 HD
ATOM     29  O   UNL A   1      32.714  35.579  29.293  1.00  0.00    -0.269 OA
BRANCH  27  30
ATOM     30  C   UNL A   1      34.407  33.958  29.227  1.00  0.00     0.039 A 
ATOM     31  C   UNL A   1      34.343  33.091  30.322  1.00  0.00     0.014 A 
ATOM     32  C   UNL A   1      35.637  34.236  28.626  1.00  0.00     0.014 A 
ATOM     33  C   UNL A   1      35.504  32.457  30.772  1.00  0.00     0.010 A 
ATOM     34  C   UNL A   1      36.772  33.536  29.016  1.00  0.00     0.010 A 
ATOM     35  C   UNL A   1      36.723  32.651  30.103  1.00  0.00    -0.014 A 
BRANCH  35  36
ATOM     36  C   UNL A   1      37.975  31.984  30.544  1.00  0.00     0.031 A 
ATOM     37  C   UNL A   1      38.835  32.639  31.594  1.00  0.00     0.074 A 
ATOM     38  C   UNL A   1      38.375  30.835  29.963  1.00  0.00     0.049 A 
ATOM     39  N   UNL A   1      40.019  32.291  32.028  1.00  0.00    -0.248 NA
ATOM     40  C   UNL A   1      38.304  33.864  32.217  1.00  0.00     0.031 C 
ATOM     41  C   UNL A   1      37.648  30.109  28.919  1.00  0.00     0.029 A 
ATOM     42  N   UNL A   1      39.505  30.082  30.165  1.00  0.00    -0.354 N 
ATOM     43  C   UNL A   1      40.377  33.259  32.960  1.00  0.00     0.074 A 
ATOM     44  C   UNL A   1      39.315  34.240  32.985  1.00  0.00     0.031 C 
ATOM     45  C   UNL A   1      38.340  29.006  28.588  1.00  0.00     0.029 A 
ATOM     46  C   UNL A   1      39.579  28.971  29.359  1.00  0.00     0.049 A 
ATOM     47  H   UNL A   1      40.197  30.314  30.825  1.00  0.00     0.167 HD
ATOM     48  C   UNL A   1      41.476  33.313  33.749  1.00  0.00     0.031 A 
ATOM     49  C   UNL A   1      40.543  28.037  29.245  1.00  0.00     0.031 A 
ATOM     50  C   UNL A   1      42.525  32.332  33.740  1.00  0.00     0.049 A 
ATOM     51  C   UNL A   1      41.772  28.143  30.108  1.00  0.00     0.074 A 
ATOM     52  C   UNL A   1      43.669  32.286  34.517  1.00  0.00     0.029 A 
ATOM     53  N   UNL A   1      42.550  31.215  32.920  1.00  0.00    -0.354 N 
ATOM     54  N   UNL A   1      42.073  29.043  31.013  1.00  0.00    -0.248 NA
ATOM     55  C   UNL A   1      42.790  27.095  29.943  1.00  0.00     0.031 C 
ATOM     56  C   UNL A   1      44.407  31.161  34.140  1.00  0.00     0.029 A 
ATOM     57  C   UNL A   1      43.694  30.478  33.169  1.00  0.00     0.049 A 
ATOM     58  H   UNL A   1      41.858  30.982  32.260  1.00  0.00     0.167 HD
ATOM     59  C   UNL A   1      43.292  28.646  31.551  1.00  0.00     0.074 A 
ATOM     60  C   UNL A   1      43.666  27.418  30.882  1.00  0.00     0.031 C 
ATOM     61  C   UNL A   1      44.035  29.243  32.513  1.00  0.00     0.031 A 
BRANCH  48  62
ATOM     62  C   UNL A   1      41.590  34.469  34.704  1.00  0.00    -0.014 A 
ATOM     63  C   UNL A   1      42.187  35.676  34.304  1.00  0.00     0.009 A 
ATOM     64  C   UNL A   1      41.051  34.372  35.995  1.00  0.00     0.009 A 
ATOM     65  C   UNL A   1      42.267  36.753  35.189  1.00  0.00     0.001 A 
ATOM     66  C   UNL A   1      41.106  35.461  36.867  1.00  0.00     0.001 A 
ATOM     67  C   UNL A   1      41.720  36.647  36.466  1.00  0.00     0.000 A 
ENDBRANCH  48  62
BRANCH  49  68
ATOM     68  C   UNL A   1      40.404  26.915  28.277  1.00  0.00    -0.014 A 
ATOM     69  C   UNL A   1      40.942  27.018  26.984  1.00  0.00     0.009 A 
ATOM     70  C   UNL A   1      39.687  25.760  28.620  1.00  0.00     0.009 A 
ATOM     71  C   UNL A   1      40.724  26.010  26.042  1.00  0.00     0.001 A 
ATOM     72  C   UNL A   1      39.500  24.737  27.686  1.00  0.00     0.001 A 
ATOM     73  C   UNL A   1      40.005  24.870  26.394  1.00  0.00     0.000 A 
ENDBRANCH  49  68
BRANCH  61  74
ATOM     74  C   UNL A   1      45.292  28.546  32.949  1.00  0.00    -0.014 A 
ATOM     75  C   UNL A   1      46.531  28.828  32.355  1.00  0.00     0.009 A 
ATOM     76  C   UNL A   1      45.238  27.628  34.010  1.00  0.00     0.009 A 
ATOM     77  C   UNL A   1      47.686  28.179  32.796  1.00  0.00     0.001 A 
ATOM     78  C   UNL A   1      46.398  27.005  34.468  1.00  0.00     0.001 A 
ATOM     79  C   UNL A   1      47.620  27.274  33.855  1.00  0.00     0.000 A 
ENDBRANCH  61  74
ENDBRANCH  35  36
ENDBRANCH  27  30
ENDBRANCH  25  26
ENDBRANCH  24  25
ENDBRANCH   1  24
TORSDOF 15
ENDMDL
MODEL 3
REMARK VINA RESULT:     -10.1      2.279      7.613
REMARK SMILES [NH3+][C@@]1(C(=O)NCCCNC(=O)c2ccc(-c3c4nc(c(-c5ccccc5)c5ccc([nH]5)c(-c5ccccc5)c5nc(c(-c6ccccc6)c6ccc3[nH]6)C=C5)C=C4)cc2)CCC[C@H]1CCOc1ccccc1
REMARK SMILES IDX 6 1 5 2 3 3 4 4 2 6 60 7 63 8 61 9 62 10 1 11 64 15 65 16
REMARK SMILES IDX 66 17 67 18 68 19 72 20 69 21 71 22 70 23 7 24 8 25 9 26
REMARK SMILES IDX 10 27 11 29 12 30 13 31 59 32 14 33 58 34 15 35 16 36 17 37
REMARK SMILES IDX 52 38 18 39 57 40 51 41 53 42 19 43 56 44 50 45 49 46 20 48
REMARK SMILES IDX 42 49 27 50 41 51 28 52 31 53 40 54 54 55 29 56 30 57 39 59
REMARK SMILES IDX 55 60 32 61 21 62 22 63 26 64 23 65 25 66 24 67 43 68 44 69
REMARK SMILES IDX 48 70 45 71 47 72 46 73 33 74 34 75 38 76 35 77 37 78 36 79
REMARK H PARENT 5 5 1 12 1 13 1 14 9 28 53 47 31 58
REMARK Flexibility Score: inf
ROOT
ATOM      1  C   UNL A   1      36.451  20.773  24.969  1.00  0.00     0.118 C 
ENDROOT
BRANCH   1   2
ATOM      2  N   UNL A   1      35.184  20.078  25.013  1.00  0.00    -0.351 N 
ATOM      3  C   UNL A   1      33.902  20.514  25.046  1.00  0.00     0.281 C 
ATOM      4  O   UNL A   1      33.040  19.624  24.972  1.00  0.00    -0.268 OA
ATOM      5  H   UNL A   1      35.270  19.098  25.021  1.00  0.00     0.163 HD
BRANCH   3   6
ATOM      6  C   UNL A   1      33.453  22.026  25.170  1.00  0.00     0.176 C 
ATOM      7  C   UNL A   1      34.006  22.727  26.420  1.00  0.00     0.079 C 
ATOM      8  C   UNL A   1      31.909  22.189  25.202  1.00  0.00     0.064 C 
ATOM      9  C   UNL A   1      32.852  23.020  27.360  1.00  0.00     0.008 C 
ATOM     10  C   UNL A   1      31.566  22.782  26.588  1.00  0.00     0.011 C 
BRANCH   6  11
ATOM     11  N   UNL A   1      34.083  22.715  24.005  1.00  0.00    -0.345 N 
ATOM     12  H   UNL A   1      34.802  22.114  23.603  1.00  0.00     0.345 HD
ATOM     13  H   UNL A   1      34.505  23.590  24.316  1.00  0.00     0.345 HD
ATOM     14  H   UNL A   1      33.371  22.911  23.301  1.00  0.00     0.345 HD
ENDBRANCH   6  11
BRANCH   8  15
ATOM     15  C   UNL A   1      31.234  23.075  24.121  1.00  0.00     0.052 C 
BRANCH  15  16
ATOM     16  C   UNL A   1      31.052  24.572  24.407  1.00  0.00     0.230 C 
BRANCH  16  17
ATOM     17  O   UNL A   1      32.290  25.288  24.295  1.00  0.00    -0.494 OA
BRANCH  17  18
ATOM     18  C   UNL A   1      32.433  26.248  25.256  1.00  0.00     0.119 A 
ATOM     19  C   UNL A   1      31.367  26.688  26.037  1.00  0.00     0.046 A 
ATOM     20  C   UNL A   1      33.692  26.825  25.388  1.00  0.00     0.046 A 
ATOM     21  C   UNL A   1      31.588  27.659  27.014  1.00  0.00     0.004 A 
ATOM     22  C   UNL A   1      33.915  27.787  26.371  1.00  0.00     0.004 A 
ATOM     23  C   UNL A   1      32.866  28.194  27.193  1.00  0.00     0.000 A 
ENDBRANCH  17  18
ENDBRANCH  16  17
ENDBRANCH  15  16
ENDBRANCH   8  15
ENDBRANCH   3   6
ENDBRANCH   1   2
BRANCH   1  24
ATOM     24  C   UNL A   1      37.653  19.844  24.976  1.00  0.00     0.042 C 
BRANCH  24  25
ATOM     25  C   UNL A   1      38.859  20.405  25.715  1.00  0.00     0.118 C 
BRANCH  25  26
ATOM     26  N   UNL A   1      39.958  19.449  25.779  1.00  0.00    -0.352 N 
ATOM     27  C   UNL A   1      41.289  19.665  26.050  1.00  0.00     0.251 C 
ATOM     28  H   UNL A   1      39.711  18.513  25.604  1.00  0.00     0.163 HD
ATOM     29  O   UNL A   1      42.112  18.784  25.830  1.00  0.00    -0.269 OA
BRANCH  27  30
ATOM     30  C   UNL A   1      41.727  20.966  26.598  1.00  0.00     0.039 A 
ATOM     31  C   UNL A   1      42.206  21.950  25.728  1.00  0.00     0.014 A 
ATOM     32  C   UNL A   1      41.683  21.208  27.973  1.00  0.00     0.014 A 
ATOM     33  C   UNL A   1      42.583  23.197  26.235  1.00  0.00     0.010 A 
ATOM     34  C   UNL A   1      41.972  22.477  28.463  1.00  0.00     0.010 A 
ATOM     35  C   UNL A   1      42.439  23.481  27.602  1.00  0.00    -0.014 A 
BRANCH  35  36
ATOM     36  C   UNL A   1      42.816  24.799  28.174  1.00  0.00     0.031 A 
ATOM     37  C   UNL A   1      41.758  25.854  28.370  1.00  0.00     0.074 A 
ATOM     38  C   UNL A   1      44.106  25.074  28.454  1.00  0.00     0.049 A 
ATOM     39  N   UNL A   1      41.894  27.103  28.736  1.00  0.00    -0.248 NA
ATOM     40  C   UNL A   1      40.367  25.458  28.091  1.00  0.00     0.031 C 
ATOM     41  C   UNL A   1      45.230  24.151  28.289  1.00  0.00     0.029 A 
ATOM     42  N   UNL A   1      44.688  26.224  28.929  1.00  0.00    -0.354 N 
ATOM     43  C   UNL A   1      40.612  27.641  28.715  1.00  0.00     0.074 A 
ATOM     44  C   UNL A   1      39.721  26.604  28.245  1.00  0.00     0.031 C 
ATOM     45  C   UNL A   1      46.362  24.764  28.675  1.00  0.00     0.029 A 
ATOM     46  C   UNL A   1      46.053  26.134  29.069  1.00  0.00     0.049 A 
ATOM     47  H   UNL A   1      44.177  27.036  29.148  1.00  0.00     0.167 HD
ATOM     48  C   UNL A   1      40.204  28.878  29.084  1.00  0.00     0.031 A 
ATOM     49  C   UNL A   1      46.952  27.058  29.459  1.00  0.00     0.031 A 
ATOM     50  C   UNL A   1      41.083  29.907  29.569  1.00  0.00     0.049 A 
ATOM     51  C   UNL A   1      46.475  28.438  29.828  1.00  0.00     0.074 A 
ATOM     52  C   UNL A   1      40.764  31.186  29.990  1.00  0.00     0.029 A 
ATOM     53  N   UNL A   1      42.454  29.767  29.712  1.00  0.00    -0.354 N 
ATOM     54  N   UNL A   1      45.254  28.915  29.842  1.00  0.00    -0.248 NA
ATOM     55  C   UNL A   1      47.502  29.403  30.248  1.00  0.00     0.031 C 
ATOM     56  C   UNL A   1      41.948  31.834  30.351  1.00  0.00     0.029 A 
ATOM     57  C   UNL A   1      42.996  30.939  30.207  1.00  0.00     0.049 A 
ATOM     58  H   UNL A   1      42.966  28.954  29.492  1.00  0.00     0.167 HD
ATOM     59  C   UNL A   1      45.363  30.219  30.310  1.00  0.00     0.074 A 
ATOM     60  C   UNL A   1      46.766  30.452  30.582  1.00  0.00     0.031 C 
ATOM     61  C   UNL A   1      44.390  31.142  30.498  1.00  0.00     0.031 A 
BRANCH  48  62
ATOM     62  C   UNL A   1      38.735  29.183  28.993  1.00  0.00    -0.014 A 
ATOM     63  C   UNL A   1      37.897  29.026  30.109  1.00  0.00     0.009 A 
ATOM     64  C   UNL A   1      38.192  29.681  27.800  1.00  0.00     0.009 A 
ATOM     65  C   UNL A   1      36.538  29.336  30.023  1.00  0.00     0.001 A 
ATOM     66  C   UNL A   1      36.839  30.017  27.725  1.00  0.00     0.001 A 
ATOM     67  C   UNL A   1      36.012  29.838  28.834  1.00  0.00     0.000 A 
ENDBRANCH  48  62
BRANCH  49  68
ATOM     68  C   UNL A   1      48.402  26.726  29.522  1.00  0.00    -0.014 A 
ATOM     69  C   UNL A   1      49.249  27.023  28.441  1.00  0.00     0.009 A 
ATOM     70  C   UNL A   1      48.936  26.064  30.637  1.00  0.00     0.009 A 
ATOM     71  C   UNL A   1      50.587  26.621  28.457  1.00  0.00     0.001 A 
ATOM     72  C   UNL A   1      50.283  25.694  30.664  1.00  0.00     0.001 A 
ATOM     73  C   UNL A   1      51.103  25.958  29.568  1.00  0.00     0.000 A 
ENDBRANCH  49  68
BRANCH  61  74
ATOM     74  C   UNL A   1      44.794  32.464  31.087  1.00  0.00    -0.014 A 
ATOM     75  C   UNL A   1      45.119  33.560  30.274  1.00  0.00     0.009 A 
ATOM     76  C   UNL A   1      44.798  32.625  32.481  1.00  0.00     0.009 A 
ATOM     77  C   UNL A   1      45.472  34.782  30.849  1.00  0.00     0.001 A 
ATOM     78  C   UNL A   1      45.121  33.855  33.052  1.00  0.00     0.001 A 
ATOM     79  C   UNL A   1      45.466  34.931  32.236  1.00  0.00     0.000 A 
ENDBRANCH  61  74
ENDBRANCH  35  36
ENDBRANCH  27  30
ENDBRANCH  25  26
ENDBRANCH  24  25
ENDBRANCH   1  24
TORSDOF 15
ENDMDL
