MODEL 1
REMARK VINA RESULT:     -10.5      0.000      0.000
REMARK SMILES CCC[NH2+][C@@]1(C(=O)NCCCNC(=O)c2ccc(-c3c4nc(c(-c5ccccc5)c5ccc([nH]5)c(-c5ccccc5)c5nc(c(-c6ccccc6)c6ccc3[nH]6)C=C5)C=C4)cc2)CC[C@@H](SC2CCCC2)C1
REMARK SMILES IDX 9 1 8 2 6 3 7 4 5 6 63 7 72 8 64 9 65 10 4 11 3 14 2 15 1 16
REMARK SMILES IDX 66 17 67 18 68 19 71 20 69 21 70 22 10 23 11 24 12 25 13 26
REMARK SMILES IDX 14 28 15 29 16 30 62 31 17 32 61 33 18 34 19 35 20 36 55 37
REMARK SMILES IDX 21 38 60 39 54 40 56 41 22 42 59 43 53 44 52 45 23 47 45 48
REMARK SMILES IDX 30 49 44 50 31 51 34 52 43 53 57 54 32 55 33 56 42 58 58 59
REMARK SMILES IDX 35 60 24 61 25 62 29 63 26 64 28 65 27 66 46 67 47 68 51 69
REMARK SMILES IDX 48 70 50 71 49 72 36 73 37 74 41 75 38 76 40 77 39 78
REMARK H PARENT 8 5 4 12 4 13 12 27 56 46 34 57
REMARK Flexibility Score: inf
ROOT
ATOM      1  C   UNL A   1      36.543  20.420  25.036  1.00  0.00     0.118 C 
ENDROOT
BRANCH   1   2
ATOM      2  N   UNL A   1      35.423  19.526  25.015  1.00  0.00    -0.351 N 
ATOM      3  C   UNL A   1      34.143  19.786  24.645  1.00  0.00     0.281 C 
ATOM      4  O   UNL A   1      33.549  18.822  24.138  1.00  0.00    -0.268 OA
ATOM      5  H   UNL A   1      35.605  18.603  25.308  1.00  0.00     0.163 HD
BRANCH   3   6
ATOM      6  C   UNL A   1      33.422  21.192  24.797  1.00  0.00     0.176 C 
ATOM      7  C   UNL A   1      32.200  21.287  23.854  1.00  0.00     0.080 C 
ATOM      8  C   UNL A   1      34.233  22.469  24.501  1.00  0.00     0.093 C 
ATOM      9  C   UNL A   1      32.600  22.144  22.657  1.00  0.00     0.022 C 
ATOM     10  C   UNL A   1      33.762  23.008  23.137  1.00  0.00     0.054 C 
BRANCH   6  11
ATOM     11  N   UNL A   1      32.872  21.228  26.195  1.00  0.00    -0.334 N 
ATOM     12  H   UNL A   1      31.872  21.037  26.147  1.00  0.00     0.347 HD
ATOM     13  H   UNL A   1      33.392  20.529  26.725  1.00  0.00     0.347 HD
BRANCH  11  14
ATOM     14  C   UNL A   1      33.061  22.506  26.901  1.00  0.00     0.261 C 
BRANCH  14  15
ATOM     15  C   UNL A   1      31.720  23.091  27.374  1.00  0.00     0.058 C 
ATOM     16  C   UNL A   1      30.584  22.956  26.365  1.00  0.00     0.010 C 
ENDBRANCH  14  15
ENDBRANCH  11  14
ENDBRANCH   6  11
BRANCH  10  17
ATOM     17  S   UNL A   1      33.598  24.828  22.959  1.00  0.00    -0.155 SA
BRANCH  17  18
ATOM     18  C   UNL A   1      32.607  25.452  24.362  1.00  0.00     0.047 C 
ATOM     19  C   UNL A   1      33.300  26.142  25.527  1.00  0.00     0.014 C 
ATOM     20  C   UNL A   1      31.460  26.391  24.023  1.00  0.00     0.014 C 
ATOM     21  C   UNL A   1      32.143  26.644  26.373  1.00  0.00     0.001 C 
ATOM     22  C   UNL A   1      31.045  26.996  25.369  1.00  0.00     0.001 C 
ENDBRANCH  17  18
ENDBRANCH  10  17
ENDBRANCH   3   6
ENDBRANCH   1   2
BRANCH   1  23
ATOM     23  C   UNL A   1      37.878  19.762  24.783  1.00  0.00     0.042 C 
BRANCH  23  24
ATOM     24  C   UNL A   1      38.938  20.267  25.737  1.00  0.00     0.118 C 
BRANCH  24  25
ATOM     25  N   UNL A   1      40.064  19.338  25.848  1.00  0.00    -0.352 N 
ATOM     26  C   UNL A   1      41.392  19.578  26.088  1.00  0.00     0.251 C 
ATOM     27  H   UNL A   1      39.830  18.389  25.731  1.00  0.00     0.163 HD
ATOM     28  O   UNL A   1      42.222  18.693  25.895  1.00  0.00    -0.269 OA
BRANCH  26  29
ATOM     29  C   UNL A   1      41.813  20.902  26.573  1.00  0.00     0.039 A 
ATOM     30  C   UNL A   1      42.190  21.887  25.659  1.00  0.00     0.014 A 
ATOM     31  C   UNL A   1      41.822  21.170  27.943  1.00  0.00     0.014 A 
ATOM     32  C   UNL A   1      42.506  23.162  26.122  1.00  0.00     0.010 A 
ATOM     33  C   UNL A   1      41.994  22.468  28.387  1.00  0.00     0.010 A 
ATOM     34  C   UNL A   1      42.368  23.472  27.485  1.00  0.00    -0.014 A 
BRANCH  34  35
ATOM     35  C   UNL A   1      42.647  24.826  28.013  1.00  0.00     0.031 A 
ATOM     36  C   UNL A   1      44.045  25.180  28.440  1.00  0.00     0.074 A 
ATOM     37  C   UNL A   1      41.635  25.696  28.181  1.00  0.00     0.049 A 
ATOM     38  N   UNL A   1      44.482  26.276  29.004  1.00  0.00    -0.248 NA
ATOM     39  C   UNL A   1      45.085  24.153  28.245  1.00  0.00     0.031 C 
ATOM     40  C   UNL A   1      40.228  25.442  27.854  1.00  0.00     0.029 A 
ATOM     41  N   UNL A   1      41.634  26.975  28.675  1.00  0.00    -0.354 N 
ATOM     42  C   UNL A   1      45.831  26.057  29.253  1.00  0.00     0.074 A 
ATOM     43  C   UNL A   1      46.128  24.704  28.846  1.00  0.00     0.031 C 
ATOM     44  C   UNL A   1      39.510  26.545  28.115  1.00  0.00     0.029 A 
ATOM     45  C   UNL A   1      40.393  27.563  28.673  1.00  0.00     0.049 A 
ATOM     46  H   UNL A   1      42.445  27.428  28.998  1.00  0.00     0.167 HD
ATOM     47  C   UNL A   1      46.752  26.918  29.747  1.00  0.00     0.031 A 
ATOM     48  C   UNL A   1      40.012  28.787  29.081  1.00  0.00     0.031 A 
ATOM     49  C   UNL A   1      46.453  28.270  30.128  1.00  0.00     0.049 A 
ATOM     50  C   UNL A   1      41.052  29.723  29.631  1.00  0.00     0.074 A 
ATOM     51  C   UNL A   1      47.319  29.248  30.581  1.00  0.00     0.029 A 
ATOM     52  N   UNL A   1      45.187  28.833  30.099  1.00  0.00    -0.354 N 
ATOM     53  N   UNL A   1      42.340  29.529  29.790  1.00  0.00    -0.248 NA
ATOM     54  C   UNL A   1      40.586  31.053  30.049  1.00  0.00     0.031 C 
ATOM     55  C   UNL A   1      46.567  30.388  30.881  1.00  0.00     0.029 A 
ATOM     56  C   UNL A   1      45.243  30.140  30.551  1.00  0.00     0.049 A 
ATOM     57  H   UNL A   1      44.370  28.373  29.800  1.00  0.00     0.167 HD
ATOM     58  C   UNL A   1      42.843  30.720  30.296  1.00  0.00     0.074 A 
ATOM     59  C   UNL A   1      41.724  31.635  30.400  1.00  0.00     0.031 C 
ATOM     60  C   UNL A   1      44.115  31.031  30.643  1.00  0.00     0.031 A 
BRANCH  47  61
ATOM     61  C   UNL A   1      48.160  26.414  29.899  1.00  0.00    -0.014 A 
ATOM     62  C   UNL A   1      49.092  26.519  28.853  1.00  0.00     0.009 A 
ATOM     63  C   UNL A   1      48.569  25.842  31.114  1.00  0.00     0.009 A 
ATOM     64  C   UNL A   1      50.389  26.026  29.006  1.00  0.00     0.001 A 
ATOM     65  C   UNL A   1      49.877  25.381  31.277  1.00  0.00     0.001 A 
ATOM     66  C   UNL A   1      50.782  25.462  30.220  1.00  0.00     0.000 A 
ENDBRANCH  47  61
BRANCH  48  67
ATOM     67  C   UNL A   1      38.591  29.206  28.965  1.00  0.00    -0.014 A 
ATOM     68  C   UNL A   1      38.094  29.711  27.753  1.00  0.00     0.009 A 
ATOM     69  C   UNL A   1      37.722  29.106  30.063  1.00  0.00     0.009 A 
ATOM     70  C   UNL A   1      36.767  30.136  27.653  1.00  0.00     0.001 A 
ATOM     71  C   UNL A   1      36.387  29.501  29.950  1.00  0.00     0.001 A 
ATOM     72  C   UNL A   1      35.914  30.027  28.749  1.00  0.00     0.000 A 
ENDBRANCH  48  67
BRANCH  60  73
ATOM     73  C   UNL A   1      44.371  32.429  31.129  1.00  0.00    -0.014 A 
ATOM     74  C   UNL A   1      44.322  32.750  32.495  1.00  0.00     0.009 A 
ATOM     75  C   UNL A   1      44.712  33.430  30.206  1.00  0.00     0.009 A 
ATOM     76  C   UNL A   1      44.573  34.056  32.920  1.00  0.00     0.001 A 
ATOM     77  C   UNL A   1      44.996  34.725  30.637  1.00  0.00     0.001 A 
ATOM     78  C   UNL A   1      44.915  35.039  31.993  1.00  0.00     0.000 A 
ENDBRANCH  60  73
ENDBRANCH  34  35
ENDBRANCH  26  29
ENDBRANCH  24  25
ENDBRANCH  23  24
ENDBRANCH   1  23
TORSDOF 15
ENDMDL
MODEL 2
REMARK VINA RESULT:     -10.4      4.200      9.090
REMARK SMILES CCC[NH2+][C@@]1(C(=O)NCCCNC(=O)c2ccc(-c3c4nc(c(-c5ccccc5)c5ccc([nH]5)c(-c5ccccc5)c5nc(c(-c6ccccc6)c6ccc3[nH]6)C=C5)C=C4)cc2)CC[C@@H](SC2CCCC2)C1
REMARK SMILES IDX 9 1 8 2 6 3 7 4 5 6 63 7 72 8 64 9 65 10 4 11 3 14 2 15 1 16
REMARK SMILES IDX 66 17 67 18 68 19 71 20 69 21 70 22 10 23 11 24 12 25 13 26
REMARK SMILES IDX 14 28 15 29 16 30 62 31 17 32 61 33 18 34 19 35 20 36 55 37
REMARK SMILES IDX 21 38 60 39 54 40 56 41 22 42 59 43 53 44 52 45 23 47 45 48
REMARK SMILES IDX 30 49 44 50 31 51 34 52 43 53 57 54 32 55 33 56 42 58 58 59
REMARK SMILES IDX 35 60 24 61 25 62 29 63 26 64 28 65 27 66 46 67 47 68 51 69
REMARK SMILES IDX 48 70 50 71 49 72 36 73 37 74 41 75 38 76 40 77 39 78
REMARK H PARENT 8 5 4 12 4 13 12 27 56 46 34 57
REMARK Flexibility Score: inf
ROOT
ATOM      1  C   UNL A   1      31.397  30.631  26.637  1.00  0.00     0.118 C 
ENDROOT
BRANCH   1   2
ATOM      2  N   UNL A   1      32.475  29.997  27.336  1.00  0.00    -0.351 N 
ATOM      3  C   UNL A   1      33.449  29.195  26.834  1.00  0.00     0.281 C 
ATOM      4  O   UNL A   1      34.535  29.273  27.429  1.00  0.00    -0.268 OA
ATOM      5  H   UNL A   1      32.515  30.164  28.305  1.00  0.00     0.163 HD
BRANCH   3   6
ATOM      6  C   UNL A   1      33.281  28.239  25.578  1.00  0.00     0.176 C 
ATOM      7  C   UNL A   1      31.793  27.886  25.351  1.00  0.00     0.080 C 
ATOM      8  C   UNL A   1      34.000  26.875  25.592  1.00  0.00     0.093 C 
ATOM      9  C   UNL A   1      31.565  26.471  25.874  1.00  0.00     0.022 C 
ATOM     10  C   UNL A   1      32.931  25.795  25.848  1.00  0.00     0.054 C 
BRANCH   6  11
ATOM     11  N   UNL A   1      33.704  29.045  24.383  1.00  0.00    -0.334 N 
ATOM     12  H   UNL A   1      33.591  30.033  24.611  1.00  0.00     0.347 HD
ATOM     13  H   UNL A   1      34.670  28.783  24.189  1.00  0.00     0.347 HD
BRANCH  11  14
ATOM     14  C   UNL A   1      32.946  28.771  23.151  1.00  0.00     0.261 C 
BRANCH  14  15
ATOM     15  C   UNL A   1      33.769  27.936  22.157  1.00  0.00     0.058 C 
ATOM     16  C   UNL A   1      33.213  26.540  21.898  1.00  0.00     0.010 C 
ENDBRANCH  14  15
ENDBRANCH  11  14
ENDBRANCH   6  11
BRANCH  10  17
ATOM     17  S   UNL A   1      33.083  24.220  24.918  1.00  0.00    -0.155 SA
BRANCH  17  18
ATOM     18  C   UNL A   1      34.836  24.002  24.448  1.00  0.00     0.047 C 
ATOM     19  C   UNL A   1      35.877  23.727  25.522  1.00  0.00     0.014 C 
ATOM     20  C   UNL A   1      35.133  22.952  23.389  1.00  0.00     0.014 C 
ATOM     21  C   UNL A   1      37.139  23.449  24.723  1.00  0.00     0.001 C 
ATOM     22  C   UNL A   1      36.652  22.761  23.447  1.00  0.00     0.001 C 
ENDBRANCH  17  18
ENDBRANCH  10  17
ENDBRANCH   3   6
ENDBRANCH   1   2
BRANCH   1  23
ATOM     23  C   UNL A   1      31.427  32.140  26.669  1.00  0.00     0.042 C 
BRANCH  23  24
ATOM     24  C   UNL A   1      32.724  32.659  27.253  1.00  0.00     0.118 C 
BRANCH  24  25
ATOM     25  N   UNL A   1      32.582  34.015  27.786  1.00  0.00    -0.352 N 
ATOM     26  C   UNL A   1      33.261  34.648  28.794  1.00  0.00     0.251 C 
ATOM     27  H   UNL A   1      31.888  34.560  27.350  1.00  0.00     0.163 HD
ATOM     28  O   UNL A   1      32.829  35.698  29.262  1.00  0.00    -0.269 OA
BRANCH  26  29
ATOM     29  C   UNL A   1      34.505  34.056  29.312  1.00  0.00     0.039 A 
ATOM     30  C   UNL A   1      34.451  33.136  30.360  1.00  0.00     0.014 A 
ATOM     31  C   UNL A   1      35.731  34.411  28.747  1.00  0.00     0.014 A 
ATOM     32  C   UNL A   1      35.624  32.518  30.787  1.00  0.00     0.010 A 
ATOM     33  C   UNL A   1      36.868  33.695  29.071  1.00  0.00     0.010 A 
ATOM     34  C   UNL A   1      36.834  32.763  30.116  1.00  0.00    -0.014 A 
BRANCH  34  35
ATOM     35  C   UNL A   1      38.095  32.093  30.505  1.00  0.00     0.031 A 
ATOM     36  C   UNL A   1      39.006  32.754  31.504  1.00  0.00     0.074 A 
ATOM     37  C   UNL A   1      38.451  30.944  29.904  1.00  0.00     0.049 A 
ATOM     38  N   UNL A   1      40.189  32.378  31.915  1.00  0.00    -0.248 NA
ATOM     39  C   UNL A   1      38.546  34.026  32.091  1.00  0.00     0.031 C 
ATOM     40  C   UNL A   1      37.673  30.240  28.880  1.00  0.00     0.029 A 
ATOM     41  N   UNL A   1      39.567  30.164  30.065  1.00  0.00    -0.354 N 
ATOM     42  C   UNL A   1      40.620  33.376  32.780  1.00  0.00     0.074 A 
ATOM     43  C   UNL A   1      39.608  34.407  32.783  1.00  0.00     0.031 C 
ATOM     44  C   UNL A   1      38.314  29.112  28.539  1.00  0.00     0.029 A 
ATOM     45  C   UNL A   1      39.569  29.038  29.279  1.00  0.00     0.049 A 
ATOM     46  H   UNL A   1      40.296  30.389  30.687  1.00  0.00     0.167 HD
ATOM     47  C   UNL A   1      41.744  33.418  33.533  1.00  0.00     0.031 A 
ATOM     48  C   UNL A   1      40.484  28.059  29.168  1.00  0.00     0.031 A 
ATOM     49  C   UNL A   1      42.735  32.378  33.542  1.00  0.00     0.049 A 
ATOM     50  C   UNL A   1      41.728  28.130  30.010  1.00  0.00     0.074 A 
ATOM     51  C   UNL A   1      43.880  32.286  34.311  1.00  0.00     0.029 A 
ATOM     52  N   UNL A   1      42.693  31.247  32.741  1.00  0.00    -0.354 N 
ATOM     53  N   UNL A   1      42.086  29.044  30.880  1.00  0.00    -0.248 NA
ATOM     54  C   UNL A   1      42.688  27.029  29.861  1.00  0.00     0.031 C 
ATOM     55  C   UNL A   1      44.563  31.126  33.934  1.00  0.00     0.029 A 
ATOM     56  C   UNL A   1      43.808  30.463  32.979  1.00  0.00     0.049 A 
ATOM     57  H   UNL A   1      41.978  31.034  32.100  1.00  0.00     0.167 HD
ATOM     58  C   UNL A   1      43.297  28.612  31.405  1.00  0.00     0.074 A 
ATOM     59  C   UNL A   1      43.601  27.347  30.768  1.00  0.00     0.031 C 
ATOM     60  C   UNL A   1      44.087  29.206  32.332  1.00  0.00     0.031 A 
BRANCH  47  61
ATOM     61  C   UNL A   1      41.952  34.628  34.401  1.00  0.00    -0.014 A 
ATOM     62  C   UNL A   1      42.597  35.777  33.912  1.00  0.00     0.009 A 
ATOM     63  C   UNL A   1      41.479  34.629  35.722  1.00  0.00     0.009 A 
ATOM     64  C   UNL A   1      42.800  36.882  34.740  1.00  0.00     0.001 A 
ATOM     65  C   UNL A   1      41.653  35.749  36.537  1.00  0.00     0.001 A 
ATOM     66  C   UNL A   1      42.323  36.870  36.050  1.00  0.00     0.000 A 
ENDBRANCH  47  61
BRANCH  48  67
ATOM     67  C   UNL A   1      40.251  26.919  28.242  1.00  0.00    -0.014 A 
ATOM     68  C   UNL A   1      39.522  25.797  28.664  1.00  0.00     0.009 A 
ATOM     69  C   UNL A   1      40.758  26.943  26.933  1.00  0.00     0.009 A 
ATOM     70  C   UNL A   1      39.331  24.711  27.806  1.00  0.00     0.001 A 
ATOM     71  C   UNL A   1      40.538  25.870  26.067  1.00  0.00     0.001 A 
ATOM     72  C   UNL A   1      39.835  24.750  26.508  1.00  0.00     0.000 A 
ENDBRANCH  48  67
BRANCH  60  73
ATOM     73  C   UNL A   1      45.335  28.476  32.740  1.00  0.00    -0.014 A 
ATOM     74  C   UNL A   1      45.326  27.539  33.784  1.00  0.00     0.009 A 
ATOM     75  C   UNL A   1      46.528  28.699  32.035  1.00  0.00     0.009 A 
ATOM     76  C   UNL A   1      46.498  26.867  34.137  1.00  0.00     0.001 A 
ATOM     77  C   UNL A   1      47.688  28.001  32.367  1.00  0.00     0.001 A 
ATOM     78  C   UNL A   1      47.675  27.094  33.425  1.00  0.00     0.000 A 
ENDBRANCH  60  73
ENDBRANCH  34  35
ENDBRANCH  26  29
ENDBRANCH  24  25
ENDBRANCH  23  24
ENDBRANCH   1  23
TORSDOF 15
ENDMDL
MODEL 3
REMARK VINA RESULT:     -10.3      4.398      9.178
REMARK SMILES CCC[NH2+][C@@]1(C(=O)NCCCNC(=O)c2ccc(-c3c4nc(c(-c5ccccc5)c5ccc([nH]5)c(-c5ccccc5)c5nc(c(-c6ccccc6)c6ccc3[nH]6)C=C5)C=C4)cc2)CC[C@@H](SC2CCCC2)C1
REMARK SMILES IDX 9 1 8 2 6 3 7 4 5 6 63 7 72 8 64 9 65 10 4 11 3 14 2 15 1 16
REMARK SMILES IDX 66 17 67 18 68 19 71 20 69 21 70 22 10 23 11 24 12 25 13 26
REMARK SMILES IDX 14 28 15 29 16 30 62 31 17 32 61 33 18 34 19 35 20 36 55 37
REMARK SMILES IDX 21 38 60 39 54 40 56 41 22 42 59 43 53 44 52 45 23 47 45 48
REMARK SMILES IDX 30 49 44 50 31 51 34 52 43 53 57 54 32 55 33 56 42 58 58 59
REMARK SMILES IDX 35 60 24 61 25 62 29 63 26 64 28 65 27 66 46 67 47 68 51 69
REMARK SMILES IDX 48 70 50 71 49 72 36 73 37 74 41 75 38 76 40 77 39 78
REMARK H PARENT 8 5 4 12 4 13 12 27 56 46 34 57
REMARK Flexibility Score: inf
ROOT
ATOM      1  C   UNL A   1      31.587  30.963  26.515  1.00  0.00     0.118 C 
ENDROOT
BRANCH   1   2
ATOM      2  N   UNL A   1      32.555  30.261  27.305  1.00  0.00    -0.351 N 
ATOM      3  C   UNL A   1      33.475  29.350  26.897  1.00  0.00     0.281 C 
ATOM      4  O   UNL A   1      34.527  29.351  27.557  1.00  0.00    -0.268 OA
ATOM      5  H   UNL A   1      32.553  30.466  28.268  1.00  0.00     0.163 HD
BRANCH   3   6
ATOM      6  C   UNL A   1      33.291  28.360  25.670  1.00  0.00     0.176 C 
ATOM      7  C   UNL A   1      31.801  27.995  25.477  1.00  0.00     0.080 C 
ATOM      8  C   UNL A   1      34.016  27.000  25.709  1.00  0.00     0.093 C 
ATOM      9  C   UNL A   1      31.587  26.594  26.041  1.00  0.00     0.022 C 
ATOM     10  C   UNL A   1      32.956  25.922  26.011  1.00  0.00     0.054 C 
BRANCH   6  11
ATOM     11  N   UNL A   1      33.692  29.135  24.447  1.00  0.00    -0.334 N 
ATOM     12  H   UNL A   1      33.539  30.126  24.635  1.00  0.00     0.347 HD
ATOM     13  H   UNL A   1      34.670  28.904  24.270  1.00  0.00     0.347 HD
BRANCH  11  14
ATOM     14  C   UNL A   1      32.956  28.784  23.222  1.00  0.00     0.261 C 
BRANCH  14  15
ATOM     15  C   UNL A   1      33.834  27.982  22.248  1.00  0.00     0.058 C 
ATOM     16  C   UNL A   1      33.390  26.537  22.042  1.00  0.00     0.010 C 
ENDBRANCH  14  15
ENDBRANCH  11  14
ENDBRANCH   6  11
BRANCH  10  17
ATOM     17  S   UNL A   1      33.099  24.324  25.121  1.00  0.00    -0.155 SA
BRANCH  17  18
ATOM     18  C   UNL A   1      34.840  24.111  24.607  1.00  0.00     0.047 C 
ATOM     19  C   UNL A   1      35.891  23.731  25.638  1.00  0.00     0.014 C 
ATOM     20  C   UNL A   1      35.100  23.145  23.461  1.00  0.00     0.014 C 
ATOM     21  C   UNL A   1      37.135  23.495  24.798  1.00  0.00     0.001 C 
ATOM     22  C   UNL A   1      36.616  22.922  23.480  1.00  0.00     0.001 C 
ENDBRANCH  17  18
ENDBRANCH  10  17
ENDBRANCH   3   6
ENDBRANCH   1   2
BRANCH   1  23
ATOM     23  C   UNL A   1      31.401  32.413  26.890  1.00  0.00     0.042 C 
BRANCH  23  24
ATOM     24  C   UNL A   1      32.726  33.095  27.154  1.00  0.00     0.118 C 
BRANCH  24  25
ATOM     25  N   UNL A   1      32.573  34.290  27.986  1.00  0.00    -0.352 N 
ATOM     26  C   UNL A   1      33.262  34.689  29.101  1.00  0.00     0.251 C 
ATOM     27  H   UNL A   1      31.860  34.905  27.698  1.00  0.00     0.163 HD
ATOM     28  O   UNL A   1      32.823  35.595  29.805  1.00  0.00    -0.269 OA
BRANCH  26  29
ATOM     29  C   UNL A   1      34.528  34.022  29.448  1.00  0.00     0.039 A 
ATOM     30  C   UNL A   1      35.674  34.277  28.694  1.00  0.00     0.014 A 
ATOM     31  C   UNL A   1      34.577  33.148  30.534  1.00  0.00     0.014 A 
ATOM     32  C   UNL A   1      36.885  33.707  29.081  1.00  0.00     0.010 A 
ATOM     33  C   UNL A   1      35.799  32.701  31.000  1.00  0.00     0.010 A 
ATOM     34  C   UNL A   1      36.963  32.950  30.262  1.00  0.00    -0.014 A 
BRANCH  34  35
ATOM     35  C   UNL A   1      38.237  32.365  30.735  1.00  0.00     0.031 A 
ATOM     36  C   UNL A   1      38.740  31.088  30.120  1.00  0.00     0.074 A 
ATOM     37  C   UNL A   1      38.890  32.937  31.763  1.00  0.00     0.049 A 
ATOM     38  N   UNL A   1      39.783  30.370  30.446  1.00  0.00    -0.248 NA
ATOM     39  C   UNL A   1      37.944  30.518  29.017  1.00  0.00     0.031 C 
ATOM     40  C   UNL A   1      38.468  34.148  32.474  1.00  0.00     0.029 A 
ATOM     41  N   UNL A   1      40.051  32.572  32.393  1.00  0.00    -0.354 N 
ATOM     42  C   UNL A   1      39.750  29.260  29.612  1.00  0.00     0.074 A 
ATOM     43  C   UNL A   1      38.550  29.359  28.815  1.00  0.00     0.031 C 
ATOM     44  C   UNL A   1      39.380  34.448  33.412  1.00  0.00     0.029 A 
ATOM     45  C   UNL A   1      40.421  33.426  33.403  1.00  0.00     0.049 A 
ATOM     46  H   UNL A   1      40.571  31.774  32.145  1.00  0.00     0.167 HD
ATOM     47  C   UNL A   1      40.655  28.260  29.496  1.00  0.00     0.031 A 
ATOM     48  C   UNL A   1      41.481  33.385  34.230  1.00  0.00     0.031 A 
ATOM     49  C   UNL A   1      41.858  28.181  30.277  1.00  0.00     0.049 A 
ATOM     50  C   UNL A   1      42.470  32.262  34.085  1.00  0.00     0.074 A 
ATOM     51  C   UNL A   1      42.875  27.248  30.199  1.00  0.00     0.029 A 
ATOM     52  N   UNL A   1      42.203  29.073  31.280  1.00  0.00    -0.354 N 
ATOM     53  N   UNL A   1      42.465  31.259  33.240  1.00  0.00    -0.248 NA
ATOM     54  C   UNL A   1      43.617  32.273  35.003  1.00  0.00     0.031 C 
ATOM     55  C   UNL A   1      43.810  27.543  31.196  1.00  0.00     0.029 A 
ATOM     56  C   UNL A   1      43.408  28.698  31.848  1.00  0.00     0.049 A 
ATOM     57  H   UNL A   1      41.671  29.857  31.548  1.00  0.00     0.167 HD
ATOM     58  C   UNL A   1      43.621  30.537  33.503  1.00  0.00     0.074 A 
ATOM     59  C   UNL A   1      44.311  31.229  34.573  1.00  0.00     0.031 C 
ATOM     60  C   UNL A   1      44.074  29.404  32.912  1.00  0.00     0.031 A 
BRANCH  47  61
ATOM     61  C   UNL A   1      40.370  27.181  28.489  1.00  0.00    -0.014 A 
ATOM     62  C   UNL A   1      40.886  27.242  27.184  1.00  0.00     0.009 A 
ATOM     63  C   UNL A   1      39.588  26.073  28.856  1.00  0.00     0.009 A 
ATOM     64  C   UNL A   1      40.592  26.241  26.257  1.00  0.00     0.001 A 
ATOM     65  C   UNL A   1      39.325  25.055  27.937  1.00  0.00     0.001 A 
ATOM     66  C   UNL A   1      39.817  25.146  26.636  1.00  0.00     0.000 A 
ENDBRANCH  47  61
BRANCH  48  67
ATOM     67  C   UNL A   1      41.675  34.449  35.250  1.00  0.00    -0.014 A 
ATOM     68  C   UNL A   1      41.136  34.307  36.538  1.00  0.00     0.009 A 
ATOM     69  C   UNL A   1      42.397  35.613  34.944  1.00  0.00     0.009 A 
ATOM     70  C   UNL A   1      41.289  35.321  37.487  1.00  0.00     0.001 A 
ATOM     71  C   UNL A   1      42.576  36.611  35.904  1.00  0.00     0.001 A 
ATOM     72  C   UNL A   1      42.012  36.470  37.171  1.00  0.00     0.000 A 
ENDBRANCH  48  67
BRANCH  60  73
ATOM     73  C   UNL A   1      45.395  28.866  33.384  1.00  0.00    -0.014 A 
ATOM     74  C   UNL A   1      46.604  29.286  32.809  1.00  0.00     0.009 A 
ATOM     75  C   UNL A   1      45.428  27.956  34.452  1.00  0.00     0.009 A 
ATOM     76  C   UNL A   1      47.818  28.777  33.273  1.00  0.00     0.001 A 
ATOM     77  C   UNL A   1      46.644  27.475  34.936  1.00  0.00     0.001 A 
ATOM     78  C   UNL A   1      47.837  27.877  34.338  1.00  0.00     0.000 A 
ENDBRANCH  60  73
ENDBRANCH  34  35
ENDBRANCH  26  29
ENDBRANCH  24  25
ENDBRANCH  23  24
ENDBRANCH   1  23
TORSDOF 15
ENDMDL
