MODEL 1
REMARK VINA RESULT:      -8.5      0.000      0.000
REMARK SMILES CC[C@H](CC#N)[NH2+]Cc1cc(C(=O)NCCCNC(=O)c2ccc(-c3c4nc(c(-c5ccccc5)c5ccc([nH]5)c(-c5ccccc5)c5nc(c(-c6ccccc6)c6ccc3[nH]6)C=C5)C=C4)cc2)cs1
REMARK SMILES IDX 12 1 13 2 14 3 11 5 9 6 10 7 70 8 69 9 8 10 7 11 3 14 2 15
REMARK SMILES IDX 1 16 4 17 5 18 6 19 15 20 16 21 17 22 18 23 19 24 20 26
REMARK SMILES IDX 21 27 22 28 68 29 23 30 67 31 24 32 25 33 26 34 61 35 27 36
REMARK SMILES IDX 66 37 60 38 62 39 28 40 65 41 59 42 58 43 29 45 51 46 36 47
REMARK SMILES IDX 50 48 37 49 40 50 49 51 63 52 38 53 39 54 48 56 64 57 41 58
REMARK SMILES IDX 30 59 31 60 35 61 32 62 34 63 33 64 52 65 53 66 57 67 54 68
REMARK SMILES IDX 56 69 55 70 42 71 43 72 47 73 44 74 46 75 45 76
REMARK H PARENT 14 4 7 12 7 13 18 25 62 44 40 55
REMARK Flexibility Score: inf
ROOT
ATOM      1  C   UNL A   1      47.592  25.193  24.768  1.00  0.00     0.252 C 
ATOM      2  O   UNL A   1      47.974  25.286  23.598  1.00  0.00    -0.269 OA
ATOM      3  N   UNL A   1      48.514  25.391  25.762  1.00  0.00    -0.352 N 
ATOM      4  H   UNL A   1      49.407  25.655  25.442  1.00  0.00     0.163 HD
ENDROOT
BRANCH   1   5
ATOM      5  C   UNL A   1      46.237  24.775  25.100  1.00  0.00     0.051 A 
ATOM      6  C   UNL A   1      44.332  23.439  25.445  1.00  0.00     0.059 A 
ATOM      7  C   UNL A   1      45.708  23.461  25.318  1.00  0.00     0.035 A 
ATOM      8  S   UNL A   1      43.689  25.019  25.317  1.00  0.00    -0.142 S 
ATOM      9  C   UNL A   1      45.245  25.715  25.322  1.00  0.00     0.079 A 
BRANCH   6  10
ATOM     10  C   UNL A   1      43.445  22.241  25.612  1.00  0.00     0.308 C 
BRANCH  10  11
ATOM     11  N   UNL A   1      44.202  21.006  25.854  1.00  0.00    -0.339 N 
ATOM     12  H   UNL A   1      45.093  21.077  25.363  1.00  0.00     0.346 HD
ATOM     13  H   UNL A   1      44.310  20.924  26.865  1.00  0.00     0.346 HD
BRANCH  11  14
ATOM     14  C   UNL A   1      43.524  19.775  25.402  1.00  0.00     0.196 C 
BRANCH  14  15
ATOM     15  C   UNL A   1      42.488  19.272  26.432  1.00  0.00     0.063 C 
ATOM     16  C   UNL A   1      41.130  19.956  26.457  1.00  0.00     0.010 C 
ENDBRANCH  14  15
BRANCH  14  17
ATOM     17  C   UNL A   1      44.587  18.710  25.057  1.00  0.00     0.184 C 
BRANCH  17  18
ATOM     18  C   UNL A   1      45.888  19.454  24.802  1.00  0.00     0.068 C 
ATOM     19  N   UNL A   1      46.967  20.071  24.588  1.00  0.00    -0.198 NA
ENDBRANCH  17  18
ENDBRANCH  14  17
ENDBRANCH  11  14
ENDBRANCH  10  11
ENDBRANCH   6  10
ENDBRANCH   1   5
BRANCH   3  20
ATOM     20  C   UNL A   1      48.402  25.278  27.204  1.00  0.00     0.118 C 
BRANCH  20  21
ATOM     21  C   UNL A   1      49.745  25.204  27.921  1.00  0.00     0.042 C 
BRANCH  21  22
ATOM     22  C   UNL A   1      49.634  25.322  29.438  1.00  0.00     0.118 C 
BRANCH  22  23
ATOM     23  N   UNL A   1      50.441  26.419  29.964  1.00  0.00    -0.352 N 
ATOM     24  C   UNL A   1      50.156  27.752  30.101  1.00  0.00     0.251 C 
ATOM     25  H   UNL A   1      51.339  26.157  30.272  1.00  0.00     0.163 HD
ATOM     26  O   UNL A   1      51.070  28.554  30.269  1.00  0.00    -0.269 OA
BRANCH  24  27
ATOM     27  C   UNL A   1      48.759  28.222  30.067  1.00  0.00     0.039 A 
ATOM     28  C   UNL A   1      47.962  28.080  31.206  1.00  0.00     0.014 A 
ATOM     29  C   UNL A   1      48.218  28.748  28.891  1.00  0.00     0.014 A 
ATOM     30  C   UNL A   1      46.637  28.515  31.177  1.00  0.00     0.010 A 
ATOM     31  C   UNL A   1      46.930  29.263  28.892  1.00  0.00     0.010 A 
ATOM     32  C   UNL A   1      46.122  29.139  30.029  1.00  0.00    -0.014 A 
BRANCH  32  33
ATOM     33  C   UNL A   1      44.738  29.667  29.995  1.00  0.00     0.031 A 
ATOM     34  C   UNL A   1      43.618  28.818  29.462  1.00  0.00     0.074 A 
ATOM     35  C   UNL A   1      44.512  30.937  30.377  1.00  0.00     0.049 A 
ATOM     36  N   UNL A   1      42.355  29.123  29.307  1.00  0.00    -0.248 NA
ATOM     37  C   UNL A   1      43.968  27.461  29.012  1.00  0.00     0.031 C 
ATOM     38  C   UNL A   1      45.531  31.871  30.862  1.00  0.00     0.029 A 
ATOM     39  N   UNL A   1      43.350  31.665  30.411  1.00  0.00    -0.354 N 
ATOM     40  C   UNL A   1      41.768  28.007  28.727  1.00  0.00     0.074 A 
ATOM     41  C   UNL A   1      42.820  27.041  28.502  1.00  0.00     0.031 C 
ATOM     42  C   UNL A   1      44.944  33.036  31.177  1.00  0.00     0.029 A 
ATOM     43  C   UNL A   1      43.520  32.946  30.875  1.00  0.00     0.049 A 
ATOM     44  H   UNL A   1      42.479  31.303  30.129  1.00  0.00     0.167 HD
ATOM     45  C   UNL A   1      40.464  27.796  28.426  1.00  0.00     0.031 A 
ATOM     46  C   UNL A   1      42.627  33.939  31.033  1.00  0.00     0.031 A 
ATOM     47  C   UNL A   1      39.424  28.762  28.654  1.00  0.00     0.049 A 
ATOM     48  C   UNL A   1      41.188  33.687  30.685  1.00  0.00     0.074 A 
ATOM     49  C   UNL A   1      38.062  28.629  28.446  1.00  0.00     0.029 A 
ATOM     50  N   UNL A   1      39.633  30.047  29.133  1.00  0.00    -0.354 N 
ATOM     51  N   UNL A   1      40.632  32.596  30.216  1.00  0.00    -0.248 NA
ATOM     52  C   UNL A   1      40.253  34.798  30.902  1.00  0.00     0.031 C 
ATOM     53  C   UNL A   1      37.456  29.856  28.738  1.00  0.00     0.029 A 
ATOM     54  C   UNL A   1      38.430  30.731  29.194  1.00  0.00     0.049 A 
ATOM     55  H   UNL A   1      40.508  30.419  29.389  1.00  0.00     0.167 HD
ATOM     56  C   UNL A   1      39.277  32.880  30.102  1.00  0.00     0.074 A 
ATOM     57  C   UNL A   1      39.096  34.240  30.572  1.00  0.00     0.031 C 
ATOM     58  C   UNL A   1      38.273  32.089  29.652  1.00  0.00     0.031 A 
BRANCH  45  59
ATOM     59  C   UNL A   1      40.104  26.475  27.800  1.00  0.00    -0.014 A 
ATOM     60  C   UNL A   1      40.384  26.202  26.449  1.00  0.00     0.009 A 
ATOM     61  C   UNL A   1      39.484  25.482  28.574  1.00  0.00     0.009 A 
ATOM     62  C   UNL A   1      40.005  24.986  25.877  1.00  0.00     0.001 A 
ATOM     63  C   UNL A   1      39.137  24.253  28.008  1.00  0.00     0.001 A 
ATOM     64  C   UNL A   1      39.385  24.011  26.658  1.00  0.00     0.000 A 
ENDBRANCH  45  59
BRANCH  46  65
ATOM     65  C   UNL A   1      43.073  35.252  31.567  1.00  0.00    -0.014 A 
ATOM     66  C   UNL A   1      42.974  35.537  32.938  1.00  0.00     0.009 A 
ATOM     67  C   UNL A   1      43.625  36.220  30.713  1.00  0.00     0.009 A 
ATOM     68  C   UNL A   1      43.399  36.770  33.438  1.00  0.00     0.001 A 
ATOM     69  C   UNL A   1      44.078  37.440  31.220  1.00  0.00     0.001 A 
ATOM     70  C   UNL A   1      43.956  37.717  32.580  1.00  0.00     0.000 A 
ENDBRANCH  46  65
BRANCH  58  71
ATOM     71  C   UNL A   1      36.885  32.666  29.671  1.00  0.00    -0.014 A 
ATOM     72  C   UNL A   1      36.040  32.502  30.780  1.00  0.00     0.009 A 
ATOM     73  C   UNL A   1      36.432  33.416  28.574  1.00  0.00     0.009 A 
ATOM     74  C   UNL A   1      34.755  33.048  30.773  1.00  0.00     0.001 A 
ATOM     75  C   UNL A   1      35.159  33.989  28.586  1.00  0.00     0.001 A 
ATOM     76  C   UNL A   1      34.318  33.795  29.680  1.00  0.00     0.000 A 
ENDBRANCH  58  71
ENDBRANCH  32  33
ENDBRANCH  24  27
ENDBRANCH  22  23
ENDBRANCH  21  22
ENDBRANCH  20  21
ENDBRANCH   3  20
TORSDOF 16
ENDMDL
MODEL 2
REMARK VINA RESULT:      -8.5      0.359      6.158
REMARK SMILES CC[C@H](CC#N)[NH2+]Cc1cc(C(=O)NCCCNC(=O)c2ccc(-c3c4nc(c(-c5ccccc5)c5ccc([nH]5)c(-c5ccccc5)c5nc(c(-c6ccccc6)c6ccc3[nH]6)C=C5)C=C4)cc2)cs1
REMARK SMILES IDX 12 1 13 2 14 3 11 5 9 6 10 7 70 8 69 9 8 10 7 11 3 14 2 15
REMARK SMILES IDX 1 16 4 17 5 18 6 19 15 20 16 21 17 22 18 23 19 24 20 26
REMARK SMILES IDX 21 27 22 28 68 29 23 30 67 31 24 32 25 33 26 34 61 35 27 36
REMARK SMILES IDX 66 37 60 38 62 39 28 40 65 41 59 42 58 43 29 45 51 46 36 47
REMARK SMILES IDX 50 48 37 49 40 50 49 51 63 52 38 53 39 54 48 56 64 57 41 58
REMARK SMILES IDX 30 59 31 60 35 61 32 62 34 63 33 64 52 65 53 66 57 67 54 68
REMARK SMILES IDX 56 69 55 70 42 71 43 72 47 73 44 74 46 75 45 76
REMARK H PARENT 14 4 7 12 7 13 18 25 62 44 40 55
REMARK Flexibility Score: inf
ROOT
ATOM      1  C   UNL A   1      47.574  25.143  24.727  1.00  0.00     0.252 C 
ATOM      2  O   UNL A   1      47.932  25.222  23.550  1.00  0.00    -0.269 OA
ATOM      3  N   UNL A   1      48.508  25.383  25.700  1.00  0.00    -0.352 N 
ATOM      4  H   UNL A   1      49.389  25.663  25.359  1.00  0.00     0.163 HD
ENDROOT
BRANCH   1   5
ATOM      5  C   UNL A   1      46.236  24.699  25.093  1.00  0.00     0.051 A 
ATOM      6  C   UNL A   1      44.378  23.321  25.519  1.00  0.00     0.059 A 
ATOM      7  C   UNL A   1      45.751  23.380  25.378  1.00  0.00     0.035 A 
ATOM      8  S   UNL A   1      43.683  24.872  25.324  1.00  0.00    -0.142 S 
ATOM      9  C   UNL A   1      45.216  25.616  25.280  1.00  0.00     0.079 A 
BRANCH   6  10
ATOM     10  C   UNL A   1      43.531  22.105  25.752  1.00  0.00     0.308 C 
BRANCH  10  11
ATOM     11  N   UNL A   1      44.303  20.857  25.688  1.00  0.00    -0.339 N 
ATOM     12  H   UNL A   1      45.047  20.978  25.001  1.00  0.00     0.346 HD
ATOM     13  H   UNL A   1      44.656  20.685  26.630  1.00  0.00     0.346 HD
BRANCH  11  14
ATOM     14  C   UNL A   1      43.513  19.669  25.311  1.00  0.00     0.196 C 
BRANCH  14  15
ATOM     15  C   UNL A   1      42.180  19.588  26.086  1.00  0.00     0.063 C 
ATOM     16  C   UNL A   1      42.232  19.106  27.527  1.00  0.00     0.010 C 
ENDBRANCH  14  15
BRANCH  14  17
ATOM     17  C   UNL A   1      44.385  18.406  25.490  1.00  0.00     0.184 C 
BRANCH  17  18
ATOM     18  C   UNL A   1      45.834  18.853  25.382  1.00  0.00     0.068 C 
ATOM     19  N   UNL A   1      47.035  19.224  25.292  1.00  0.00    -0.198 NA
ENDBRANCH  17  18
ENDBRANCH  14  17
ENDBRANCH  11  14
ENDBRANCH  10  11
ENDBRANCH   6  10
ENDBRANCH   1   5
BRANCH   3  20
ATOM     20  C   UNL A   1      48.425  25.296  27.147  1.00  0.00     0.118 C 
BRANCH  20  21
ATOM     21  C   UNL A   1      49.782  25.259  27.839  1.00  0.00     0.042 C 
BRANCH  21  22
ATOM     22  C   UNL A   1      49.701  25.449  29.351  1.00  0.00     0.118 C 
BRANCH  22  23
ATOM     23  N   UNL A   1      50.550  26.542  29.813  1.00  0.00    -0.352 N 
ATOM     24  C   UNL A   1      50.312  27.890  29.885  1.00  0.00     0.251 C 
ATOM     25  H   UNL A   1      51.442  26.266  30.126  1.00  0.00     0.163 HD
ATOM     26  O   UNL A   1      51.255  28.667  30.004  1.00  0.00    -0.269 OA
BRANCH  24  27
ATOM     27  C   UNL A   1      48.932  28.405  29.839  1.00  0.00     0.039 A 
ATOM     28  C   UNL A   1      48.460  28.993  28.662  1.00  0.00     0.014 A 
ATOM     29  C   UNL A   1      48.122  28.363  30.977  1.00  0.00     0.014 A 
ATOM     30  C   UNL A   1      47.157  29.490  28.615  1.00  0.00     0.010 A 
ATOM     31  C   UNL A   1      46.799  28.773  30.902  1.00  0.00     0.010 A 
ATOM     32  C   UNL A   1      46.308  29.353  29.725  1.00  0.00    -0.014 A 
BRANCH  32  33
ATOM     33  C   UNL A   1      44.901  29.816  29.680  1.00  0.00     0.031 A 
ATOM     34  C   UNL A   1      44.535  31.178  30.199  1.00  0.00     0.074 A 
ATOM     35  C   UNL A   1      43.949  28.974  29.237  1.00  0.00     0.049 A 
ATOM     36  N   UNL A   1      43.355  31.736  30.287  1.00  0.00    -0.248 NA
ATOM     37  C   UNL A   1      45.633  32.009  30.717  1.00  0.00     0.031 C 
ATOM     38  C   UNL A   1      44.180  27.608  28.759  1.00  0.00     0.029 A 
ATOM     39  N   UNL A   1      42.593  29.141  29.124  1.00  0.00    -0.354 N 
ATOM     40  C   UNL A   1      43.568  32.970  30.887  1.00  0.00     0.074 A 
ATOM     41  C   UNL A   1      44.977  33.056  31.194  1.00  0.00     0.031 C 
ATOM     42  C   UNL A   1      43.011  27.076  28.372  1.00  0.00     0.029 A 
ATOM     43  C   UNL A   1      41.946  28.041  28.617  1.00  0.00     0.049 A 
ATOM     44  H   UNL A   1      42.128  29.969  29.383  1.00  0.00     0.167 HD
ATOM     45  C   UNL A   1      42.672  33.954  31.140  1.00  0.00     0.031 A 
ATOM     46  C   UNL A   1      40.638  27.833  28.380  1.00  0.00     0.031 A 
ATOM     47  C   UNL A   1      41.271  33.860  30.829  1.00  0.00     0.049 A 
ATOM     48  C   UNL A   1      39.661  28.934  28.677  1.00  0.00     0.074 A 
ATOM     49  C   UNL A   1      40.287  34.821  30.984  1.00  0.00     0.029 A 
ATOM     50  N   UNL A   1      40.653  32.733  30.308  1.00  0.00    -0.354 N 
ATOM     51  N   UNL A   1      39.888  30.129  29.166  1.00  0.00    -0.248 NA
ATOM     52  C   UNL A   1      38.250  28.661  28.376  1.00  0.00     0.031 C 
ATOM     53  C   UNL A   1      39.062  34.251  30.617  1.00  0.00     0.029 A 
ATOM     54  C   UNL A   1      39.294  32.961  30.168  1.00  0.00     0.049 A 
ATOM     55  H   UNL A   1      41.113  31.895  30.074  1.00  0.00     0.167 HD
ATOM     56  C   UNL A   1      38.652  30.761  29.211  1.00  0.00     0.074 A 
ATOM     57  C   UNL A   1      37.685  29.822  28.679  1.00  0.00     0.031 C 
ATOM     58  C   UNL A   1      38.345  32.007  29.649  1.00  0.00     0.031 A 
BRANCH  45  59
ATOM     59  C   UNL A   1      43.187  35.204  31.803  1.00  0.00    -0.014 A 
ATOM     60  C   UNL A   1      43.151  35.362  33.199  1.00  0.00     0.009 A 
ATOM     61  C   UNL A   1      43.726  36.237  31.021  1.00  0.00     0.009 A 
ATOM     62  C   UNL A   1      43.596  36.545  33.792  1.00  0.00     0.001 A 
ATOM     63  C   UNL A   1      44.202  37.406  31.619  1.00  0.00     0.001 A 
ATOM     64  C   UNL A   1      44.125  37.565  33.001  1.00  0.00     0.000 A 
ENDBRANCH  45  59
BRANCH  46  65
ATOM     65  C   UNL A   1      40.190  26.535  27.814  1.00  0.00    -0.014 A 
ATOM     66  C   UNL A   1      39.529  25.595  28.620  1.00  0.00     0.009 A 
ATOM     67  C   UNL A   1      40.397  26.237  26.458  1.00  0.00     0.009 A 
ATOM     68  C   UNL A   1      39.103  24.377  28.085  1.00  0.00     0.001 A 
ATOM     69  C   UNL A   1      39.942  25.032  25.918  1.00  0.00     0.001 A 
ATOM     70  C   UNL A   1      39.305  24.099  26.733  1.00  0.00     0.000 A 
ENDBRANCH  46  65
BRANCH  58  71
ATOM     71  C   UNL A   1      36.908  32.434  29.548  1.00  0.00    -0.014 A 
ATOM     72  C   UNL A   1      36.015  32.257  30.617  1.00  0.00     0.009 A 
ATOM     73  C   UNL A   1      36.450  33.055  28.375  1.00  0.00     0.009 A 
ATOM     74  C   UNL A   1      34.685  32.661  30.499  1.00  0.00     0.001 A 
ATOM     75  C   UNL A   1      35.128  33.490  28.274  1.00  0.00     0.001 A 
ATOM     76  C   UNL A   1      34.244  33.283  29.331  1.00  0.00     0.000 A 
ENDBRANCH  58  71
ENDBRANCH  32  33
ENDBRANCH  24  27
ENDBRANCH  22  23
ENDBRANCH  21  22
ENDBRANCH  20  21
ENDBRANCH   3  20
TORSDOF 16
ENDMDL
MODEL 3
REMARK VINA RESULT:      -8.3      5.810     11.022
REMARK SMILES CC[C@H](CC#N)[NH2+]Cc1cc(C(=O)NCCCNC(=O)c2ccc(-c3c4nc(c(-c5ccccc5)c5ccc([nH]5)c(-c5ccccc5)c5nc(c(-c6ccccc6)c6ccc3[nH]6)C=C5)C=C4)cc2)cs1
REMARK SMILES IDX 12 1 13 2 14 3 11 5 9 6 10 7 70 8 69 9 8 10 7 11 3 14 2 15
REMARK SMILES IDX 1 16 4 17 5 18 6 19 15 20 16 21 17 22 18 23 19 24 20 26
REMARK SMILES IDX 21 27 22 28 68 29 23 30 67 31 24 32 25 33 26 34 61 35 27 36
REMARK SMILES IDX 66 37 60 38 62 39 28 40 65 41 59 42 58 43 29 45 51 46 36 47
REMARK SMILES IDX 50 48 37 49 40 50 49 51 63 52 38 53 39 54 48 56 64 57 41 58
REMARK SMILES IDX 30 59 31 60 35 61 32 62 34 63 33 64 52 65 53 66 57 67 54 68
REMARK SMILES IDX 56 69 55 70 42 71 43 72 47 73 44 74 46 75 45 76
REMARK H PARENT 14 4 7 12 7 13 18 25 62 44 40 55
REMARK Flexibility Score: inf
ROOT
ATOM      1  C   UNL A   1      37.405  22.272  25.315  1.00  0.00     0.252 C 
ATOM      2  O   UNL A   1      37.612  21.273  24.622  1.00  0.00    -0.269 OA
ATOM      3  N   UNL A   1      38.486  22.910  25.863  1.00  0.00    -0.352 N 
ATOM      4  H   UNL A   1      39.358  22.535  25.596  1.00  0.00     0.163 HD
ENDROOT
BRANCH   1   5
ATOM      5  C   UNL A   1      36.055  22.709  25.645  1.00  0.00     0.051 A 
ATOM      6  C   UNL A   1      34.171  24.073  25.994  1.00  0.00     0.059 A 
ATOM      7  C   UNL A   1      35.400  23.955  25.375  1.00  0.00     0.035 A 
ATOM      8  S   UNL A   1      33.807  22.660  26.888  1.00  0.00    -0.142 S 
ATOM      9  C   UNL A   1      35.166  21.844  26.261  1.00  0.00     0.079 A 
BRANCH   6  10
ATOM     10  C   UNL A   1      33.248  25.256  25.986  1.00  0.00     0.308 C 
BRANCH  10  11
ATOM     11  N   UNL A   1      32.422  25.320  24.774  1.00  0.00    -0.339 N 
ATOM     12  H   UNL A   1      32.284  26.302  24.533  1.00  0.00     0.346 HD
ATOM     13  H   UNL A   1      32.922  24.801  24.052  1.00  0.00     0.346 HD
BRANCH  11  14
ATOM     14  C   UNL A   1      31.095  24.686  24.904  1.00  0.00     0.196 C 
BRANCH  14  15
ATOM     15  C   UNL A   1      30.725  23.854  23.657  1.00  0.00     0.063 C 
ATOM     16  C   UNL A   1      31.767  22.883  23.124  1.00  0.00     0.010 C 
ENDBRANCH  14  15
BRANCH  14  17
ATOM     17  C   UNL A   1      30.046  25.772  25.229  1.00  0.00     0.184 C 
BRANCH  17  18
ATOM     18  C   UNL A   1      30.002  26.711  24.035  1.00  0.00     0.068 C 
ATOM     19  N   UNL A   1      29.966  27.491  23.044  1.00  0.00    -0.198 NA
ENDBRANCH  17  18
ENDBRANCH  14  17
ENDBRANCH  11  14
ENDBRANCH  10  11
ENDBRANCH   6  10
ENDBRANCH   1   5
BRANCH   3  20
ATOM     20  C   UNL A   1      38.571  24.041  26.768  1.00  0.00     0.118 C 
BRANCH  20  21
ATOM     21  C   UNL A   1      39.807  24.907  26.555  1.00  0.00     0.042 C 
BRANCH  21  22
ATOM     22  C   UNL A   1      40.839  24.783  27.672  1.00  0.00     0.118 C 
BRANCH  22  23
ATOM     23  N   UNL A   1      41.713  23.628  27.487  1.00  0.00    -0.352 N 
ATOM     24  C   UNL A   1      42.973  23.537  26.958  1.00  0.00     0.251 C 
ATOM     25  H   UNL A   1      41.334  22.773  27.792  1.00  0.00     0.163 HD
ATOM     26  O   UNL A   1      43.406  22.445  26.605  1.00  0.00    -0.269 OA
BRANCH  24  27
ATOM     27  C   UNL A   1      43.816  24.741  26.831  1.00  0.00     0.039 A 
ATOM     28  C   UNL A   1      44.432  25.268  27.970  1.00  0.00     0.014 A 
ATOM     29  C   UNL A   1      43.948  25.386  25.599  1.00  0.00     0.014 A 
ATOM     30  C   UNL A   1      45.223  26.411  27.858  1.00  0.00     0.010 A 
ATOM     31  C   UNL A   1      44.808  26.467  25.472  1.00  0.00     0.010 A 
ATOM     32  C   UNL A   1      45.442  26.999  26.602  1.00  0.00    -0.014 A 
BRANCH  32  33
ATOM     33  C   UNL A   1      46.329  28.176  26.446  1.00  0.00     0.031 A 
ATOM     34  C   UNL A   1      47.805  27.988  26.240  1.00  0.00     0.074 A 
ATOM     35  C   UNL A   1      45.806  29.410  26.566  1.00  0.00     0.049 A 
ATOM     36  N   UNL A   1      48.744  28.894  26.133  1.00  0.00    -0.248 NA
ATOM     37  C   UNL A   1      48.298  26.603  26.179  1.00  0.00     0.031 C 
ATOM     38  C   UNL A   1      44.395  29.713  26.820  1.00  0.00     0.029 A 
ATOM     39  N   UNL A   1      46.403  30.643  26.496  1.00  0.00    -0.354 N 
ATOM     40  C   UNL A   1      49.934  28.189  26.012  1.00  0.00     0.074 A 
ATOM     41  C   UNL A   1      49.609  26.785  26.118  1.00  0.00     0.031 C 
ATOM     42  C   UNL A   1      44.231  31.044  26.850  1.00  0.00     0.029 A 
ATOM     43  C   UNL A   1      45.527  31.686  26.664  1.00  0.00     0.049 A 
ATOM     44  H   UNL A   1      47.368  30.766  26.342  1.00  0.00     0.167 HD
ATOM     45  C   UNL A   1      51.185  28.668  25.810  1.00  0.00     0.031 A 
ATOM     46  C   UNL A   1      45.745  33.013  26.673  1.00  0.00     0.031 A 
ATOM     47  C   UNL A   1      51.499  30.067  25.705  1.00  0.00     0.049 A 
ATOM     48  C   UNL A   1      47.142  33.522  26.455  1.00  0.00     0.074 A 
ATOM     49  C   UNL A   1      52.721  30.659  25.437  1.00  0.00     0.029 A 
ATOM     50  N   UNL A   1      50.583  31.095  25.872  1.00  0.00    -0.354 N 
ATOM     51  N   UNL A   1      48.246  32.843  26.258  1.00  0.00    -0.248 NA
ATOM     52  C   UNL A   1      47.318  34.980  26.449  1.00  0.00     0.031 C 
ATOM     53  C   UNL A   1      52.556  32.047  25.508  1.00  0.00     0.029 A 
ATOM     54  C   UNL A   1      51.219  32.319  25.749  1.00  0.00     0.049 A 
ATOM     55  H   UNL A   1      49.624  30.972  26.054  1.00  0.00     0.167 HD
ATOM     56  C   UNL A   1      49.246  33.790  26.081  1.00  0.00     0.074 A 
ATOM     57  C   UNL A   1      48.611  35.089  26.174  1.00  0.00     0.031 C 
ATOM     58  C   UNL A   1      50.570  33.602  25.859  1.00  0.00     0.031 A 
BRANCH  45  59
ATOM     59  C   UNL A   1      52.302  27.662  25.712  1.00  0.00    -0.014 A 
ATOM     60  C   UNL A   1      53.045  27.279  26.841  1.00  0.00     0.009 A 
ATOM     61  C   UNL A   1      52.610  27.081  24.472  1.00  0.00     0.009 A 
ATOM     62  C   UNL A   1      54.104  26.376  26.722  1.00  0.00     0.001 A 
ATOM     63  C   UNL A   1      53.647  26.152  24.361  1.00  0.00     0.001 A 
ATOM     64  C   UNL A   1      54.402  25.811  25.482  1.00  0.00     0.000 A 
ENDBRANCH  45  59
BRANCH  46  65
ATOM     65  C   UNL A   1      44.606  33.946  26.873  1.00  0.00    -0.014 A 
ATOM     66  C   UNL A   1      43.883  34.436  25.774  1.00  0.00     0.009 A 
ATOM     67  C   UNL A   1      44.218  34.332  28.166  1.00  0.00     0.009 A 
ATOM     68  C   UNL A   1      42.810  35.309  25.965  1.00  0.00     0.001 A 
ATOM     69  C   UNL A   1      43.125  35.180  28.355  1.00  0.00     0.001 A 
ATOM     70  C   UNL A   1      42.427  35.675  27.255  1.00  0.00     0.000 A 
ENDBRANCH  46  65
BRANCH  58  71
ATOM     71  C   UNL A   1      51.415  34.832  25.676  1.00  0.00    -0.014 A 
ATOM     72  C   UNL A   1      51.579  35.426  24.414  1.00  0.00     0.009 A 
ATOM     73  C   UNL A   1      52.026  35.425  26.792  1.00  0.00     0.009 A 
ATOM     74  C   UNL A   1      52.369  36.568  24.270  1.00  0.00     0.001 A 
ATOM     75  C   UNL A   1      52.786  36.587  26.649  1.00  0.00     0.001 A 
ATOM     76  C   UNL A   1      52.966  37.151  25.388  1.00  0.00     0.000 A 
ENDBRANCH  58  71
ENDBRANCH  32  33
ENDBRANCH  24  27
ENDBRANCH  22  23
ENDBRANCH  21  22
ENDBRANCH  20  21
ENDBRANCH   3  20
TORSDOF 16
ENDMDL
