MODEL 1
REMARK VINA RESULT:     -10.0      0.000      0.000
REMARK SMILES Cc1cc(N2CC[C@H](CC(=O)NCCCNC(=O)c3ccc(-c4c5nc(c(-c6ccccc6)c6ccc([nH]6)c(-c6ccccc6)c6nc(c(-c7ccccc7)c7ccc4[nH]7)C=C6)C=C5)cc3)C2)ncc1[N+](=O)[O-]
REMARK SMILES IDX 13 1 12 2 10 3 11 4 9 6 8 7 5 8 6 9 67 10 7 11 4 12 1 13
REMARK SMILES IDX 2 14 3 15 70 16 69 17 68 18 71 19 72 20 73 21 14 22 15 23
REMARK SMILES IDX 16 24 17 25 18 27 19 28 20 29 66 30 21 31 65 32 22 33 23 34
REMARK SMILES IDX 24 35 59 36 25 37 64 38 58 39 60 40 26 41 63 42 57 43 56 44
REMARK SMILES IDX 27 46 49 47 34 48 48 49 35 50 38 51 47 52 61 53 36 54 37 55
REMARK SMILES IDX 46 57 62 58 39 59 28 60 29 61 33 62 30 63 32 64 31 65 50 66
REMARK SMILES IDX 51 67 55 68 52 69 54 70 53 71 40 72 41 73 45 74 42 75 44 76
REMARK SMILES IDX 43 77
REMARK H PARENT 12 5 16 26 60 45 38 56
REMARK Flexibility Score: inf
ROOT
ATOM      1  C   UNL A   1      33.283  35.566  28.849  1.00  0.00     0.117 C 
ENDROOT
BRANCH   1   2
ATOM      2  N   UNL A   1      33.330  36.683  29.783  1.00  0.00    -0.356 N 
ATOM      3  C   UNL A   1      33.040  36.748  31.113  1.00  0.00     0.220 C 
ATOM      4  O   UNL A   1      33.093  37.847  31.667  1.00  0.00    -0.275 OA
ATOM      5  H   UNL A   1      33.621  37.537  29.386  1.00  0.00     0.163 HD
BRANCH   3   6
ATOM      6  C   UNL A   1      32.655  35.506  31.892  1.00  0.00     0.105 C 
BRANCH   6   7
ATOM      7  C   UNL A   1      33.636  35.184  33.019  1.00  0.00     0.019 C 
ATOM      8  N   UNL A   1      35.926  34.762  33.440  1.00  0.00    -0.356 N 
ATOM      9  C   UNL A   1      35.217  33.567  33.871  1.00  0.00     0.118 C 
ATOM     10  C   UNL A   1      35.056  35.686  32.718  1.00  0.00     0.122 C 
ATOM     11  C   UNL A   1      33.852  33.689  33.222  1.00  0.00     0.027 C 
BRANCH   8  12
ATOM     12  C   UNL A   1      37.198  34.573  32.935  1.00  0.00     0.129 A 
ATOM     13  C   UNL A   1      38.627  34.071  29.486  1.00  0.00     0.052 C 
ATOM     14  C   UNL A   1      38.606  34.245  30.975  1.00  0.00     0.032 A 
ATOM     15  C   UNL A   1      37.337  34.326  31.573  1.00  0.00     0.057 A 
ATOM     16  C   UNL A   1      39.715  34.359  31.825  1.00  0.00     0.290 A 
ATOM     17  C   UNL A   1      39.498  34.582  33.181  1.00  0.00     0.199 A 
ATOM     18  N   UNL A   1      38.268  34.698  33.745  1.00  0.00    -0.232 NA
BRANCH  16  19
ATOM     19  N   UNL A   1      41.099  34.264  31.381  1.00  0.00     0.064 N 
ATOM     20  O   UNL A   1      41.927  35.002  31.935  1.00  0.00    -0.258 OA
ATOM     21  O   UNL A   1      41.381  33.434  30.507  1.00  0.00    -0.258 OA
ENDBRANCH  16  19
ENDBRANCH   8  12
ENDBRANCH   6   7
ENDBRANCH   3   6
ENDBRANCH   1   2
BRANCH   1  22
ATOM     22  C   UNL A   1      34.613  34.819  28.789  1.00  0.00     0.042 C 
BRANCH  22  23
ATOM     23  C   UNL A   1      34.577  33.427  29.402  1.00  0.00     0.118 C 
BRANCH  23  24
ATOM     24  N   UNL A   1      33.978  32.455  28.505  1.00  0.00    -0.352 N 
ATOM     25  C   UNL A   1      34.502  31.304  27.967  1.00  0.00     0.251 C 
ATOM     26  H   UNL A   1      33.050  32.651  28.240  1.00  0.00     0.163 HD
ATOM     27  O   UNL A   1      33.907  30.752  27.046  1.00  0.00    -0.269 OA
BRANCH  25  28
ATOM     28  C   UNL A   1      35.776  30.723  28.462  1.00  0.00     0.039 A 
ATOM     29  C   UNL A   1      35.730  29.835  29.543  1.00  0.00     0.014 A 
ATOM     30  C   UNL A   1      37.015  31.089  27.931  1.00  0.00     0.014 A 
ATOM     31  C   UNL A   1      36.911  29.284  30.052  1.00  0.00     0.010 A 
ATOM     32  C   UNL A   1      38.183  30.474  28.380  1.00  0.00     0.010 A 
ATOM     33  C   UNL A   1      38.148  29.577  29.459  1.00  0.00    -0.014 A 
BRANCH  33  34
ATOM     34  C   UNL A   1      39.413  28.983  29.968  1.00  0.00     0.031 A 
ATOM     35  C   UNL A   1      40.083  29.555  31.190  1.00  0.00     0.074 A 
ATOM     36  C   UNL A   1      39.992  27.962  29.307  1.00  0.00     0.049 A 
ATOM     37  N   UNL A   1      41.219  29.214  31.748  1.00  0.00    -0.248 NA
ATOM     38  C   UNL A   1      39.400  30.673  31.862  1.00  0.00     0.031 C 
ATOM     39  C   UNL A   1      39.469  27.331  28.093  1.00  0.00     0.029 A 
ATOM     40  N   UNL A   1      41.156  27.277  29.561  1.00  0.00    -0.354 N 
ATOM     41  C   UNL A   1      41.395  30.086  32.815  1.00  0.00     0.074 A 
ATOM     42  C   UNL A   1      40.275  31.002  32.801  1.00  0.00     0.031 C 
ATOM     43  C   UNL A   1      40.294  26.336  27.726  1.00  0.00     0.029 A 
ATOM     44  C   UNL A   1      41.422  26.285  28.649  1.00  0.00     0.049 A 
ATOM     45  H   UNL A   1      41.743  27.478  30.326  1.00  0.00     0.167 HD
ATOM     46  C   UNL A   1      42.388  30.116  33.737  1.00  0.00     0.031 A 
ATOM     47  C   UNL A   1      42.462  25.433  28.560  1.00  0.00     0.031 A 
ATOM     48  C   UNL A   1      43.493  29.196  33.768  1.00  0.00     0.049 A 
ATOM     49  C   UNL A   1      43.557  25.493  29.587  1.00  0.00     0.074 A 
ATOM     50  C   UNL A   1      44.515  29.109  34.699  1.00  0.00     0.029 A 
ATOM     51  N   UNL A   1      43.722  28.204  32.827  1.00  0.00    -0.354 N 
ATOM     52  N   UNL A   1      43.675  26.285  30.624  1.00  0.00    -0.248 NA
ATOM     53  C   UNL A   1      44.660  24.532  29.434  1.00  0.00     0.031 C 
ATOM     54  C   UNL A   1      45.389  28.095  34.292  1.00  0.00     0.029 A 
ATOM     55  C   UNL A   1      44.882  27.516  33.140  1.00  0.00     0.049 A 
ATOM     56  H   UNL A   1      43.145  28.017  32.052  1.00  0.00     0.167 HD
ATOM     57  C   UNL A   1      44.848  25.902  31.262  1.00  0.00     0.074 A 
ATOM     58  C   UNL A   1      45.397  24.797  30.505  1.00  0.00     0.031 C 
ATOM     59  C   UNL A   1      45.417  26.419  32.378  1.00  0.00     0.031 A 
BRANCH  46  60
ATOM     60  C   UNL A   1      42.324  31.187  34.790  1.00  0.00    -0.014 A 
ATOM     61  C   UNL A   1      41.734  30.946  36.041  1.00  0.00     0.009 A 
ATOM     62  C   UNL A   1      42.894  32.446  34.541  1.00  0.00     0.009 A 
ATOM     63  C   UNL A   1      41.682  31.954  37.006  1.00  0.00     0.001 A 
ATOM     64  C   UNL A   1      42.866  33.443  35.518  1.00  0.00     0.001 A 
ATOM     65  C   UNL A   1      42.252  33.200  36.745  1.00  0.00     0.000 A 
ENDBRANCH  46  60
BRANCH  47  66
ATOM     66  C   UNL A   1      42.514  24.437  27.458  1.00  0.00    -0.014 A 
ATOM     67  C   UNL A   1      43.147  24.750  26.245  1.00  0.00     0.009 A 
ATOM     68  C   UNL A   1      41.926  23.171  27.609  1.00  0.00     0.009 A 
ATOM     69  C   UNL A   1      43.168  23.826  25.199  1.00  0.00     0.001 A 
ATOM     70  C   UNL A   1      41.975  22.238  26.571  1.00  0.00     0.001 A 
ATOM     71  C   UNL A   1      42.587  22.570  25.364  1.00  0.00     0.000 A 
ENDBRANCH  47  66
BRANCH  59  72
ATOM     72  C   UNL A   1      46.685  25.777  32.865  1.00  0.00    -0.014 A 
ATOM     73  C   UNL A   1      47.941  26.212  32.417  1.00  0.00     0.009 A 
ATOM     74  C   UNL A   1      46.619  24.750  33.821  1.00  0.00     0.009 A 
ATOM     75  C   UNL A   1      49.108  25.610  32.895  1.00  0.00     0.001 A 
ATOM     76  C   UNL A   1      47.788  24.170  34.317  1.00  0.00     0.001 A 
ATOM     77  C   UNL A   1      49.029  24.594  33.848  1.00  0.00     0.000 A 
ENDBRANCH  59  72
ENDBRANCH  33  34
ENDBRANCH  25  28
ENDBRANCH  23  24
ENDBRANCH  22  23
ENDBRANCH   1  22
TORSDOF 13
ENDMDL
MODEL 2
REMARK VINA RESULT:     -10.0      6.337     11.838
REMARK SMILES Cc1cc(N2CC[C@H](CC(=O)NCCCNC(=O)c3ccc(-c4c5nc(c(-c6ccccc6)c6ccc([nH]6)c(-c6ccccc6)c6nc(c(-c7ccccc7)c7ccc4[nH]7)C=C6)C=C5)cc3)C2)ncc1[N+](=O)[O-]
REMARK SMILES IDX 13 1 12 2 10 3 11 4 9 6 8 7 5 8 6 9 67 10 7 11 4 12 1 13
REMARK SMILES IDX 2 14 3 15 70 16 69 17 68 18 71 19 72 20 73 21 14 22 15 23
REMARK SMILES IDX 16 24 17 25 18 27 19 28 20 29 66 30 21 31 65 32 22 33 23 34
REMARK SMILES IDX 24 35 59 36 25 37 64 38 58 39 60 40 26 41 63 42 57 43 56 44
REMARK SMILES IDX 27 46 49 47 34 48 48 49 35 50 38 51 47 52 61 53 36 54 37 55
REMARK SMILES IDX 46 57 62 58 39 59 28 60 29 61 33 62 30 63 32 64 31 65 50 66
REMARK SMILES IDX 51 67 55 68 52 69 54 70 53 71 40 72 41 73 45 74 42 75 44 76
REMARK SMILES IDX 43 77
REMARK H PARENT 12 5 16 26 60 45 38 56
REMARK Flexibility Score: inf
ROOT
ATOM      1  C   UNL A   1      37.423  20.902  24.301  1.00  0.00     0.117 C 
ENDROOT
BRANCH   1   2
ATOM      2  N   UNL A   1      37.278  21.985  25.265  1.00  0.00    -0.356 N 
ATOM      3  C   UNL A   1      36.505  23.108  25.238  1.00  0.00     0.220 C 
ATOM      4  O   UNL A   1      36.621  23.915  26.160  1.00  0.00    -0.275 OA
ATOM      5  H   UNL A   1      37.834  21.890  26.073  1.00  0.00     0.163 HD
BRANCH   3   6
ATOM      6  C   UNL A   1      35.534  23.362  24.102  1.00  0.00     0.105 C 
BRANCH   6   7
ATOM      7  C   UNL A   1      34.127  22.843  24.396  1.00  0.00     0.019 C 
ATOM      8  N   UNL A   1      32.918  20.852  24.813  1.00  0.00    -0.356 N 
ATOM      9  C   UNL A   1      32.330  21.429  23.615  1.00  0.00     0.118 C 
ATOM     10  C   UNL A   1      34.144  21.541  25.209  1.00  0.00     0.122 C 
ATOM     11  C   UNL A   1      33.358  22.439  23.144  1.00  0.00     0.027 C 
BRANCH   8  12
ATOM     12  C   UNL A   1      32.918  19.473  24.896  1.00  0.00     0.129 A 
ATOM     13  C   UNL A   1      34.235  16.693  22.721  1.00  0.00     0.052 C 
ATOM     14  C   UNL A   1      33.577  17.352  23.897  1.00  0.00     0.032 A 
ATOM     15  C   UNL A   1      33.436  18.748  23.827  1.00  0.00     0.057 A 
ATOM     16  C   UNL A   1      33.111  16.726  25.060  1.00  0.00     0.290 A 
ATOM     17  C   UNL A   1      32.582  17.513  26.078  1.00  0.00     0.199 A 
ATOM     18  N   UNL A   1      32.486  18.866  26.019  1.00  0.00    -0.232 NA
BRANCH  16  19
ATOM     19  N   UNL A   1      33.145  15.286  25.285  1.00  0.00     0.064 N 
ATOM     20  O   UNL A   1      32.057  14.700  25.379  1.00  0.00    -0.258 OA
ATOM     21  O   UNL A   1      34.246  14.725  25.335  1.00  0.00    -0.258 OA
ENDBRANCH  16  19
ENDBRANCH   8  12
ENDBRANCH   6   7
ENDBRANCH   3   6
ENDBRANCH   1   2
BRANCH   1  22
ATOM     22  C   UNL A   1      38.109  19.683  24.915  1.00  0.00     0.042 C 
BRANCH  22  23
ATOM     23  C   UNL A   1      39.098  20.014  26.022  1.00  0.00     0.118 C 
BRANCH  23  24
ATOM     24  N   UNL A   1      40.318  19.235  25.909  1.00  0.00    -0.352 N 
ATOM     25  C   UNL A   1      41.632  19.622  26.030  1.00  0.00     0.251 C 
ATOM     26  H   UNL A   1      40.184  18.280  25.716  1.00  0.00     0.163 HD
ATOM     27  O   UNL A   1      42.515  18.852  25.665  1.00  0.00    -0.269 OA
BRANCH  25  28
ATOM     28  C   UNL A   1      42.004  20.952  26.577  1.00  0.00     0.039 A 
ATOM     29  C   UNL A   1      42.339  21.973  25.680  1.00  0.00     0.014 A 
ATOM     30  C   UNL A   1      42.098  21.190  27.950  1.00  0.00     0.014 A 
ATOM     31  C   UNL A   1      42.717  23.233  26.157  1.00  0.00     0.010 A 
ATOM     32  C   UNL A   1      42.389  22.469  28.424  1.00  0.00     0.010 A 
ATOM     33  C   UNL A   1      42.720  23.502  27.534  1.00  0.00    -0.014 A 
BRANCH  33  34
ATOM     34  C   UNL A   1      43.094  24.842  28.061  1.00  0.00     0.031 A 
ATOM     35  C   UNL A   1      42.034  25.884  28.309  1.00  0.00     0.074 A 
ATOM     36  C   UNL A   1      44.390  25.147  28.269  1.00  0.00     0.049 A 
ATOM     37  N   UNL A   1      42.171  27.126  28.706  1.00  0.00    -0.248 NA
ATOM     38  C   UNL A   1      40.640  25.487  28.057  1.00  0.00     0.031 C 
ATOM     39  C   UNL A   1      45.521  24.245  28.041  1.00  0.00     0.029 A 
ATOM     40  N   UNL A   1      44.976  26.307  28.715  1.00  0.00    -0.354 N 
ATOM     41  C   UNL A   1      40.889  27.660  28.728  1.00  0.00     0.074 A 
ATOM     42  C   UNL A   1      39.992  26.626  28.261  1.00  0.00     0.031 C 
ATOM     43  C   UNL A   1      46.659  24.876  28.375  1.00  0.00     0.029 A 
ATOM     44  C   UNL A   1      46.345  26.236  28.798  1.00  0.00     0.049 A 
ATOM     45  H   UNL A   1      44.462  27.112  28.954  1.00  0.00     0.167 HD
ATOM     46  C   UNL A   1      40.486  28.894  29.118  1.00  0.00     0.031 A 
ATOM     47  C   UNL A   1      47.249  27.164  29.167  1.00  0.00     0.031 A 
ATOM     48  C   UNL A   1      41.370  29.920  29.602  1.00  0.00     0.049 A 
ATOM     49  C   UNL A   1      46.780  28.529  29.583  1.00  0.00     0.074 A 
ATOM     50  C   UNL A   1      41.049  31.180  30.077  1.00  0.00     0.029 A 
ATOM     51  N   UNL A   1      42.749  29.805  29.673  1.00  0.00    -0.354 N 
ATOM     52  N   UNL A   1      45.558  28.997  29.655  1.00  0.00    -0.248 NA
ATOM     53  C   UNL A   1      47.818  29.493  29.979  1.00  0.00     0.031 C 
ATOM     54  C   UNL A   1      42.238  31.845  30.390  1.00  0.00     0.029 A 
ATOM     55  C   UNL A   1      43.296  30.980  30.161  1.00  0.00     0.049 A 
ATOM     56  H   UNL A   1      43.264  29.006  29.415  1.00  0.00     0.167 HD
ATOM     57  C   UNL A   1      45.677  30.297  30.128  1.00  0.00     0.074 A 
ATOM     58  C   UNL A   1      47.088  30.540  30.341  1.00  0.00     0.031 C 
ATOM     59  C   UNL A   1      44.702  31.208  30.367  1.00  0.00     0.031 A 
BRANCH  46  60
ATOM     60  C   UNL A   1      39.017  29.204  29.029  1.00  0.00    -0.014 A 
ATOM     61  C   UNL A   1      38.443  29.681  27.841  1.00  0.00     0.009 A 
ATOM     62  C   UNL A   1      38.189  28.981  30.140  1.00  0.00     0.009 A 
ATOM     63  C   UNL A   1      37.077  29.966  27.777  1.00  0.00     0.001 A 
ATOM     64  C   UNL A   1      36.818  29.238  30.066  1.00  0.00     0.001 A 
ATOM     65  C   UNL A   1      36.266  29.740  28.889  1.00  0.00     0.000 A 
ENDBRANCH  46  60
BRANCH  47  66
ATOM     66  C   UNL A   1      48.698  26.830  29.170  1.00  0.00    -0.014 A 
ATOM     67  C   UNL A   1      49.299  26.283  30.314  1.00  0.00     0.009 A 
ATOM     68  C   UNL A   1      49.488  27.061  28.033  1.00  0.00     0.009 A 
ATOM     69  C   UNL A   1      50.666  25.998  30.328  1.00  0.00     0.001 A 
ATOM     70  C   UNL A   1      50.849  26.747  28.040  1.00  0.00     0.001 A 
ATOM     71  C   UNL A   1      51.439  26.226  29.190  1.00  0.00     0.000 A 
ENDBRANCH  47  66
BRANCH  59  72
ATOM     72  C   UNL A   1      45.125  32.542  30.914  1.00  0.00    -0.014 A 
ATOM     73  C   UNL A   1      45.414  33.620  30.064  1.00  0.00     0.009 A 
ATOM     74  C   UNL A   1      45.191  32.732  32.304  1.00  0.00     0.009 A 
ATOM     75  C   UNL A   1      45.791  34.856  30.595  1.00  0.00     0.001 A 
ATOM     76  C   UNL A   1      45.540  33.976  32.832  1.00  0.00     0.001 A 
ATOM     77  C   UNL A   1      45.848  35.033  31.978  1.00  0.00     0.000 A 
ENDBRANCH  59  72
ENDBRANCH  33  34
ENDBRANCH  25  28
ENDBRANCH  23  24
ENDBRANCH  22  23
ENDBRANCH   1  22
TORSDOF 13
ENDMDL
MODEL 3
REMARK VINA RESULT:     -10.0      5.149     10.482
REMARK SMILES Cc1cc(N2CC[C@H](CC(=O)NCCCNC(=O)c3ccc(-c4c5nc(c(-c6ccccc6)c6ccc([nH]6)c(-c6ccccc6)c6nc(c(-c7ccccc7)c7ccc4[nH]7)C=C6)C=C5)cc3)C2)ncc1[N+](=O)[O-]
REMARK SMILES IDX 13 1 12 2 10 3 11 4 9 6 8 7 5 8 6 9 67 10 7 11 4 12 1 13
REMARK SMILES IDX 2 14 3 15 70 16 69 17 68 18 71 19 72 20 73 21 14 22 15 23
REMARK SMILES IDX 16 24 17 25 18 27 19 28 20 29 66 30 21 31 65 32 22 33 23 34
REMARK SMILES IDX 24 35 59 36 25 37 64 38 58 39 60 40 26 41 63 42 57 43 56 44
REMARK SMILES IDX 27 46 49 47 34 48 48 49 35 50 38 51 47 52 61 53 36 54 37 55
REMARK SMILES IDX 46 57 62 58 39 59 28 60 29 61 33 62 30 63 32 64 31 65 50 66
REMARK SMILES IDX 51 67 55 68 52 69 54 70 53 71 40 72 41 73 45 74 42 75 44 76
REMARK SMILES IDX 43 77
REMARK H PARENT 12 5 16 26 60 45 38 56
REMARK Flexibility Score: inf
ROOT
ATOM      1  C   UNL A   1      35.936  20.546  24.966  1.00  0.00     0.117 C 
ENDROOT
BRANCH   1   2
ATOM      2  N   UNL A   1      34.711  19.792  25.201  1.00  0.00    -0.356 N 
ATOM      3  C   UNL A   1      33.404  20.127  25.003  1.00  0.00     0.220 C 
ATOM      4  O   UNL A   1      32.539  19.325  25.356  1.00  0.00    -0.275 OA
ATOM      5  H   UNL A   1      34.851  18.888  25.565  1.00  0.00     0.163 HD
BRANCH   3   6
ATOM      6  C   UNL A   1      33.023  21.453  24.375  1.00  0.00     0.105 C 
BRANCH   6   7
ATOM      7  C   UNL A   1      32.612  22.503  25.406  1.00  0.00     0.019 C 
ATOM      8  N   UNL A   1      31.582  24.624  25.605  1.00  0.00    -0.356 N 
ATOM      9  C   UNL A   1      32.922  24.782  26.148  1.00  0.00     0.118 C 
ATOM     10  C   UNL A   1      31.406  23.334  24.944  1.00  0.00     0.122 C 
ATOM     11  C   UNL A   1      33.676  23.569  25.638  1.00  0.00     0.027 C 
BRANCH   8  12
ATOM     12  C   UNL A   1      31.038  25.729  24.980  1.00  0.00     0.129 A 
ATOM     13  C   UNL A   1      31.708  29.434  25.102  1.00  0.00     0.052 C 
ATOM     14  C   UNL A   1      31.073  28.145  24.673  1.00  0.00     0.032 A 
ATOM     15  C   UNL A   1      31.496  26.990  25.352  1.00  0.00     0.057 A 
ATOM     16  C   UNL A   1      30.125  27.972  23.656  1.00  0.00     0.290 A 
ATOM     17  C   UNL A   1      29.695  26.683  23.355  1.00  0.00     0.199 A 
ATOM     18  N   UNL A   1      30.138  25.567  23.989  1.00  0.00    -0.232 NA
BRANCH  16  19
ATOM     19  N   UNL A   1      29.553  29.061  22.876  1.00  0.00     0.064 N 
ATOM     20  O   UNL A   1      28.718  29.785  23.438  1.00  0.00    -0.258 OA
ATOM     21  O   UNL A   1      29.950  29.226  21.715  1.00  0.00    -0.258 OA
ENDBRANCH  16  19
ENDBRANCH   8  12
ENDBRANCH   6   7
ENDBRANCH   3   6
ENDBRANCH   1   2
BRANCH   1  22
ATOM     22  C   UNL A   1      37.164  19.638  24.939  1.00  0.00     0.042 C 
BRANCH  22  23
ATOM     23  C   UNL A   1      38.466  20.338  25.300  1.00  0.00     0.118 C 
BRANCH  23  24
ATOM     24  N   UNL A   1      39.533  19.391  25.572  1.00  0.00    -0.352 N 
ATOM     25  C   UNL A   1      40.817  19.603  26.013  1.00  0.00     0.251 C 
ATOM     26  H   UNL A   1      39.299  18.447  25.416  1.00  0.00     0.163 HD
ATOM     27  O   UNL A   1      41.628  18.683  25.952  1.00  0.00    -0.269 OA
BRANCH  25  28
ATOM     28  C   UNL A   1      41.249  20.920  26.546  1.00  0.00     0.039 A 
ATOM     29  C   UNL A   1      41.130  21.157  27.921  1.00  0.00     0.014 A 
ATOM     30  C   UNL A   1      41.700  21.946  25.713  1.00  0.00     0.014 A 
ATOM     31  C   UNL A   1      41.505  22.394  28.457  1.00  0.00     0.010 A 
ATOM     32  C   UNL A   1      42.156  23.147  26.257  1.00  0.00     0.010 A 
ATOM     33  C   UNL A   1      42.047  23.392  27.634  1.00  0.00    -0.014 A 
BRANCH  33  34
ATOM     34  C   UNL A   1      42.476  24.705  28.188  1.00  0.00     0.031 A 
ATOM     35  C   UNL A   1      41.471  25.807  28.397  1.00  0.00     0.074 A 
ATOM     36  C   UNL A   1      43.778  24.930  28.456  1.00  0.00     0.049 A 
ATOM     37  N   UNL A   1      41.663  27.036  28.809  1.00  0.00    -0.248 NA
ATOM     38  C   UNL A   1      40.067  25.496  28.080  1.00  0.00     0.031 C 
ATOM     39  C   UNL A   1      44.862  23.964  28.272  1.00  0.00     0.029 A 
ATOM     40  N   UNL A   1      44.410  26.051  28.937  1.00  0.00    -0.354 N 
ATOM     41  C   UNL A   1      40.415  27.646  28.778  1.00  0.00     0.074 A 
ATOM     42  C   UNL A   1      39.481  26.670  28.263  1.00  0.00     0.031 C 
ATOM     43  C   UNL A   1      46.020  24.524  28.661  1.00  0.00     0.029 A 
ATOM     44  C   UNL A   1      45.768  25.898  29.081  1.00  0.00     0.049 A 
ATOM     45  H   UNL A   1      43.935  26.884  29.159  1.00  0.00     0.167 HD
ATOM     46  C   UNL A   1      40.069  28.900  29.159  1.00  0.00     0.031 A 
ATOM     47  C   UNL A   1      46.709  26.768  29.497  1.00  0.00     0.031 A 
ATOM     48  C   UNL A   1      40.990  29.869  29.691  1.00  0.00     0.049 A 
ATOM     49  C   UNL A   1      46.303  28.157  29.903  1.00  0.00     0.074 A 
ATOM     50  C   UNL A   1      40.723  31.144  30.161  1.00  0.00     0.029 A 
ATOM     51  N   UNL A   1      42.356  29.671  29.823  1.00  0.00    -0.354 N 
ATOM     52  N   UNL A   1      45.109  28.696  29.924  1.00  0.00    -0.248 NA
ATOM     53  C   UNL A   1      47.377  29.055  30.352  1.00  0.00     0.031 C 
ATOM     54  C   UNL A   1      41.935  31.734  30.531  1.00  0.00     0.029 A 
ATOM     55  C   UNL A   1      42.949  30.808  30.343  1.00  0.00     0.049 A 
ATOM     56  H   UNL A   1      42.832  28.844  29.582  1.00  0.00     0.167 HD
ATOM     57  C   UNL A   1      45.283  29.985  30.412  1.00  0.00     0.074 A 
ATOM     58  C   UNL A   1      46.696  30.142  30.689  1.00  0.00     0.031 C 
ATOM     59  C   UNL A   1      44.355  30.951  30.614  1.00  0.00     0.031 A 
BRANCH  46  60
ATOM     60  C   UNL A   1      38.627  29.297  29.008  1.00  0.00    -0.014 A 
ATOM     61  C   UNL A   1      38.129  29.784  27.789  1.00  0.00     0.009 A 
ATOM     62  C   UNL A   1      37.745  29.149  30.089  1.00  0.00     0.009 A 
ATOM     63  C   UNL A   1      36.787  30.151  27.667  1.00  0.00     0.001 A 
ATOM     64  C   UNL A   1      36.396  29.489  29.957  1.00  0.00     0.001 A 
ATOM     65  C   UNL A   1      35.922  29.998  28.750  1.00  0.00     0.000 A 
ENDBRANCH  46  60
BRANCH  47  66
ATOM     66  C   UNL A   1      48.133  26.348  29.562  1.00  0.00    -0.014 A 
ATOM     67  C   UNL A   1      48.976  26.516  28.453  1.00  0.00     0.009 A 
ATOM     68  C   UNL A   1      48.656  25.772  30.731  1.00  0.00     0.009 A 
ATOM     69  C   UNL A   1      50.305  26.093  28.503  1.00  0.00     0.001 A 
ATOM     70  C   UNL A   1      49.995  25.377  30.788  1.00  0.00     0.001 A 
ATOM     71  C   UNL A   1      50.815  25.528  29.672  1.00  0.00     0.000 A 
ENDBRANCH  47  66
BRANCH  59  72
ATOM     72  C   UNL A   1      44.831  32.254  31.190  1.00  0.00    -0.014 A 
ATOM     73  C   UNL A   1      44.939  32.442  32.576  1.00  0.00     0.009 A 
ATOM     74  C   UNL A   1      45.218  33.294  30.329  1.00  0.00     0.009 A 
ATOM     75  C   UNL A   1      45.398  33.657  33.090  1.00  0.00     0.001 A 
ATOM     76  C   UNL A   1      45.703  34.497  30.845  1.00  0.00     0.001 A 
ATOM     77  C   UNL A   1      45.784  34.680  32.223  1.00  0.00     0.000 A 
ENDBRANCH  59  72
ENDBRANCH  33  34
ENDBRANCH  25  28
ENDBRANCH  23  24
ENDBRANCH  22  23
ENDBRANCH   1  22
TORSDOF 13
ENDMDL
