MODEL 1
REMARK VINA RESULT:     -11.0      0.000      0.000
REMARK SMILES Cc1ccc(CC(=O)NCCCNC(=O)c2ccc(-c3c4nc(c(-c5ccccc5)c5ccc([nH]5)c(-c5ccccc5)c5nc(c(-c6ccccc6)c6ccc3[nH]6)C=C5)C=C4)cc2)n1-c1ccc(F)cc1
REMARK SMILES IDX 11 1 10 2 9 3 7 4 8 5 6 7 5 8 1 9 2 10 3 11 64 12 4 13 65 14
REMARK SMILES IDX 66 15 71 16 67 17 70 18 68 19 69 20 12 21 13 22 14 23 15 25
REMARK SMILES IDX 16 26 17 27 63 28 18 29 62 30 19 31 20 32 21 33 56 34 22 35
REMARK SMILES IDX 61 36 55 37 57 38 23 39 60 40 54 41 53 42 24 44 46 45 31 46
REMARK SMILES IDX 45 47 32 48 35 49 44 50 58 51 33 52 34 53 43 55 59 56 36 57
REMARK SMILES IDX 25 58 26 59 30 60 27 61 29 62 28 63 47 64 48 65 52 66 49 67
REMARK SMILES IDX 51 68 50 69 37 70 38 71 42 72 39 73 41 74 40 75
REMARK H PARENT 9 6 13 24 57 43 35 54
REMARK Flexibility Score: inf
ROOT
ATOM      1  C   UNL A   1      40.495  20.683  26.599  1.00  0.00     0.042 C 
ENDROOT
BRANCH   1   2
ATOM      2  C   UNL A   1      39.296  21.194  25.787  1.00  0.00     0.117 C 
BRANCH   2   3
ATOM      3  N   UNL A   1      38.661  22.361  26.373  1.00  0.00    -0.356 N 
ATOM      4  C   UNL A   1      37.743  23.230  25.859  1.00  0.00     0.225 C 
ATOM      5  O   UNL A   1      37.456  24.225  26.527  1.00  0.00    -0.275 OA
ATOM      6  H   UNL A   1      38.938  22.557  27.297  1.00  0.00     0.163 HD
BRANCH   4   7
ATOM      7  C   UNL A   1      37.047  22.941  24.539  1.00  0.00     0.154 C 
BRANCH   7   8
ATOM      8  C   UNL A   1      35.814  22.103  24.710  1.00  0.00     0.032 A 
ATOM      9  C   UNL A   1      32.173  21.772  25.230  1.00  0.00     0.065 C 
ATOM     10  C   UNL A   1      33.648  21.602  25.090  1.00  0.00     0.020 A 
ATOM     11  C   UNL A   1      34.374  20.427  25.164  1.00  0.00     0.023 A 
ATOM     12  N   UNL A   1      34.524  22.625  24.752  1.00  0.00    -0.318 N 
ATOM     13  C   UNL A   1      35.723  20.735  24.903  1.00  0.00     0.024 A 
BRANCH  12  14
ATOM     14  C   UNL A   1      34.183  23.984  24.524  1.00  0.00     0.046 A 
ATOM     15  C   UNL A   1      33.926  24.422  23.217  1.00  0.00     0.029 A 
ATOM     16  C   UNL A   1      34.167  24.887  25.594  1.00  0.00     0.029 A 
ATOM     17  C   UNL A   1      33.670  25.772  22.980  1.00  0.00     0.041 A 
ATOM     18  C   UNL A   1      33.925  26.238  25.346  1.00  0.00     0.041 A 
ATOM     19  C   UNL A   1      33.682  26.669  24.045  1.00  0.00     0.123 A 
ATOM     20  F   UNL A   1      33.464  27.969  23.812  1.00  0.00    -0.207 F 
ENDBRANCH  12  14
ENDBRANCH   7   8
ENDBRANCH   4   7
ENDBRANCH   2   3
ENDBRANCH   1   2
BRANCH   1  21
ATOM     21  C   UNL A   1      41.046  21.635  27.671  1.00  0.00     0.118 C 
BRANCH  21  22
ATOM     22  N   UNL A   1      42.263  22.312  27.276  1.00  0.00    -0.352 N 
ATOM     23  C   UNL A   1      42.478  23.667  27.159  1.00  0.00     0.251 C 
ATOM     24  H   UNL A   1      43.031  21.733  27.064  1.00  0.00     0.163 HD
ATOM     25  O   UNL A   1      43.603  24.073  26.886  1.00  0.00    -0.269 OA
BRANCH  23  26
ATOM     26  C   UNL A   1      41.358  24.645  27.288  1.00  0.00     0.039 A 
ATOM     27  C   UNL A   1      41.291  25.683  26.369  1.00  0.00     0.014 A 
ATOM     28  C   UNL A   1      40.547  24.707  28.432  1.00  0.00     0.014 A 
ATOM     29  C   UNL A   1      40.436  26.775  26.610  1.00  0.00     0.010 A 
ATOM     30  C   UNL A   1      39.723  25.842  28.700  1.00  0.00     0.010 A 
ATOM     31  C   UNL A   1      39.689  26.931  27.816  1.00  0.00    -0.014 A 
BRANCH  31  32
ATOM     32  C   UNL A   1      39.384  28.372  28.229  1.00  0.00     0.031 A 
ATOM     33  C   UNL A   1      40.682  29.016  28.580  1.00  0.00     0.074 A 
ATOM     34  C   UNL A   1      38.303  29.187  28.431  1.00  0.00     0.049 A 
ATOM     35  N   UNL A   1      41.477  28.558  29.502  1.00  0.00    -0.248 NA
ATOM     36  C   UNL A   1      41.250  30.056  27.720  1.00  0.00     0.031 C 
ATOM     37  C   UNL A   1      36.880  28.889  28.264  1.00  0.00     0.029 A 
ATOM     38  N   UNL A   1      38.265  30.534  28.826  1.00  0.00    -0.354 N 
ATOM     39  C   UNL A   1      42.543  29.424  29.517  1.00  0.00     0.074 A 
ATOM     40  C   UNL A   1      42.444  30.196  28.292  1.00  0.00     0.031 C 
ATOM     41  C   UNL A   1      36.136  30.014  28.449  1.00  0.00     0.029 A 
ATOM     42  C   UNL A   1      36.996  31.139  28.799  1.00  0.00     0.049 A 
ATOM     43  H   UNL A   1      39.073  31.023  29.104  1.00  0.00     0.167 HD
ATOM     44  C   UNL A   1      43.124  29.782  30.693  1.00  0.00     0.031 A 
ATOM     45  C   UNL A   1      36.648  32.434  29.069  1.00  0.00     0.031 A 
ATOM     46  C   UNL A   1      43.063  31.197  30.936  1.00  0.00     0.049 A 
ATOM     47  C   UNL A   1      37.763  33.146  29.724  1.00  0.00     0.074 A 
ATOM     48  C   UNL A   1      43.372  32.344  30.234  1.00  0.00     0.029 A 
ATOM     49  N   UNL A   1      42.184  31.583  31.927  1.00  0.00    -0.354 N 
ATOM     50  N   UNL A   1      37.991  33.038  30.995  1.00  0.00    -0.248 NA
ATOM     51  C   UNL A   1      38.619  34.094  29.019  1.00  0.00     0.031 C 
ATOM     52  C   UNL A   1      42.322  33.266  30.526  1.00  0.00     0.029 A 
ATOM     53  C   UNL A   1      41.494  32.696  31.485  1.00  0.00     0.049 A 
ATOM     54  H   UNL A   1      42.067  31.141  32.799  1.00  0.00     0.167 HD
ATOM     55  C   UNL A   1      39.263  33.510  31.143  1.00  0.00     0.074 A 
ATOM     56  C   UNL A   1      39.492  34.361  29.994  1.00  0.00     0.031 C 
ATOM     57  C   UNL A   1      40.128  32.830  31.935  1.00  0.00     0.031 A 
BRANCH  44  58
ATOM     58  C   UNL A   1      43.116  28.775  31.804  1.00  0.00    -0.014 A 
ATOM     59  C   UNL A   1      42.019  28.726  32.671  1.00  0.00     0.009 A 
ATOM     60  C   UNL A   1      44.187  27.889  32.027  1.00  0.00     0.009 A 
ATOM     61  C   UNL A   1      42.017  27.852  33.762  1.00  0.00     0.001 A 
ATOM     62  C   UNL A   1      44.194  27.031  33.126  1.00  0.00     0.001 A 
ATOM     63  C   UNL A   1      43.111  27.017  33.998  1.00  0.00     0.000 A 
ENDBRANCH  44  58
BRANCH  45  64
ATOM     64  C   UNL A   1      35.431  33.307  29.005  1.00  0.00    -0.014 A 
ATOM     65  C   UNL A   1      34.750  33.597  30.218  1.00  0.00     0.009 A 
ATOM     66  C   UNL A   1      35.198  34.163  27.926  1.00  0.00     0.009 A 
ATOM     67  C   UNL A   1      33.977  34.750  30.385  1.00  0.00     0.001 A 
ATOM     68  C   UNL A   1      34.390  35.307  28.085  1.00  0.00     0.001 A 
ATOM     69  C   UNL A   1      33.812  35.619  29.318  1.00  0.00     0.000 A 
ENDBRANCH  45  64
BRANCH  57  70
ATOM     70  C   UNL A   1      39.523  31.973  33.044  1.00  0.00    -0.014 A 
ATOM     71  C   UNL A   1      38.925  30.708  32.839  1.00  0.00     0.009 A 
ATOM     72  C   UNL A   1      39.535  32.462  34.357  1.00  0.00     0.009 A 
ATOM     73  C   UNL A   1      38.265  30.024  33.864  1.00  0.00     0.001 A 
ATOM     74  C   UNL A   1      38.925  31.749  35.400  1.00  0.00     0.001 A 
ATOM     75  C   UNL A   1      38.266  30.547  35.149  1.00  0.00     0.000 A 
ENDBRANCH  57  70
ENDBRANCH  31  32
ENDBRANCH  23  26
ENDBRANCH  21  22
ENDBRANCH   1  21
TORSDOF 12
ENDMDL
MODEL 2
REMARK VINA RESULT:     -10.8      4.171      7.303
REMARK SMILES Cc1ccc(CC(=O)NCCCNC(=O)c2ccc(-c3c4nc(c(-c5ccccc5)c5ccc([nH]5)c(-c5ccccc5)c5nc(c(-c6ccccc6)c6ccc3[nH]6)C=C5)C=C4)cc2)n1-c1ccc(F)cc1
REMARK SMILES IDX 11 1 10 2 9 3 7 4 8 5 6 7 5 8 1 9 2 10 3 11 64 12 4 13 65 14
REMARK SMILES IDX 66 15 71 16 67 17 70 18 68 19 69 20 12 21 13 22 14 23 15 25
REMARK SMILES IDX 16 26 17 27 63 28 18 29 62 30 19 31 20 32 21 33 56 34 22 35
REMARK SMILES IDX 61 36 55 37 57 38 23 39 60 40 54 41 53 42 24 44 46 45 31 46
REMARK SMILES IDX 45 47 32 48 35 49 44 50 58 51 33 52 34 53 43 55 59 56 36 57
REMARK SMILES IDX 25 58 26 59 30 60 27 61 29 62 28 63 47 64 48 65 52 66 49 67
REMARK SMILES IDX 51 68 50 69 37 70 38 71 42 72 39 73 41 74 40 75
REMARK H PARENT 9 6 13 24 57 43 35 54
REMARK Flexibility Score: inf
ROOT
ATOM      1  C   UNL A   1      43.512  23.460  28.811  1.00  0.00     0.042 C 
ENDROOT
BRANCH   1   2
ATOM      2  C   UNL A   1      42.053  23.285  28.365  1.00  0.00     0.117 C 
BRANCH   2   3
ATOM      3  N   UNL A   1      41.578  21.918  28.477  1.00  0.00    -0.356 N 
ATOM      4  C   UNL A   1      41.352  20.970  27.522  1.00  0.00     0.225 C 
ATOM      5  O   UNL A   1      40.821  19.915  27.873  1.00  0.00    -0.275 OA
ATOM      6  H   UNL A   1      41.387  21.625  29.398  1.00  0.00     0.163 HD
BRANCH   4   7
ATOM      7  C   UNL A   1      41.806  21.183  26.087  1.00  0.00     0.154 C 
BRANCH   7   8
ATOM      8  C   UNL A   1      43.028  20.379  25.746  1.00  0.00     0.032 A 
ATOM      9  C   UNL A   1      46.502  20.137  24.520  1.00  0.00     0.065 C 
ATOM     10  C   UNL A   1      45.099  19.925  24.977  1.00  0.00     0.020 A 
ATOM     11  C   UNL A   1      44.444  18.722  25.167  1.00  0.00     0.023 A 
ATOM     12  N   UNL A   1      44.249  20.944  25.389  1.00  0.00    -0.318 N 
ATOM     13  C   UNL A   1      43.159  19.004  25.670  1.00  0.00     0.024 A 
BRANCH  12  14
ATOM     14  C   UNL A   1      44.547  22.332  25.410  1.00  0.00     0.046 A 
ATOM     15  C   UNL A   1      45.685  22.783  26.094  1.00  0.00     0.029 A 
ATOM     16  C   UNL A   1      43.673  23.242  24.803  1.00  0.00     0.029 A 
ATOM     17  C   UNL A   1      45.937  24.152  26.185  1.00  0.00     0.041 A 
ATOM     18  C   UNL A   1      43.924  24.609  24.912  1.00  0.00     0.041 A 
ATOM     19  C   UNL A   1      45.050  25.052  25.601  1.00  0.00     0.123 A 
ATOM     20  F   UNL A   1      45.277  26.366  25.714  1.00  0.00    -0.207 F 
ENDBRANCH  12  14
ENDBRANCH   7   8
ENDBRANCH   4   7
ENDBRANCH   2   3
ENDBRANCH   1   2
BRANCH   1  21
ATOM     21  C   UNL A   1      43.742  24.304  30.073  1.00  0.00     0.118 C 
BRANCH  21  22
ATOM     22  N   UNL A   1      44.300  23.554  31.179  1.00  0.00    -0.352 N 
ATOM     23  C   UNL A   1      44.458  23.964  32.484  1.00  0.00     0.251 C 
ATOM     24  H   UNL A   1      44.605  22.642  30.972  1.00  0.00     0.163 HD
ATOM     25  O   UNL A   1      44.880  23.165  33.314  1.00  0.00    -0.269 OA
BRANCH  23  26
ATOM     26  C   UNL A   1      44.192  25.373  32.894  1.00  0.00     0.039 A 
ATOM     27  C   UNL A   1      43.468  25.588  34.059  1.00  0.00     0.014 A 
ATOM     28  C   UNL A   1      44.411  26.458  32.029  1.00  0.00     0.014 A 
ATOM     29  C   UNL A   1      42.955  26.869  34.337  1.00  0.00     0.010 A 
ATOM     30  C   UNL A   1      43.841  27.742  32.288  1.00  0.00     0.010 A 
ATOM     31  C   UNL A   1      43.052  27.963  33.426  1.00  0.00    -0.014 A 
BRANCH  31  32
ATOM     32  C   UNL A   1      41.937  29.006  33.517  1.00  0.00     0.031 A 
ATOM     33  C   UNL A   1      40.911  28.648  32.497  1.00  0.00     0.074 A 
ATOM     34  C   UNL A   1      41.652  30.166  34.186  1.00  0.00     0.049 A 
ATOM     35  N   UNL A   1      41.177  28.543  31.228  1.00  0.00    -0.248 NA
ATOM     36  C   UNL A   1      39.600  28.141  32.909  1.00  0.00     0.031 C 
ATOM     37  C   UNL A   1      42.446  30.863  35.200  1.00  0.00     0.029 A 
ATOM     38  N   UNL A   1      40.516  30.987  34.103  1.00  0.00    -0.354 N 
ATOM     39  C   UNL A   1      39.982  28.208  30.639  1.00  0.00     0.074 A 
ATOM     40  C   UNL A   1      39.110  27.791  31.721  1.00  0.00     0.031 C 
ATOM     41  C   UNL A   1      41.747  31.918  35.704  1.00  0.00     0.029 A 
ATOM     42  C   UNL A   1      40.456  32.036  35.037  1.00  0.00     0.049 A 
ATOM     43  H   UNL A   1      39.808  30.838  33.436  1.00  0.00     0.167 HD
ATOM     44  C   UNL A   1      39.636  28.732  29.434  1.00  0.00     0.031 A 
ATOM     45  C   UNL A   1      39.464  32.956  35.242  1.00  0.00     0.031 A 
ATOM     46  C   UNL A   1      38.420  29.497  29.488  1.00  0.00     0.049 A 
ATOM     47  C   UNL A   1      38.501  32.940  34.124  1.00  0.00     0.074 A 
ATOM     48  C   UNL A   1      37.140  29.303  29.967  1.00  0.00     0.029 A 
ATOM     49  N   UNL A   1      38.582  30.863  29.379  1.00  0.00    -0.354 N 
ATOM     50  N   UNL A   1      38.730  33.570  33.015  1.00  0.00    -0.248 NA
ATOM     51  C   UNL A   1      37.189  32.310  34.220  1.00  0.00     0.031 C 
ATOM     52  C   UNL A   1      36.763  30.544  30.563  1.00  0.00     0.029 A 
ATOM     53  C   UNL A   1      37.766  31.473  30.312  1.00  0.00     0.049 A 
ATOM     54  H   UNL A   1      39.179  31.324  28.746  1.00  0.00     0.167 HD
ATOM     55  C   UNL A   1      37.835  33.028  32.138  1.00  0.00     0.074 A 
ATOM     56  C   UNL A   1      36.777  32.480  32.961  1.00  0.00     0.031 C 
ATOM     57  C   UNL A   1      38.252  32.705  30.890  1.00  0.00     0.031 A 
BRANCH  44  58
ATOM     58  C   UNL A   1      40.742  29.051  28.473  1.00  0.00    -0.014 A 
ATOM     59  C   UNL A   1      40.645  28.606  27.150  1.00  0.00     0.009 A 
ATOM     60  C   UNL A   1      41.894  29.762  28.858  1.00  0.00     0.009 A 
ATOM     61  C   UNL A   1      41.695  28.820  26.252  1.00  0.00     0.001 A 
ATOM     62  C   UNL A   1      42.950  29.960  27.968  1.00  0.00     0.001 A 
ATOM     63  C   UNL A   1      42.852  29.482  26.666  1.00  0.00     0.000 A 
ENDBRANCH  44  58
BRANCH  45  64
ATOM     64  C   UNL A   1      39.135  34.056  36.206  1.00  0.00    -0.014 A 
ATOM     65  C   UNL A   1      38.572  33.700  37.462  1.00  0.00     0.009 A 
ATOM     66  C   UNL A   1      39.729  35.318  36.111  1.00  0.00     0.009 A 
ATOM     67  C   UNL A   1      38.705  34.507  38.597  1.00  0.00     0.001 A 
ATOM     68  C   UNL A   1      39.831  36.144  37.247  1.00  0.00     0.001 A 
ATOM     69  C   UNL A   1      39.355  35.726  38.493  1.00  0.00     0.000 A 
ENDBRANCH  45  64
BRANCH  57  70
ATOM     70  C   UNL A   1      39.454  33.470  30.342  1.00  0.00    -0.014 A 
ATOM     71  C   UNL A   1      39.364  34.640  29.554  1.00  0.00     0.009 A 
ATOM     72  C   UNL A   1      40.741  32.986  30.610  1.00  0.00     0.009 A 
ATOM     73  C   UNL A   1      40.487  35.225  28.963  1.00  0.00     0.001 A 
ATOM     74  C   UNL A   1      41.876  33.606  30.068  1.00  0.00     0.001 A 
ATOM     75  C   UNL A   1      41.748  34.706  29.221  1.00  0.00     0.000 A 
ENDBRANCH  57  70
ENDBRANCH  31  32
ENDBRANCH  23  26
ENDBRANCH  21  22
ENDBRANCH   1  21
TORSDOF 12
ENDMDL
MODEL 3
REMARK VINA RESULT:     -10.7      4.212     10.486
REMARK SMILES Cc1ccc(CC(=O)NCCCNC(=O)c2ccc(-c3c4nc(c(-c5ccccc5)c5ccc([nH]5)c(-c5ccccc5)c5nc(c(-c6ccccc6)c6ccc3[nH]6)C=C5)C=C4)cc2)n1-c1ccc(F)cc1
REMARK SMILES IDX 11 1 10 2 9 3 7 4 8 5 6 7 5 8 1 9 2 10 3 11 64 12 4 13 65 14
REMARK SMILES IDX 66 15 71 16 67 17 70 18 68 19 69 20 12 21 13 22 14 23 15 25
REMARK SMILES IDX 16 26 17 27 63 28 18 29 62 30 19 31 20 32 21 33 56 34 22 35
REMARK SMILES IDX 61 36 55 37 57 38 23 39 60 40 54 41 53 42 24 44 46 45 31 46
REMARK SMILES IDX 45 47 32 48 35 49 44 50 58 51 33 52 34 53 43 55 59 56 36 57
REMARK SMILES IDX 25 58 26 59 30 60 27 61 29 62 28 63 47 64 48 65 52 66 49 67
REMARK SMILES IDX 51 68 50 69 37 70 38 71 42 72 39 73 41 74 40 75
REMARK H PARENT 9 6 13 24 57 43 35 54
REMARK Flexibility Score: inf
ROOT
ATOM      1  C   UNL A   1      38.969  33.994  31.559  1.00  0.00     0.042 C 
ENDROOT
BRANCH   1   2
ATOM      2  C   UNL A   1      38.614  32.723  32.344  1.00  0.00     0.117 C 
BRANCH   2   3
ATOM      3  N   UNL A   1      37.634  32.950  33.392  1.00  0.00    -0.356 N 
ATOM      4  C   UNL A   1      36.281  32.780  33.400  1.00  0.00     0.225 C 
ATOM      5  O   UNL A   1      35.659  33.171  34.391  1.00  0.00    -0.275 OA
ATOM      6  H   UNL A   1      38.012  33.279  34.239  1.00  0.00     0.163 HD
BRANCH   4   7
ATOM      7  C   UNL A   1      35.574  32.070  32.257  1.00  0.00     0.154 C 
BRANCH   7   8
ATOM      8  C   UNL A   1      34.980  33.028  31.265  1.00  0.00     0.032 A 
ATOM      9  C   UNL A   1      34.605  34.295  27.818  1.00  0.00     0.065 C 
ATOM     10  C   UNL A   1      34.616  34.051  29.288  1.00  0.00     0.020 A 
ATOM     11  C   UNL A   1      34.035  34.822  30.278  1.00  0.00     0.023 A 
ATOM     12  N   UNL A   1      35.147  32.916  29.888  1.00  0.00    -0.318 N 
ATOM     13  C   UNL A   1      34.240  34.172  31.510  1.00  0.00     0.024 A 
BRANCH  12  14
ATOM     14  C   UNL A   1      35.790  31.837  29.226  1.00  0.00     0.046 A 
ATOM     15  C   UNL A   1      35.020  30.774  28.730  1.00  0.00     0.029 A 
ATOM     16  C   UNL A   1      37.187  31.811  29.129  1.00  0.00     0.029 A 
ATOM     17  C   UNL A   1      35.655  29.676  28.151  1.00  0.00     0.041 A 
ATOM     18  C   UNL A   1      37.813  30.701  28.562  1.00  0.00     0.041 A 
ATOM     19  C   UNL A   1      37.045  29.645  28.081  1.00  0.00     0.123 A 
ATOM     20  F   UNL A   1      37.653  28.576  27.552  1.00  0.00    -0.207 F 
ENDBRANCH  12  14
ENDBRANCH   7   8
ENDBRANCH   4   7
ENDBRANCH   2   3
ENDBRANCH   1   2
BRANCH   1  21
ATOM     21  C   UNL A   1      39.741  33.790  30.247  1.00  0.00     0.118 C 
BRANCH  21  22
ATOM     22  N   UNL A   1      40.269  35.016  29.686  1.00  0.00    -0.352 N 
ATOM     23  C   UNL A   1      41.503  35.220  29.111  1.00  0.00     0.251 C 
ATOM     24  H   UNL A   1      39.673  35.799  29.723  1.00  0.00     0.163 HD
ATOM     25  O   UNL A   1      41.756  36.312  28.613  1.00  0.00    -0.269 OA
BRANCH  23  26
ATOM     26  C   UNL A   1      42.559  34.167  29.141  1.00  0.00     0.039 A 
ATOM     27  C   UNL A   1      43.350  34.005  28.013  1.00  0.00     0.014 A 
ATOM     28  C   UNL A   1      42.605  33.182  30.141  1.00  0.00     0.014 A 
ATOM     29  C   UNL A   1      44.158  32.859  27.885  1.00  0.00     0.010 A 
ATOM     30  C   UNL A   1      43.383  31.995  29.982  1.00  0.00     0.010 A 
ATOM     31  C   UNL A   1      44.140  31.782  28.820  1.00  0.00    -0.014 A 
BRANCH  31  32
ATOM     32  C   UNL A   1      44.490  30.404  28.255  1.00  0.00     0.031 A 
ATOM     33  C   UNL A   1      43.208  29.740  27.880  1.00  0.00     0.074 A 
ATOM     34  C   UNL A   1      45.586  29.606  28.069  1.00  0.00     0.049 A 
ATOM     35  N   UNL A   1      42.243  29.527  28.726  1.00  0.00    -0.248 NA
ATOM     36  C   UNL A   1      42.869  29.526  26.472  1.00  0.00     0.031 C 
ATOM     37  C   UNL A   1      46.990  29.882  28.381  1.00  0.00     0.029 A 
ATOM     38  N   UNL A   1      45.669  28.322  27.506  1.00  0.00    -0.354 N 
ATOM     39  C   UNL A   1      41.261  28.902  27.998  1.00  0.00     0.074 A 
ATOM     40  C   UNL A   1      41.614  29.100  26.604  1.00  0.00     0.031 C 
ATOM     41  C   UNL A   1      47.783  28.874  27.925  1.00  0.00     0.029 A 
ATOM     42  C   UNL A   1      46.971  27.826  27.316  1.00  0.00     0.049 A 
ATOM     43  H   UNL A   1      44.870  27.804  27.261  1.00  0.00     0.167 HD
ATOM     44  C   UNL A   1      40.531  27.894  28.546  1.00  0.00     0.031 A 
ATOM     45  C   UNL A   1      47.374  26.650  26.746  1.00  0.00     0.031 A 
ATOM     46  C   UNL A   1      40.667  26.656  27.829  1.00  0.00     0.049 A 
ATOM     47  C   UNL A   1      46.230  25.731  26.586  1.00  0.00     0.074 A 
ATOM     48  C   UNL A   1      40.565  26.248  26.515  1.00  0.00     0.029 A 
ATOM     49  N   UNL A   1      41.406  25.685  28.473  1.00  0.00    -0.354 N 
ATOM     50  N   UNL A   1      45.796  25.002  27.566  1.00  0.00    -0.248 NA
ATOM     51  C   UNL A   1      45.576  25.498  25.303  1.00  0.00     0.031 C 
ATOM     52  C   UNL A   1      41.626  25.313  26.322  1.00  0.00     0.029 A 
ATOM     53  C   UNL A   1      42.243  25.093  27.548  1.00  0.00     0.049 A 
ATOM     54  H   UNL A   1      41.347  25.454  29.428  1.00  0.00     0.167 HD
ATOM     55  C   UNL A   1      44.559  24.599  27.154  1.00  0.00     0.074 A 
ATOM     56  C   UNL A   1      44.583  24.702  25.709  1.00  0.00     0.031 C 
ATOM     57  C   UNL A   1      43.528  24.643  28.033  1.00  0.00     0.031 A 
BRANCH  44  58
ATOM     58  C   UNL A   1      40.283  27.944  30.024  1.00  0.00    -0.014 A 
ATOM     59  C   UNL A   1      38.989  27.713  30.505  1.00  0.00     0.009 A 
ATOM     60  C   UNL A   1      41.299  28.241  30.950  1.00  0.00     0.009 A 
ATOM     61  C   UNL A   1      38.711  27.828  31.870  1.00  0.00     0.001 A 
ATOM     62  C   UNL A   1      41.019  28.375  32.310  1.00  0.00     0.001 A 
ATOM     63  C   UNL A   1      39.721  28.176  32.769  1.00  0.00     0.000 A 
ENDBRANCH  44  58
BRANCH  45  64
ATOM     64  C   UNL A   1      48.652  25.975  26.348  1.00  0.00    -0.014 A 
ATOM     65  C   UNL A   1      49.288  26.398  25.150  1.00  0.00     0.009 A 
ATOM     66  C   UNL A   1      49.439  25.287  27.275  1.00  0.00     0.009 A 
ATOM     67  C   UNL A   1      50.664  26.255  24.942  1.00  0.00     0.001 A 
ATOM     68  C   UNL A   1      50.819  25.113  27.049  1.00  0.00     0.001 A 
ATOM     69  C   UNL A   1      51.436  25.626  25.906  1.00  0.00     0.000 A 
ENDBRANCH  45  64
BRANCH  57  70
ATOM     70  C   UNL A   1      43.879  24.555  29.516  1.00  0.00    -0.014 A 
ATOM     71  C   UNL A   1      43.928  23.350  30.254  1.00  0.00     0.009 A 
ATOM     72  C   UNL A   1      44.155  25.737  30.215  1.00  0.00     0.009 A 
ATOM     73  C   UNL A   1      44.121  23.336  31.639  1.00  0.00     0.001 A 
ATOM     74  C   UNL A   1      44.408  25.720  31.594  1.00  0.00     0.001 A 
ATOM     75  C   UNL A   1      44.361  24.525  32.311  1.00  0.00     0.000 A 
ENDBRANCH  57  70
ENDBRANCH  31  32
ENDBRANCH  23  26
ENDBRANCH  21  22
ENDBRANCH   1  21
TORSDOF 12
ENDMDL
