MODEL 1
REMARK VINA RESULT:     -12.4      0.000      0.000
REMARK SMILES CCc1ccc2c(CC(=O)NCCCNC(=O)c3ccc(-c4c5nc(c(-c6ccccc6)c6ccc([nH]6)c(-c6ccccc6)c6nc(c(-c7ccccc7)c7ccc4[nH]7)C=C6)C=C5)cc3)c(C(=O)c3cc(C)ccn3)[nH]c2c1
REMARK SMILES IDX 12 1 11 2 9 3 10 4 8 6 7 7 3 8 4 9 78 10 5 11 77 12 6 13
REMARK SMILES IDX 76 14 66 15 2 17 1 18 67 19 68 20 69 21 70 22 75 23 71 24
REMARK SMILES IDX 74 25 72 26 73 27 13 28 14 29 15 30 16 31 17 33 18 34 19 35
REMARK SMILES IDX 65 36 20 37 64 38 21 39 22 40 23 41 58 42 24 43 63 44 57 45
REMARK SMILES IDX 59 46 25 47 62 48 56 49 55 50 26 52 48 53 33 54 47 55 34 56
REMARK SMILES IDX 37 57 46 58 60 59 35 60 36 61 45 63 61 64 38 65 27 66 28 67
REMARK SMILES IDX 32 68 29 69 31 70 30 71 49 72 50 73 54 74 51 75 53 76 52 77
REMARK SMILES IDX 39 78 40 79 44 80 41 81 43 82 42 83
REMARK H PARENT 11 5 76 16 15 32 59 51 37 62
REMARK Flexibility Score: inf
ROOT
ATOM      1  C   UNL A   1      31.916  27.142  26.233  1.00  0.00     0.117 C 
ENDROOT
BRANCH   1   2
ATOM      2  N   UNL A   1      31.413  25.874  26.716  1.00  0.00    -0.356 N 
ATOM      3  C   UNL A   1      31.898  24.610  26.531  1.00  0.00     0.224 C 
ATOM      4  O   UNL A   1      31.395  23.721  27.222  1.00  0.00    -0.275 OA
ATOM      5  H   UNL A   1      30.594  25.931  27.260  1.00  0.00     0.163 HD
BRANCH   3   6
ATOM      6  C   UNL A   1      33.090  24.341  25.620  1.00  0.00     0.138 C 
BRANCH   6   7
ATOM      7  C   UNL A   1      32.798  23.494  24.408  1.00  0.00    -0.002 A 
ATOM      8  C   UNL A   1      32.416  19.328  23.723  1.00  0.00    -0.046 A 
ATOM      9  C   UNL A   1      32.649  19.716  25.045  1.00  0.00     0.004 A 
ATOM     10  C   UNL A   1      32.335  20.315  22.721  1.00  0.00     0.030 A 
ATOM     11  C   UNL A   1      32.771  21.066  25.397  1.00  0.00     0.011 A 
ATOM     12  C   UNL A   1      32.465  21.660  23.092  1.00  0.00     0.046 A 
ATOM     13  C   UNL A   1      32.684  22.063  24.404  1.00  0.00     0.004 A 
ATOM     14  N   UNL A   1      32.420  22.801  22.328  1.00  0.00    -0.352 N 
ATOM     15  C   UNL A   1      32.528  23.933  23.109  1.00  0.00     0.093 A 
ATOM     16  H   UNL A   1      32.322  22.808  21.347  1.00  0.00     0.167 HD
BRANCH   8  17
ATOM     17  C   UNL A   1      32.310  17.873  23.317  1.00  0.00     0.032 C 
ATOM     18  C   UNL A   1      33.633  17.129  23.168  1.00  0.00     0.009 C 
ENDBRANCH   8  17
BRANCH  15  19
ATOM     19  C   UNL A   1      32.391  25.304  22.625  1.00  0.00     0.227 C 
ATOM     20  O   UNL A   1      33.268  25.884  21.989  1.00  0.00    -0.285 OA
BRANCH  19  21
ATOM     21  C   UNL A   1      31.167  26.077  22.961  1.00  0.00     0.113 A 
ATOM     22  C   UNL A   1      31.054  27.405  22.555  1.00  0.00     0.036 A 
ATOM     23  N   UNL A   1      30.199  25.407  23.634  1.00  0.00    -0.253 NA
ATOM     24  C   UNL A   1      29.874  28.090  22.853  1.00  0.00    -0.047 A 
ATOM     25  C   UNL A   1      29.057  26.080  23.875  1.00  0.00     0.112 A 
ATOM     26  C   UNL A   1      29.679  29.519  22.444  1.00  0.00     0.044 C 
ATOM     27  C   UNL A   1      28.852  27.403  23.514  1.00  0.00     0.023 A 
ENDBRANCH  19  21
ENDBRANCH  15  19
ENDBRANCH   6   7
ENDBRANCH   3   6
ENDBRANCH   1   2
BRANCH   1  28
ATOM     28  C   UNL A   1      32.221  28.128  27.357  1.00  0.00     0.042 C 
BRANCH  28  29
ATOM     29  C   UNL A   1      33.597  28.782  27.266  1.00  0.00     0.118 C 
BRANCH  29  30
ATOM     30  N   UNL A   1      33.595  30.170  27.704  1.00  0.00    -0.352 N 
ATOM     31  C   UNL A   1      34.554  30.901  28.358  1.00  0.00     0.251 C 
ATOM     32  H   UNL A   1      32.770  30.666  27.495  1.00  0.00     0.163 HD
ATOM     33  O   UNL A   1      34.277  32.022  28.776  1.00  0.00    -0.269 OA
BRANCH  31  34
ATOM     34  C   UNL A   1      35.912  30.357  28.584  1.00  0.00     0.039 A 
ATOM     35  C   UNL A   1      36.839  30.419  27.537  1.00  0.00     0.014 A 
ATOM     36  C   UNL A   1      36.262  29.735  29.785  1.00  0.00     0.014 A 
ATOM     37  C   UNL A   1      38.129  29.911  27.713  1.00  0.00     0.010 A 
ATOM     38  C   UNL A   1      37.567  29.282  29.981  1.00  0.00     0.010 A 
ATOM     39  C   UNL A   1      38.512  29.363  28.946  1.00  0.00    -0.014 A 
BRANCH  39  40
ATOM     40  C   UNL A   1      39.888  28.857  29.173  1.00  0.00     0.031 A 
ATOM     41  C   UNL A   1      40.939  29.762  29.755  1.00  0.00     0.074 A 
ATOM     42  C   UNL A   1      40.215  27.607  28.792  1.00  0.00     0.049 A 
ATOM     43  N   UNL A   1      42.218  29.538  29.927  1.00  0.00    -0.248 NA
ATOM     44  C   UNL A   1      40.499  31.101  30.177  1.00  0.00     0.031 C 
ATOM     45  C   UNL A   1      39.297  26.635  28.195  1.00  0.00     0.029 A 
ATOM     46  N   UNL A   1      41.416  26.946  28.841  1.00  0.00    -0.354 N 
ATOM     47  C   UNL A   1      42.739  30.716  30.450  1.00  0.00     0.074 A 
ATOM     48  C   UNL A   1      41.645  31.659  30.539  1.00  0.00     0.031 C 
ATOM     49  C   UNL A   1      39.967  25.498  27.945  1.00  0.00     0.029 A 
ATOM     50  C   UNL A   1      41.364  25.673  28.330  1.00  0.00     0.049 A 
ATOM     51  H   UNL A   1      42.237  27.346  29.207  1.00  0.00     0.167 HD
ATOM     52  C   UNL A   1      44.011  30.985  30.829  1.00  0.00     0.031 A 
ATOM     53  C   UNL A   1      42.334  24.752  28.176  1.00  0.00     0.031 A 
ATOM     54  C   UNL A   1      45.097  30.045  30.764  1.00  0.00     0.049 A 
ATOM     55  C   UNL A   1      43.735  25.073  28.610  1.00  0.00     0.074 A 
ATOM     56  C   UNL A   1      46.409  30.212  31.172  1.00  0.00     0.029 A 
ATOM     57  N   UNL A   1      44.994  28.758  30.260  1.00  0.00    -0.354 N 
ATOM     58  N   UNL A   1      44.203  26.178  29.135  1.00  0.00    -0.248 NA
ATOM     59  C   UNL A   1      44.741  24.015  28.433  1.00  0.00     0.031 C 
ATOM     60  C   UNL A   1      47.109  29.034  30.887  1.00  0.00     0.029 A 
ATOM     61  C   UNL A   1      46.223  28.124  30.334  1.00  0.00     0.049 A 
ATOM     62  H   UNL A   1      44.171  28.356  29.901  1.00  0.00     0.167 HD
ATOM     63  C   UNL A   1      45.550  25.942  29.375  1.00  0.00     0.074 A 
ATOM     64  C   UNL A   1      45.822  24.586  28.946  1.00  0.00     0.031 C 
ATOM     65  C   UNL A   1      46.477  26.775  29.906  1.00  0.00     0.031 A 
BRANCH  52  66
ATOM     66  C   UNL A   1      44.296  32.368  31.343  1.00  0.00    -0.014 A 
ATOM     67  C   UNL A   1      44.216  32.665  32.712  1.00  0.00     0.009 A 
ATOM     68  C   UNL A   1      44.675  33.380  30.447  1.00  0.00     0.009 A 
ATOM     69  C   UNL A   1      44.476  33.958  33.170  1.00  0.00     0.001 A 
ATOM     70  C   UNL A   1      44.957  34.666  30.911  1.00  0.00     0.001 A 
ATOM     71  C   UNL A   1      44.848  34.956  32.271  1.00  0.00     0.000 A 
ENDBRANCH  52  66
BRANCH  53  72
ATOM     72  C   UNL A   1      42.009  23.426  27.594  1.00  0.00    -0.014 A 
ATOM     73  C   UNL A   1      41.486  22.406  28.403  1.00  0.00     0.009 A 
ATOM     74  C   UNL A   1      42.218  23.174  26.229  1.00  0.00     0.009 A 
ATOM     75  C   UNL A   1      41.200  21.151  27.861  1.00  0.00     0.001 A 
ATOM     76  C   UNL A   1      41.909  21.925  25.687  1.00  0.00     0.001 A 
ATOM     77  C   UNL A   1      41.407  20.913  26.504  1.00  0.00     0.000 A 
ENDBRANCH  53  72
BRANCH  65  78
ATOM     78  C   UNL A   1      47.864  26.229  30.085  1.00  0.00    -0.014 A 
ATOM     79  C   UNL A   1      48.782  26.221  29.024  1.00  0.00     0.009 A 
ATOM     80  C   UNL A   1      48.266  25.755  31.342  1.00  0.00     0.009 A 
ATOM     81  C   UNL A   1      50.073  25.722  29.215  1.00  0.00     0.001 A 
ATOM     82  C   UNL A   1      49.563  25.277  31.535  1.00  0.00     0.001 A 
ATOM     83  C   UNL A   1      50.463  25.255  30.470  1.00  0.00     0.000 A 
ENDBRANCH  65  78
ENDBRANCH  39  40
ENDBRANCH  31  34
ENDBRANCH  29  30
ENDBRANCH  28  29
ENDBRANCH   1  28
TORSDOF 14
ENDMDL
MODEL 2
REMARK VINA RESULT:     -12.3      2.508      8.054
REMARK SMILES CCc1ccc2c(CC(=O)NCCCNC(=O)c3ccc(-c4c5nc(c(-c6ccccc6)c6ccc([nH]6)c(-c6ccccc6)c6nc(c(-c7ccccc7)c7ccc4[nH]7)C=C6)C=C5)cc3)c(C(=O)c3cc(C)ccn3)[nH]c2c1
REMARK SMILES IDX 12 1 11 2 9 3 10 4 8 6 7 7 3 8 4 9 78 10 5 11 77 12 6 13
REMARK SMILES IDX 76 14 66 15 2 17 1 18 67 19 68 20 69 21 70 22 75 23 71 24
REMARK SMILES IDX 74 25 72 26 73 27 13 28 14 29 15 30 16 31 17 33 18 34 19 35
REMARK SMILES IDX 65 36 20 37 64 38 21 39 22 40 23 41 58 42 24 43 63 44 57 45
REMARK SMILES IDX 59 46 25 47 62 48 56 49 55 50 26 52 48 53 33 54 47 55 34 56
REMARK SMILES IDX 37 57 46 58 60 59 35 60 36 61 45 63 61 64 38 65 27 66 28 67
REMARK SMILES IDX 32 68 29 69 31 70 30 71 49 72 50 73 54 74 51 75 53 76 52 77
REMARK SMILES IDX 39 78 40 79 44 80 41 81 43 82 42 83
REMARK H PARENT 11 5 76 16 15 32 59 51 37 62
REMARK Flexibility Score: inf
ROOT
ATOM      1  C   UNL A   1      34.590  24.132  26.002  1.00  0.00     0.117 C 
ENDROOT
BRANCH   1   2
ATOM      2  N   UNL A   1      34.599  25.308  25.158  1.00  0.00    -0.356 N 
ATOM      3  C   UNL A   1      33.785  26.404  25.175  1.00  0.00     0.224 C 
ATOM      4  O   UNL A   1      34.136  27.361  24.480  1.00  0.00    -0.275 OA
ATOM      5  H   UNL A   1      35.299  25.318  24.466  1.00  0.00     0.163 HD
BRANCH   3   6
ATOM      6  C   UNL A   1      32.584  26.490  26.109  1.00  0.00     0.138 C 
BRANCH   6   7
ATOM      7  C   UNL A   1      31.238  26.352  25.445  1.00  0.00    -0.002 A 
ATOM      8  C   UNL A   1      28.816  28.914  23.092  1.00  0.00    -0.046 A 
ATOM      9  C   UNL A   1      30.056  29.426  23.482  1.00  0.00     0.004 A 
ATOM     10  C   UNL A   1      28.448  27.618  23.501  1.00  0.00     0.030 A 
ATOM     11  C   UNL A   1      30.952  28.664  24.243  1.00  0.00     0.011 A 
ATOM     12  C   UNL A   1      29.355  26.872  24.266  1.00  0.00     0.046 A 
ATOM     13  C   UNL A   1      30.597  27.363  24.651  1.00  0.00     0.004 A 
ATOM     14  N   UNL A   1      29.251  25.603  24.781  1.00  0.00    -0.352 N 
ATOM     15  C   UNL A   1      30.412  25.225  25.423  1.00  0.00     0.093 A 
ATOM     16  H   UNL A   1      28.449  25.036  24.701  1.00  0.00     0.167 HD
BRANCH   8  17
ATOM     17  C   UNL A   1      27.821  29.732  22.295  1.00  0.00     0.032 C 
ATOM     18  C   UNL A   1      27.653  31.183  22.734  1.00  0.00     0.009 C 
ENDBRANCH   8  17
BRANCH  15  19
ATOM     19  C   UNL A   1      30.676  23.897  25.969  1.00  0.00     0.227 C 
ATOM     20  O   UNL A   1      30.400  23.576  27.123  1.00  0.00    -0.285 OA
BRANCH  19  21
ATOM     21  C   UNL A   1      31.369  22.887  25.127  1.00  0.00     0.113 A 
ATOM     22  C   UNL A   1      31.799  21.690  25.696  1.00  0.00     0.036 A 
ATOM     23  N   UNL A   1      31.511  23.195  23.814  1.00  0.00    -0.253 NA
ATOM     24  C   UNL A   1      32.412  20.747  24.867  1.00  0.00    -0.047 A 
ATOM     25  C   UNL A   1      32.071  22.252  23.031  1.00  0.00     0.112 A 
ATOM     26  C   UNL A   1      32.897  19.435  25.407  1.00  0.00     0.044 C 
ATOM     27  C   UNL A   1      32.534  21.034  23.505  1.00  0.00     0.023 A 
ENDBRANCH  19  21
ENDBRANCH  15  19
ENDBRANCH   6   7
ENDBRANCH   3   6
ENDBRANCH   1   2
BRANCH   1  28
ATOM     28  C   UNL A   1      35.599  23.075  25.563  1.00  0.00     0.042 C 
BRANCH  28  29
ATOM     29  C   UNL A   1      36.970  23.631  25.185  1.00  0.00     0.118 C 
BRANCH  29  30
ATOM     30  N   UNL A   1      38.056  22.707  25.479  1.00  0.00    -0.352 N 
ATOM     31  C   UNL A   1      39.249  22.910  26.123  1.00  0.00     0.251 C 
ATOM     32  H   UNL A   1      37.909  21.785  25.165  1.00  0.00     0.163 HD
ATOM     33  O   UNL A   1      40.096  22.019  26.119  1.00  0.00    -0.269 OA
BRANCH  31  34
ATOM     34  C   UNL A   1      39.544  24.188  26.809  1.00  0.00     0.039 A 
ATOM     35  C   UNL A   1      39.027  24.392  28.093  1.00  0.00     0.014 A 
ATOM     36  C   UNL A   1      40.267  25.206  26.182  1.00  0.00     0.014 A 
ATOM     37  C   UNL A   1      39.281  25.589  28.769  1.00  0.00     0.010 A 
ATOM     38  C   UNL A   1      40.570  26.376  26.879  1.00  0.00     0.010 A 
ATOM     39  C   UNL A   1      40.077  26.580  28.177  1.00  0.00    -0.014 A 
BRANCH  39  40
ATOM     40  C   UNL A   1      40.399  27.841  28.891  1.00  0.00     0.031 A 
ATOM     41  C   UNL A   1      41.703  27.982  29.626  1.00  0.00     0.074 A 
ATOM     42  C   UNL A   1      39.491  28.835  28.938  1.00  0.00     0.049 A 
ATOM     43  N   UNL A   1      42.117  28.959  30.395  1.00  0.00    -0.248 NA
ATOM     44  C   UNL A   1      42.656  26.868  29.500  1.00  0.00     0.031 C 
ATOM     45  C   UNL A   1      38.179  28.818  28.287  1.00  0.00     0.029 A 
ATOM     46  N   UNL A   1      39.531  30.049  29.575  1.00  0.00    -0.354 N 
ATOM     47  C   UNL A   1      43.363  28.565  30.865  1.00  0.00     0.074 A 
ATOM     48  C   UNL A   1      43.626  27.250  30.320  1.00  0.00     0.031 C 
ATOM     49  C   UNL A   1      37.547  29.973  28.548  1.00  0.00     0.029 A 
ATOM     50  C   UNL A   1      38.390  30.794  29.412  1.00  0.00     0.049 A 
ATOM     51  H   UNL A   1      40.305  30.357  30.099  1.00  0.00     0.167 HD
ATOM     52  C   UNL A   1      44.217  29.240  31.670  1.00  0.00     0.031 A 
ATOM     53  C   UNL A   1      38.053  31.999  29.910  1.00  0.00     0.031 A 
ATOM     54  C   UNL A   1      43.973  30.556  32.196  1.00  0.00     0.049 A 
ATOM     55  C   UNL A   1      39.020  32.730  30.796  1.00  0.00     0.074 A 
ATOM     56  C   UNL A   1      44.802  31.340  32.980  1.00  0.00     0.029 A 
ATOM     57  N   UNL A   1      42.812  31.284  31.987  1.00  0.00    -0.354 N 
ATOM     58  N   UNL A   1      40.209  32.359  31.202  1.00  0.00    -0.248 NA
ATOM     59  C   UNL A   1      38.597  34.049  31.289  1.00  0.00     0.031 C 
ATOM     60  C   UNL A   1      44.129  32.532  33.271  1.00  0.00     0.029 A 
ATOM     61  C   UNL A   1      42.897  32.503  32.638  1.00  0.00     0.049 A 
ATOM     62  H   UNL A   1      42.042  30.979  31.456  1.00  0.00     0.167 HD
ATOM     63  C   UNL A   1      40.688  33.408  31.976  1.00  0.00     0.074 A 
ATOM     64  C   UNL A   1      39.664  34.432  31.976  1.00  0.00     0.031 C 
ATOM     65  C   UNL A   1      41.872  33.512  32.626  1.00  0.00     0.031 A 
BRANCH  52  66
ATOM     66  C   UNL A   1      45.501  28.553  32.040  1.00  0.00    -0.014 A 
ATOM     67  C   UNL A   1      45.586  27.735  33.177  1.00  0.00     0.009 A 
ATOM     68  C   UNL A   1      46.633  28.706  31.225  1.00  0.00     0.009 A 
ATOM     69  C   UNL A   1      46.790  27.112  33.510  1.00  0.00     0.001 A 
ATOM     70  C   UNL A   1      47.829  28.062  31.547  1.00  0.00     0.001 A 
ATOM     71  C   UNL A   1      47.909  27.274  32.694  1.00  0.00     0.000 A 
ENDBRANCH  52  66
BRANCH  53  72
ATOM     72  C   UNL A   1      36.739  32.598  29.570  1.00  0.00    -0.014 A 
ATOM     73  C   UNL A   1      35.649  32.455  30.442  1.00  0.00     0.009 A 
ATOM     74  C   UNL A   1      36.567  33.316  28.376  1.00  0.00     0.009 A 
ATOM     75  C   UNL A   1      34.406  33.001  30.115  1.00  0.00     0.001 A 
ATOM     76  C   UNL A   1      35.329  33.880  28.064  1.00  0.00     0.001 A 
ATOM     77  C   UNL A   1      34.248  33.716  28.929  1.00  0.00     0.000 A 
ENDBRANCH  53  72
BRANCH  65  78
ATOM     78  C   UNL A   1      42.138  34.793  33.363  1.00  0.00    -0.014 A 
ATOM     79  C   UNL A   1      42.864  35.834  32.766  1.00  0.00     0.009 A 
ATOM     80  C   UNL A   1      41.620  34.971  34.654  1.00  0.00     0.009 A 
ATOM     81  C   UNL A   1      43.088  37.024  33.462  1.00  0.00     0.001 A 
ATOM     82  C   UNL A   1      41.828  36.169  35.339  1.00  0.00     0.001 A 
ATOM     83  C   UNL A   1      42.567  37.191  34.746  1.00  0.00     0.000 A 
ENDBRANCH  65  78
ENDBRANCH  39  40
ENDBRANCH  31  34
ENDBRANCH  29  30
ENDBRANCH  28  29
ENDBRANCH   1  28
TORSDOF 14
ENDMDL
MODEL 3
REMARK VINA RESULT:     -12.1      1.188      1.563
REMARK SMILES CCc1ccc2c(CC(=O)NCCCNC(=O)c3ccc(-c4c5nc(c(-c6ccccc6)c6ccc([nH]6)c(-c6ccccc6)c6nc(c(-c7ccccc7)c7ccc4[nH]7)C=C6)C=C5)cc3)c(C(=O)c3cc(C)ccn3)[nH]c2c1
REMARK SMILES IDX 12 1 11 2 9 3 10 4 8 6 7 7 3 8 4 9 78 10 5 11 77 12 6 13
REMARK SMILES IDX 76 14 66 15 2 17 1 18 67 19 68 20 69 21 70 22 75 23 71 24
REMARK SMILES IDX 74 25 72 26 73 27 13 28 14 29 15 30 16 31 17 33 18 34 19 35
REMARK SMILES IDX 65 36 20 37 64 38 21 39 22 40 23 41 58 42 24 43 63 44 57 45
REMARK SMILES IDX 59 46 25 47 62 48 56 49 55 50 26 52 48 53 33 54 47 55 34 56
REMARK SMILES IDX 37 57 46 58 60 59 35 60 36 61 45 63 61 64 38 65 27 66 28 67
REMARK SMILES IDX 32 68 29 69 31 70 30 71 49 72 50 73 54 74 51 75 53 76 52 77
REMARK SMILES IDX 39 78 40 79 44 80 41 81 43 82 42 83
REMARK H PARENT 11 5 76 16 15 32 59 51 37 62
REMARK Flexibility Score: inf
ROOT
ATOM      1  C   UNL A   1      34.017  27.214  24.798  1.00  0.00     0.117 C 
ENDROOT
BRANCH   1   2
ATOM      2  N   UNL A   1      33.842  26.100  25.706  1.00  0.00    -0.356 N 
ATOM      3  C   UNL A   1      34.151  24.780  25.543  1.00  0.00     0.224 C 
ATOM      4  O   UNL A   1      34.089  24.072  26.551  1.00  0.00    -0.275 OA
ATOM      5  H   UNL A   1      33.436  26.330  26.573  1.00  0.00     0.163 HD
BRANCH   3   6
ATOM      6  C   UNL A   1      34.678  24.243  24.217  1.00  0.00     0.138 C 
BRANCH   6   7
ATOM      7  C   UNL A   1      33.754  23.303  23.488  1.00  0.00    -0.002 A 
ATOM      8  C   UNL A   1      32.838  19.179  23.841  1.00  0.00    -0.046 A 
ATOM      9  C   UNL A   1      33.743  19.691  24.775  1.00  0.00     0.004 A 
ATOM     10  C   UNL A   1      32.307  20.035  22.858  1.00  0.00     0.030 A 
ATOM     11  C   UNL A   1      34.105  21.044  24.771  1.00  0.00     0.011 A 
ATOM     12  C   UNL A   1      32.685  21.385  22.867  1.00  0.00     0.046 A 
ATOM     13  C   UNL A   1      33.574  21.912  23.797  1.00  0.00     0.004 A 
ATOM     14  N   UNL A   1      32.316  22.417  22.039  1.00  0.00    -0.352 N 
ATOM     15  C   UNL A   1      32.876  23.611  22.445  1.00  0.00     0.093 A 
ATOM     16  H   UNL A   1      31.726  22.317  21.256  1.00  0.00     0.167 HD
BRANCH   8  17
ATOM     17  C   UNL A   1      32.455  17.714  23.809  1.00  0.00     0.032 C 
ATOM     18  C   UNL A   1      33.544  16.755  23.339  1.00  0.00     0.009 C 
ENDBRANCH   8  17
BRANCH  15  19
ATOM     19  C   UNL A   1      32.587  24.917  21.860  1.00  0.00     0.227 C 
ATOM     20  O   UNL A   1      33.209  25.380  20.906  1.00  0.00    -0.285 OA
BRANCH  19  21
ATOM     21  C   UNL A   1      31.537  25.773  22.470  1.00  0.00     0.113 A 
ATOM     22  C   UNL A   1      31.416  27.105  22.079  1.00  0.00     0.036 A 
ATOM     23  N   UNL A   1      30.721  25.172  23.372  1.00  0.00    -0.253 NA
ATOM     24  C   UNL A   1      30.393  27.870  22.644  1.00  0.00    -0.047 A 
ATOM     25  C   UNL A   1      29.720  25.922  23.872  1.00  0.00     0.112 A 
ATOM     26  C   UNL A   1      30.198  29.308  22.268  1.00  0.00     0.044 C 
ATOM     27  C   UNL A   1      29.521  27.256  23.548  1.00  0.00     0.023 A 
ENDBRANCH  19  21
ENDBRANCH  15  19
ENDBRANCH   6   7
ENDBRANCH   3   6
ENDBRANCH   1   2
BRANCH   1  28
ATOM     28  C   UNL A   1      33.336  28.490  25.282  1.00  0.00     0.042 C 
BRANCH  28  29
ATOM     29  C   UNL A   1      33.563  28.806  26.758  1.00  0.00     0.118 C 
BRANCH  29  30
ATOM     30  N   UNL A   1      33.584  30.236  27.034  1.00  0.00    -0.352 N 
ATOM     31  C   UNL A   1      34.493  30.997  27.723  1.00  0.00     0.251 C 
ATOM     32  H   UNL A   1      32.822  30.737  26.665  1.00  0.00     0.163 HD
ATOM     33  O   UNL A   1      34.229  32.171  27.974  1.00  0.00    -0.269 OA
BRANCH  31  34
ATOM     34  C   UNL A   1      35.779  30.427  28.185  1.00  0.00     0.039 A 
ATOM     35  C   UNL A   1      36.854  30.392  27.289  1.00  0.00     0.014 A 
ATOM     36  C   UNL A   1      35.920  29.874  29.460  1.00  0.00     0.014 A 
ATOM     37  C   UNL A   1      38.082  29.857  27.688  1.00  0.00     0.010 A 
ATOM     38  C   UNL A   1      37.161  29.395  29.878  1.00  0.00     0.010 A 
ATOM     39  C   UNL A   1      38.253  29.378  28.996  1.00  0.00    -0.014 A 
BRANCH  39  40
ATOM     40  C   UNL A   1      39.558  28.846  29.459  1.00  0.00     0.031 A 
ATOM     41  C   UNL A   1      40.429  29.667  30.369  1.00  0.00     0.074 A 
ATOM     42  C   UNL A   1      39.995  27.655  29.006  1.00  0.00     0.049 A 
ATOM     43  N   UNL A   1      41.644  29.422  30.793  1.00  0.00    -0.248 NA
ATOM     44  C   UNL A   1      39.869  30.941  30.848  1.00  0.00     0.031 C 
ATOM     45  C   UNL A   1      39.260  26.769  28.102  1.00  0.00     0.029 A 
ATOM     46  N   UNL A   1      41.174  26.992  29.238  1.00  0.00    -0.354 N 
ATOM     47  C   UNL A   1      42.004  30.521  31.562  1.00  0.00     0.074 A 
ATOM     48  C   UNL A   1      40.891  31.447  31.524  1.00  0.00     0.031 C 
ATOM     49  C   UNL A   1      39.999  25.673  27.867  1.00  0.00     0.029 A 
ATOM     50  C   UNL A   1      41.271  25.795  28.572  1.00  0.00     0.049 A 
ATOM     51  H   UNL A   1      41.882  27.341  29.826  1.00  0.00     0.167 HD
ATOM     52  C   UNL A   1      43.152  30.738  32.247  1.00  0.00     0.031 A 
ATOM     53  C   UNL A   1      42.276  24.900  28.525  1.00  0.00     0.031 A 
ATOM     54  C   UNL A   1      44.251  29.813  32.308  1.00  0.00     0.049 A 
ATOM     55  C   UNL A   1      43.537  25.161  29.297  1.00  0.00     0.074 A 
ATOM     56  C   UNL A   1      45.434  29.925  33.017  1.00  0.00     0.029 A 
ATOM     57  N   UNL A   1      44.298  28.602  31.636  1.00  0.00    -0.354 N 
ATOM     58  N   UNL A   1      43.846  26.189  30.048  1.00  0.00    -0.248 NA
ATOM     59  C   UNL A   1      44.586  24.134  29.217  1.00  0.00     0.031 C 
ATOM     60  C   UNL A   1      46.213  28.793  32.749  1.00  0.00     0.029 A 
ATOM     61  C   UNL A   1      45.497  27.962  31.903  1.00  0.00     0.049 A 
ATOM     62  H   UNL A   1      43.586  28.250  31.055  1.00  0.00     0.167 HD
ATOM     63  C   UNL A   1      45.113  25.923  30.551  1.00  0.00     0.074 A 
ATOM     64  C   UNL A   1      45.511  24.632  30.026  1.00  0.00     0.031 C 
ATOM     65  C   UNL A   1      45.876  26.679  31.375  1.00  0.00     0.031 A 
BRANCH  52  66
ATOM     66  C   UNL A   1      43.278  32.043  32.981  1.00  0.00    -0.014 A 
ATOM     67  C   UNL A   1      43.817  33.178  32.358  1.00  0.00     0.009 A 
ATOM     68  C   UNL A   1      42.825  32.143  34.306  1.00  0.00     0.009 A 
ATOM     69  C   UNL A   1      43.934  34.380  33.059  1.00  0.00     0.001 A 
ATOM     70  C   UNL A   1      42.922  33.352  34.997  1.00  0.00     0.001 A 
ATOM     71  C   UNL A   1      43.485  34.467  34.377  1.00  0.00     0.000 A 
ENDBRANCH  52  66
BRANCH  53  72
ATOM     72  C   UNL A   1      42.125  23.661  27.722  1.00  0.00    -0.014 A 
ATOM     73  C   UNL A   1      41.582  22.504  28.302  1.00  0.00     0.009 A 
ATOM     74  C   UNL A   1      42.521  23.627  26.377  1.00  0.00     0.009 A 
ATOM     75  C   UNL A   1      41.459  21.331  27.555  1.00  0.00     0.001 A 
ATOM     76  C   UNL A   1      42.375  22.459  25.627  1.00  0.00     0.001 A 
ATOM     77  C   UNL A   1      41.851  21.310  26.218  1.00  0.00     0.000 A 
ENDBRANCH  53  72
BRANCH  65  78
ATOM     78  C   UNL A   1      47.204  26.113  31.790  1.00  0.00    -0.014 A 
ATOM     79  C   UNL A   1      47.342  25.388  32.982  1.00  0.00     0.009 A 
ATOM     80  C   UNL A   1      48.318  26.277  30.954  1.00  0.00     0.009 A 
ATOM     81  C   UNL A   1      48.583  24.858  33.343  1.00  0.00     0.001 A 
ATOM     82  C   UNL A   1      49.552  25.727  31.307  1.00  0.00     0.001 A 
ATOM     83  C   UNL A   1      49.685  25.025  32.503  1.00  0.00     0.000 A 
ENDBRANCH  65  78
ENDBRANCH  39  40
ENDBRANCH  31  34
ENDBRANCH  29  30
ENDBRANCH  28  29
ENDBRANCH   1  28
TORSDOF 14
ENDMDL
