MODEL 1
REMARK VINA RESULT:      -9.8      0.000      0.000
REMARK SMILES CCC1(CC)C[NH+](C2(C(=O)NCCCNC(=O)c3ccc(-c4c5nc(c(-c6ccccc6)c6ccc([nH]6)c(-c6ccccc6)c6nc(c(-c7ccccc7)c7ccc4[nH]7)C=C6)C=C5)cc3)CC2)C1
REMARK SMILES IDX 13 1 12 2 11 3 9 4 10 5 8 7 66 8 67 9 7 10 3 11 6 12 68 13
REMARK SMILES IDX 2 15 1 16 4 17 5 18 14 19 15 20 16 21 17 23 18 24 19 25
REMARK SMILES IDX 65 26 20 27 64 28 21 29 22 30 23 31 58 32 24 33 63 34 57 35
REMARK SMILES IDX 59 36 25 37 62 38 56 39 55 40 26 42 48 43 33 44 47 45 34 46
REMARK SMILES IDX 37 47 46 48 60 49 35 50 36 51 45 53 61 54 38 55 27 56 28 57
REMARK SMILES IDX 32 58 29 59 31 60 30 61 49 62 50 63 54 64 51 65 53 66 52 67
REMARK SMILES IDX 39 68 40 69 44 70 41 71 43 72 42 73
REMARK H PARENT 11 6 7 14 15 22 59 41 37 52
REMARK Flexibility Score: inf
ROOT
ATOM      1  C   UNL A   1      32.882  28.010  25.909  1.00  0.00     0.042 C 
ENDROOT
BRANCH   1   2
ATOM      2  C   UNL A   1      31.449  27.503  26.031  1.00  0.00     0.118 C 
BRANCH   2   3
ATOM      3  N   UNL A   1      31.364  26.234  26.731  1.00  0.00    -0.351 N 
ATOM      4  C   UNL A   1      31.563  24.917  26.377  1.00  0.00     0.281 C 
ATOM      5  O   UNL A   1      31.383  24.099  27.283  1.00  0.00    -0.268 OA
ATOM      6  H   UNL A   1      31.104  26.337  27.674  1.00  0.00     0.163 HD
BRANCH   4   7
ATOM      7  C   UNL A   1      31.971  24.448  24.967  1.00  0.00     0.177 C 
ATOM      8  C   UNL A   1      30.965  24.506  23.829  1.00  0.00     0.086 C 
ATOM      9  C   UNL A   1      31.342  23.179  24.418  1.00  0.00     0.086 C 
BRANCH   7  10
ATOM     10  N   UNL A   1      33.413  24.770  24.702  1.00  0.00    -0.321 N 
ATOM     11  C   UNL A   1      35.077  23.508  25.206  1.00  0.00     0.068 C 
ATOM     12  C   UNL A   1      34.338  24.740  25.833  1.00  0.00     0.275 C 
ATOM     13  C   UNL A   1      34.264  23.868  23.919  1.00  0.00     0.275 C 
ATOM     14  H   UNL A   1      33.149  25.653  24.267  1.00  0.00     0.349 HD
BRANCH  11  15
ATOM     15  C   UNL A   1      36.594  23.754  25.098  1.00  0.00     0.015 C 
ATOM     16  C   UNL A   1      37.399  22.587  25.659  1.00  0.00     0.005 C 
ENDBRANCH  11  15
BRANCH  11  17
ATOM     17  C   UNL A   1      34.730  22.131  25.806  1.00  0.00     0.015 C 
ATOM     18  C   UNL A   1      34.329  22.184  27.271  1.00  0.00     0.005 C 
ENDBRANCH  11  17
ENDBRANCH   7  10
ENDBRANCH   4   7
ENDBRANCH   2   3
ENDBRANCH   1   2
BRANCH   1  19
ATOM     19  C   UNL A   1      33.513  28.380  27.243  1.00  0.00     0.118 C 
BRANCH  19  20
ATOM     20  N   UNL A   1      33.466  29.813  27.492  1.00  0.00    -0.352 N 
ATOM     21  C   UNL A   1      34.375  30.646  28.093  1.00  0.00     0.251 C 
ATOM     22  H   UNL A   1      32.647  30.259  27.176  1.00  0.00     0.163 HD
ATOM     23  O   UNL A   1      34.030  31.775  28.424  1.00  0.00    -0.269 OA
BRANCH  21  24
ATOM     24  C   UNL A   1      35.760  30.196  28.347  1.00  0.00     0.039 A 
ATOM     25  C   UNL A   1      36.090  29.723  29.620  1.00  0.00     0.014 A 
ATOM     26  C   UNL A   1      36.745  30.292  27.362  1.00  0.00     0.014 A 
ATOM     27  C   UNL A   1      37.395  29.306  29.889  1.00  0.00     0.010 A 
ATOM     28  C   UNL A   1      38.020  29.790  27.601  1.00  0.00     0.010 A 
ATOM     29  C   UNL A   1      38.363  29.312  28.873  1.00  0.00    -0.014 A 
BRANCH  29  30
ATOM     30  C   UNL A   1      39.747  28.842  29.126  1.00  0.00     0.031 A 
ATOM     31  C   UNL A   1      40.761  29.771  29.736  1.00  0.00     0.074 A 
ATOM     32  C   UNL A   1      40.109  27.602  28.744  1.00  0.00     0.049 A 
ATOM     33  N   UNL A   1      42.028  29.560  29.986  1.00  0.00    -0.248 NA
ATOM     34  C   UNL A   1      40.299  31.126  30.082  1.00  0.00     0.031 C 
ATOM     35  C   UNL A   1      39.233  26.628  28.090  1.00  0.00     0.029 A 
ATOM     36  N   UNL A   1      41.314  26.956  28.841  1.00  0.00    -0.354 N 
ATOM     37  C   UNL A   1      42.518  30.759  30.488  1.00  0.00     0.074 A 
ATOM     38  C   UNL A   1      41.426  31.707  30.463  1.00  0.00     0.031 C 
ATOM     39  C   UNL A   1      39.924  25.499  27.866  1.00  0.00     0.029 A 
ATOM     40  C   UNL A   1      41.297  25.683  28.326  1.00  0.00     0.049 A 
ATOM     41  H   UNL A   1      42.115  27.365  29.242  1.00  0.00     0.167 HD
ATOM     42  C   UNL A   1      43.760  31.042  30.947  1.00  0.00     0.031 A 
ATOM     43  C   UNL A   1      42.277  24.767  28.231  1.00  0.00     0.031 A 
ATOM     44  C   UNL A   1      44.839  30.092  30.991  1.00  0.00     0.049 A 
ATOM     45  C   UNL A   1      43.641  25.094  28.767  1.00  0.00     0.074 A 
ATOM     46  C   UNL A   1      46.111  30.255  31.511  1.00  0.00     0.029 A 
ATOM     47  N   UNL A   1      44.772  28.801  30.489  1.00  0.00    -0.354 N 
ATOM     48  N   UNL A   1      44.065  26.204  29.322  1.00  0.00    -0.248 NA
ATOM     49  C   UNL A   1      44.657  24.036  28.681  1.00  0.00     0.031 C 
ATOM     50  C   UNL A   1      46.831  29.078  31.276  1.00  0.00     0.029 A 
ATOM     51  C   UNL A   1      45.989  28.165  30.662  1.00  0.00     0.049 A 
ATOM     52  H   UNL A   1      43.977  28.398  30.071  1.00  0.00     0.167 HD
ATOM     53  C   UNL A   1      45.390  25.972  29.670  1.00  0.00     0.074 A 
ATOM     54  C   UNL A   1      45.691  24.609  29.281  1.00  0.00     0.031 C 
ATOM     55  C   UNL A   1      46.275  26.811  30.260  1.00  0.00     0.031 A 
BRANCH  42  56
ATOM     56  C   UNL A   1      44.018  32.445  31.425  1.00  0.00    -0.014 A 
ATOM     57  C   UNL A   1      44.474  33.445  30.551  1.00  0.00     0.009 A 
ATOM     58  C   UNL A   1      43.783  32.776  32.769  1.00  0.00     0.009 A 
ATOM     59  C   UNL A   1      44.734  34.734  31.022  1.00  0.00     0.001 A 
ATOM     60  C   UNL A   1      44.013  34.074  33.231  1.00  0.00     0.001 A 
ATOM     61  C   UNL A   1      44.499  35.048  32.360  1.00  0.00     0.000 A 
ENDBRANCH  42  56
BRANCH  43  62
ATOM     62  C   UNL A   1      41.993  23.445  27.616  1.00  0.00    -0.014 A 
ATOM     63  C   UNL A   1      42.261  23.216  26.259  1.00  0.00     0.009 A 
ATOM     64  C   UNL A   1      41.468  22.398  28.392  1.00  0.00     0.009 A 
ATOM     65  C   UNL A   1      41.992  21.971  25.685  1.00  0.00     0.001 A 
ATOM     66  C   UNL A   1      41.226  21.147  27.821  1.00  0.00     0.001 A 
ATOM     67  C   UNL A   1      41.479  20.937  26.467  1.00  0.00     0.000 A 
ENDBRANCH  43  62
BRANCH  55  68
ATOM     68  C   UNL A   1      47.648  26.269  30.543  1.00  0.00    -0.014 A 
ATOM     69  C   UNL A   1      47.977  25.735  31.797  1.00  0.00     0.009 A 
ATOM     70  C   UNL A   1      48.613  26.258  29.523  1.00  0.00     0.009 A 
ATOM     71  C   UNL A   1      49.258  25.234  32.036  1.00  0.00     0.001 A 
ATOM     72  C   UNL A   1      49.882  25.730  29.756  1.00  0.00     0.001 A 
ATOM     73  C   UNL A   1      50.207  25.227  31.015  1.00  0.00     0.000 A 
ENDBRANCH  55  68
ENDBRANCH  29  30
ENDBRANCH  21  24
ENDBRANCH  19  20
ENDBRANCH   1  19
TORSDOF 13
ENDMDL
MODEL 2
REMARK VINA RESULT:      -9.6      0.741      1.216
REMARK SMILES CCC1(CC)C[NH+](C2(C(=O)NCCCNC(=O)c3ccc(-c4c5nc(c(-c6ccccc6)c6ccc([nH]6)c(-c6ccccc6)c6nc(c(-c7ccccc7)c7ccc4[nH]7)C=C6)C=C5)cc3)CC2)C1
REMARK SMILES IDX 13 1 12 2 11 3 9 4 10 5 8 7 66 8 67 9 7 10 3 11 6 12 68 13
REMARK SMILES IDX 2 15 1 16 4 17 5 18 14 19 15 20 16 21 17 23 18 24 19 25
REMARK SMILES IDX 65 26 20 27 64 28 21 29 22 30 23 31 58 32 24 33 63 34 57 35
REMARK SMILES IDX 59 36 25 37 62 38 56 39 55 40 26 42 48 43 33 44 47 45 34 46
REMARK SMILES IDX 37 47 46 48 60 49 35 50 36 51 45 53 61 54 38 55 27 56 28 57
REMARK SMILES IDX 32 58 29 59 31 60 30 61 49 62 50 63 54 64 51 65 53 66 52 67
REMARK SMILES IDX 39 68 40 69 44 70 41 71 43 72 42 73
REMARK H PARENT 11 6 7 14 15 22 59 41 37 52
REMARK Flexibility Score: inf
ROOT
ATOM      1  C   UNL A   1      32.822  28.106  26.088  1.00  0.00     0.042 C 
ENDROOT
BRANCH   1   2
ATOM      2  C   UNL A   1      31.434  27.478  26.177  1.00  0.00     0.118 C 
BRANCH   2   3
ATOM      3  N   UNL A   1      31.448  26.188  26.845  1.00  0.00    -0.351 N 
ATOM      4  C   UNL A   1      31.610  24.884  26.430  1.00  0.00     0.281 C 
ATOM      5  O   UNL A   1      31.552  24.039  27.327  1.00  0.00    -0.268 OA
ATOM      6  H   UNL A   1      31.309  26.262  27.816  1.00  0.00     0.163 HD
BRANCH   4   7
ATOM      7  C   UNL A   1      31.838  24.458  24.967  1.00  0.00     0.177 C 
ATOM      8  C   UNL A   1      30.709  24.583  23.957  1.00  0.00     0.086 C 
ATOM      9  C   UNL A   1      31.116  23.226  24.451  1.00  0.00     0.086 C 
BRANCH   7  10
ATOM     10  N   UNL A   1      33.248  24.757  24.546  1.00  0.00    -0.321 N 
ATOM     11  C   UNL A   1      34.962  23.548  25.008  1.00  0.00     0.068 C 
ATOM     12  C   UNL A   1      34.270  24.829  25.588  1.00  0.00     0.275 C 
ATOM     13  C   UNL A   1      34.034  23.791  23.772  1.00  0.00     0.275 C 
ATOM     14  H   UNL A   1      32.938  25.598  24.060  1.00  0.00     0.349 HD
BRANCH  11  15
ATOM     15  C   UNL A   1      36.461  23.785  24.743  1.00  0.00     0.015 C 
ATOM     16  C   UNL A   1      37.271  23.782  26.034  1.00  0.00     0.005 C 
ENDBRANCH  11  15
BRANCH  11  17
ATOM     17  C   UNL A   1      34.682  22.228  25.757  1.00  0.00     0.015 C 
ATOM     18  C   UNL A   1      35.214  20.995  25.045  1.00  0.00     0.005 C 
ENDBRANCH  11  17
ENDBRANCH   7  10
ENDBRANCH   4   7
ENDBRANCH   2   3
ENDBRANCH   1   2
BRANCH   1  19
ATOM     19  C   UNL A   1      33.325  28.659  27.412  1.00  0.00     0.118 C 
BRANCH  19  20
ATOM     20  N   UNL A   1      33.420  30.112  27.398  1.00  0.00    -0.352 N 
ATOM     21  C   UNL A   1      34.390  30.949  27.887  1.00  0.00     0.251 C 
ATOM     22  H   UNL A   1      32.663  30.569  26.966  1.00  0.00     0.163 HD
ATOM     23  O   UNL A   1      34.154  32.147  27.992  1.00  0.00    -0.269 OA
BRANCH  21  24
ATOM     24  C   UNL A   1      35.712  30.421  28.288  1.00  0.00     0.039 A 
ATOM     25  C   UNL A   1      36.759  30.458  27.363  1.00  0.00     0.014 A 
ATOM     26  C   UNL A   1      35.909  29.839  29.543  1.00  0.00     0.014 A 
ATOM     27  C   UNL A   1      38.013  29.952  27.714  1.00  0.00     0.010 A 
ATOM     28  C   UNL A   1      37.179  29.422  29.923  1.00  0.00     0.010 A 
ATOM     29  C   UNL A   1      38.238  29.455  29.006  1.00  0.00    -0.014 A 
BRANCH  29  30
ATOM     30  C   UNL A   1      39.570  28.943  29.412  1.00  0.00     0.031 A 
ATOM     31  C   UNL A   1      40.484  29.794  30.251  1.00  0.00     0.074 A 
ATOM     32  C   UNL A   1      39.985  27.741  28.967  1.00  0.00     0.049 A 
ATOM     33  N   UNL A   1      41.701  29.543  30.661  1.00  0.00    -0.248 NA
ATOM     34  C   UNL A   1      39.976  31.116  30.655  1.00  0.00     0.031 C 
ATOM     35  C   UNL A   1      39.214  26.847  28.101  1.00  0.00     0.029 A 
ATOM     36  N   UNL A   1      41.163  27.072  29.175  1.00  0.00    -0.354 N 
ATOM     37  C   UNL A   1      42.111  30.681  31.343  1.00  0.00     0.074 A 
ATOM     38  C   UNL A   1      41.035  31.642  31.252  1.00  0.00     0.031 C 
ATOM     39  C   UNL A   1      39.931  25.735  27.871  1.00  0.00     0.029 A 
ATOM     40  C   UNL A   1      41.221  25.855  28.542  1.00  0.00     0.049 A 
ATOM     41  H   UNL A   1      41.896  27.429  29.727  1.00  0.00     0.167 HD
ATOM     42  C   UNL A   1      43.273  30.901  32.003  1.00  0.00     0.031 A 
ATOM     43  C   UNL A   1      42.205  24.939  28.501  1.00  0.00     0.031 A 
ATOM     44  C   UNL A   1      44.334  29.937  32.111  1.00  0.00     0.049 A 
ATOM     45  C   UNL A   1      43.476  25.193  29.260  1.00  0.00     0.074 A 
ATOM     46  C   UNL A   1      45.517  30.030  32.824  1.00  0.00     0.029 A 
ATOM     47  N   UNL A   1      44.342  28.701  31.481  1.00  0.00    -0.354 N 
ATOM     48  N   UNL A   1      43.814  26.239  29.976  1.00  0.00    -0.248 NA
ATOM     49  C   UNL A   1      44.494  24.135  29.220  1.00  0.00     0.031 C 
ATOM     50  C   UNL A   1      46.263  28.872  32.582  1.00  0.00     0.029 A 
ATOM     51  C   UNL A   1      45.521  28.034  31.766  1.00  0.00     0.049 A 
ATOM     52  H   UNL A   1      43.617  28.351  30.914  1.00  0.00     0.167 HD
ATOM     53  C   UNL A   1      45.074  25.956  30.489  1.00  0.00     0.074 A 
ATOM     54  C   UNL A   1      45.429  24.632  30.017  1.00  0.00     0.031 C 
ATOM     55  C   UNL A   1      45.863  26.721  31.280  1.00  0.00     0.031 A 
BRANCH  42  56
ATOM     56  C   UNL A   1      43.458  32.248  32.648  1.00  0.00    -0.014 A 
ATOM     57  C   UNL A   1      43.042  32.493  33.967  1.00  0.00     0.009 A 
ATOM     58  C   UNL A   1      44.076  33.284  31.930  1.00  0.00     0.009 A 
ATOM     59  C   UNL A   1      43.199  33.758  34.536  1.00  0.00     0.001 A 
ATOM     60  C   UNL A   1      44.260  34.540  32.512  1.00  0.00     0.001 A 
ATOM     61  C   UNL A   1      43.811  34.779  33.810  1.00  0.00     0.000 A 
ENDBRANCH  42  56
BRANCH  43  62
ATOM     62  C   UNL A   1      42.014  23.686  27.726  1.00  0.00    -0.014 A 
ATOM     63  C   UNL A   1      42.474  23.588  26.405  1.00  0.00     0.009 A 
ATOM     64  C   UNL A   1      41.387  22.575  28.313  1.00  0.00     0.009 A 
ATOM     65  C   UNL A   1      42.291  22.408  25.679  1.00  0.00     0.001 A 
ATOM     66  C   UNL A   1      41.232  21.388  27.594  1.00  0.00     0.001 A 
ATOM     67  C   UNL A   1      41.676  21.308  26.275  1.00  0.00     0.000 A 
ENDBRANCH  43  62
BRANCH  55  68
ATOM     68  C   UNL A   1      47.180  26.136  31.705  1.00  0.00    -0.014 A 
ATOM     69  C   UNL A   1      47.314  25.450  32.922  1.00  0.00     0.009 A 
ATOM     70  C   UNL A   1      48.293  26.240  30.855  1.00  0.00     0.009 A 
ATOM     71  C   UNL A   1      48.547  24.911  33.295  1.00  0.00     0.001 A 
ATOM     72  C   UNL A   1      49.515  25.675  31.218  1.00  0.00     0.001 A 
ATOM     73  C   UNL A   1      49.644  25.019  32.441  1.00  0.00     0.000 A 
ENDBRANCH  55  68
ENDBRANCH  29  30
ENDBRANCH  21  24
ENDBRANCH  19  20
ENDBRANCH   1  19
TORSDOF 13
ENDMDL
MODEL 3
REMARK VINA RESULT:      -9.6      0.471      6.265
REMARK SMILES CCC1(CC)C[NH+](C2(C(=O)NCCCNC(=O)c3ccc(-c4c5nc(c(-c6ccccc6)c6ccc([nH]6)c(-c6ccccc6)c6nc(c(-c7ccccc7)c7ccc4[nH]7)C=C6)C=C5)cc3)CC2)C1
REMARK SMILES IDX 13 1 12 2 11 3 9 4 10 5 8 7 66 8 67 9 7 10 3 11 6 12 68 13
REMARK SMILES IDX 2 15 1 16 4 17 5 18 14 19 15 20 16 21 17 23 18 24 19 25
REMARK SMILES IDX 65 26 20 27 64 28 21 29 22 30 23 31 58 32 24 33 63 34 57 35
REMARK SMILES IDX 59 36 25 37 62 38 56 39 55 40 26 42 48 43 33 44 47 45 34 46
REMARK SMILES IDX 37 47 46 48 60 49 35 50 36 51 45 53 61 54 38 55 27 56 28 57
REMARK SMILES IDX 32 58 29 59 31 60 30 61 49 62 50 63 54 64 51 65 53 66 52 67
REMARK SMILES IDX 39 68 40 69 44 70 41 71 43 72 42 73
REMARK H PARENT 11 6 7 14 15 22 59 41 37 52
REMARK Flexibility Score: inf
ROOT
ATOM      1  C   UNL A   1      32.915  28.048  25.854  1.00  0.00     0.042 C 
ENDROOT
BRANCH   1   2
ATOM      2  C   UNL A   1      31.508  27.512  26.099  1.00  0.00     0.118 C 
BRANCH   2   3
ATOM      3  N   UNL A   1      31.511  26.233  26.788  1.00  0.00    -0.351 N 
ATOM      4  C   UNL A   1      31.668  24.921  26.394  1.00  0.00     0.281 C 
ATOM      5  O   UNL A   1      31.601  24.091  27.305  1.00  0.00    -0.268 OA
ATOM      6  H   UNL A   1      31.369  26.323  27.757  1.00  0.00     0.163 HD
BRANCH   4   7
ATOM      7  C   UNL A   1      31.901  24.471  24.940  1.00  0.00     0.177 C 
ATOM      8  C   UNL A   1      30.780  24.597  23.919  1.00  0.00     0.086 C 
ATOM      9  C   UNL A   1      31.165  23.242  24.437  1.00  0.00     0.086 C 
BRANCH   7  10
ATOM     10  N   UNL A   1      33.318  24.744  24.524  1.00  0.00    -0.321 N 
ATOM     11  C   UNL A   1      35.000  23.482  24.958  1.00  0.00     0.068 C 
ATOM     12  C   UNL A   1      34.341  24.767  25.567  1.00  0.00     0.275 C 
ATOM     13  C   UNL A   1      34.079  23.776  23.729  1.00  0.00     0.275 C 
ATOM     14  H   UNL A   1      33.029  25.603  24.058  1.00  0.00     0.349 HD
BRANCH  11  15
ATOM     15  C   UNL A   1      36.505  23.687  24.697  1.00  0.00     0.015 C 
ATOM     16  C   UNL A   1      37.314  23.646  25.989  1.00  0.00     0.005 C 
ENDBRANCH  11  15
BRANCH  11  17
ATOM     17  C   UNL A   1      34.688  22.153  25.677  1.00  0.00     0.015 C 
ATOM     18  C   UNL A   1      35.161  20.922  24.921  1.00  0.00     0.005 C 
ENDBRANCH  11  17
ENDBRANCH   7  10
ENDBRANCH   4   7
ENDBRANCH   2   3
ENDBRANCH   1   2
BRANCH   1  19
ATOM     19  C   UNL A   1      33.670  28.382  27.131  1.00  0.00     0.118 C 
BRANCH  19  20
ATOM     20  N   UNL A   1      33.600  29.800  27.454  1.00  0.00    -0.352 N 
ATOM     21  C   UNL A   1      34.482  30.608  28.126  1.00  0.00     0.251 C 
ATOM     22  H   UNL A   1      32.787  30.254  27.137  1.00  0.00     0.163 HD
ATOM     23  O   UNL A   1      34.115  31.715  28.505  1.00  0.00    -0.269 OA
BRANCH  21  24
ATOM     24  C   UNL A   1      35.863  30.158  28.398  1.00  0.00     0.039 A 
ATOM     25  C   UNL A   1      36.817  30.262  27.381  1.00  0.00     0.014 A 
ATOM     26  C   UNL A   1      36.210  29.581  29.622  1.00  0.00     0.014 A 
ATOM     27  C   UNL A   1      38.125  29.830  27.609  1.00  0.00     0.010 A 
ATOM     28  C   UNL A   1      37.532  29.238  29.880  1.00  0.00     0.010 A 
ATOM     29  C   UNL A   1      38.498  29.339  28.870  1.00  0.00    -0.014 A 
BRANCH  29  30
ATOM     30  C   UNL A   1      39.890  28.906  29.145  1.00  0.00     0.031 A 
ATOM     31  C   UNL A   1      40.359  27.546  28.707  1.00  0.00     0.074 A 
ATOM     32  C   UNL A   1      40.709  29.710  29.849  1.00  0.00     0.049 A 
ATOM     33  N   UNL A   1      41.518  26.971  28.900  1.00  0.00    -0.248 NA
ATOM     34  C   UNL A   1      39.387  26.708  27.984  1.00  0.00     0.031 C 
ATOM     35  C   UNL A   1      40.354  31.028  30.378  1.00  0.00     0.029 A 
ATOM     36  N   UNL A   1      42.008  29.528  30.249  1.00  0.00    -0.354 N 
ATOM     37  C   UNL A   1      41.405  25.699  28.351  1.00  0.00     0.074 A 
ATOM     38  C   UNL A   1      40.051  25.568  27.861  1.00  0.00     0.031 C 
ATOM     39  C   UNL A   1      41.417  31.546  31.014  1.00  0.00     0.029 A 
ATOM     40  C   UNL A   1      42.513  30.584  30.968  1.00  0.00     0.049 A 
ATOM     41  H   UNL A   1      42.529  28.719  30.041  1.00  0.00     0.167 HD
ATOM     42  C   UNL A   1      42.348  24.733  28.248  1.00  0.00     0.031 A 
ATOM     43  C   UNL A   1      43.722  30.757  31.531  1.00  0.00     0.031 A 
ATOM     44  C   UNL A   1      43.700  24.873  28.717  1.00  0.00     0.049 A 
ATOM     45  C   UNL A   1      44.761  29.682  31.384  1.00  0.00     0.074 A 
ATOM     46  C   UNL A   1      44.754  23.985  28.589  1.00  0.00     0.029 A 
ATOM     47  N   UNL A   1      44.182  25.971  29.413  1.00  0.00    -0.354 N 
ATOM     48  N   UNL A   1      44.666  28.520  30.783  1.00  0.00    -0.248 NA
ATOM     49  C   UNL A   1      46.078  29.949  31.976  1.00  0.00     0.031 C 
ATOM     50  C   UNL A   1      45.861  24.526  29.252  1.00  0.00     0.029 A 
ATOM     51  C   UNL A   1      45.512  25.773  29.744  1.00  0.00     0.049 A 
ATOM     52  H   UNL A   1      43.657  26.773  29.637  1.00  0.00     0.167 HD
ATOM     53  C   UNL A   1      45.916  27.926  30.906  1.00  0.00     0.074 A 
ATOM     54  C   UNL A   1      46.756  28.866  31.622  1.00  0.00     0.031 C 
ATOM     55  C   UNL A   1      46.330  26.714  30.465  1.00  0.00     0.031 A 
BRANCH  42  56
ATOM     56  C   UNL A   1      41.939  23.432  27.612  1.00  0.00    -0.014 A 
ATOM     57  C   UNL A   1      42.127  23.196  26.241  1.00  0.00     0.009 A 
ATOM     58  C   UNL A   1      41.372  22.420  28.402  1.00  0.00     0.009 A 
ATOM     59  C   UNL A   1      41.714  21.991  25.666  1.00  0.00     0.001 A 
ATOM     60  C   UNL A   1      40.989  21.204  27.831  1.00  0.00     0.001 A 
ATOM     61  C   UNL A   1      41.150  20.996  26.463  1.00  0.00     0.000 A 
ENDBRANCH  42  56
BRANCH  43  62
ATOM     62  C   UNL A   1      44.018  32.011  32.271  1.00  0.00    -0.014 A 
ATOM     63  C   UNL A   1      43.781  32.098  33.650  1.00  0.00     0.009 A 
ATOM     64  C   UNL A   1      44.559  33.121  31.602  1.00  0.00     0.009 A 
ATOM     65  C   UNL A   1      44.059  33.280  34.342  1.00  0.00     0.001 A 
ATOM     66  C   UNL A   1      44.862  34.290  32.301  1.00  0.00     0.001 A 
ATOM     67  C   UNL A   1      44.604  34.372  33.669  1.00  0.00     0.000 A 
ENDBRANCH  43  62
BRANCH  55  68
ATOM     68  C   UNL A   1      47.764  26.345  30.723  1.00  0.00    -0.014 A 
ATOM     69  C   UNL A   1      48.768  26.617  29.782  1.00  0.00     0.009 A 
ATOM     70  C   UNL A   1      48.118  25.752  31.946  1.00  0.00     0.009 A 
ATOM     71  C   UNL A   1      50.094  26.268  30.045  1.00  0.00     0.001 A 
ATOM     72  C   UNL A   1      49.448  25.432  32.217  1.00  0.00     0.001 A 
ATOM     73  C   UNL A   1      50.433  25.681  31.264  1.00  0.00     0.000 A 
ENDBRANCH  55  68
ENDBRANCH  29  30
ENDBRANCH  21  24
ENDBRANCH  19  20
ENDBRANCH   1  19
TORSDOF 13
ENDMDL
