MODEL 1
REMARK VINA RESULT:     -10.7      0.000      0.000
REMARK SMILES CCc1nc(=O)n([C@@H](CC)C(C)C)c(CC)c1CC(=O)NCCCNC(=O)c1ccc(-c2c3nc(c(-c4ccccc4)c4ccc([nH]4)c(-c4ccccc4)c4nc(c(-c5ccccc5)c5ccc2[nH]5)C=C4)C=C3)cc1
REMARK SMILES IDX 22 1 21 2 19 3 20 4 18 6 17 7 3 8 4 9 5 10 14 11 6 12 7 13
REMARK SMILES IDX 2 14 1 15 15 16 16 17 8 18 9 19 10 20 11 21 12 22 13 23
REMARK SMILES IDX 23 24 24 25 25 26 26 27 27 29 28 30 29 31 75 32 30 33 74 34
REMARK SMILES IDX 31 35 32 36 33 37 68 38 34 39 73 40 67 41 69 42 35 43 72 44
REMARK SMILES IDX 66 45 65 46 36 48 58 49 43 50 57 51 44 52 47 53 56 54 70 55
REMARK SMILES IDX 45 56 46 57 55 59 71 60 48 61 37 62 38 63 42 64 39 65 41 66
REMARK SMILES IDX 40 67 59 68 60 69 64 70 61 71 63 72 62 73 49 74 50 75 54 76
REMARK SMILES IDX 51 77 53 78 52 79
REMARK H PARENT 21 5 25 28 69 47 47 58
REMARK Flexibility Score: inf
ROOT
ATOM      1  C   UNL A   1      36.209  21.498  25.172  1.00  0.00     0.117 C 
ENDROOT
BRANCH   1   2
ATOM      2  N   UNL A   1      35.664  22.139  23.998  1.00  0.00    -0.356 N 
ATOM      3  C   UNL A   1      35.060  23.356  23.895  1.00  0.00     0.224 C 
ATOM      4  O   UNL A   1      34.687  23.729  22.782  1.00  0.00    -0.275 OA
ATOM      5  H   UNL A   1      35.739  21.629  23.159  1.00  0.00     0.163 HD
BRANCH   3   6
ATOM      6  C   UNL A   1      34.891  24.237  25.133  1.00  0.00     0.139 C 
BRANCH   6   7
ATOM      7  C   UNL A   1      33.470  24.649  25.448  1.00  0.00     0.003 A 
ATOM      8  C   UNL A   1      32.562  23.670  26.124  1.00  0.00     0.051 A 
ATOM      9  N   UNL A   1      31.339  23.920  26.435  1.00  0.00    -0.198 NA
ATOM     10  C   UNL A   1      30.786  25.135  26.174  1.00  0.00     0.348 A 
ATOM     11  C   UNL A   1      32.922  25.871  25.217  1.00  0.00     0.028 A 
ATOM     12  O   UNL A   1      29.621  25.333  26.510  1.00  0.00    -0.246 OA
ATOM     13  N   UNL A   1      31.569  26.120  25.545  1.00  0.00    -0.293 N 
BRANCH   8  14
ATOM     14  C   UNL A   1      33.020  22.258  26.511  1.00  0.00     0.053 C 
ATOM     15  C   UNL A   1      33.585  22.139  27.912  1.00  0.00     0.011 C 
ENDBRANCH   8  14
BRANCH  11  16
ATOM     16  C   UNL A   1      33.781  27.021  24.687  1.00  0.00     0.051 C 
ATOM     17  C   UNL A   1      33.871  27.111  23.165  1.00  0.00     0.010 C 
ENDBRANCH  11  16
BRANCH  13  18
ATOM     18  C   UNL A   1      30.906  27.429  25.245  1.00  0.00     0.094 C 
BRANCH  18  19
ATOM     19  C   UNL A   1      31.629  28.628  25.922  1.00  0.00     0.022 C 
ATOM     20  C   UNL A   1      31.725  28.645  27.439  1.00  0.00     0.006 C 
ENDBRANCH  18  19
BRANCH  18  21
ATOM     21  C   UNL A   1      30.513  27.627  23.744  1.00  0.00     0.006 C 
ATOM     22  C   UNL A   1      29.039  27.262  23.512  1.00  0.00     0.009 C 
ATOM     23  C   UNL A   1      30.733  29.075  23.284  1.00  0.00     0.009 C 
ENDBRANCH  18  21
ENDBRANCH  13  18
ENDBRANCH   6   7
ENDBRANCH   3   6
ENDBRANCH   1   2
BRANCH   1  24
ATOM     24  C   UNL A   1      37.371  20.579  24.844  1.00  0.00     0.042 C 
BRANCH  24  25
ATOM     25  C   UNL A   1      38.617  20.907  25.648  1.00  0.00     0.118 C 
BRANCH  25  26
ATOM     26  N   UNL A   1      39.590  19.816  25.650  1.00  0.00    -0.352 N 
ATOM     27  C   UNL A   1      40.924  19.823  25.978  1.00  0.00     0.251 C 
ATOM     28  H   UNL A   1      39.233  18.940  25.375  1.00  0.00     0.163 HD
ATOM     29  O   UNL A   1      41.621  18.841  25.746  1.00  0.00    -0.269 OA
BRANCH  27  30
ATOM     30  C   UNL A   1      41.514  21.034  26.577  1.00  0.00     0.039 A 
ATOM     31  C   UNL A   1      41.466  21.224  27.957  1.00  0.00     0.014 A 
ATOM     32  C   UNL A   1      42.068  22.012  25.748  1.00  0.00     0.014 A 
ATOM     33  C   UNL A   1      41.756  22.472  28.482  1.00  0.00     0.010 A 
ATOM     34  C   UNL A   1      42.480  23.226  26.299  1.00  0.00     0.010 A 
ATOM     35  C   UNL A   1      42.269  23.490  27.661  1.00  0.00    -0.014 A 
BRANCH  35  36
ATOM     36  C   UNL A   1      42.571  24.815  28.255  1.00  0.00     0.031 A 
ATOM     37  C   UNL A   1      43.978  25.186  28.639  1.00  0.00     0.074 A 
ATOM     38  C   UNL A   1      41.574  25.713  28.388  1.00  0.00     0.049 A 
ATOM     39  N   UNL A   1      44.418  26.305  29.158  1.00  0.00    -0.248 NA
ATOM     40  C   UNL A   1      45.028  24.177  28.420  1.00  0.00     0.031 C 
ATOM     41  C   UNL A   1      40.176  25.476  28.019  1.00  0.00     0.029 A 
ATOM     42  N   UNL A   1      41.583  27.008  28.839  1.00  0.00    -0.354 N 
ATOM     43  C   UNL A   1      45.782  26.126  29.348  1.00  0.00     0.074 A 
ATOM     44  C   UNL A   1      46.098  24.782  28.920  1.00  0.00     0.031 C 
ATOM     45  C   UNL A   1      39.478  26.605  28.196  1.00  0.00     0.029 A 
ATOM     46  C   UNL A   1      40.354  27.617  28.776  1.00  0.00     0.049 A 
ATOM     47  H   UNL A   1      42.393  27.457  29.174  1.00  0.00     0.167 HD
ATOM     48  C   UNL A   1      46.690  27.011  29.822  1.00  0.00     0.031 A 
ATOM     49  C   UNL A   1      39.959  28.846  29.161  1.00  0.00     0.031 A 
ATOM     50  C   UNL A   1      46.368  28.356  30.227  1.00  0.00     0.049 A 
ATOM     51  C   UNL A   1      40.975  29.785  29.742  1.00  0.00     0.074 A 
ATOM     52  C   UNL A   1      47.226  29.335  30.695  1.00  0.00     0.029 A 
ATOM     53  N   UNL A   1      45.097  28.910  30.211  1.00  0.00    -0.354 N 
ATOM     54  N   UNL A   1      42.264  29.607  29.899  1.00  0.00    -0.248 NA
ATOM     55  C   UNL A   1      40.488  31.095  30.196  1.00  0.00     0.031 C 
ATOM     56  C   UNL A   1      46.465  30.451  31.042  1.00  0.00     0.029 A 
ATOM     57  C   UNL A   1      45.144  30.204  30.700  1.00  0.00     0.049 A 
ATOM     58  H   UNL A   1      44.283  28.451  29.900  1.00  0.00     0.167 HD
ATOM     59  C   UNL A   1      42.746  30.785  30.453  1.00  0.00     0.074 A 
ATOM     60  C   UNL A   1      41.614  31.680  30.582  1.00  0.00     0.031 C 
ATOM     61  C   UNL A   1      44.013  31.090  30.823  1.00  0.00     0.031 A 
BRANCH  48  62
ATOM     62  C   UNL A   1      48.125  26.572  29.951  1.00  0.00    -0.014 A 
ATOM     63  C   UNL A   1      49.004  26.745  28.867  1.00  0.00     0.009 A 
ATOM     64  C   UNL A   1      48.581  25.882  31.085  1.00  0.00     0.009 A 
ATOM     65  C   UNL A   1      50.295  26.216  28.905  1.00  0.00     0.001 A 
ATOM     66  C   UNL A   1      49.886  25.384  31.133  1.00  0.00     0.001 A 
ATOM     67  C   UNL A   1      50.736  25.538  30.039  1.00  0.00     0.000 A 
ENDBRANCH  48  62
BRANCH  49  68
ATOM     68  C   UNL A   1      38.531  29.233  28.997  1.00  0.00    -0.014 A 
ATOM     69  C   UNL A   1      38.066  29.740  27.770  1.00  0.00     0.009 A 
ATOM     70  C   UNL A   1      37.645  29.174  30.080  1.00  0.00     0.009 A 
ATOM     71  C   UNL A   1      36.761  30.218  27.645  1.00  0.00     0.001 A 
ATOM     72  C   UNL A   1      36.326  29.616  29.941  1.00  0.00     0.001 A 
ATOM     73  C   UNL A   1      35.890  30.151  28.730  1.00  0.00     0.000 A 
ENDBRANCH  49  68
BRANCH  61  74
ATOM     74  C   UNL A   1      44.274  32.458  31.394  1.00  0.00    -0.014 A 
ATOM     75  C   UNL A   1      44.091  32.684  32.770  1.00  0.00     0.009 A 
ATOM     76  C   UNL A   1      44.572  33.548  30.564  1.00  0.00     0.009 A 
ATOM     77  C   UNL A   1      44.171  33.973  33.296  1.00  0.00     0.001 A 
ATOM     78  C   UNL A   1      44.689  34.833  31.099  1.00  0.00     0.001 A 
ATOM     79  C   UNL A   1      44.474  35.046  32.460  1.00  0.00     0.000 A 
ENDBRANCH  61  74
ENDBRANCH  35  36
ENDBRANCH  27  30
ENDBRANCH  25  26
ENDBRANCH  24  25
ENDBRANCH   1  24
TORSDOF 16
ENDMDL
MODEL 2
REMARK VINA RESULT:     -10.6      3.070      8.612
REMARK SMILES CCc1nc(=O)n([C@@H](CC)C(C)C)c(CC)c1CC(=O)NCCCNC(=O)c1ccc(-c2c3nc(c(-c4ccccc4)c4ccc([nH]4)c(-c4ccccc4)c4nc(c(-c5ccccc5)c5ccc2[nH]5)C=C4)C=C3)cc1
REMARK SMILES IDX 22 1 21 2 19 3 20 4 18 6 17 7 3 8 4 9 5 10 14 11 6 12 7 13
REMARK SMILES IDX 2 14 1 15 15 16 16 17 8 18 9 19 10 20 11 21 12 22 13 23
REMARK SMILES IDX 23 24 24 25 25 26 26 27 27 29 28 30 29 31 75 32 30 33 74 34
REMARK SMILES IDX 31 35 32 36 33 37 68 38 34 39 73 40 67 41 69 42 35 43 72 44
REMARK SMILES IDX 66 45 65 46 36 48 58 49 43 50 57 51 44 52 47 53 56 54 70 55
REMARK SMILES IDX 45 56 46 57 55 59 71 60 48 61 37 62 38 63 42 64 39 65 41 66
REMARK SMILES IDX 40 67 59 68 60 69 64 70 61 71 63 72 62 73 49 74 50 75 54 76
REMARK SMILES IDX 51 77 53 78 52 79
REMARK H PARENT 21 5 25 28 69 47 47 58
REMARK Flexibility Score: inf
ROOT
ATOM      1  C   UNL A   1      32.206  30.103  25.852  1.00  0.00     0.117 C 
ENDROOT
BRANCH   1   2
ATOM      2  N   UNL A   1      31.566  28.884  26.292  1.00  0.00    -0.356 N 
ATOM      3  C   UNL A   1      32.029  27.605  26.220  1.00  0.00     0.224 C 
ATOM      4  O   UNL A   1      31.329  26.705  26.684  1.00  0.00    -0.275 OA
ATOM      5  H   UNL A   1      30.675  28.992  26.698  1.00  0.00     0.163 HD
BRANCH   3   6
ATOM      6  C   UNL A   1      33.402  27.318  25.612  1.00  0.00     0.139 C 
BRANCH   6   7
ATOM      7  C   UNL A   1      33.401  26.391  24.417  1.00  0.00     0.003 A 
ATOM      8  C   UNL A   1      33.055  26.941  23.069  1.00  0.00     0.051 A 
ATOM      9  N   UNL A   1      33.025  26.239  21.991  1.00  0.00    -0.198 NA
ATOM     10  C   UNL A   1      33.334  24.915  22.012  1.00  0.00     0.348 A 
ATOM     11  C   UNL A   1      33.738  25.075  24.427  1.00  0.00     0.028 A 
ATOM     12  O   UNL A   1      33.313  24.292  20.953  1.00  0.00    -0.246 OA
ATOM     13  N   UNL A   1      33.678  24.313  23.237  1.00  0.00    -0.293 N 
BRANCH   8  14
ATOM     14  C   UNL A   1      32.698  28.417  22.853  1.00  0.00     0.053 C 
ATOM     15  C   UNL A   1      31.227  28.681  22.600  1.00  0.00     0.011 C 
ENDBRANCH   8  14
BRANCH  11  16
ATOM     16  C   UNL A   1      34.276  24.419  25.701  1.00  0.00     0.051 C 
ATOM     17  C   UNL A   1      33.209  23.851  26.634  1.00  0.00     0.010 C 
ENDBRANCH  11  16
BRANCH  13  18
ATOM     18  C   UNL A   1      33.974  22.845  23.215  1.00  0.00     0.094 C 
BRANCH  18  19
ATOM     19  C   UNL A   1      35.353  22.510  23.851  1.00  0.00     0.022 C 
ATOM     20  C   UNL A   1      36.609  22.964  23.124  1.00  0.00     0.006 C 
ENDBRANCH  18  19
BRANCH  18  21
ATOM     21  C   UNL A   1      32.779  21.937  23.655  1.00  0.00     0.006 C 
ATOM     22  C   UNL A   1      32.070  21.335  22.432  1.00  0.00     0.009 C 
ATOM     23  C   UNL A   1      33.240  20.789  24.563  1.00  0.00     0.009 C 
ENDBRANCH  18  21
ENDBRANCH  13  18
ENDBRANCH   6   7
ENDBRANCH   3   6
ENDBRANCH   1   2
BRANCH   1  24
ATOM     24  C   UNL A   1      31.762  31.312  26.653  1.00  0.00     0.042 C 
BRANCH  24  25
ATOM     25  C   UNL A   1      32.927  32.036  27.305  1.00  0.00     0.118 C 
BRANCH  25  26
ATOM     26  N   UNL A   1      32.620  33.431  27.617  1.00  0.00    -0.352 N 
ATOM     27  C   UNL A   1      33.244  34.301  28.478  1.00  0.00     0.251 C 
ATOM     28  H   UNL A   1      31.847  33.805  27.134  1.00  0.00     0.163 HD
ATOM     29  O   UNL A   1      32.731  35.384  28.739  1.00  0.00    -0.269 OA
BRANCH  27  30
ATOM     30  C   UNL A   1      34.516  33.905  29.109  1.00  0.00     0.039 A 
ATOM     31  C   UNL A   1      35.728  34.249  28.512  1.00  0.00     0.014 A 
ATOM     32  C   UNL A   1      34.495  33.136  30.275  1.00  0.00     0.014 A 
ATOM     33  C   UNL A   1      36.895  33.640  28.942  1.00  0.00     0.010 A 
ATOM     34  C   UNL A   1      35.692  32.627  30.782  1.00  0.00     0.010 A 
ATOM     35  C   UNL A   1      36.893  32.822  30.084  1.00  0.00    -0.014 A 
BRANCH  35  36
ATOM     36  C   UNL A   1      38.160  32.185  30.520  1.00  0.00     0.031 A 
ATOM     37  C   UNL A   1      38.634  30.901  29.893  1.00  0.00     0.074 A 
ATOM     38  C   UNL A   1      38.919  32.805  31.445  1.00  0.00     0.049 A 
ATOM     39  N   UNL A   1      39.722  30.218  30.147  1.00  0.00    -0.248 NA
ATOM     40  C   UNL A   1      37.782  30.302  28.851  1.00  0.00     0.031 C 
ATOM     41  C   UNL A   1      38.576  34.071  32.100  1.00  0.00     0.029 A 
ATOM     42  N   UNL A   1      40.141  32.479  31.975  1.00  0.00    -0.354 N 
ATOM     43  C   UNL A   1      39.673  29.103  29.319  1.00  0.00     0.074 A 
ATOM     44  C   UNL A   1      38.435  29.180  28.576  1.00  0.00     0.031 C 
ATOM     45  C   UNL A   1      39.590  34.445  32.890  1.00  0.00     0.029 A 
ATOM     46  C   UNL A   1      40.613  33.406  32.872  1.00  0.00     0.049 A 
ATOM     47  H   UNL A   1      40.632  31.660  31.734  1.00  0.00     0.167 HD
ATOM     48  C   UNL A   1      40.587  28.114  29.182  1.00  0.00     0.031 A 
ATOM     49  C   UNL A   1      41.734  33.416  33.620  1.00  0.00     0.031 A 
ATOM     50  C   UNL A   1      41.827  28.058  29.914  1.00  0.00     0.049 A 
ATOM     51  C   UNL A   1      42.700  32.275  33.494  1.00  0.00     0.074 A 
ATOM     52  C   UNL A   1      42.830  27.108  29.823  1.00  0.00     0.029 A 
ATOM     53  N   UNL A   1      42.234  28.982  30.864  1.00  0.00    -0.354 N 
ATOM     54  N   UNL A   1      42.647  31.238  32.695  1.00  0.00    -0.248 NA
ATOM     55  C   UNL A   1      43.881  32.304  34.367  1.00  0.00     0.031 C 
ATOM     56  C   UNL A   1      43.803  27.411  30.775  1.00  0.00     0.029 A 
ATOM     57  C   UNL A   1      43.455  28.602  31.394  1.00  0.00     0.049 A 
ATOM     58  H   UNL A   1      41.730  29.788  31.122  1.00  0.00     0.167 HD
ATOM     59  C   UNL A   1      43.794  30.499  32.955  1.00  0.00     0.074 A 
ATOM     60  C   UNL A   1      44.535  31.220  33.969  1.00  0.00     0.031 C 
ATOM     61  C   UNL A   1      44.189  29.327  32.402  1.00  0.00     0.031 A 
BRANCH  48  62
ATOM     62  C   UNL A   1      40.297  26.993  28.220  1.00  0.00    -0.014 A 
ATOM     63  C   UNL A   1      39.590  25.862  28.665  1.00  0.00     0.009 A 
ATOM     64  C   UNL A   1      40.816  26.993  26.916  1.00  0.00     0.009 A 
ATOM     65  C   UNL A   1      39.435  24.748  27.838  1.00  0.00     0.001 A 
ATOM     66  C   UNL A   1      40.630  25.890  26.079  1.00  0.00     0.001 A 
ATOM     67  C   UNL A   1      39.953  24.763  26.545  1.00  0.00     0.000 A 
ENDBRANCH  48  62
BRANCH  49  68
ATOM     68  C   UNL A   1      41.977  34.557  34.544  1.00  0.00    -0.014 A 
ATOM     69  C   UNL A   1      41.488  34.525  35.862  1.00  0.00     0.009 A 
ATOM     70  C   UNL A   1      42.629  35.714  34.095  1.00  0.00     0.009 A 
ATOM     71  C   UNL A   1      41.606  35.640  36.694  1.00  0.00     0.001 A 
ATOM     72  C   UNL A   1      42.783  36.814  34.943  1.00  0.00     0.001 A 
ATOM     73  C   UNL A   1      42.258  36.782  36.235  1.00  0.00     0.000 A 
ENDBRANCH  49  68
BRANCH  61  74
ATOM     74  C   UNL A   1      45.496  28.734  32.857  1.00  0.00    -0.014 A 
ATOM     75  C   UNL A   1      45.522  27.889  33.980  1.00  0.00     0.009 A 
ATOM     76  C   UNL A   1      46.709  29.109  32.263  1.00  0.00     0.009 A 
ATOM     77  C   UNL A   1      46.735  27.456  34.515  1.00  0.00     0.001 A 
ATOM     78  C   UNL A   1      47.921  28.644  32.779  1.00  0.00     0.001 A 
ATOM     79  C   UNL A   1      47.934  27.832  33.912  1.00  0.00     0.000 A 
ENDBRANCH  61  74
ENDBRANCH  35  36
ENDBRANCH  27  30
ENDBRANCH  25  26
ENDBRANCH  24  25
ENDBRANCH   1  24
TORSDOF 16
ENDMDL
MODEL 3
REMARK VINA RESULT:     -10.6      0.311      5.943
REMARK SMILES CCc1nc(=O)n([C@@H](CC)C(C)C)c(CC)c1CC(=O)NCCCNC(=O)c1ccc(-c2c3nc(c(-c4ccccc4)c4ccc([nH]4)c(-c4ccccc4)c4nc(c(-c5ccccc5)c5ccc2[nH]5)C=C4)C=C3)cc1
REMARK SMILES IDX 22 1 21 2 19 3 20 4 18 6 17 7 3 8 4 9 5 10 14 11 6 12 7 13
REMARK SMILES IDX 2 14 1 15 15 16 16 17 8 18 9 19 10 20 11 21 12 22 13 23
REMARK SMILES IDX 23 24 24 25 25 26 26 27 27 29 28 30 29 31 75 32 30 33 74 34
REMARK SMILES IDX 31 35 32 36 33 37 68 38 34 39 73 40 67 41 69 42 35 43 72 44
REMARK SMILES IDX 66 45 65 46 36 48 58 49 43 50 57 51 44 52 47 53 56 54 70 55
REMARK SMILES IDX 45 56 46 57 55 59 71 60 48 61 37 62 38 63 42 64 39 65 41 66
REMARK SMILES IDX 40 67 59 68 60 69 64 70 61 71 63 72 62 73 49 74 50 75 54 76
REMARK SMILES IDX 51 77 53 78 52 79
REMARK H PARENT 21 5 25 28 69 47 47 58
REMARK Flexibility Score: inf
ROOT
ATOM      1  C   UNL A   1      36.255  21.566  25.037  1.00  0.00     0.117 C 
ENDROOT
BRANCH   1   2
ATOM      2  N   UNL A   1      35.678  22.217  23.883  1.00  0.00    -0.356 N 
ATOM      3  C   UNL A   1      35.059  23.428  23.810  1.00  0.00     0.224 C 
ATOM      4  O   UNL A   1      34.659  23.813  22.710  1.00  0.00    -0.275 OA
ATOM      5  H   UNL A   1      35.742  21.719  23.036  1.00  0.00     0.163 HD
BRANCH   3   6
ATOM      6  C   UNL A   1      34.907  24.291  25.062  1.00  0.00     0.139 C 
BRANCH   6   7
ATOM      7  C   UNL A   1      33.489  24.684  25.412  1.00  0.00     0.003 A 
ATOM      8  C   UNL A   1      32.609  23.691  26.105  1.00  0.00     0.051 A 
ATOM      9  N   UNL A   1      31.391  23.925  26.446  1.00  0.00    -0.198 NA
ATOM     10  C   UNL A   1      30.817  25.134  26.203  1.00  0.00     0.348 A 
ATOM     11  C   UNL A   1      32.921  25.900  25.199  1.00  0.00     0.028 A 
ATOM     12  O   UNL A   1      29.658  25.316  26.567  1.00  0.00    -0.246 OA
ATOM     13  N   UNL A   1      31.573  26.131  25.560  1.00  0.00    -0.293 N 
BRANCH   8  14
ATOM     14  C   UNL A   1      33.094  22.284  26.476  1.00  0.00     0.053 C 
ATOM     15  C   UNL A   1      33.655  22.157  27.878  1.00  0.00     0.011 C 
ENDBRANCH   8  14
BRANCH  11  16
ATOM     16  C   UNL A   1      33.754  27.062  24.654  1.00  0.00     0.051 C 
ATOM     17  C   UNL A   1      33.804  27.161  23.131  1.00  0.00     0.010 C 
ENDBRANCH  11  16
BRANCH  13  18
ATOM     18  C   UNL A   1      30.887  27.433  25.281  1.00  0.00     0.094 C 
BRANCH  18  19
ATOM     19  C   UNL A   1      31.589  28.633  25.978  1.00  0.00     0.022 C 
ATOM     20  C   UNL A   1      31.711  28.613  27.493  1.00  0.00     0.006 C 
ENDBRANCH  18  19
BRANCH  18  21
ATOM     21  C   UNL A   1      30.491  27.648  23.784  1.00  0.00     0.006 C 
ATOM     22  C   UNL A   1      29.046  27.192  23.529  1.00  0.00     0.009 C 
ATOM     23  C   UNL A   1      30.615  29.120  23.367  1.00  0.00     0.009 C 
ENDBRANCH  18  21
ENDBRANCH  13  18
ENDBRANCH   6   7
ENDBRANCH   3   6
ENDBRANCH   1   2
BRANCH   1  24
ATOM     24  C   UNL A   1      37.504  20.776  24.692  1.00  0.00     0.042 C 
BRANCH  24  25
ATOM     25  C   UNL A   1      38.597  20.933  25.736  1.00  0.00     0.118 C 
BRANCH  25  26
ATOM     26  N   UNL A   1      39.554  19.828  25.719  1.00  0.00    -0.352 N 
ATOM     27  C   UNL A   1      40.901  19.824  25.986  1.00  0.00     0.251 C 
ATOM     28  H   UNL A   1      39.174  18.952  25.480  1.00  0.00     0.163 HD
ATOM     29  O   UNL A   1      41.575  18.828  25.746  1.00  0.00    -0.269 OA
BRANCH  27  30
ATOM     30  C   UNL A   1      41.534  21.039  26.531  1.00  0.00     0.039 A 
ATOM     31  C   UNL A   1      41.526  21.273  27.905  1.00  0.00     0.014 A 
ATOM     32  C   UNL A   1      42.088  21.977  25.657  1.00  0.00     0.014 A 
ATOM     33  C   UNL A   1      41.858  22.530  28.383  1.00  0.00     0.010 A 
ATOM     34  C   UNL A   1      42.541  23.198  26.159  1.00  0.00     0.010 A 
ATOM     35  C   UNL A   1      42.371  23.509  27.517  1.00  0.00    -0.014 A 
BRANCH  35  36
ATOM     36  C   UNL A   1      42.718  24.846  28.060  1.00  0.00     0.031 A 
ATOM     37  C   UNL A   1      41.650  25.877  28.311  1.00  0.00     0.074 A 
ATOM     38  C   UNL A   1      43.999  25.105  28.387  1.00  0.00     0.049 A 
ATOM     39  N   UNL A   1      41.778  27.088  28.792  1.00  0.00    -0.248 NA
ATOM     40  C   UNL A   1      40.263  25.511  27.979  1.00  0.00     0.031 C 
ATOM     41  C   UNL A   1      45.115  24.170  28.217  1.00  0.00     0.029 A 
ATOM     42  N   UNL A   1      44.577  26.212  28.954  1.00  0.00    -0.354 N 
ATOM     43  C   UNL A   1      40.500  27.633  28.797  1.00  0.00     0.074 A 
ATOM     44  C   UNL A   1      39.612  26.636  28.243  1.00  0.00     0.031 C 
ATOM     45  C   UNL A   1      46.226  24.715  28.729  1.00  0.00     0.029 A 
ATOM     46  C   UNL A   1      45.925  26.070  29.178  1.00  0.00     0.049 A 
ATOM     47  H   UNL A   1      44.075  27.028  29.179  1.00  0.00     0.167 HD
ATOM     48  C   UNL A   1      40.104  28.849  29.240  1.00  0.00     0.031 A 
ATOM     49  C   UNL A   1      46.833  26.937  29.668  1.00  0.00     0.031 A 
ATOM     50  C   UNL A   1      40.996  29.827  29.809  1.00  0.00     0.049 A 
ATOM     51  C   UNL A   1      46.376  28.301  30.093  1.00  0.00     0.074 A 
ATOM     52  C   UNL A   1      40.682  31.078  30.311  1.00  0.00     0.029 A 
ATOM     53  N   UNL A   1      42.365  29.668  29.955  1.00  0.00    -0.354 N 
ATOM     54  N   UNL A   1      45.162  28.794  30.107  1.00  0.00    -0.248 NA
ATOM     55  C   UNL A   1      47.409  29.229  30.573  1.00  0.00     0.031 C 
ATOM     56  C   UNL A   1      41.869  31.709  30.682  1.00  0.00     0.029 A 
ATOM     57  C   UNL A   1      42.914  30.815  30.502  1.00  0.00     0.049 A 
ATOM     58  H   UNL A   1      42.871  28.861  29.706  1.00  0.00     0.167 HD
ATOM     59  C   UNL A   1      45.280  30.082  30.613  1.00  0.00     0.074 A 
ATOM     60  C   UNL A   1      46.682  30.285  30.915  1.00  0.00     0.031 C 
ATOM     61  C   UNL A   1      44.311  31.009  30.803  1.00  0.00     0.031 A 
BRANCH  48  62
ATOM     62  C   UNL A   1      38.649  29.219  29.125  1.00  0.00    -0.014 A 
ATOM     63  C   UNL A   1      38.171  29.791  27.933  1.00  0.00     0.009 A 
ATOM     64  C   UNL A   1      37.777  29.116  30.220  1.00  0.00     0.009 A 
ATOM     65  C   UNL A   1      36.865  30.277  27.849  1.00  0.00     0.001 A 
ATOM     66  C   UNL A   1      36.460  29.572  30.122  1.00  0.00     0.001 A 
ATOM     67  C   UNL A   1      36.010  30.165  28.943  1.00  0.00     0.000 A 
ENDBRANCH  48  62
BRANCH  49  68
ATOM     68  C   UNL A   1      48.255  26.513  29.775  1.00  0.00    -0.014 A 
ATOM     69  C   UNL A   1      48.731  25.896  30.946  1.00  0.00     0.009 A 
ATOM     70  C   UNL A   1      49.163  26.790  28.744  1.00  0.00     0.009 A 
ATOM     71  C   UNL A   1      50.087  25.607  31.100  1.00  0.00     0.001 A 
ATOM     72  C   UNL A   1      50.515  26.463  28.884  1.00  0.00     0.001 A 
ATOM     73  C   UNL A   1      50.978  25.887  30.066  1.00  0.00     0.000 A 
ENDBRANCH  49  68
BRANCH  61  74
ATOM     74  C   UNL A   1      44.708  32.341  31.382  1.00  0.00    -0.014 A 
ATOM     75  C   UNL A   1      45.118  33.377  30.525  1.00  0.00     0.009 A 
ATOM     76  C   UNL A   1      44.803  32.531  32.768  1.00  0.00     0.009 A 
ATOM     77  C   UNL A   1      45.641  34.562  31.043  1.00  0.00     0.001 A 
ATOM     78  C   UNL A   1      45.292  33.733  33.284  1.00  0.00     0.001 A 
ATOM     79  C   UNL A   1      45.724  34.740  32.423  1.00  0.00     0.000 A 
ENDBRANCH  61  74
ENDBRANCH  35  36
ENDBRANCH  27  30
ENDBRANCH  25  26
ENDBRANCH  24  25
ENDBRANCH   1  24
TORSDOF 16
ENDMDL
