MODEL 1
REMARK VINA RESULT:     -12.1      0.000      0.000
REMARK SMILES Cc1ccc(NC(=O)N2CCCC[C@@H]2C(=O)NCCCNC(=O)c2ccc(-c3c4nc(c(-c5ccccc5)c5ccc([nH]5)c(-c5ccccc5)c5nc(c(-c6ccccc6)c6ccc3[nH]6)C=C5)C=C4)cc2)cc1
REMARK SMILES IDX 19 1 18 2 17 3 15 4 16 5 14 7 9 8 10 9 11 10 13 11 12 12
REMARK SMILES IDX 7 13 6 14 8 16 5 17 1 18 2 19 3 20 73 21 4 22 72 23 20 24
REMARK SMILES IDX 21 25 22 26 23 28 24 29 25 30 71 31 26 32 70 33 27 34 28 35
REMARK SMILES IDX 29 36 64 37 30 38 69 39 63 40 65 41 31 42 68 43 62 44 61 45
REMARK SMILES IDX 32 47 54 48 39 49 53 50 40 51 43 52 52 53 66 54 41 55 42 56
REMARK SMILES IDX 51 58 67 59 44 60 33 61 34 62 38 63 35 64 37 65 36 66 55 67
REMARK SMILES IDX 56 68 60 69 57 70 59 71 58 72 45 73 46 74 50 75 47 76 49 77
REMARK SMILES IDX 48 78
REMARK H PARENT 17 6 6 15 21 27 65 46 43 57
REMARK Flexibility Score: inf
ROOT
ATOM      1  C   UNL A   1      39.257  22.403  25.870  1.00  0.00     0.042 C 
ENDROOT
BRANCH   1   2
ATOM      2  C   UNL A   1      37.854  22.028  25.410  1.00  0.00     0.117 C 
BRANCH   2   3
ATOM      3  N   UNL A   1      36.833  22.592  26.282  1.00  0.00    -0.354 N 
ATOM      4  C   UNL A   1      35.471  22.499  26.237  1.00  0.00     0.242 C 
ATOM      5  O   UNL A   1      34.843  23.291  26.951  1.00  0.00    -0.273 OA
ATOM      6  H   UNL A   1      37.184  23.130  27.028  1.00  0.00     0.163 HD
BRANCH   4   7
ATOM      7  C   UNL A   1      34.723  21.601  25.215  1.00  0.00     0.176 C 
ATOM      8  N   UNL A   1      34.060  22.346  24.111  1.00  0.00    -0.313 N 
ATOM      9  C   UNL A   1      32.885  21.766  23.468  1.00  0.00     0.122 C 
ATOM     10  C   UNL A   1      31.951  21.024  24.406  1.00  0.00     0.022 C 
ATOM     11  C   UNL A   1      33.775  20.704  26.038  1.00  0.00     0.035 C 
ATOM     12  C   UNL A   1      32.727  19.992  25.203  1.00  0.00     0.004 C 
BRANCH   8  13
ATOM     13  C   UNL A   1      34.637  23.410  23.433  1.00  0.00     0.322 C 
ATOM     14  N   UNL A   1      34.030  24.627  23.427  1.00  0.00    -0.308 N 
ATOM     15  H   UNL A   1      34.009  25.082  22.554  1.00  0.00     0.171 HD
ATOM     16  O   UNL A   1      35.640  23.252  22.731  1.00  0.00    -0.248 OA
BRANCH  14  17
ATOM     17  C   UNL A   1      33.430  25.328  24.484  1.00  0.00     0.042 A 
ATOM     18  C   UNL A   1      31.573  27.923  27.361  1.00  0.00     0.044 C 
ATOM     19  C   UNL A   1      32.251  26.945  26.450  1.00  0.00    -0.051 A 
ATOM     20  C   UNL A   1      31.509  25.936  25.828  1.00  0.00     0.005 A 
ATOM     21  C   UNL A   1      33.608  27.084  26.137  1.00  0.00     0.005 A 
ATOM     22  C   UNL A   1      32.105  25.114  24.872  1.00  0.00     0.026 A 
ATOM     23  C   UNL A   1      34.199  26.267  25.171  1.00  0.00     0.026 A 
ENDBRANCH  14  17
ENDBRANCH   8  13
ENDBRANCH   4   7
ENDBRANCH   2   3
ENDBRANCH   1   2
BRANCH   1  24
ATOM     24  C   UNL A   1      39.884  21.368  26.786  1.00  0.00     0.118 C 
BRANCH  24  25
ATOM     25  N   UNL A   1      40.840  20.486  26.133  1.00  0.00    -0.352 N 
ATOM     26  C   UNL A   1      42.216  20.614  26.012  1.00  0.00     0.251 C 
ATOM     27  H   UNL A   1      40.453  19.681  25.717  1.00  0.00     0.163 HD
ATOM     28  O   UNL A   1      42.853  19.795  25.377  1.00  0.00    -0.269 OA
BRANCH  26  29
ATOM     29  C   UNL A   1      42.919  21.663  26.797  1.00  0.00     0.039 A 
ATOM     30  C   UNL A   1      42.741  21.650  28.185  1.00  0.00     0.014 A 
ATOM     31  C   UNL A   1      43.496  22.766  26.180  1.00  0.00     0.014 A 
ATOM     32  C   UNL A   1      42.871  22.837  28.899  1.00  0.00     0.010 A 
ATOM     33  C   UNL A   1      43.494  23.969  26.850  1.00  0.00     0.010 A 
ATOM     34  C   UNL A   1      43.116  24.012  28.194  1.00  0.00    -0.014 A 
BRANCH  34  35
ATOM     35  C   UNL A   1      42.917  25.340  28.750  1.00  0.00     0.031 A 
ATOM     36  C   UNL A   1      41.728  26.121  28.369  1.00  0.00     0.074 A 
ATOM     37  C   UNL A   1      43.781  25.822  29.669  1.00  0.00     0.049 A 
ATOM     38  N   UNL A   1      41.655  27.406  28.447  1.00  0.00    -0.248 NA
ATOM     39  C   UNL A   1      40.532  25.509  27.800  1.00  0.00     0.031 C 
ATOM     40  C   UNL A   1      43.602  26.978  30.542  1.00  0.00     0.029 A 
ATOM     41  N   UNL A   1      45.115  25.465  29.841  1.00  0.00    -0.354 N 
ATOM     42  C   UNL A   1      40.343  27.755  28.236  1.00  0.00     0.074 A 
ATOM     43  C   UNL A   1      39.704  26.556  27.750  1.00  0.00     0.031 C 
ATOM     44  C   UNL A   1      44.807  27.388  30.973  1.00  0.00     0.029 A 
ATOM     45  C   UNL A   1      45.810  26.607  30.270  1.00  0.00     0.049 A 
ATOM     46  H   UNL A   1      45.502  24.572  29.690  1.00  0.00     0.167 HD
ATOM     47  C   UNL A   1      39.910  28.983  28.635  1.00  0.00     0.031 A 
ATOM     48  C   UNL A   1      46.814  27.138  29.513  1.00  0.00     0.031 A 
ATOM     49  C   UNL A   1      41.006  29.798  29.157  1.00  0.00     0.049 A 
ATOM     50  C   UNL A   1      46.528  28.541  29.019  1.00  0.00     0.074 A 
ATOM     51  C   UNL A   1      41.425  30.108  30.442  1.00  0.00     0.029 A 
ATOM     52  N   UNL A   1      42.040  30.166  28.307  1.00  0.00    -0.354 N 
ATOM     53  N   UNL A   1      45.344  29.087  29.011  1.00  0.00    -0.248 NA
ATOM     54  C   UNL A   1      47.550  29.429  28.469  1.00  0.00     0.031 C 
ATOM     55  C   UNL A   1      42.746  30.624  30.361  1.00  0.00     0.029 A 
ATOM     56  C   UNL A   1      43.114  30.653  29.027  1.00  0.00     0.049 A 
ATOM     57  H   UNL A   1      42.013  30.090  27.326  1.00  0.00     0.167 HD
ATOM     58  C   UNL A   1      45.417  30.349  28.477  1.00  0.00     0.074 A 
ATOM     59  C   UNL A   1      46.824  30.520  28.165  1.00  0.00     0.031 C 
ATOM     60  C   UNL A   1      44.304  31.130  28.332  1.00  0.00     0.031 A 
BRANCH  47  61
ATOM     61  C   UNL A   1      38.452  29.331  28.813  1.00  0.00    -0.014 A 
ATOM     62  C   UNL A   1      37.697  29.741  27.699  1.00  0.00     0.009 A 
ATOM     63  C   UNL A   1      37.778  29.333  30.045  1.00  0.00     0.009 A 
ATOM     64  C   UNL A   1      36.384  30.216  27.824  1.00  0.00     0.001 A 
ATOM     65  C   UNL A   1      36.479  29.844  30.186  1.00  0.00     0.001 A 
ATOM     66  C   UNL A   1      35.786  30.295  29.073  1.00  0.00     0.000 A 
ENDBRANCH  47  61
BRANCH  48  67
ATOM     67  C   UNL A   1      47.597  26.109  28.772  1.00  0.00    -0.014 A 
ATOM     68  C   UNL A   1      47.350  25.957  27.392  1.00  0.00     0.009 A 
ATOM     69  C   UNL A   1      48.798  25.609  29.295  1.00  0.00     0.009 A 
ATOM     70  C   UNL A   1      48.330  25.440  26.540  1.00  0.00     0.001 A 
ATOM     71  C   UNL A   1      49.774  25.082  28.438  1.00  0.00     0.001 A 
ATOM     72  C   UNL A   1      49.556  25.034  27.061  1.00  0.00     0.000 A 
ENDBRANCH  48  67
BRANCH  60  73
ATOM     73  C   UNL A   1      44.191  32.439  27.577  1.00  0.00    -0.014 A 
ATOM     74  C   UNL A   1      44.279  32.579  26.188  1.00  0.00     0.009 A 
ATOM     75  C   UNL A   1      43.851  33.610  28.299  1.00  0.00     0.009 A 
ATOM     76  C   UNL A   1      44.068  33.817  25.561  1.00  0.00     0.001 A 
ATOM     77  C   UNL A   1      43.593  34.833  27.678  1.00  0.00     0.001 A 
ATOM     78  C   UNL A   1      43.711  34.939  26.302  1.00  0.00     0.000 A 
ENDBRANCH  60  73
ENDBRANCH  34  35
ENDBRANCH  26  29
ENDBRANCH  24  25
ENDBRANCH   1  24
TORSDOF 12
ENDMDL
MODEL 2
REMARK VINA RESULT:     -12.0      4.065      9.118
REMARK SMILES Cc1ccc(NC(=O)N2CCCC[C@@H]2C(=O)NCCCNC(=O)c2ccc(-c3c4nc(c(-c5ccccc5)c5ccc([nH]5)c(-c5ccccc5)c5nc(c(-c6ccccc6)c6ccc3[nH]6)C=C5)C=C4)cc2)cc1
REMARK SMILES IDX 19 1 18 2 17 3 15 4 16 5 14 7 9 8 10 9 11 10 13 11 12 12
REMARK SMILES IDX 7 13 6 14 8 16 5 17 1 18 2 19 3 20 73 21 4 22 72 23 20 24
REMARK SMILES IDX 21 25 22 26 23 28 24 29 25 30 71 31 26 32 70 33 27 34 28 35
REMARK SMILES IDX 29 36 64 37 30 38 69 39 63 40 65 41 31 42 68 43 62 44 61 45
REMARK SMILES IDX 32 47 54 48 39 49 53 50 40 51 43 52 52 53 66 54 41 55 42 56
REMARK SMILES IDX 51 58 67 59 44 60 33 61 34 62 38 63 35 64 37 65 36 66 55 67
REMARK SMILES IDX 56 68 60 69 57 70 59 71 58 72 45 73 46 74 50 75 47 76 49 77
REMARK SMILES IDX 48 78
REMARK H PARENT 17 6 6 15 21 27 65 46 43 57
REMARK Flexibility Score: inf
ROOT
ATOM      1  C   UNL A   1      34.008  30.993  27.944  1.00  0.00     0.042 C 
ENDROOT
BRANCH   1   2
ATOM      2  C   UNL A   1      33.056  30.342  26.947  1.00  0.00     0.117 C 
BRANCH   2   3
ATOM      3  N   UNL A   1      33.777  29.627  25.903  1.00  0.00    -0.354 N 
ATOM      4  C   UNL A   1      33.322  28.844  24.881  1.00  0.00     0.242 C 
ATOM      5  O   UNL A   1      34.167  28.152  24.301  1.00  0.00    -0.273 OA
ATOM      6  H   UNL A   1      34.756  29.724  25.941  1.00  0.00     0.163 HD
BRANCH   4   7
ATOM      7  C   UNL A   1      31.811  28.661  24.571  1.00  0.00     0.176 C 
ATOM      8  N   UNL A   1      31.259  27.336  24.962  1.00  0.00    -0.313 N 
ATOM      9  C   UNL A   1      30.111  26.802  24.236  1.00  0.00     0.122 C 
ATOM     10  C   UNL A   1      30.111  27.094  22.747  1.00  0.00     0.022 C 
ATOM     11  C   UNL A   1      31.628  29.012  23.080  1.00  0.00     0.035 C 
ATOM     12  C   UNL A   1      30.290  28.582  22.509  1.00  0.00     0.004 C 
BRANCH   8  13
ATOM     13  C   UNL A   1      31.552  26.691  26.155  1.00  0.00     0.322 C 
ATOM     14  N   UNL A   1      32.099  25.446  26.144  1.00  0.00    -0.308 N 
ATOM     15  H   UNL A   1      31.711  24.810  26.786  1.00  0.00     0.171 HD
ATOM     16  O   UNL A   1      31.220  27.175  27.241  1.00  0.00    -0.248 OA
BRANCH  14  17
ATOM     17  C   UNL A   1      33.138  24.937  25.348  1.00  0.00     0.042 A 
ATOM     18  C   UNL A   1      36.310  22.924  23.264  1.00  0.00     0.044 C 
ATOM     19  C   UNL A   1      35.237  23.728  23.934  1.00  0.00    -0.051 A 
ATOM     20  C   UNL A   1      33.954  23.783  23.382  1.00  0.00     0.005 A 
ATOM     21  C   UNL A   1      35.476  24.354  25.162  1.00  0.00     0.005 A 
ATOM     22  C   UNL A   1      32.917  24.409  24.073  1.00  0.00     0.026 A 
ATOM     23  C   UNL A   1      34.434  24.971  25.858  1.00  0.00     0.026 A 
ENDBRANCH  14  17
ENDBRANCH   8  13
ENDBRANCH   4   7
ENDBRANCH   2   3
ENDBRANCH   1   2
BRANCH   1  24
ATOM     24  C   UNL A   1      34.309  32.445  27.623  1.00  0.00     0.118 C 
BRANCH  24  25
ATOM     25  N   UNL A   1      33.567  33.406  28.426  1.00  0.00    -0.352 N 
ATOM     26  C   UNL A   1      33.947  34.063  29.587  1.00  0.00     0.251 C 
ATOM     27  H   UNL A   1      32.664  33.620  28.096  1.00  0.00     0.163 HD
ATOM     28  O   UNL A   1      33.164  34.800  30.156  1.00  0.00    -0.269 OA
BRANCH  26  29
ATOM     29  C   UNL A   1      35.363  33.987  30.034  1.00  0.00     0.039 A 
ATOM     30  C   UNL A   1      36.346  34.360  29.110  1.00  0.00     0.014 A 
ATOM     31  C   UNL A   1      35.720  33.321  31.200  1.00  0.00     0.014 A 
ATOM     32  C   UNL A   1      37.622  33.817  29.218  1.00  0.00     0.010 A 
ATOM     33  C   UNL A   1      36.935  32.673  31.240  1.00  0.00     0.010 A 
ATOM     34  C   UNL A   1      37.859  32.871  30.211  1.00  0.00    -0.014 A 
BRANCH  34  35
ATOM     35  C   UNL A   1      39.004  31.975  30.212  1.00  0.00     0.031 A 
ATOM     36  C   UNL A   1      38.844  30.585  29.754  1.00  0.00     0.074 A 
ATOM     37  C   UNL A   1      40.223  32.441  30.562  1.00  0.00     0.049 A 
ATOM     38  N   UNL A   1      39.631  29.621  30.090  1.00  0.00    -0.248 NA
ATOM     39  C   UNL A   1      37.730  30.155  28.916  1.00  0.00     0.031 C 
ATOM     40  C   UNL A   1      41.516  31.798  30.353  1.00  0.00     0.029 A 
ATOM     41  N   UNL A   1      40.507  33.524  31.388  1.00  0.00    -0.354 N 
ATOM     42  C   UNL A   1      39.318  28.542  29.300  1.00  0.00     0.074 A 
ATOM     43  C   UNL A   1      38.076  28.892  28.654  1.00  0.00     0.031 C 
ATOM     44  C   UNL A   1      42.410  32.333  31.201  1.00  0.00     0.029 A 
ATOM     45  C   UNL A   1      41.687  33.228  32.088  1.00  0.00     0.049 A 
ATOM     46  H   UNL A   1      39.976  34.350  31.467  1.00  0.00     0.167 HD
ATOM     47  C   UNL A   1      40.220  27.531  29.168  1.00  0.00     0.031 A 
ATOM     48  C   UNL A   1      41.684  33.131  33.450  1.00  0.00     0.031 A 
ATOM     49  C   UNL A   1      41.390  27.738  30.020  1.00  0.00     0.049 A 
ATOM     50  C   UNL A   1      42.042  31.752  33.965  1.00  0.00     0.074 A 
ATOM     51  C   UNL A   1      42.670  28.209  29.772  1.00  0.00     0.029 A 
ATOM     52  N   UNL A   1      41.230  27.746  31.400  1.00  0.00    -0.354 N 
ATOM     53  N   UNL A   1      42.034  30.673  33.232  1.00  0.00    -0.248 NA
ATOM     54  C   UNL A   1      42.410  31.477  35.351  1.00  0.00     0.031 C 
ATOM     55  C   UNL A   1      43.263  28.547  31.018  1.00  0.00     0.029 A 
ATOM     56  C   UNL A   1      42.355  28.254  32.019  1.00  0.00     0.049 A 
ATOM     57  H   UNL A   1      40.424  27.433  31.872  1.00  0.00     0.167 HD
ATOM     58  C   UNL A   1      42.376  29.588  33.999  1.00  0.00     0.074 A 
ATOM     59  C   UNL A   1      42.614  30.147  35.317  1.00  0.00     0.031 C 
ATOM     60  C   UNL A   1      42.418  28.326  33.475  1.00  0.00     0.031 A 
BRANCH  47  61
ATOM     61  C   UNL A   1      40.167  26.510  28.058  1.00  0.00    -0.014 A 
ATOM     62  C   UNL A   1      39.296  25.411  28.169  1.00  0.00     0.009 A 
ATOM     63  C   UNL A   1      40.977  26.537  26.911  1.00  0.00     0.009 A 
ATOM     64  C   UNL A   1      39.306  24.357  27.245  1.00  0.00     0.001 A 
ATOM     65  C   UNL A   1      41.023  25.468  26.003  1.00  0.00     0.001 A 
ATOM     66  C   UNL A   1      40.192  24.372  26.177  1.00  0.00     0.000 A 
ENDBRANCH  47  61
BRANCH  48  67
ATOM     67  C   UNL A   1      40.728  34.070  34.103  1.00  0.00    -0.014 A 
ATOM     68  C   UNL A   1      39.571  33.527  34.698  1.00  0.00     0.009 A 
ATOM     69  C   UNL A   1      41.135  35.357  34.483  1.00  0.00     0.009 A 
ATOM     70  C   UNL A   1      38.917  34.197  35.737  1.00  0.00     0.001 A 
ATOM     71  C   UNL A   1      40.470  36.029  35.518  1.00  0.00     0.001 A 
ATOM     72  C   UNL A   1      39.389  35.434  36.169  1.00  0.00     0.000 A 
ENDBRANCH  48  67
BRANCH  60  73
ATOM     73  C   UNL A   1      42.567  27.021  34.230  1.00  0.00    -0.014 A 
ATOM     74  C   UNL A   1      41.651  26.517  35.158  1.00  0.00     0.009 A 
ATOM     75  C   UNL A   1      43.651  26.168  33.901  1.00  0.00     0.009 A 
ATOM     76  C   UNL A   1      41.820  25.252  35.743  1.00  0.00     0.001 A 
ATOM     77  C   UNL A   1      43.799  24.890  34.443  1.00  0.00     0.001 A 
ATOM     78  C   UNL A   1      42.883  24.434  35.375  1.00  0.00     0.000 A 
ENDBRANCH  60  73
ENDBRANCH  34  35
ENDBRANCH  26  29
ENDBRANCH  24  25
ENDBRANCH   1  24
TORSDOF 12
ENDMDL
MODEL 3
REMARK VINA RESULT:     -11.9      3.551      8.313
REMARK SMILES Cc1ccc(NC(=O)N2CCCC[C@@H]2C(=O)NCCCNC(=O)c2ccc(-c3c4nc(c(-c5ccccc5)c5ccc([nH]5)c(-c5ccccc5)c5nc(c(-c6ccccc6)c6ccc3[nH]6)C=C5)C=C4)cc2)cc1
REMARK SMILES IDX 19 1 18 2 17 3 15 4 16 5 14 7 9 8 10 9 11 10 13 11 12 12
REMARK SMILES IDX 7 13 6 14 8 16 5 17 1 18 2 19 3 20 73 21 4 22 72 23 20 24
REMARK SMILES IDX 21 25 22 26 23 28 24 29 25 30 71 31 26 32 70 33 27 34 28 35
REMARK SMILES IDX 29 36 64 37 30 38 69 39 63 40 65 41 31 42 68 43 62 44 61 45
REMARK SMILES IDX 32 47 54 48 39 49 53 50 40 51 43 52 52 53 66 54 41 55 42 56
REMARK SMILES IDX 51 58 67 59 44 60 33 61 34 62 38 63 35 64 37 65 36 66 55 67
REMARK SMILES IDX 56 68 60 69 57 70 59 71 58 72 45 73 46 74 50 75 47 76 49 77
REMARK SMILES IDX 48 78
REMARK H PARENT 17 6 6 15 21 27 65 46 43 57
REMARK Flexibility Score: inf
ROOT
ATOM      1  C   UNL A   1      32.239  30.488  26.482  1.00  0.00     0.042 C 
ENDROOT
BRANCH   1   2
ATOM      2  C   UNL A   1      32.037  29.478  25.358  1.00  0.00     0.117 C 
BRANCH   2   3
ATOM      3  N   UNL A   1      33.097  29.563  24.363  1.00  0.00    -0.354 N 
ATOM      4  C   UNL A   1      33.909  28.597  23.841  1.00  0.00     0.242 C 
ATOM      5  O   UNL A   1      34.894  28.992  23.204  1.00  0.00    -0.273 OA
ATOM      6  H   UNL A   1      33.254  30.467  24.007  1.00  0.00     0.163 HD
BRANCH   4   7
ATOM      7  C   UNL A   1      33.744  27.089  24.175  1.00  0.00     0.176 C 
ATOM      8  N   UNL A   1      32.627  26.419  23.455  1.00  0.00    -0.313 N 
ATOM      9  C   UNL A   1      31.982  25.261  24.066  1.00  0.00     0.122 C 
ATOM     10  C   UNL A   1      31.831  25.341  25.574  1.00  0.00     0.022 C 
ATOM     11  C   UNL A   1      33.660  26.993  25.712  1.00  0.00     0.035 C 
ATOM     12  C   UNL A   1      33.171  25.647  26.215  1.00  0.00     0.004 C 
BRANCH   8  13
ATOM     13  C   UNL A   1      32.337  26.614  22.113  1.00  0.00     0.322 C 
ATOM     14  N   UNL A   1      31.102  27.039  21.734  1.00  0.00    -0.308 N 
ATOM     15  H   UNL A   1      30.716  26.572  20.958  1.00  0.00     0.171 HD
ATOM     16  O   UNL A   1      33.143  26.300  21.233  1.00  0.00    -0.248 OA
BRANCH  14  17
ATOM     17  C   UNL A   1      30.296  28.045  22.291  1.00  0.00     0.042 A 
ATOM     18  C   UNL A   1      27.590  31.165  23.474  1.00  0.00     0.044 C 
ATOM     19  C   UNL A   1      28.599  30.101  23.161  1.00  0.00    -0.051 A 
ATOM     20  C   UNL A   1      28.379  28.784  23.572  1.00  0.00     0.005 A 
ATOM     21  C   UNL A   1      29.721  30.392  22.376  1.00  0.00     0.005 A 
ATOM     22  C   UNL A   1      29.241  27.767  23.162  1.00  0.00     0.026 A 
ATOM     23  C   UNL A   1      30.576  29.369  21.958  1.00  0.00     0.026 A 
ENDBRANCH  14  17
ENDBRANCH   8  13
ENDBRANCH   4   7
ENDBRANCH   2   3
ENDBRANCH   1   2
BRANCH   1  24
ATOM     24  C   UNL A   1      33.364  30.114  27.428  1.00  0.00     0.118 C 
BRANCH  24  25
ATOM     25  N   UNL A   1      34.033  31.248  28.048  1.00  0.00    -0.352 N 
ATOM     26  C   UNL A   1      35.263  31.303  28.688  1.00  0.00     0.251 C 
ATOM     27  H   UNL A   1      33.540  32.100  28.008  1.00  0.00     0.163 HD
ATOM     28  O   UNL A   1      35.639  32.340  29.199  1.00  0.00    -0.269 OA
BRANCH  26  29
ATOM     29  C   UNL A   1      36.179  30.136  28.600  1.00  0.00     0.039 A 
ATOM     30  C   UNL A   1      36.444  29.440  29.786  1.00  0.00     0.014 A 
ATOM     31  C   UNL A   1      36.955  29.907  27.470  1.00  0.00     0.014 A 
ATOM     32  C   UNL A   1      37.644  28.748  29.915  1.00  0.00     0.010 A 
ATOM     33  C   UNL A   1      38.200  29.342  27.633  1.00  0.00     0.010 A 
ATOM     34  C   UNL A   1      38.568  28.822  28.876  1.00  0.00    -0.014 A 
BRANCH  34  35
ATOM     35  C   UNL A   1      39.970  28.465  29.020  1.00  0.00     0.031 A 
ATOM     36  C   UNL A   1      40.454  27.178  28.493  1.00  0.00     0.074 A 
ATOM     37  C   UNL A   1      40.836  29.345  29.569  1.00  0.00     0.049 A 
ATOM     38  N   UNL A   1      41.518  26.583  28.911  1.00  0.00    -0.248 NA
ATOM     39  C   UNL A   1      39.729  26.419  27.481  1.00  0.00     0.031 C 
ATOM     40  C   UNL A   1      42.294  29.297  29.537  1.00  0.00     0.029 A 
ATOM     41  N   UNL A   1      40.544  30.367  30.466  1.00  0.00    -0.354 N 
ATOM     42  C   UNL A   1      41.778  25.550  28.044  1.00  0.00     0.074 A 
ATOM     43  C   UNL A   1      40.592  25.432  27.229  1.00  0.00     0.031 C 
ATOM     44  C   UNL A   1      42.775  30.063  30.530  1.00  0.00     0.029 A 
ATOM     45  C   UNL A   1      41.644  30.503  31.328  1.00  0.00     0.049 A 
ATOM     46  H   UNL A   1      39.717  30.899  30.493  1.00  0.00     0.167 HD
ATOM     47  C   UNL A   1      43.024  25.003  28.016  1.00  0.00     0.031 A 
ATOM     48  C   UNL A   1      41.511  30.285  32.670  1.00  0.00     0.031 A 
ATOM     49  C   UNL A   1      43.889  25.579  29.044  1.00  0.00     0.049 A 
ATOM     50  C   UNL A   1      42.337  29.123  33.183  1.00  0.00     0.074 A 
ATOM     51  C   UNL A   1      44.883  26.545  29.011  1.00  0.00     0.029 A 
ATOM     52  N   UNL A   1      43.569  25.391  30.382  1.00  0.00    -0.354 N 
ATOM     53  N   UNL A   1      42.864  28.206  32.420  1.00  0.00    -0.248 NA
ATOM     54  C   UNL A   1      42.609  28.888  34.598  1.00  0.00     0.031 C 
ATOM     55  C   UNL A   1      45.124  26.973  30.344  1.00  0.00     0.029 A 
ATOM     56  C   UNL A   1      44.298  26.246  31.184  1.00  0.00     0.049 A 
ATOM     57  H   UNL A   1      42.911  24.738  30.714  1.00  0.00     0.167 HD
ATOM     58  C   UNL A   1      43.523  27.282  33.190  1.00  0.00     0.074 A 
ATOM     59  C   UNL A   1      43.344  27.762  34.549  1.00  0.00     0.031 C 
ATOM     60  C   UNL A   1      44.144  26.199  32.634  1.00  0.00     0.031 A 
BRANCH  47  61
ATOM     61  C   UNL A   1      43.534  24.157  26.875  1.00  0.00    -0.014 A 
ATOM     62  C   UNL A   1      44.282  24.760  25.847  1.00  0.00     0.009 A 
ATOM     63  C   UNL A   1      43.272  22.786  26.719  1.00  0.00     0.009 A 
ATOM     64  C   UNL A   1      44.657  24.061  24.691  1.00  0.00     0.001 A 
ATOM     65  C   UNL A   1      43.608  22.089  25.550  1.00  0.00     0.001 A 
ATOM     66  C   UNL A   1      44.293  22.731  24.530  1.00  0.00     0.000 A 
ENDBRANCH  47  61
BRANCH  48  67
ATOM     67  C   UNL A   1      40.181  30.695  33.201  1.00  0.00    -0.014 A 
ATOM     68  C   UNL A   1      39.856  32.067  33.181  1.00  0.00     0.009 A 
ATOM     69  C   UNL A   1      39.141  29.763  33.325  1.00  0.00     0.009 A 
ATOM     70  C   UNL A   1      38.523  32.488  33.154  1.00  0.00     0.001 A 
ATOM     71  C   UNL A   1      37.806  30.191  33.307  1.00  0.00     0.001 A 
ATOM     72  C   UNL A   1      37.498  31.546  33.182  1.00  0.00     0.000 A 
ENDBRANCH  48  67
BRANCH  60  73
ATOM     73  C   UNL A   1      44.721  24.998  33.355  1.00  0.00    -0.014 A 
ATOM     74  C   UNL A   1      44.053  23.787  33.567  1.00  0.00     0.009 A 
ATOM     75  C   UNL A   1      46.081  25.035  33.752  1.00  0.00     0.009 A 
ATOM     76  C   UNL A   1      44.696  22.690  34.163  1.00  0.00     0.001 A 
ATOM     77  C   UNL A   1      46.739  23.932  34.300  1.00  0.00     0.001 A 
ATOM     78  C   UNL A   1      46.040  22.757  34.515  1.00  0.00     0.000 A 
ENDBRANCH  60  73
ENDBRANCH  34  35
ENDBRANCH  26  29
ENDBRANCH  24  25
ENDBRANCH   1  24
TORSDOF 12
ENDMDL
