MODEL 1
REMARK VINA RESULT:     -13.3      0.000      0.000
REMARK SMILES Cc1nccn1C1(C(=O)NCCCNC(=O)c2ccc(-c3c4nc(c(-c5ccccc5)c5ccc([nH]5)c(-c5ccccc5)c5nc(c(-c6ccccc6)c6ccc3[nH]6)C=C5)C=C4)cc2)CCN(C(=O)[C@@H]2C[C@H]2c2ccccc2)CC1
REMARK SMILES IDX 12 1 11 2 10 3 8 4 9 5 7 7 65 8 80 9 66 10 79 11 67 12 68 13
REMARK SMILES IDX 69 14 6 15 1 16 2 17 3 18 4 19 5 20 70 21 71 22 72 23 73 24
REMARK SMILES IDX 74 25 78 26 75 27 77 28 76 29 13 30 14 31 15 32 16 34 17 35
REMARK SMILES IDX 18 36 64 37 19 38 63 39 20 40 21 41 22 42 57 43 23 44 62 45
REMARK SMILES IDX 56 46 58 47 24 48 61 49 55 50 54 51 25 53 47 54 32 55 46 56
REMARK SMILES IDX 33 57 36 58 45 59 59 60 34 61 35 62 44 64 60 65 37 66 26 67
REMARK SMILES IDX 27 68 31 69 28 70 30 71 29 72 48 73 49 74 53 75 50 76 52 77
REMARK SMILES IDX 51 78 38 79 39 80 43 81 40 82 42 83 41 84
REMARK H PARENT 10 6 14 33 58 52 36 63
REMARK Flexibility Score: inf
ROOT
ATOM      1  C   UNL A   1      33.379  28.707  27.593  1.00  0.00     0.042 C 
ENDROOT
BRANCH   1   2
ATOM      2  C   UNL A   1      32.011  28.715  26.903  1.00  0.00     0.117 C 
BRANCH   2   3
ATOM      3  N   UNL A   1      31.297  27.440  26.988  1.00  0.00    -0.354 N 
ATOM      4  C   UNL A   1      31.395  26.238  26.323  1.00  0.00     0.246 C 
ATOM      5  O   UNL A   1      30.706  25.363  26.852  1.00  0.00    -0.272 OA
ATOM      6  H   UNL A   1      30.590  27.441  27.673  1.00  0.00     0.163 HD
BRANCH   4   7
ATOM      7  C   UNL A   1      32.336  26.017  25.054  1.00  0.00     0.127 C 
ATOM      8  C   UNL A   1      33.742  25.726  25.637  1.00  0.00     0.061 C 
ATOM      9  C   UNL A   1      31.641  24.857  24.309  1.00  0.00     0.061 C 
ATOM     10  C   UNL A   1      34.537  24.602  24.990  1.00  0.00     0.122 C 
ATOM     11  C   UNL A   1      32.617  24.009  23.547  1.00  0.00     0.122 C 
ATOM     12  N   UNL A   1      33.717  23.560  24.380  1.00  0.00    -0.342 N 
ATOM     13  C   UNL A   1      34.275  22.280  24.334  1.00  0.00     0.226 C 
ATOM     14  O   UNL A   1      35.475  22.104  24.533  1.00  0.00    -0.275 OA
BRANCH   7  15
ATOM     15  N   UNL A   1      32.456  27.198  24.095  1.00  0.00    -0.320 N 
ATOM     16  C   UNL A   1      29.996  27.825  23.268  1.00  0.00     0.087 C 
ATOM     17  C   UNL A   1      31.475  27.946  23.400  1.00  0.00     0.106 A 
ATOM     18  N   UNL A   1      32.028  28.952  22.748  1.00  0.00    -0.242 NA
ATOM     19  C   UNL A   1      33.357  28.852  22.917  1.00  0.00     0.131 A 
ATOM     20  C   UNL A   1      33.649  27.776  23.707  1.00  0.00     0.108 A 
ENDBRANCH   7  15
BRANCH  13  21
ATOM     21  C   UNL A   1      33.424  21.059  24.262  1.00  0.00     0.087 C 
ATOM     22  C   UNL A   1      32.116  20.944  24.998  1.00  0.00     0.023 C 
ATOM     23  C   UNL A   1      33.231  19.993  25.306  1.00  0.00     0.032 C 
BRANCH  23  24
ATOM     24  C   UNL A   1      33.342  18.541  24.964  1.00  0.00    -0.044 A 
ATOM     25  C   UNL A   1      32.528  17.631  25.655  1.00  0.00     0.004 A 
ATOM     26  C   UNL A   1      34.442  18.033  24.251  1.00  0.00     0.004 A 
ATOM     27  C   UNL A   1      32.869  16.284  25.744  1.00  0.00     0.000 A 
ATOM     28  C   UNL A   1      34.781  16.680  24.328  1.00  0.00     0.000 A 
ATOM     29  C   UNL A   1      34.012  15.816  25.104  1.00  0.00     0.000 A 
ENDBRANCH  23  24
ENDBRANCH  13  21
ENDBRANCH   4   7
ENDBRANCH   2   3
ENDBRANCH   1   2
BRANCH   1  30
ATOM     30  C   UNL A   1      34.380  29.667  26.973  1.00  0.00     0.118 C 
BRANCH  30  31
ATOM     31  N   UNL A   1      34.270  31.047  27.458  1.00  0.00    -0.352 N 
ATOM     32  C   UNL A   1      34.956  31.618  28.517  1.00  0.00     0.251 C 
ATOM     33  H   UNL A   1      33.641  31.631  26.978  1.00  0.00     0.163 HD
ATOM     34  O   UNL A   1      34.564  32.663  29.036  1.00  0.00    -0.269 OA
BRANCH  32  35
ATOM     35  C   UNL A   1      36.170  30.948  29.012  1.00  0.00     0.039 A 
ATOM     36  C   UNL A   1      36.133  29.707  29.652  1.00  0.00     0.014 A 
ATOM     37  C   UNL A   1      37.384  31.575  28.749  1.00  0.00     0.014 A 
ATOM     38  C   UNL A   1      37.338  29.070  29.938  1.00  0.00     0.010 A 
ATOM     39  C   UNL A   1      38.549  30.863  28.844  1.00  0.00     0.010 A 
ATOM     40  C   UNL A   1      38.546  29.643  29.501  1.00  0.00    -0.014 A 
BRANCH  40  41
ATOM     41  C   UNL A   1      39.808  28.921  29.604  1.00  0.00     0.031 A 
ATOM     42  C   UNL A   1      40.221  28.628  31.001  1.00  0.00     0.074 A 
ATOM     43  C   UNL A   1      40.444  28.367  28.546  1.00  0.00     0.049 A 
ATOM     44  N   UNL A   1      41.218  29.139  31.639  1.00  0.00    -0.248 NA
ATOM     45  C   UNL A   1      39.339  27.794  31.837  1.00  0.00     0.031 C 
ATOM     46  C   UNL A   1      40.003  28.277  27.148  1.00  0.00     0.029 A 
ATOM     47  N   UNL A   1      41.597  27.647  28.529  1.00  0.00    -0.354 N 
ATOM     48  C   UNL A   1      41.225  28.531  32.889  1.00  0.00     0.074 A 
ATOM     49  C   UNL A   1      39.952  27.867  33.020  1.00  0.00     0.031 C 
ATOM     50  C   UNL A   1      40.730  27.338  26.501  1.00  0.00     0.029 A 
ATOM     51  C   UNL A   1      41.797  26.893  27.377  1.00  0.00     0.049 A 
ATOM     52  H   UNL A   1      42.241  27.657  29.275  1.00  0.00     0.167 HD
ATOM     53  C   UNL A   1      42.381  28.393  33.593  1.00  0.00     0.031 A 
ATOM     54  C   UNL A   1      42.753  25.948  27.180  1.00  0.00     0.031 A 
ATOM     55  C   UNL A   1      43.419  29.260  33.087  1.00  0.00     0.049 A 
ATOM     56  C   UNL A   1      43.816  26.193  28.185  1.00  0.00     0.074 A 
ATOM     57  C   UNL A   1      43.517  30.622  32.873  1.00  0.00     0.029 A 
ATOM     58  N   UNL A   1      44.395  28.690  32.302  1.00  0.00    -0.354 N 
ATOM     59  N   UNL A   1      44.577  27.250  28.176  1.00  0.00    -0.248 NA
ATOM     60  C   UNL A   1      43.700  25.511  29.464  1.00  0.00     0.031 C 
ATOM     61  C   UNL A   1      44.159  30.743  31.604  1.00  0.00     0.029 A 
ATOM     62  C   UNL A   1      44.507  29.461  31.173  1.00  0.00     0.049 A 
ATOM     63  H   UNL A   1      44.915  27.880  32.510  1.00  0.00     0.167 HD
ATOM     64  C   UNL A   1      44.660  27.629  29.507  1.00  0.00     0.074 A 
ATOM     65  C   UNL A   1      44.165  26.475  30.262  1.00  0.00     0.031 C 
ATOM     66  C   UNL A   1      44.834  28.934  29.866  1.00  0.00     0.031 A 
BRANCH  53  67
ATOM     67  C   UNL A   1      42.688  27.177  34.431  1.00  0.00    -0.014 A 
ATOM     68  C   UNL A   1      43.393  26.111  33.845  1.00  0.00     0.009 A 
ATOM     69  C   UNL A   1      42.070  26.920  35.670  1.00  0.00     0.009 A 
ATOM     70  C   UNL A   1      43.413  24.842  34.435  1.00  0.00     0.001 A 
ATOM     71  C   UNL A   1      42.124  25.667  36.283  1.00  0.00     0.001 A 
ATOM     72  C   UNL A   1      42.773  24.619  35.651  1.00  0.00     0.000 A 
ENDBRANCH  53  67
BRANCH  54  73
ATOM     73  C   UNL A   1      42.678  24.680  26.415  1.00  0.00    -0.014 A 
ATOM     74  C   UNL A   1      43.559  24.440  25.345  1.00  0.00     0.009 A 
ATOM     75  C   UNL A   1      41.950  23.584  26.913  1.00  0.00     0.009 A 
ATOM     76  C   UNL A   1      43.746  23.146  24.836  1.00  0.00     0.001 A 
ATOM     77  C   UNL A   1      42.133  22.294  26.402  1.00  0.00     0.001 A 
ATOM     78  C   UNL A   1      43.045  22.071  25.376  1.00  0.00     0.000 A 
ENDBRANCH  54  73
BRANCH  66  79
ATOM     79  C   UNL A   1      45.153  29.948  28.791  1.00  0.00    -0.014 A 
ATOM     80  C   UNL A   1      46.460  30.292  28.404  1.00  0.00     0.009 A 
ATOM     81  C   UNL A   1      44.086  30.450  28.030  1.00  0.00     0.009 A 
ATOM     82  C   UNL A   1      46.687  31.133  27.306  1.00  0.00     0.001 A 
ATOM     83  C   UNL A   1      44.312  31.271  26.922  1.00  0.00     0.001 A 
ATOM     84  C   UNL A   1      45.611  31.616  26.564  1.00  0.00     0.000 A 
ENDBRANCH  66  79
ENDBRANCH  40  41
ENDBRANCH  32  35
ENDBRANCH  30  31
ENDBRANCH   1  30
TORSDOF 13
ENDMDL
MODEL 2
REMARK VINA RESULT:     -12.8      2.425      7.801
REMARK SMILES Cc1nccn1C1(C(=O)NCCCNC(=O)c2ccc(-c3c4nc(c(-c5ccccc5)c5ccc([nH]5)c(-c5ccccc5)c5nc(c(-c6ccccc6)c6ccc3[nH]6)C=C5)C=C4)cc2)CCN(C(=O)[C@@H]2C[C@H]2c2ccccc2)CC1
REMARK SMILES IDX 12 1 11 2 10 3 8 4 9 5 7 7 65 8 80 9 66 10 79 11 67 12 68 13
REMARK SMILES IDX 69 14 6 15 1 16 2 17 3 18 4 19 5 20 70 21 71 22 72 23 73 24
REMARK SMILES IDX 74 25 78 26 75 27 77 28 76 29 13 30 14 31 15 32 16 34 17 35
REMARK SMILES IDX 18 36 64 37 19 38 63 39 20 40 21 41 22 42 57 43 23 44 62 45
REMARK SMILES IDX 56 46 58 47 24 48 61 49 55 50 54 51 25 53 47 54 32 55 46 56
REMARK SMILES IDX 33 57 36 58 45 59 59 60 34 61 35 62 44 64 60 65 37 66 26 67
REMARK SMILES IDX 27 68 31 69 28 70 30 71 29 72 48 73 49 74 53 75 50 76 52 77
REMARK SMILES IDX 51 78 38 79 39 80 43 81 40 82 42 83 41 84
REMARK H PARENT 10 6 14 33 58 52 36 63
REMARK Flexibility Score: inf
ROOT
ATOM      1  C   UNL A   1      37.029  20.602  25.058  1.00  0.00     0.042 C 
ENDROOT
BRANCH   1   2
ATOM      2  C   UNL A   1      36.154  21.856  24.969  1.00  0.00     0.117 C 
BRANCH   2   3
ATOM      3  N   UNL A   1      35.685  22.345  26.266  1.00  0.00    -0.354 N 
ATOM      4  C   UNL A   1      34.443  22.509  26.838  1.00  0.00     0.246 C 
ATOM      5  O   UNL A   1      34.523  22.783  28.038  1.00  0.00    -0.272 OA
ATOM      6  H   UNL A   1      36.420  22.616  26.862  1.00  0.00     0.163 HD
BRANCH   4   7
ATOM      7  C   UNL A   1      33.079  22.311  26.035  1.00  0.00     0.127 C 
ATOM      8  C   UNL A   1      31.969  22.309  27.115  1.00  0.00     0.061 C 
ATOM      9  C   UNL A   1      33.085  23.501  25.051  1.00  0.00     0.061 C 
ATOM     10  C   UNL A   1      30.704  23.097  26.807  1.00  0.00     0.122 C 
ATOM     11  C   UNL A   1      31.698  23.962  24.713  1.00  0.00     0.122 C 
ATOM     12  N   UNL A   1      30.904  24.222  25.899  1.00  0.00    -0.342 N 
ATOM     13  C   UNL A   1      30.027  25.300  26.046  1.00  0.00     0.226 C 
ATOM     14  O   UNL A   1      28.990  25.189  26.696  1.00  0.00    -0.275 OA
BRANCH   7  15
ATOM     15  N   UNL A   1      32.957  21.022  25.228  1.00  0.00    -0.320 N 
ATOM     16  C   UNL A   1      32.288  21.688  22.731  1.00  0.00     0.087 C 
ATOM     17  C   UNL A   1      32.665  20.794  23.862  1.00  0.00     0.106 A 
ATOM     18  N   UNL A   1      32.759  19.510  23.570  1.00  0.00    -0.242 NA
ATOM     19  C   UNL A   1      33.022  18.861  24.717  1.00  0.00     0.131 A 
ATOM     20  C   UNL A   1      33.119  19.753  25.748  1.00  0.00     0.108 A 
ENDBRANCH   7  15
BRANCH  13  21
ATOM     21  C   UNL A   1      30.402  26.677  25.617  1.00  0.00     0.087 C 
ATOM     22  C   UNL A   1      30.350  27.114  24.178  1.00  0.00     0.023 C 
ATOM     23  C   UNL A   1      31.654  27.127  24.914  1.00  0.00     0.032 C 
BRANCH  23  24
ATOM     24  C   UNL A   1      32.440  28.303  25.404  1.00  0.00    -0.044 A 
ATOM     25  C   UNL A   1      33.682  28.065  26.010  1.00  0.00     0.004 A 
ATOM     26  C   UNL A   1      31.845  29.562  25.590  1.00  0.00     0.004 A 
ATOM     27  C   UNL A   1      34.250  28.995  26.877  1.00  0.00     0.000 A 
ATOM     28  C   UNL A   1      32.416  30.503  26.450  1.00  0.00     0.000 A 
ATOM     29  C   UNL A   1      33.601  30.202  27.119  1.00  0.00     0.000 A 
ENDBRANCH  23  24
ENDBRANCH  13  21
ENDBRANCH   4   7
ENDBRANCH   2   3
ENDBRANCH   1   2
BRANCH   1  30
ATOM     30  C   UNL A   1      38.453  20.882  25.508  1.00  0.00     0.118 C 
BRANCH  30  31
ATOM     31  N   UNL A   1      39.297  19.687  25.614  1.00  0.00    -0.352 N 
ATOM     32  C   UNL A   1      40.653  19.643  25.894  1.00  0.00     0.251 C 
ATOM     33  H   UNL A   1      38.851  18.822  25.470  1.00  0.00     0.163 HD
ATOM     34  O   UNL A   1      41.319  18.638  25.646  1.00  0.00    -0.269 OA
BRANCH  32  35
ATOM     35  C   UNL A   1      41.284  20.827  26.500  1.00  0.00     0.039 A 
ATOM     36  C   UNL A   1      41.815  21.867  25.733  1.00  0.00     0.014 A 
ATOM     37  C   UNL A   1      41.268  20.907  27.889  1.00  0.00     0.014 A 
ATOM     38  C   UNL A   1      42.243  23.022  26.384  1.00  0.00     0.010 A 
ATOM     39  C   UNL A   1      41.495  22.109  28.502  1.00  0.00     0.010 A 
ATOM     40  C   UNL A   1      42.049  23.147  27.772  1.00  0.00    -0.014 A 
BRANCH  40  41
ATOM     41  C   UNL A   1      42.299  24.408  28.461  1.00  0.00     0.031 A 
ATOM     42  C   UNL A   1      41.285  25.458  28.178  1.00  0.00     0.074 A 
ATOM     43  C   UNL A   1      43.224  24.560  29.435  1.00  0.00     0.049 A 
ATOM     44  N   UNL A   1      41.460  26.546  27.510  1.00  0.00    -0.248 NA
ATOM     45  C   UNL A   1      39.881  25.199  28.544  1.00  0.00     0.031 C 
ATOM     46  C   UNL A   1      44.078  23.544  30.064  1.00  0.00     0.029 A 
ATOM     47  N   UNL A   1      43.516  25.670  30.164  1.00  0.00    -0.354 N 
ATOM     48  C   UNL A   1      40.246  27.220  27.552  1.00  0.00     0.074 A 
ATOM     49  C   UNL A   1      39.273  26.269  28.029  1.00  0.00     0.031 C 
ATOM     50  C   UNL A   1      44.576  24.023  31.227  1.00  0.00     0.029 A 
ATOM     51  C   UNL A   1      44.229  25.428  31.334  1.00  0.00     0.049 A 
ATOM     52  H   UNL A   1      43.244  26.575  29.887  1.00  0.00     0.167 HD
ATOM     53  C   UNL A   1      40.195  28.577  27.456  1.00  0.00     0.031 A 
ATOM     54  C   UNL A   1      44.481  26.317  32.331  1.00  0.00     0.031 A 
ATOM     55  C   UNL A   1      41.427  29.120  26.935  1.00  0.00     0.049 A 
ATOM     56  C   UNL A   1      44.297  27.672  31.758  1.00  0.00     0.074 A 
ATOM     57  C   UNL A   1      42.167  28.900  25.789  1.00  0.00     0.029 A 
ATOM     58  N   UNL A   1      42.296  29.697  27.832  1.00  0.00    -0.354 N 
ATOM     59  N   UNL A   1      45.078  28.173  30.844  1.00  0.00    -0.248 NA
ATOM     60  C   UNL A   1      42.971  28.263  31.848  1.00  0.00     0.031 C 
ATOM     61  C   UNL A   1      43.522  28.858  26.236  1.00  0.00     0.029 A 
ATOM     62  C   UNL A   1      43.536  29.158  27.599  1.00  0.00     0.049 A 
ATOM     63  H   UNL A   1      42.071  30.371  28.514  1.00  0.00     0.167 HD
ATOM     64  C   UNL A   1      44.216  28.802  29.959  1.00  0.00     0.074 A 
ATOM     65  C   UNL A   1      42.938  28.892  30.671  1.00  0.00     0.031 C 
ATOM     66  C   UNL A   1      44.519  28.921  28.633  1.00  0.00     0.031 A 
BRANCH  53  67
ATOM     67  C   UNL A   1      39.216  29.416  28.237  1.00  0.00    -0.014 A 
ATOM     68  C   UNL A   1      39.375  29.522  29.630  1.00  0.00     0.009 A 
ATOM     69  C   UNL A   1      37.991  29.865  27.706  1.00  0.00     0.009 A 
ATOM     70  C   UNL A   1      38.336  29.985  30.447  1.00  0.00     0.001 A 
ATOM     71  C   UNL A   1      36.968  30.367  28.513  1.00  0.00     0.001 A 
ATOM     72  C   UNL A   1      37.131  30.401  29.888  1.00  0.00     0.000 A 
ENDBRANCH  53  67
BRANCH  54  73
ATOM     73  C   UNL A   1      44.559  26.090  33.795  1.00  0.00    -0.014 A 
ATOM     74  C   UNL A   1      43.485  25.499  34.483  1.00  0.00     0.009 A 
ATOM     75  C   UNL A   1      45.791  26.177  34.468  1.00  0.00     0.009 A 
ATOM     76  C   UNL A   1      43.654  24.964  35.769  1.00  0.00     0.001 A 
ATOM     77  C   UNL A   1      45.959  25.648  35.754  1.00  0.00     0.001 A 
ATOM     78  C   UNL A   1      44.895  25.024  36.397  1.00  0.00     0.000 A 
ENDBRANCH  54  73
BRANCH  66  79
ATOM     79  C   UNL A   1      45.909  28.551  28.169  1.00  0.00    -0.014 A 
ATOM     80  C   UNL A   1      46.297  27.243  27.827  1.00  0.00     0.009 A 
ATOM     81  C   UNL A   1      46.811  29.594  27.912  1.00  0.00     0.009 A 
ATOM     82  C   UNL A   1      47.558  26.990  27.271  1.00  0.00     0.001 A 
ATOM     83  C   UNL A   1      48.060  29.345  27.338  1.00  0.00     0.001 A 
ATOM     84  C   UNL A   1      48.436  28.043  27.023  1.00  0.00     0.000 A 
ENDBRANCH  66  79
ENDBRANCH  40  41
ENDBRANCH  32  35
ENDBRANCH  30  31
ENDBRANCH   1  30
TORSDOF 13
ENDMDL
MODEL 3
REMARK VINA RESULT:     -12.7      1.733      5.421
REMARK SMILES Cc1nccn1C1(C(=O)NCCCNC(=O)c2ccc(-c3c4nc(c(-c5ccccc5)c5ccc([nH]5)c(-c5ccccc5)c5nc(c(-c6ccccc6)c6ccc3[nH]6)C=C5)C=C4)cc2)CCN(C(=O)[C@@H]2C[C@H]2c2ccccc2)CC1
REMARK SMILES IDX 12 1 11 2 10 3 8 4 9 5 7 7 65 8 80 9 66 10 79 11 67 12 68 13
REMARK SMILES IDX 69 14 6 15 1 16 2 17 3 18 4 19 5 20 70 21 71 22 72 23 73 24
REMARK SMILES IDX 74 25 78 26 75 27 77 28 76 29 13 30 14 31 15 32 16 34 17 35
REMARK SMILES IDX 18 36 64 37 19 38 63 39 20 40 21 41 22 42 57 43 23 44 62 45
REMARK SMILES IDX 56 46 58 47 24 48 61 49 55 50 54 51 25 53 47 54 32 55 46 56
REMARK SMILES IDX 33 57 36 58 45 59 59 60 34 61 35 62 44 64 60 65 37 66 26 67
REMARK SMILES IDX 27 68 31 69 28 70 30 71 29 72 48 73 49 74 53 75 50 76 52 77
REMARK SMILES IDX 51 78 38 79 39 80 43 81 40 82 42 83 41 84
REMARK H PARENT 10 6 14 33 58 52 36 63
REMARK Flexibility Score: inf
ROOT
ATOM      1  C   UNL A   1      33.480  29.021  25.890  1.00  0.00     0.042 C 
ENDROOT
BRANCH   1   2
ATOM      2  C   UNL A   1      32.817  27.650  26.055  1.00  0.00     0.117 C 
BRANCH   2   3
ATOM      3  N   UNL A   1      33.767  26.547  26.215  1.00  0.00    -0.354 N 
ATOM      4  C   UNL A   1      33.824  25.254  25.745  1.00  0.00     0.246 C 
ATOM      5  O   UNL A   1      34.913  24.727  25.983  1.00  0.00    -0.272 OA
ATOM      6  H   UNL A   1      34.534  26.782  26.784  1.00  0.00     0.163 HD
BRANCH   4   7
ATOM      7  C   UNL A   1      32.630  24.562  24.946  1.00  0.00     0.127 C 
ATOM      8  C   UNL A   1      31.396  24.684  25.875  1.00  0.00     0.061 C 
ATOM      9  C   UNL A   1      32.587  25.366  23.628  1.00  0.00     0.061 C 
ATOM     10  C   UNL A   1      30.079  25.083  25.224  1.00  0.00     0.122 C 
ATOM     11  C   UNL A   1      31.205  25.428  23.048  1.00  0.00     0.122 C 
ATOM     12  N   UNL A   1      30.226  25.888  24.015  1.00  0.00    -0.342 N 
ATOM     13  C   UNL A   1      29.183  26.771  23.728  1.00  0.00     0.226 C 
ATOM     14  O   UNL A   1      28.096  26.673  24.293  1.00  0.00    -0.275 OA
BRANCH   7  15
ATOM     15  N   UNL A   1      32.819  23.087  24.601  1.00  0.00    -0.320 N 
ATOM     16  C   UNL A   1      35.021  22.879  23.106  1.00  0.00     0.087 C 
ATOM     17  C   UNL A   1      33.830  22.416  23.873  1.00  0.00     0.106 A 
ATOM     18  N   UNL A   1      33.643  21.110  23.905  1.00  0.00    -0.242 NA
ATOM     19  C   UNL A   1      32.491  20.891  24.561  1.00  0.00     0.131 A 
ATOM     20  C   UNL A   1      31.952  22.078  24.971  1.00  0.00     0.108 A 
ENDBRANCH   7  15
BRANCH  13  21
ATOM     21  C   UNL A   1      29.397  27.992  22.901  1.00  0.00     0.087 C 
ATOM     22  C   UNL A   1      30.724  28.698  22.838  1.00  0.00     0.023 C 
ATOM     23  C   UNL A   1      29.520  29.420  23.359  1.00  0.00     0.032 C 
BRANCH  23  24
ATOM     24  C   UNL A   1      28.732  30.514  22.712  1.00  0.00    -0.044 A 
ATOM     25  C   UNL A   1      28.226  30.294  21.422  1.00  0.00     0.004 A 
ATOM     26  C   UNL A   1      28.776  31.836  23.186  1.00  0.00     0.004 A 
ATOM     27  C   UNL A   1      27.900  31.358  20.586  1.00  0.00     0.000 A 
ATOM     28  C   UNL A   1      28.439  32.906  22.355  1.00  0.00     0.000 A 
ATOM     29  C   UNL A   1      28.035  32.665  21.044  1.00  0.00     0.000 A 
ENDBRANCH  23  24
ENDBRANCH  13  21
ENDBRANCH   4   7
ENDBRANCH   2   3
ENDBRANCH   1   2
BRANCH   1  30
ATOM     30  C   UNL A   1      33.634  29.785  27.195  1.00  0.00     0.118 C 
BRANCH  30  31
ATOM     31  N   UNL A   1      34.039  31.184  27.029  1.00  0.00    -0.352 N 
ATOM     32  C   UNL A   1      35.118  31.818  27.622  1.00  0.00     0.251 C 
ATOM     33  H   UNL A   1      33.484  31.733  26.430  1.00  0.00     0.163 HD
ATOM     34  O   UNL A   1      35.182  33.047  27.673  1.00  0.00    -0.269 OA
BRANCH  32  35
ATOM     35  C   UNL A   1      36.194  30.990  28.193  1.00  0.00     0.039 A 
ATOM     36  C   UNL A   1      36.349  29.640  27.871  1.00  0.00     0.014 A 
ATOM     37  C   UNL A   1      37.108  31.632  29.022  1.00  0.00     0.014 A 
ATOM     38  C   UNL A   1      37.487  28.976  28.323  1.00  0.00     0.010 A 
ATOM     39  C   UNL A   1      38.313  31.041  29.289  1.00  0.00     0.010 A 
ATOM     40  C   UNL A   1      38.483  29.695  29.009  1.00  0.00    -0.014 A 
BRANCH  40  41
ATOM     41  C   UNL A   1      39.771  29.090  29.326  1.00  0.00     0.031 A 
ATOM     42  C   UNL A   1      39.974  28.837  30.777  1.00  0.00     0.074 A 
ATOM     43  C   UNL A   1      40.618  28.597  28.395  1.00  0.00     0.049 A 
ATOM     44  N   UNL A   1      40.804  29.436  31.560  1.00  0.00    -0.248 NA
ATOM     45  C   UNL A   1      39.046  27.925  31.470  1.00  0.00     0.031 C 
ATOM     46  C   UNL A   1      40.422  28.467  26.945  1.00  0.00     0.029 A 
ATOM     47  N   UNL A   1      41.819  27.985  28.577  1.00  0.00    -0.354 N 
ATOM     48  C   UNL A   1      40.660  28.831  32.804  1.00  0.00     0.074 A 
ATOM     49  C   UNL A   1      39.448  28.054  32.736  1.00  0.00     0.031 C 
ATOM     50  C   UNL A   1      41.326  27.598  26.439  1.00  0.00     0.029 A 
ATOM     51  C   UNL A   1      42.271  27.252  27.484  1.00  0.00     0.049 A 
ATOM     52  H   UNL A   1      42.328  28.053  29.417  1.00  0.00     0.167 HD
ATOM     53  C   UNL A   1      41.694  28.799  33.689  1.00  0.00     0.031 A 
ATOM     54  C   UNL A   1      43.328  26.398  27.460  1.00  0.00     0.031 A 
ATOM     55  C   UNL A   1      42.718  29.756  33.346  1.00  0.00     0.049 A 
ATOM     56  C   UNL A   1      44.186  26.738  28.620  1.00  0.00     0.074 A 
ATOM     57  C   UNL A   1      42.727  31.121  33.130  1.00  0.00     0.029 A 
ATOM     58  N   UNL A   1      43.856  29.278  32.739  1.00  0.00    -0.354 N 
ATOM     59  N   UNL A   1      44.840  27.860  28.719  1.00  0.00    -0.248 NA
ATOM     60  C   UNL A   1      43.923  26.049  29.874  1.00  0.00     0.031 C 
ATOM     61  C   UNL A   1      43.555  31.300  31.981  1.00  0.00     0.029 A 
ATOM     62  C   UNL A   1      44.082  30.056  31.632  1.00  0.00     0.049 A 
ATOM     63  H   UNL A   1      44.406  28.518  33.041  1.00  0.00     0.167 HD
ATOM     64  C   UNL A   1      44.670  28.245  30.040  1.00  0.00     0.074 A 
ATOM     65  C   UNL A   1      44.163  27.051  30.722  1.00  0.00     0.031 C 
ATOM     66  C   UNL A   1      44.664  29.561  30.404  1.00  0.00     0.031 A 
BRANCH  53  67
ATOM     67  C   UNL A   1      41.967  27.616  34.583  1.00  0.00    -0.014 A 
ATOM     68  C   UNL A   1      41.846  27.777  35.975  1.00  0.00     0.009 A 
ATOM     69  C   UNL A   1      42.611  26.446  34.137  1.00  0.00     0.009 A 
ATOM     70  C   UNL A   1      42.403  26.850  36.865  1.00  0.00     0.001 A 
ATOM     71  C   UNL A   1      43.130  25.498  35.021  1.00  0.00     0.001 A 
ATOM     72  C   UNL A   1      43.051  25.715  36.387  1.00  0.00     0.000 A 
ENDBRANCH  53  67
BRANCH  54  73
ATOM     73  C   UNL A   1      43.493  25.128  26.711  1.00  0.00    -0.014 A 
ATOM     74  C   UNL A   1      42.645  24.036  26.965  1.00  0.00     0.009 A 
ATOM     75  C   UNL A   1      44.280  25.081  25.546  1.00  0.00     0.009 A 
ATOM     76  C   UNL A   1      42.547  22.968  26.059  1.00  0.00     0.001 A 
ATOM     77  C   UNL A   1      44.187  24.013  24.645  1.00  0.00     0.001 A 
ATOM     78  C   UNL A   1      43.305  22.966  24.892  1.00  0.00     0.000 A 
ENDBRANCH  54  73
BRANCH  66  79
ATOM     79  C   UNL A   1      45.063  30.599  29.380  1.00  0.00    -0.014 A 
ATOM     80  C   UNL A   1      44.164  31.189  28.473  1.00  0.00     0.009 A 
ATOM     81  C   UNL A   1      46.365  31.119  29.449  1.00  0.00     0.009 A 
ATOM     82  C   UNL A   1      44.567  32.245  27.646  1.00  0.00     0.001 A 
ATOM     83  C   UNL A   1      46.761  32.186  28.640  1.00  0.00     0.001 A 
ATOM     84  C   UNL A   1      45.864  32.745  27.735  1.00  0.00     0.000 A 
ENDBRANCH  66  79
ENDBRANCH  40  41
ENDBRANCH  32  35
ENDBRANCH  30  31
ENDBRANCH   1  30
TORSDOF 13
ENDMDL
