MODEL 1
REMARK VINA RESULT:     -10.7      0.000      0.000
REMARK SMILES O=C(NCCCNC(=O)[C@@H](CCc1ccccc1)[C@@H]1CCS(=O)(=O)C1)c1ccc(-c2c3nc(c(-c4ccccc4)c4ccc([nH]4)c(-c4ccccc4)c4nc(c(-c5ccccc5)c5ccc2[nH]5)C=C4)C=C3)cc1
REMARK SMILES IDX 5 1 4 2 3 3 1 4 2 5 26 7 27 8 73 9 28 10 72 11 29 12 30 13
REMARK SMILES IDX 31 14 66 15 32 16 71 17 65 18 67 19 33 20 70 21 64 22 63 23
REMARK SMILES IDX 34 25 56 26 41 27 55 28 42 29 45 30 54 31 68 32 43 33 44 34
REMARK SMILES IDX 53 36 69 37 46 38 35 39 36 40 40 41 37 42 39 43 38 44 57 45
REMARK SMILES IDX 58 46 62 47 59 48 61 49 60 50 47 51 48 52 52 53 49 54 51 55
REMARK SMILES IDX 50 56 6 57 7 58 8 59 9 61 10 62 11 63 12 64 13 65 14 66
REMARK SMILES IDX 18 67 15 68 17 69 16 70 19 71 20 72 25 73 21 74 22 75 23 76
REMARK SMILES IDX 24 77
REMARK H PARENT 3 6 67 24 45 35 7 60
REMARK Flexibility Score: inf
ROOT
ATOM      1  C   UNL A   1      33.986  28.082  25.919  1.00  0.00     0.042 C 
ENDROOT
BRANCH   1   2
ATOM      2  C   UNL A   1      33.513  28.405  27.320  1.00  0.00     0.118 C 
BRANCH   2   3
ATOM      3  N   UNL A   1      33.513  29.847  27.570  1.00  0.00    -0.352 N 
ATOM      4  O   UNL A   1      34.118  31.832  28.425  1.00  0.00    -0.269 OA
ATOM      5  C   UNL A   1      34.451  30.686  28.130  1.00  0.00     0.251 C 
ATOM      6  H   UNL A   1      32.687  30.301  27.285  1.00  0.00     0.163 HD
BRANCH   5   7
ATOM      7  C   UNL A   1      35.838  30.234  28.399  1.00  0.00     0.039 A 
ATOM      8  C   UNL A   1      36.845  30.421  27.461  1.00  0.00     0.014 A 
ATOM      9  C   UNL A   1      36.162  29.657  29.635  1.00  0.00     0.014 A 
ATOM     10  C   UNL A   1      38.088  29.837  27.640  1.00  0.00     0.010 A 
ATOM     11  C   UNL A   1      37.473  29.226  29.888  1.00  0.00     0.010 A 
ATOM     12  C   UNL A   1      38.442  29.285  28.877  1.00  0.00    -0.014 A 
BRANCH  12  13
ATOM     13  C   UNL A   1      39.862  28.900  29.092  1.00  0.00     0.031 A 
ATOM     14  C   UNL A   1      40.833  29.816  29.781  1.00  0.00     0.074 A 
ATOM     15  C   UNL A   1      40.254  27.670  28.697  1.00  0.00     0.049 A 
ATOM     16  N   UNL A   1      42.094  29.605  30.067  1.00  0.00    -0.248 NA
ATOM     17  C   UNL A   1      40.336  31.136  30.197  1.00  0.00     0.031 C 
ATOM     18  C   UNL A   1      39.399  26.690  28.015  1.00  0.00     0.029 A 
ATOM     19  N   UNL A   1      41.448  27.014  28.842  1.00  0.00    -0.354 N 
ATOM     20  C   UNL A   1      42.549  30.773  30.668  1.00  0.00     0.074 A 
ATOM     21  C   UNL A   1      41.434  31.697  30.686  1.00  0.00     0.031 C 
ATOM     22  C   UNL A   1      40.066  25.537  27.879  1.00  0.00     0.029 A 
ATOM     23  C   UNL A   1      41.427  25.726  28.358  1.00  0.00     0.049 A 
ATOM     24  H   UNL A   1      42.244  27.423  29.251  1.00  0.00     0.167 HD
ATOM     25  C   UNL A   1      43.784  31.046  31.155  1.00  0.00     0.031 A 
ATOM     26  C   UNL A   1      42.400  24.803  28.272  1.00  0.00     0.031 A 
ATOM     27  C   UNL A   1      44.888  30.120  31.126  1.00  0.00     0.049 A 
ATOM     28  C   UNL A   1      43.767  25.155  28.771  1.00  0.00     0.074 A 
ATOM     29  C   UNL A   1      46.172  30.294  31.613  1.00  0.00     0.029 A 
ATOM     30  N   UNL A   1      44.841  28.849  30.570  1.00  0.00    -0.354 N 
ATOM     31  N   UNL A   1      44.172  26.257  29.355  1.00  0.00    -0.248 NA
ATOM     32  C   UNL A   1      44.812  24.141  28.594  1.00  0.00     0.031 C 
ATOM     33  C   UNL A   1      46.920  29.156  31.293  1.00  0.00     0.029 A 
ATOM     34  C   UNL A   1      46.083  28.242  30.674  1.00  0.00     0.049 A 
ATOM     35  H   UNL A   1      44.045  28.440  30.162  1.00  0.00     0.167 HD
ATOM     36  C   UNL A   1      45.517  26.062  29.632  1.00  0.00     0.074 A 
ATOM     37  C   UNL A   1      45.849  24.726  29.177  1.00  0.00     0.031 C 
ATOM     38  C   UNL A   1      46.398  26.915  30.209  1.00  0.00     0.031 A 
BRANCH  25  39
ATOM     39  C   UNL A   1      44.022  32.420  31.725  1.00  0.00    -0.014 A 
ATOM     40  C   UNL A   1      44.444  33.490  30.920  1.00  0.00     0.009 A 
ATOM     41  C   UNL A   1      43.775  32.657  33.087  1.00  0.00     0.009 A 
ATOM     42  C   UNL A   1      44.649  34.757  31.476  1.00  0.00     0.001 A 
ATOM     43  C   UNL A   1      43.950  33.930  33.633  1.00  0.00     0.001 A 
ATOM     44  C   UNL A   1      44.397  34.976  32.829  1.00  0.00     0.000 A 
ENDBRANCH  25  39
BRANCH  26  45
ATOM     45  C   UNL A   1      42.119  23.483  27.647  1.00  0.00    -0.014 A 
ATOM     46  C   UNL A   1      41.581  22.430  28.401  1.00  0.00     0.009 A 
ATOM     47  C   UNL A   1      42.379  23.275  26.282  1.00  0.00     0.009 A 
ATOM     48  C   UNL A   1      41.333  21.191  27.806  1.00  0.00     0.001 A 
ATOM     49  C   UNL A   1      42.094  22.048  25.682  1.00  0.00     0.001 A 
ATOM     50  C   UNL A   1      41.582  21.003  26.448  1.00  0.00     0.000 A 
ENDBRANCH  26  45
BRANCH  38  51
ATOM     51  C   UNL A   1      47.798  26.406  30.414  1.00  0.00    -0.014 A 
ATOM     52  C   UNL A   1      48.189  25.800  31.618  1.00  0.00     0.009 A 
ATOM     53  C   UNL A   1      48.733  26.521  29.373  1.00  0.00     0.009 A 
ATOM     54  C   UNL A   1      49.500  25.353  31.789  1.00  0.00     0.001 A 
ATOM     55  C   UNL A   1      50.033  26.042  29.534  1.00  0.00     0.001 A 
ATOM     56  C   UNL A   1      50.419  25.470  30.745  1.00  0.00     0.000 A 
ENDBRANCH  38  51
ENDBRANCH  12  13
ENDBRANCH   5   7
ENDBRANCH   2   3
ENDBRANCH   1   2
BRANCH   1  57
ATOM     57  C   UNL A   1      32.869  27.641  24.984  1.00  0.00     0.117 C 
BRANCH  57  58
ATOM     58  N   UNL A   1      31.757  27.076  25.692  1.00  0.00    -0.356 N 
ATOM     59  C   UNL A   1      31.506  25.776  25.972  1.00  0.00     0.223 C 
ATOM     60  H   UNL A   1      31.087  27.721  26.018  1.00  0.00     0.163 HD
ATOM     61  O   UNL A   1      30.614  25.562  26.802  1.00  0.00    -0.275 OA
BRANCH  59  62
ATOM     62  C   UNL A   1      32.319  24.588  25.395  1.00  0.00     0.083 C 
BRANCH  62  63
ATOM     63  C   UNL A   1      33.811  24.403  25.822  1.00  0.00     0.018 C 
BRANCH  63  64
ATOM     64  C   UNL A   1      35.153  24.571  25.047  1.00  0.00     0.036 C 
BRANCH  64  65
ATOM     65  C   UNL A   1      36.326  23.614  25.131  1.00  0.00    -0.048 A 
ATOM     66  C   UNL A   1      36.303  22.416  24.399  1.00  0.00     0.004 A 
ATOM     67  C   UNL A   1      37.464  23.853  25.913  1.00  0.00     0.004 A 
ATOM     68  C   UNL A   1      37.281  21.433  24.592  1.00  0.00     0.000 A 
ATOM     69  C   UNL A   1      38.425  22.862  26.140  1.00  0.00     0.000 A 
ATOM     70  C   UNL A   1      38.315  21.637  25.502  1.00  0.00     0.000 A 
ENDBRANCH  64  65
ENDBRANCH  63  64
ENDBRANCH  62  63
BRANCH  62  71
ATOM     71  C   UNL A   1      31.364  23.423  24.958  1.00  0.00     0.017 C 
ATOM     72  C   UNL A   1      31.707  22.003  25.390  1.00  0.00     0.021 C 
ATOM     73  C   UNL A   1      31.179  23.303  23.422  1.00  0.00     0.141 C 
ATOM     74  C   UNL A   1      32.770  21.473  24.440  1.00  0.00     0.137 C 
ATOM     75  S   UNL A   1      32.394  22.133  22.843  1.00  0.00     0.150 S 
ATOM     76  O   UNL A   1      33.547  22.857  22.357  1.00  0.00    -0.229 OA
ATOM     77  O   UNL A   1      31.740  21.101  22.062  1.00  0.00    -0.229 OA
ENDBRANCH  62  71
ENDBRANCH  59  62
ENDBRANCH  57  58
ENDBRANCH   1  57
TORSDOF 14
ENDMDL
MODEL 2
REMARK VINA RESULT:     -10.7      1.056      6.069
REMARK SMILES O=C(NCCCNC(=O)[C@@H](CCc1ccccc1)[C@@H]1CCS(=O)(=O)C1)c1ccc(-c2c3nc(c(-c4ccccc4)c4ccc([nH]4)c(-c4ccccc4)c4nc(c(-c5ccccc5)c5ccc2[nH]5)C=C4)C=C3)cc1
REMARK SMILES IDX 5 1 4 2 3 3 1 4 2 5 26 7 27 8 73 9 28 10 72 11 29 12 30 13
REMARK SMILES IDX 31 14 66 15 32 16 71 17 65 18 67 19 33 20 70 21 64 22 63 23
REMARK SMILES IDX 34 25 56 26 41 27 55 28 42 29 45 30 54 31 68 32 43 33 44 34
REMARK SMILES IDX 53 36 69 37 46 38 35 39 36 40 40 41 37 42 39 43 38 44 57 45
REMARK SMILES IDX 58 46 62 47 59 48 61 49 60 50 47 51 48 52 52 53 49 54 51 55
REMARK SMILES IDX 50 56 6 57 7 58 8 59 9 61 10 62 11 63 12 64 13 65 14 66
REMARK SMILES IDX 18 67 15 68 17 69 16 70 19 71 20 72 25 73 21 74 22 75 23 76
REMARK SMILES IDX 24 77
REMARK H PARENT 3 6 67 24 45 35 7 60
REMARK Flexibility Score: inf
ROOT
ATOM      1  C   UNL A   1      32.487  27.963  27.295  1.00  0.00     0.042 C 
ENDROOT
BRANCH   1   2
ATOM      2  C   UNL A   1      33.744  28.718  26.924  1.00  0.00     0.118 C 
BRANCH   2   3
ATOM      3  N   UNL A   1      33.744  30.072  27.479  1.00  0.00    -0.352 N 
ATOM      4  O   UNL A   1      34.320  31.815  28.770  1.00  0.00    -0.269 OA
ATOM      5  C   UNL A   1      34.658  30.753  28.253  1.00  0.00     0.251 C 
ATOM      6  H   UNL A   1      32.939  30.595  27.256  1.00  0.00     0.163 HD
BRANCH   5   7
ATOM      7  C   UNL A   1      36.024  30.224  28.490  1.00  0.00     0.039 A 
ATOM      8  C   UNL A   1      37.020  30.367  27.533  1.00  0.00     0.014 A 
ATOM      9  C   UNL A   1      36.341  29.618  29.714  1.00  0.00     0.014 A 
ATOM     10  C   UNL A   1      38.233  29.715  27.681  1.00  0.00     0.010 A 
ATOM     11  C   UNL A   1      37.632  29.114  29.936  1.00  0.00     0.010 A 
ATOM     12  C   UNL A   1      38.582  29.132  28.906  1.00  0.00    -0.014 A 
BRANCH  12  13
ATOM     13  C   UNL A   1      39.983  28.669  29.088  1.00  0.00     0.031 A 
ATOM     14  C   UNL A   1      40.431  27.309  28.634  1.00  0.00     0.074 A 
ATOM     15  C   UNL A   1      40.872  29.530  29.627  1.00  0.00     0.049 A 
ATOM     16  N   UNL A   1      41.627  26.778  28.698  1.00  0.00    -0.248 NA
ATOM     17  C   UNL A   1      39.414  26.426  28.043  1.00  0.00     0.031 C 
ATOM     18  C   UNL A   1      40.555  30.881  30.107  1.00  0.00     0.029 A 
ATOM     19  N   UNL A   1      42.223  29.423  29.829  1.00  0.00    -0.354 N 
ATOM     20  C   UNL A   1      41.501  25.493  28.183  1.00  0.00     0.074 A 
ATOM     21  C   UNL A   1      40.108  25.316  27.832  1.00  0.00     0.031 C 
ATOM     22  C   UNL A   1      41.685  31.502  30.465  1.00  0.00     0.029 A 
ATOM     23  C   UNL A   1      42.791  30.563  30.349  1.00  0.00     0.049 A 
ATOM     24  H   UNL A   1      42.738  28.610  29.623  1.00  0.00     0.167 HD
ATOM     25  C   UNL A   1      42.461  24.550  28.023  1.00  0.00     0.031 A 
ATOM     26  C   UNL A   1      44.054  30.822  30.729  1.00  0.00     0.031 A 
ATOM     27  C   UNL A   1      43.845  24.736  28.382  1.00  0.00     0.049 A 
ATOM     28  C   UNL A   1      45.080  29.742  30.588  1.00  0.00     0.074 A 
ATOM     29  C   UNL A   1      44.899  23.850  28.239  1.00  0.00     0.029 A 
ATOM     30  N   UNL A   1      44.366  25.883  28.964  1.00  0.00    -0.354 N 
ATOM     31  N   UNL A   1      44.946  28.540  30.080  1.00  0.00    -0.248 NA
ATOM     32  C   UNL A   1      46.428  30.048  31.078  1.00  0.00     0.031 C 
ATOM     33  C   UNL A   1      46.042  24.434  28.795  1.00  0.00     0.029 A 
ATOM     34  C   UNL A   1      45.718  25.714  29.216  1.00  0.00     0.049 A 
ATOM     35  H   UNL A   1      43.850  26.696  29.168  1.00  0.00     0.167 HD
ATOM     36  C   UNL A   1      46.199  27.953  30.173  1.00  0.00     0.074 A 
ATOM     37  C   UNL A   1      47.083  28.940  30.759  1.00  0.00     0.031 C 
ATOM     38  C   UNL A   1      46.581  26.705  29.807  1.00  0.00     0.031 A 
BRANCH  25  39
ATOM     39  C   UNL A   1      42.042  23.212  27.472  1.00  0.00    -0.014 A 
ATOM     40  C   UNL A   1      42.178  22.899  26.111  1.00  0.00     0.009 A 
ATOM     41  C   UNL A   1      41.542  22.230  28.344  1.00  0.00     0.009 A 
ATOM     42  C   UNL A   1      41.787  21.645  25.630  1.00  0.00     0.001 A 
ATOM     43  C   UNL A   1      41.182  20.969  27.866  1.00  0.00     0.001 A 
ATOM     44  C   UNL A   1      41.295  20.681  26.508  1.00  0.00     0.000 A 
ENDBRANCH  25  39
BRANCH  26  45
ATOM     45  C   UNL A   1      44.396  32.144  31.318  1.00  0.00    -0.014 A 
ATOM     46  C   UNL A   1      44.298  32.363  32.700  1.00  0.00     0.009 A 
ATOM     47  C   UNL A   1      44.836  33.195  30.496  1.00  0.00     0.009 A 
ATOM     48  C   UNL A   1      44.609  33.612  33.242  1.00  0.00     0.001 A 
ATOM     49  C   UNL A   1      45.183  34.431  31.044  1.00  0.00     0.001 A 
ATOM     50  C   UNL A   1      45.058  34.641  32.415  1.00  0.00     0.000 A 
ENDBRANCH  26  45
BRANCH  38  51
ATOM     51  C   UNL A   1      48.031  26.358  29.998  1.00  0.00    -0.014 A 
ATOM     52  C   UNL A   1      48.497  25.778  31.188  1.00  0.00     0.009 A 
ATOM     53  C   UNL A   1      48.941  26.599  28.956  1.00  0.00     0.009 A 
ATOM     54  C   UNL A   1      49.852  25.484  31.346  1.00  0.00     0.001 A 
ATOM     55  C   UNL A   1      50.289  26.270  29.103  1.00  0.00     0.001 A 
ATOM     56  C   UNL A   1      50.745  25.725  30.302  1.00  0.00     0.000 A 
ENDBRANCH  38  51
ENDBRANCH  12  13
ENDBRANCH   5   7
ENDBRANCH   2   3
ENDBRANCH   1   2
BRANCH   1  57
ATOM     57  C   UNL A   1      31.560  27.702  26.116  1.00  0.00     0.117 C 
BRANCH  57  58
ATOM     58  N   UNL A   1      30.661  26.613  26.362  1.00  0.00    -0.356 N 
ATOM     59  C   UNL A   1      30.818  25.303  26.057  1.00  0.00     0.223 C 
ATOM     60  H   UNL A   1      29.817  26.849  26.812  1.00  0.00     0.163 HD
ATOM     61  O   UNL A   1      30.017  24.523  26.586  1.00  0.00    -0.275 OA
BRANCH  59  62
ATOM     62  C   UNL A   1      31.972  24.744  25.185  1.00  0.00     0.083 C 
BRANCH  62  63
ATOM     63  C   UNL A   1      33.222  24.116  25.882  1.00  0.00     0.018 C 
BRANCH  63  64
ATOM     64  C   UNL A   1      34.737  24.486  25.853  1.00  0.00     0.036 C 
BRANCH  64  65
ATOM     65  C   UNL A   1      35.864  23.499  25.619  1.00  0.00    -0.048 A 
ATOM     66  C   UNL A   1      35.573  22.202  25.167  1.00  0.00     0.004 A 
ATOM     67  C   UNL A   1      37.215  23.805  25.830  1.00  0.00     0.004 A 
ATOM     68  C   UNL A   1      36.566  21.216  25.113  1.00  0.00     0.000 A 
ATOM     69  C   UNL A   1      38.206  22.818  25.815  1.00  0.00     0.000 A 
ATOM     70  C   UNL A   1      37.873  21.513  25.487  1.00  0.00     0.000 A 
ENDBRANCH  64  65
ENDBRANCH  63  64
ENDBRANCH  62  63
BRANCH  62  71
ATOM     71  C   UNL A   1      31.448  24.344  23.762  1.00  0.00     0.017 C 
ATOM     72  C   UNL A   1      32.069  23.135  23.073  1.00  0.00     0.021 C 
ATOM     73  C   UNL A   1      31.575  25.472  22.704  1.00  0.00     0.141 C 
ATOM     74  C   UNL A   1      33.384  23.580  22.452  1.00  0.00     0.137 C 
ATOM     75  S   UNL A   1      33.137  25.233  21.877  1.00  0.00     0.150 S 
ATOM     76  O   UNL A   1      34.127  26.091  22.488  1.00  0.00    -0.229 OA
ATOM     77  O   UNL A   1      32.924  25.194  20.443  1.00  0.00    -0.229 OA
ENDBRANCH  62  71
ENDBRANCH  59  62
ENDBRANCH  57  58
ENDBRANCH   1  57
TORSDOF 14
ENDMDL
MODEL 3
REMARK VINA RESULT:     -10.5      2.467      7.156
REMARK SMILES O=C(NCCCNC(=O)[C@@H](CCc1ccccc1)[C@@H]1CCS(=O)(=O)C1)c1ccc(-c2c3nc(c(-c4ccccc4)c4ccc([nH]4)c(-c4ccccc4)c4nc(c(-c5ccccc5)c5ccc2[nH]5)C=C4)C=C3)cc1
REMARK SMILES IDX 5 1 4 2 3 3 1 4 2 5 26 7 27 8 73 9 28 10 72 11 29 12 30 13
REMARK SMILES IDX 31 14 66 15 32 16 71 17 65 18 67 19 33 20 70 21 64 22 63 23
REMARK SMILES IDX 34 25 56 26 41 27 55 28 42 29 45 30 54 31 68 32 43 33 44 34
REMARK SMILES IDX 53 36 69 37 46 38 35 39 36 40 40 41 37 42 39 43 38 44 57 45
REMARK SMILES IDX 58 46 62 47 59 48 61 49 60 50 47 51 48 52 52 53 49 54 51 55
REMARK SMILES IDX 50 56 6 57 7 58 8 59 9 61 10 62 11 63 12 64 13 65 14 66
REMARK SMILES IDX 18 67 15 68 17 69 16 70 19 71 20 72 25 73 21 74 22 75 23 76
REMARK SMILES IDX 24 77
REMARK H PARENT 3 6 67 24 45 35 7 60
REMARK Flexibility Score: inf
ROOT
ATOM      1  C   UNL A   1      37.107  19.669  24.976  1.00  0.00     0.042 C 
ENDROOT
BRANCH   1   2
ATOM      2  C   UNL A   1      38.380  20.420  25.297  1.00  0.00     0.118 C 
BRANCH   2   3
ATOM      3  N   UNL A   1      39.496  19.507  25.549  1.00  0.00    -0.352 N 
ATOM      4  O   UNL A   1      41.596  18.807  25.923  1.00  0.00    -0.269 OA
ATOM      5  C   UNL A   1      40.779  19.722  26.004  1.00  0.00     0.251 C 
ATOM      6  H   UNL A   1      39.292  18.563  25.357  1.00  0.00     0.163 HD
BRANCH   5   7
ATOM      7  C   UNL A   1      41.197  21.029  26.568  1.00  0.00     0.039 A 
ATOM      8  C   UNL A   1      41.584  22.073  25.738  1.00  0.00     0.014 A 
ATOM      9  C   UNL A   1      41.155  21.243  27.953  1.00  0.00     0.014 A 
ATOM     10  C   UNL A   1      42.145  23.222  26.272  1.00  0.00     0.010 A 
ATOM     11  C   UNL A   1      41.554  22.478  28.486  1.00  0.00     0.010 A 
ATOM     12  C   UNL A   1      42.083  23.470  27.649  1.00  0.00    -0.014 A 
BRANCH  12  13
ATOM     13  C   UNL A   1      42.471  24.820  28.136  1.00  0.00     0.031 A 
ATOM     14  C   UNL A   1      41.449  25.891  28.393  1.00  0.00     0.074 A 
ATOM     15  C   UNL A   1      43.775  25.050  28.398  1.00  0.00     0.049 A 
ATOM     16  N   UNL A   1      41.635  27.106  28.847  1.00  0.00    -0.248 NA
ATOM     17  C   UNL A   1      40.045  25.568  28.098  1.00  0.00     0.031 C 
ATOM     18  C   UNL A   1      44.862  24.085  28.187  1.00  0.00     0.029 A 
ATOM     19  N   UNL A   1      44.409  26.141  28.932  1.00  0.00    -0.354 N 
ATOM     20  C   UNL A   1      40.379  27.701  28.865  1.00  0.00     0.074 A 
ATOM     21  C   UNL A   1      39.442  26.721  28.356  1.00  0.00     0.031 C 
ATOM     22  C   UNL A   1      46.005  24.593  28.663  1.00  0.00     0.029 A 
ATOM     23  C   UNL A   1      45.760  25.957  29.109  1.00  0.00     0.049 A 
ATOM     24  H   UNL A   1      43.943  26.976  29.166  1.00  0.00     0.167 HD
ATOM     25  C   UNL A   1      40.043  28.951  29.268  1.00  0.00     0.031 A 
ATOM     26  C   UNL A   1      46.713  26.798  29.547  1.00  0.00     0.031 A 
ATOM     27  C   UNL A   1      40.985  29.920  29.768  1.00  0.00     0.049 A 
ATOM     28  C   UNL A   1      46.318  28.189  29.934  1.00  0.00     0.074 A 
ATOM     29  C   UNL A   1      40.742  31.205  30.222  1.00  0.00     0.029 A 
ATOM     30  N   UNL A   1      42.354  29.714  29.872  1.00  0.00    -0.354 N 
ATOM     31  N   UNL A   1      45.122  28.727  29.964  1.00  0.00    -0.248 NA
ATOM     32  C   UNL A   1      47.400  29.091  30.341  1.00  0.00     0.031 C 
ATOM     33  C   UNL A   1      41.968  31.799  30.536  1.00  0.00     0.029 A 
ATOM     34  C   UNL A   1      42.969  30.860  30.351  1.00  0.00     0.049 A 
ATOM     35  H   UNL A   1      42.818  28.878  29.639  1.00  0.00     0.167 HD
ATOM     36  C   UNL A   1      45.307  30.027  30.411  1.00  0.00     0.074 A 
ATOM     37  C   UNL A   1      46.725  30.185  30.665  1.00  0.00     0.031 C 
ATOM     38  C   UNL A   1      44.383  31.002  30.591  1.00  0.00     0.031 A 
BRANCH  25  39
ATOM     39  C   UNL A   1      38.598  29.360  29.144  1.00  0.00    -0.014 A 
ATOM     40  C   UNL A   1      37.709  29.264  30.226  1.00  0.00     0.009 A 
ATOM     41  C   UNL A   1      38.131  29.894  27.932  1.00  0.00     0.009 A 
ATOM     42  C   UNL A   1      36.375  29.659  30.083  1.00  0.00     0.001 A 
ATOM     43  C   UNL A   1      36.807  30.317  27.802  1.00  0.00     0.001 A 
ATOM     44  C   UNL A   1      35.928  30.189  28.875  1.00  0.00     0.000 A 
ENDBRANCH  25  39
BRANCH  26  45
ATOM     45  C   UNL A   1      48.132  26.354  29.594  1.00  0.00    -0.014 A 
ATOM     46  C   UNL A   1      48.663  25.761  30.748  1.00  0.00     0.009 A 
ATOM     47  C   UNL A   1      48.962  26.513  28.471  1.00  0.00     0.009 A 
ATOM     48  C   UNL A   1      50.000  25.360  30.785  1.00  0.00     0.001 A 
ATOM     49  C   UNL A   1      50.286  26.076  28.497  1.00  0.00     0.001 A 
ATOM     50  C   UNL A   1      50.808  25.511  29.658  1.00  0.00     0.000 A 
ENDBRANCH  26  45
BRANCH  38  51
ATOM     51  C   UNL A   1      44.882  32.316  31.126  1.00  0.00    -0.014 A 
ATOM     52  C   UNL A   1      44.962  32.563  32.505  1.00  0.00     0.009 A 
ATOM     53  C   UNL A   1      45.297  33.313  30.229  1.00  0.00     0.009 A 
ATOM     54  C   UNL A   1      45.411  33.799  32.975  1.00  0.00     0.001 A 
ATOM     55  C   UNL A   1      45.778  34.534  30.702  1.00  0.00     0.001 A 
ATOM     56  C   UNL A   1      45.824  34.781  32.073  1.00  0.00     0.000 A 
ENDBRANCH  38  51
ENDBRANCH  12  13
ENDBRANCH   5   7
ENDBRANCH   2   3
ENDBRANCH   1   2
BRANCH   1  57
ATOM     57  C   UNL A   1      35.879  20.562  24.878  1.00  0.00     0.117 C 
BRANCH  57  58
ATOM     58  N   UNL A   1      35.386  20.954  26.166  1.00  0.00    -0.356 N 
ATOM     59  C   UNL A   1      34.208  21.544  26.477  1.00  0.00     0.223 C 
ATOM     60  H   UNL A   1      35.986  20.770  26.926  1.00  0.00     0.163 HD
ATOM     61  O   UNL A   1      33.910  21.561  27.677  1.00  0.00    -0.275 OA
BRANCH  59  62
ATOM     62  C   UNL A   1      33.206  22.092  25.428  1.00  0.00     0.083 C 
BRANCH  62  63
ATOM     63  C   UNL A   1      32.200  21.111  24.744  1.00  0.00     0.018 C 
BRANCH  63  64
ATOM     64  C   UNL A   1      32.406  19.899  23.785  1.00  0.00     0.036 C 
BRANCH  64  65
ATOM     65  C   UNL A   1      32.900  18.531  24.214  1.00  0.00    -0.048 A 
ATOM     66  C   UNL A   1      33.651  17.749  23.322  1.00  0.00     0.004 A 
ATOM     67  C   UNL A   1      32.648  17.979  25.478  1.00  0.00     0.004 A 
ATOM     68  C   UNL A   1      33.967  16.417  23.618  1.00  0.00     0.000 A 
ATOM     69  C   UNL A   1      32.927  16.640  25.767  1.00  0.00     0.000 A 
ATOM     70  C   UNL A   1      33.559  15.848  24.822  1.00  0.00     0.000 A 
ENDBRANCH  64  65
ENDBRANCH  63  64
ENDBRANCH  62  63
BRANCH  62  71
ATOM     71  C   UNL A   1      32.944  23.621  25.660  1.00  0.00     0.017 C 
ATOM     72  C   UNL A   1      31.716  24.253  25.016  1.00  0.00     0.021 C 
ATOM     73  C   UNL A   1      34.109  24.537  25.198  1.00  0.00     0.141 C 
ATOM     74  C   UNL A   1      32.051  24.541  23.561  1.00  0.00     0.137 C 
ATOM     75  S   UNL A   1      33.751  25.027  23.521  1.00  0.00     0.150 S 
ATOM     76  O   UNL A   1      34.462  24.153  22.616  1.00  0.00    -0.229 OA
ATOM     77  O   UNL A   1      33.813  26.472  23.415  1.00  0.00    -0.229 OA
ENDBRANCH  62  71
ENDBRANCH  59  62
ENDBRANCH  57  58
ENDBRANCH   1  57
TORSDOF 14
ENDMDL
