MODEL 1
REMARK VINA RESULT:     -11.3      0.000      0.000
REMARK SMILES Cc1cccc(C)c1Nc1ccccc1CC(=O)NCCCNC(=O)c1ccc(-c2c3nc(c(-c4ccccc4)c4ccc([nH]4)c(-c4ccccc4)c4nc(c(-c5ccccc5)c5ccc2[nH]5)C=C4)C=C3)cc1
REMARK SMILES IDX 20 1 19 2 17 3 18 4 16 6 15 7 10 8 11 9 12 10 14 11 13 12
REMARK SMILES IDX 9 13 8 15 1 16 2 17 3 18 4 19 6 20 5 21 7 22 21 23 22 24
REMARK SMILES IDX 23 25 24 26 25 28 26 29 27 30 73 31 28 32 72 33 29 34 30 35
REMARK SMILES IDX 31 36 66 37 32 38 71 39 65 40 67 41 33 42 70 43 64 44 63 45
REMARK SMILES IDX 34 47 56 48 41 49 55 50 42 51 45 52 54 53 68 54 43 55 44 56
REMARK SMILES IDX 53 58 69 59 46 60 35 61 36 62 40 63 37 64 39 65 38 66 57 67
REMARK SMILES IDX 58 68 62 69 59 70 61 71 60 72 47 73 48 74 52 75 49 76 51 77
REMARK SMILES IDX 50 78
REMARK H PARENT 19 5 9 14 23 27 67 46 45 57
REMARK Flexibility Score: inf
ROOT
ATOM      1  C   UNL A   1      31.470  27.607  26.420  1.00  0.00     0.117 C 
ENDROOT
BRANCH   1   2
ATOM      2  N   UNL A   1      30.927  26.309  26.767  1.00  0.00    -0.356 N 
ATOM      3  C   UNL A   1      31.484  25.079  26.565  1.00  0.00     0.224 C 
ATOM      4  O   UNL A   1      30.805  24.081  26.813  1.00  0.00    -0.275 OA
ATOM      5  H   UNL A   1      30.045  26.315  27.204  1.00  0.00     0.163 HD
BRANCH   3   6
ATOM      6  C   UNL A   1      32.919  24.971  26.079  1.00  0.00     0.137 C 
BRANCH   6   7
ATOM      7  C   UNL A   1      33.055  24.471  24.654  1.00  0.00    -0.015 A 
ATOM      8  C   UNL A   1      33.822  23.338  24.303  1.00  0.00     0.042 A 
ATOM      9  C   UNL A   1      33.960  23.016  22.940  1.00  0.00     0.026 A 
ATOM     10  C   UNL A   1      33.329  23.760  21.944  1.00  0.00     0.002 A 
ATOM     11  C   UNL A   1      32.402  25.199  23.637  1.00  0.00     0.006 A 
ATOM     12  C   UNL A   1      32.538  24.845  22.294  1.00  0.00     0.000 A 
BRANCH   8  13
ATOM     13  N   UNL A   1      34.418  22.459  25.226  1.00  0.00    -0.355 N 
ATOM     14  H   UNL A   1      33.890  22.335  26.048  1.00  0.00     0.167 HD
BRANCH  13  15
ATOM     15  C   UNL A   1      35.623  21.716  25.214  1.00  0.00     0.044 A 
ATOM     16  C   UNL A   1      34.225  19.616  24.772  1.00  0.00     0.046 C 
ATOM     17  C   UNL A   1      35.544  20.319  24.957  1.00  0.00    -0.027 A 
ATOM     18  C   UNL A   1      36.718  19.555  24.843  1.00  0.00     0.005 A 
ATOM     19  C   UNL A   1      37.966  20.150  24.975  1.00  0.00     0.001 A 
ATOM     20  C   UNL A   1      36.899  22.300  25.398  1.00  0.00    -0.027 A 
ATOM     21  C   UNL A   1      38.054  21.509  25.250  1.00  0.00     0.005 A 
ATOM     22  C   UNL A   1      37.110  23.739  25.789  1.00  0.00     0.046 C 
ENDBRANCH  13  15
ENDBRANCH   8  13
ENDBRANCH   6   7
ENDBRANCH   3   6
ENDBRANCH   1   2
BRANCH   1  23
ATOM     23  C   UNL A   1      32.141  28.279  27.614  1.00  0.00     0.042 C 
BRANCH  23  24
ATOM     24  C   UNL A   1      33.492  28.907  27.284  1.00  0.00     0.118 C 
BRANCH  24  25
ATOM     25  N   UNL A   1      33.578  30.298  27.712  1.00  0.00    -0.352 N 
ATOM     26  C   UNL A   1      34.579  30.956  28.374  1.00  0.00     0.251 C 
ATOM     27  H   UNL A   1      32.793  30.850  27.490  1.00  0.00     0.163 HD
ATOM     28  O   UNL A   1      34.369  32.083  28.829  1.00  0.00    -0.269 OA
BRANCH  26  29
ATOM     29  C   UNL A   1      35.899  30.325  28.565  1.00  0.00     0.039 A 
ATOM     30  C   UNL A   1      36.816  30.350  27.510  1.00  0.00     0.014 A 
ATOM     31  C   UNL A   1      36.229  29.686  29.763  1.00  0.00     0.014 A 
ATOM     32  C   UNL A   1      38.085  29.798  27.681  1.00  0.00     0.010 A 
ATOM     33  C   UNL A   1      37.517  29.197  29.957  1.00  0.00     0.010 A 
ATOM     34  C   UNL A   1      38.460  29.254  28.920  1.00  0.00    -0.014 A 
BRANCH  34  35
ATOM     35  C   UNL A   1      39.843  28.774  29.160  1.00  0.00     0.031 A 
ATOM     36  C   UNL A   1      40.875  29.686  29.759  1.00  0.00     0.074 A 
ATOM     37  C   UNL A   1      40.184  27.531  28.770  1.00  0.00     0.049 A 
ATOM     38  N   UNL A   1      42.146  29.459  29.982  1.00  0.00    -0.248 NA
ATOM     39  C   UNL A   1      40.430  31.037  30.138  1.00  0.00     0.031 C 
ATOM     40  C   UNL A   1      39.280  26.562  28.145  1.00  0.00     0.029 A 
ATOM     41  N   UNL A   1      41.385  26.871  28.834  1.00  0.00    -0.354 N 
ATOM     42  C   UNL A   1      42.652  30.639  30.512  1.00  0.00     0.074 A 
ATOM     43  C   UNL A   1      41.565  31.593  30.537  1.00  0.00     0.031 C 
ATOM     44  C   UNL A   1      39.953  25.424  27.908  1.00  0.00     0.029 A 
ATOM     45  C   UNL A   1      41.341  25.598  28.319  1.00  0.00     0.049 A 
ATOM     46  H   UNL A   1      42.201  27.272  29.212  1.00  0.00     0.167 HD
ATOM     47  C   UNL A   1      43.907  30.900  30.950  1.00  0.00     0.031 A 
ATOM     48  C   UNL A   1      42.312  24.678  28.180  1.00  0.00     0.031 A 
ATOM     49  C   UNL A   1      44.987  29.949  30.925  1.00  0.00     0.049 A 
ATOM     50  C   UNL A   1      43.704  25.006  28.641  1.00  0.00     0.074 A 
ATOM     51  C   UNL A   1      46.277  30.097  31.404  1.00  0.00     0.029 A 
ATOM     52  N   UNL A   1      44.906  28.676  30.381  1.00  0.00    -0.354 N 
ATOM     53  N   UNL A   1      44.151  26.100  29.207  1.00  0.00    -0.248 NA
ATOM     54  C   UNL A   1      44.726  23.968  28.443  1.00  0.00     0.031 C 
ATOM     55  C   UNL A   1      46.994  28.935  31.097  1.00  0.00     0.029 A 
ATOM     56  C   UNL A   1      46.134  28.041  30.480  1.00  0.00     0.049 A 
ATOM     57  H   UNL A   1      44.096  28.281  29.985  1.00  0.00     0.167 HD
ATOM     58  C   UNL A   1      45.499  25.878  29.452  1.00  0.00     0.074 A 
ATOM     59  C   UNL A   1      45.791  24.535  28.992  1.00  0.00     0.031 C 
ATOM     60  C   UNL A   1      46.413  26.711  30.004  1.00  0.00     0.031 A 
BRANCH  47  61
ATOM     61  C   UNL A   1      44.184  32.278  31.484  1.00  0.00    -0.014 A 
ATOM     62  C   UNL A   1      44.607  33.316  30.638  1.00  0.00     0.009 A 
ATOM     63  C   UNL A   1      43.978  32.553  32.845  1.00  0.00     0.009 A 
ATOM     64  C   UNL A   1      44.853  34.592  31.152  1.00  0.00     0.001 A 
ATOM     65  C   UNL A   1      44.196  33.837  33.350  1.00  0.00     0.001 A 
ATOM     66  C   UNL A   1      44.643  34.852  32.506  1.00  0.00     0.000 A 
ENDBRANCH  47  61
BRANCH  48  67
ATOM     67  C   UNL A   1      42.003  23.354  27.579  1.00  0.00    -0.014 A 
ATOM     68  C   UNL A   1      42.322  23.091  26.239  1.00  0.00     0.009 A 
ATOM     69  C   UNL A   1      41.384  22.350  28.340  1.00  0.00     0.009 A 
ATOM     70  C   UNL A   1      42.007  21.857  25.666  1.00  0.00     0.001 A 
ATOM     71  C   UNL A   1      41.097  21.106  27.774  1.00  0.00     0.001 A 
ATOM     72  C   UNL A   1      41.400  20.864  26.435  1.00  0.00     0.000 A 
ENDBRANCH  48  67
BRANCH  60  73
ATOM     73  C   UNL A   1      47.814  26.187  30.153  1.00  0.00    -0.014 A 
ATOM     74  C   UNL A   1      48.716  26.213  29.078  1.00  0.00     0.009 A 
ATOM     75  C   UNL A   1      48.246  25.694  31.393  1.00  0.00     0.009 A 
ATOM     76  C   UNL A   1      50.014  25.724  29.235  1.00  0.00     0.001 A 
ATOM     77  C   UNL A   1      49.553  25.233  31.555  1.00  0.00     0.001 A 
ATOM     78  C   UNL A   1      50.433  25.240  30.474  1.00  0.00     0.000 A 
ENDBRANCH  60  73
ENDBRANCH  34  35
ENDBRANCH  26  29
ENDBRANCH  24  25
ENDBRANCH  23  24
ENDBRANCH   1  23
TORSDOF 13
ENDMDL
MODEL 2
REMARK VINA RESULT:     -11.2      4.303      7.965
REMARK SMILES Cc1cccc(C)c1Nc1ccccc1CC(=O)NCCCNC(=O)c1ccc(-c2c3nc(c(-c4ccccc4)c4ccc([nH]4)c(-c4ccccc4)c4nc(c(-c5ccccc5)c5ccc2[nH]5)C=C4)C=C3)cc1
REMARK SMILES IDX 20 1 19 2 17 3 18 4 16 6 15 7 10 8 11 9 12 10 14 11 13 12
REMARK SMILES IDX 9 13 8 15 1 16 2 17 3 18 4 19 6 20 5 21 7 22 21 23 22 24
REMARK SMILES IDX 23 25 24 26 25 28 26 29 27 30 73 31 28 32 72 33 29 34 30 35
REMARK SMILES IDX 31 36 66 37 32 38 71 39 65 40 67 41 33 42 70 43 64 44 63 45
REMARK SMILES IDX 34 47 56 48 41 49 55 50 42 51 45 52 54 53 68 54 43 55 44 56
REMARK SMILES IDX 53 58 69 59 46 60 35 61 36 62 40 63 37 64 39 65 38 66 57 67
REMARK SMILES IDX 58 68 62 69 59 70 61 71 60 72 47 73 48 74 52 75 49 76 51 77
REMARK SMILES IDX 50 78
REMARK H PARENT 19 5 9 14 23 27 67 46 45 57
REMARK Flexibility Score: inf
ROOT
ATOM      1  C   UNL A   1      34.982  35.654  32.794  1.00  0.00     0.117 C 
ENDROOT
BRANCH   1   2
ATOM      2  N   UNL A   1      34.951  34.910  34.038  1.00  0.00    -0.356 N 
ATOM      3  C   UNL A   1      35.932  34.131  34.580  1.00  0.00     0.224 C 
ATOM      4  O   UNL A   1      35.668  33.471  35.587  1.00  0.00    -0.275 OA
ATOM      5  H   UNL A   1      34.118  34.974  34.556  1.00  0.00     0.163 HD
BRANCH   3   6
ATOM      6  C   UNL A   1      37.319  34.123  33.960  1.00  0.00     0.137 C 
BRANCH   6   7
ATOM      7  C   UNL A   1      38.412  33.639  34.893  1.00  0.00    -0.015 A 
ATOM      8  C   UNL A   1      39.222  32.517  34.616  1.00  0.00     0.042 A 
ATOM      9  C   UNL A   1      40.144  32.093  35.593  1.00  0.00     0.026 A 
ATOM     10  C   UNL A   1      40.298  32.778  36.798  1.00  0.00     0.002 A 
ATOM     11  C   UNL A   1      38.597  34.335  36.106  1.00  0.00     0.006 A 
ATOM     12  C   UNL A   1      39.532  33.908  37.049  1.00  0.00     0.000 A 
BRANCH   8  13
ATOM     13  N   UNL A   1      39.224  31.812  33.397  1.00  0.00    -0.355 N 
ATOM     14  H   UNL A   1      39.314  32.394  32.608  1.00  0.00     0.167 HD
BRANCH  13  15
ATOM     15  C   UNL A   1      39.122  30.438  33.075  1.00  0.00     0.044 A 
ATOM     16  C   UNL A   1      36.586  30.755  32.900  1.00  0.00     0.046 C 
ATOM     17  C   UNL A   1      37.831  29.912  32.794  1.00  0.00    -0.027 A 
ATOM     18  C   UNL A   1      37.686  28.578  32.379  1.00  0.00     0.005 A 
ATOM     19  C   UNL A   1      38.797  27.757  32.235  1.00  0.00     0.001 A 
ATOM     20  C   UNL A   1      40.241  29.576  32.975  1.00  0.00    -0.027 A 
ATOM     21  C   UNL A   1      40.061  28.253  32.530  1.00  0.00     0.005 A 
ATOM     22  C   UNL A   1      41.641  29.979  33.356  1.00  0.00     0.046 C 
ENDBRANCH  13  15
ENDBRANCH   8  13
ENDBRANCH   6   7
ENDBRANCH   3   6
ENDBRANCH   1   2
BRANCH   1  23
ATOM     23  C   UNL A   1      33.605  35.724  32.141  1.00  0.00     0.042 C 
BRANCH  23  24
ATOM     24  C   UNL A   1      33.615  36.366  30.757  1.00  0.00     0.118 C 
BRANCH  24  25
ATOM     25  N   UNL A   1      32.815  35.620  29.793  1.00  0.00    -0.352 N 
ATOM     26  C   UNL A   1      33.162  34.574  28.982  1.00  0.00     0.251 C 
ATOM     27  H   UNL A   1      31.878  35.915  29.714  1.00  0.00     0.163 HD
ATOM     28  O   UNL A   1      32.394  34.218  28.085  1.00  0.00    -0.269 OA
BRANCH  26  29
ATOM     29  C   UNL A   1      34.453  33.881  29.156  1.00  0.00     0.039 A 
ATOM     30  C   UNL A   1      35.473  34.113  28.228  1.00  0.00     0.014 A 
ATOM     31  C   UNL A   1      34.656  32.986  30.210  1.00  0.00     0.014 A 
ATOM     32  C   UNL A   1      36.716  33.502  28.397  1.00  0.00     0.010 A 
ATOM     33  C   UNL A   1      35.916  32.431  30.416  1.00  0.00     0.010 A 
ATOM     34  C   UNL A   1      36.960  32.689  29.515  1.00  0.00    -0.014 A 
BRANCH  34  35
ATOM     35  C   UNL A   1      38.309  32.131  29.778  1.00  0.00     0.031 A 
ATOM     36  C   UNL A   1      39.356  32.956  30.469  1.00  0.00     0.074 A 
ATOM     37  C   UNL A   1      38.609  30.897  29.326  1.00  0.00     0.049 A 
ATOM     38  N   UNL A   1      40.605  32.656  30.725  1.00  0.00    -0.248 NA
ATOM     39  C   UNL A   1      38.957  34.302  30.911  1.00  0.00     0.031 C 
ATOM     40  C   UNL A   1      37.688  30.011  28.610  1.00  0.00     0.029 A 
ATOM     41  N   UNL A   1      39.775  30.179  29.395  1.00  0.00    -0.354 N 
ATOM     42  C   UNL A   1      41.143  33.778  31.344  1.00  0.00     0.074 A 
ATOM     43  C   UNL A   1      40.100  34.779  31.386  1.00  0.00     0.031 C 
ATOM     44  C   UNL A   1      38.317  28.858  28.331  1.00  0.00     0.029 A 
ATOM     45  C   UNL A   1      39.694  28.942  28.804  1.00  0.00     0.049 A 
ATOM     46  H   UNL A   1      40.592  30.518  29.828  1.00  0.00     0.167 HD
ATOM     47  C   UNL A   1      42.390  33.952  31.844  1.00  0.00     0.031 A 
ATOM     48  C   UNL A   1      40.628  27.986  28.646  1.00  0.00     0.031 A 
ATOM     49  C   UNL A   1      43.426  32.954  31.803  1.00  0.00     0.049 A 
ATOM     50  C   UNL A   1      42.013  28.220  29.177  1.00  0.00     0.074 A 
ATOM     51  C   UNL A   1      44.701  33.012  32.338  1.00  0.00     0.029 A 
ATOM     52  N   UNL A   1      43.309  31.720  31.180  1.00  0.00    -0.354 N 
ATOM     53  N   UNL A   1      42.486  29.257  29.825  1.00  0.00    -0.248 NA
ATOM     54  C   UNL A   1      42.994  27.148  28.956  1.00  0.00     0.031 C 
ATOM     55  C   UNL A   1      45.376  31.838  31.988  1.00  0.00     0.029 A 
ATOM     56  C   UNL A   1      44.502  31.023  31.286  1.00  0.00     0.049 A 
ATOM     57  H   UNL A   1      42.499  31.388  30.731  1.00  0.00     0.167 HD
ATOM     58  C   UNL A   1      43.811  28.956  30.106  1.00  0.00     0.074 A 
ATOM     59  C   UNL A   1      44.061  27.631  29.578  1.00  0.00     0.031 C 
ATOM     60  C   UNL A   1      44.739  29.712  30.742  1.00  0.00     0.031 A 
BRANCH  47  61
ATOM     61  C   UNL A   1      42.707  35.282  32.470  1.00  0.00    -0.014 A 
ATOM     62  C   UNL A   1      42.331  35.575  33.790  1.00  0.00     0.009 A 
ATOM     63  C   UNL A   1      43.430  36.241  31.742  1.00  0.00     0.009 A 
ATOM     64  C   UNL A   1      42.640  36.814  34.357  1.00  0.00     0.001 A 
ATOM     65  C   UNL A   1      43.763  37.467  32.321  1.00  0.00     0.001 A 
ATOM     66  C   UNL A   1      43.360  37.757  33.623  1.00  0.00     0.000 A 
ENDBRANCH  47  61
BRANCH  48  67
ATOM     67  C   UNL A   1      40.283  26.716  27.955  1.00  0.00    -0.014 A 
ATOM     68  C   UNL A   1      40.680  26.500  26.627  1.00  0.00     0.009 A 
ATOM     69  C   UNL A   1      39.553  25.717  28.617  1.00  0.00     0.009 A 
ATOM     70  C   UNL A   1      40.333  25.318  25.969  1.00  0.00     0.001 A 
ATOM     71  C   UNL A   1      39.233  24.523  27.966  1.00  0.00     0.001 A 
ATOM     72  C   UNL A   1      39.615  24.329  26.640  1.00  0.00     0.000 A 
ENDBRANCH  48  67
BRANCH  60  73
ATOM     73  C   UNL A   1      46.108  29.113  30.912  1.00  0.00    -0.014 A 
ATOM     74  C   UNL A   1      46.410  28.297  32.013  1.00  0.00     0.009 A 
ATOM     75  C   UNL A   1      47.093  29.339  29.940  1.00  0.00     0.009 A 
ATOM     76  C   UNL A   1      47.686  27.747  32.153  1.00  0.00     0.001 A 
ATOM     77  C   UNL A   1      48.358  28.764  30.067  1.00  0.00     0.001 A 
ATOM     78  C   UNL A   1      48.656  27.976  31.178  1.00  0.00     0.000 A 
ENDBRANCH  60  73
ENDBRANCH  34  35
ENDBRANCH  26  29
ENDBRANCH  24  25
ENDBRANCH  23  24
ENDBRANCH   1  23
TORSDOF 13
ENDMDL
MODEL 3
REMARK VINA RESULT:     -10.9      2.723      4.303
REMARK SMILES Cc1cccc(C)c1Nc1ccccc1CC(=O)NCCCNC(=O)c1ccc(-c2c3nc(c(-c4ccccc4)c4ccc([nH]4)c(-c4ccccc4)c4nc(c(-c5ccccc5)c5ccc2[nH]5)C=C4)C=C3)cc1
REMARK SMILES IDX 20 1 19 2 17 3 18 4 16 6 15 7 10 8 11 9 12 10 14 11 13 12
REMARK SMILES IDX 9 13 8 15 1 16 2 17 3 18 4 19 6 20 5 21 7 22 21 23 22 24
REMARK SMILES IDX 23 25 24 26 25 28 26 29 27 30 73 31 28 32 72 33 29 34 30 35
REMARK SMILES IDX 31 36 66 37 32 38 71 39 65 40 67 41 33 42 70 43 64 44 63 45
REMARK SMILES IDX 34 47 56 48 41 49 55 50 42 51 45 52 54 53 68 54 43 55 44 56
REMARK SMILES IDX 53 58 69 59 46 60 35 61 36 62 40 63 37 64 39 65 38 66 57 67
REMARK SMILES IDX 58 68 62 69 59 70 61 71 60 72 47 73 48 74 52 75 49 76 51 77
REMARK SMILES IDX 50 78
REMARK H PARENT 19 5 9 14 23 27 67 46 45 57
REMARK Flexibility Score: inf
ROOT
ATOM      1  C   UNL A   1      31.621  30.695  25.882  1.00  0.00     0.117 C 
ENDROOT
BRANCH   1   2
ATOM      2  N   UNL A   1      31.758  29.598  26.818  1.00  0.00    -0.356 N 
ATOM      3  C   UNL A   1      32.679  28.590  26.808  1.00  0.00     0.224 C 
ATOM      4  O   UNL A   1      32.551  27.671  27.620  1.00  0.00    -0.275 OA
ATOM      5  H   UNL A   1      31.105  29.575  27.554  1.00  0.00     0.163 HD
BRANCH   3   6
ATOM      6  C   UNL A   1      33.844  28.640  25.835  1.00  0.00     0.137 C 
BRANCH   6   7
ATOM      7  C   UNL A   1      33.679  27.744  24.624  1.00  0.00    -0.015 A 
ATOM      8  C   UNL A   1      33.877  26.346  24.665  1.00  0.00     0.042 A 
ATOM      9  C   UNL A   1      33.792  25.619  23.463  1.00  0.00     0.026 A 
ATOM     10  C   UNL A   1      33.481  26.239  22.253  1.00  0.00     0.002 A 
ATOM     11  C   UNL A   1      33.341  28.352  23.397  1.00  0.00     0.006 A 
ATOM     12  C   UNL A   1      33.242  27.605  22.223  1.00  0.00     0.000 A 
BRANCH   8  13
ATOM     13  N   UNL A   1      34.096  25.603  25.841  1.00  0.00    -0.355 N 
ATOM     14  H   UNL A   1      34.472  26.138  26.578  1.00  0.00     0.167 HD
BRANCH  13  15
ATOM     15  C   UNL A   1      33.887  24.245  26.179  1.00  0.00     0.044 A 
ATOM     16  C   UNL A   1      36.374  23.838  25.720  1.00  0.00     0.046 C 
ATOM     17  C   UNL A   1      35.009  23.371  26.156  1.00  0.00    -0.027 A 
ATOM     18  C   UNL A   1      34.873  22.036  26.573  1.00  0.00     0.005 A 
ATOM     19  C   UNL A   1      33.648  21.553  27.012  1.00  0.00     0.001 A 
ATOM     20  C   UNL A   1      32.632  23.726  26.579  1.00  0.00    -0.027 A 
ATOM     21  C   UNL A   1      32.539  22.391  27.015  1.00  0.00     0.005 A 
ATOM     22  C   UNL A   1      31.350  24.515  26.534  1.00  0.00     0.046 C 
ENDBRANCH  13  15
ENDBRANCH   8  13
ENDBRANCH   6   7
ENDBRANCH   3   6
ENDBRANCH   1   2
BRANCH   1  23
ATOM     23  C   UNL A   1      31.423  32.029  26.597  1.00  0.00     0.042 C 
BRANCH  23  24
ATOM     24  C   UNL A   1      32.702  32.593  27.207  1.00  0.00     0.118 C 
BRANCH  24  25
ATOM     25  N   UNL A   1      32.518  33.938  27.739  1.00  0.00    -0.352 N 
ATOM     26  C   UNL A   1      33.212  34.603  28.712  1.00  0.00     0.251 C 
ATOM     27  H   UNL A   1      31.779  34.447  27.332  1.00  0.00     0.163 HD
ATOM     28  O   UNL A   1      32.766  35.661  29.162  1.00  0.00    -0.269 OA
BRANCH  26  29
ATOM     29  C   UNL A   1      34.478  34.060  29.240  1.00  0.00     0.039 A 
ATOM     30  C   UNL A   1      34.450  33.318  30.426  1.00  0.00     0.014 A 
ATOM     31  C   UNL A   1      35.694  34.297  28.592  1.00  0.00     0.014 A 
ATOM     32  C   UNL A   1      35.628  32.758  30.921  1.00  0.00     0.010 A 
ATOM     33  C   UNL A   1      36.855  33.681  29.049  1.00  0.00     0.010 A 
ATOM     34  C   UNL A   1      36.832  32.901  30.215  1.00  0.00    -0.014 A 
BRANCH  34  35
ATOM     35  C   UNL A   1      38.068  32.211  30.659  1.00  0.00     0.031 A 
ATOM     36  C   UNL A   1      38.955  32.827  31.702  1.00  0.00     0.074 A 
ATOM     37  C   UNL A   1      38.424  31.055  30.065  1.00  0.00     0.049 A 
ATOM     38  N   UNL A   1      40.103  32.398  32.166  1.00  0.00    -0.248 NA
ATOM     39  C   UNL A   1      38.508  34.101  32.286  1.00  0.00     0.031 C 
ATOM     40  C   UNL A   1      37.664  30.373  29.014  1.00  0.00     0.029 A 
ATOM     41  N   UNL A   1      39.520  30.253  30.253  1.00  0.00    -0.354 N 
ATOM     42  C   UNL A   1      40.520  33.354  33.083  1.00  0.00     0.074 A 
ATOM     43  C   UNL A   1      39.527  34.406  33.079  1.00  0.00     0.031 C 
ATOM     44  C   UNL A   1      38.303  29.244  28.671  1.00  0.00     0.029 A 
ATOM     45  C   UNL A   1      39.538  29.146  29.441  1.00  0.00     0.049 A 
ATOM     46  H   UNL A   1      40.228  30.453  30.909  1.00  0.00     0.167 HD
ATOM     47  C   UNL A   1      41.625  33.350  33.867  1.00  0.00     0.031 A 
ATOM     48  C   UNL A   1      40.453  28.166  29.318  1.00  0.00     0.031 A 
ATOM     49  C   UNL A   1      42.611  32.301  33.870  1.00  0.00     0.049 A 
ATOM     50  C   UNL A   1      41.687  28.205  30.174  1.00  0.00     0.074 A 
ATOM     51  C   UNL A   1      43.731  32.175  34.673  1.00  0.00     0.029 A 
ATOM     52  N   UNL A   1      42.601  31.205  33.021  1.00  0.00    -0.354 N 
ATOM     53  N   UNL A   1      42.031  29.078  31.089  1.00  0.00    -0.248 NA
ATOM     54  C   UNL A   1      42.659  27.119  29.979  1.00  0.00     0.031 C 
ATOM     55  C   UNL A   1      44.432  31.032  34.269  1.00  0.00     0.029 A 
ATOM     56  C   UNL A   1      43.716  30.416  33.255  1.00  0.00     0.049 A 
ATOM     57  H   UNL A   1      41.904  31.015  32.352  1.00  0.00     0.167 HD
ATOM     58  C   UNL A   1      43.248  28.639  31.593  1.00  0.00     0.074 A 
ATOM     59  C   UNL A   1      43.570  27.409  30.897  1.00  0.00     0.031 C 
ATOM     60  C   UNL A   1      44.030  29.204  32.544  1.00  0.00     0.031 A 
BRANCH  47  61
ATOM     61  C   UNL A   1      41.832  34.526  34.781  1.00  0.00    -0.014 A 
ATOM     62  C   UNL A   1      41.305  34.540  36.082  1.00  0.00     0.009 A 
ATOM     63  C   UNL A   1      42.601  35.618  34.348  1.00  0.00     0.009 A 
ATOM     64  C   UNL A   1      41.514  35.639  36.919  1.00  0.00     0.001 A 
ATOM     65  C   UNL A   1      42.833  36.702  35.197  1.00  0.00     0.001 A 
ATOM     66  C   UNL A   1      42.282  36.716  36.478  1.00  0.00     0.000 A 
ENDBRANCH  47  61
BRANCH  48  67
ATOM     67  C   UNL A   1      40.235  27.062  28.347  1.00  0.00    -0.014 A 
ATOM     68  C   UNL A   1      39.499  25.927  28.716  1.00  0.00     0.009 A 
ATOM     69  C   UNL A   1      40.766  27.137  27.050  1.00  0.00     0.009 A 
ATOM     70  C   UNL A   1      39.317  24.878  27.812  1.00  0.00     0.001 A 
ATOM     71  C   UNL A   1      40.557  26.099  26.138  1.00  0.00     0.001 A 
ATOM     72  C   UNL A   1      39.841  24.967  26.523  1.00  0.00     0.000 A 
ENDBRANCH  48  67
BRANCH  60  73
ATOM     73  C   UNL A   1      45.304  28.489  32.896  1.00  0.00    -0.014 A 
ATOM     74  C   UNL A   1      46.511  28.798  32.250  1.00  0.00     0.009 A 
ATOM     75  C   UNL A   1      45.303  27.520  33.910  1.00  0.00     0.009 A 
ATOM     76  C   UNL A   1      47.686  28.125  32.591  1.00  0.00     0.001 A 
ATOM     77  C   UNL A   1      46.484  26.870  34.270  1.00  0.00     0.001 A 
ATOM     78  C   UNL A   1      47.672  27.167  33.604  1.00  0.00     0.000 A 
ENDBRANCH  60  73
ENDBRANCH  34  35
ENDBRANCH  26  29
ENDBRANCH  24  25
ENDBRANCH  23  24
ENDBRANCH   1  23
TORSDOF 13
ENDMDL
