MODEL 1
REMARK VINA RESULT:     -11.8      0.000      0.000
REMARK SMILES O=CN1CC[NH+](C[C@@H](CC(=O)Nc2ccc(C(F)(F)F)nc2)C(=O)NCCCNC(=O)c2ccc(-c3c4nc(c(-c5ccccc5)c5ccc([nH]5)c(-c5ccccc5)c5nc(c(-c6ccccc6)c6ccc3[nH]6)C=C5)C=C4)cc2)CC1
REMARK SMILES IDX 26 1 25 2 23 3 24 4 8 6 7 7 6 8 1 9 2 10 3 11 4 12 81 13
REMARK SMILES IDX 5 14 80 15 9 17 10 18 11 19 12 20 13 22 14 23 22 24 15 25
REMARK SMILES IDX 21 26 16 27 17 28 18 29 19 30 20 31 27 32 28 33 29 34 30 35
REMARK SMILES IDX 31 37 32 38 33 39 79 40 34 41 78 42 35 43 36 44 37 45 72 46
REMARK SMILES IDX 38 47 77 48 71 49 73 50 39 51 76 52 70 53 69 54 40 56 62 57
REMARK SMILES IDX 47 58 61 59 48 60 51 61 60 62 74 63 49 64 50 65 59 67 75 68
REMARK SMILES IDX 52 69 41 70 42 71 46 72 43 73 45 74 44 75 63 76 64 77 68 78
REMARK SMILES IDX 65 79 67 80 66 81 53 82 54 83 58 84 55 85 57 86 56 87
REMARK H PARENT 25 5 6 16 12 21 29 36 73 55 51 66
REMARK Flexibility Score: inf
ROOT
ATOM      1  C   UNL A   1      35.718  21.313  25.650  1.00  0.00     0.117 C 
ENDROOT
BRANCH   1   2
ATOM      2  N   UNL A   1      34.534  20.518  25.763  1.00  0.00    -0.356 N 
ATOM      3  C   UNL A   1      33.262  20.951  25.528  1.00  0.00     0.229 C 
ATOM      4  O   UNL A   1      32.365  20.103  25.536  1.00  0.00    -0.275 OA
ATOM      5  H   UNL A   1      34.646  19.577  26.033  1.00  0.00     0.163 HD
BRANCH   3   6
ATOM      6  C   UNL A   1      32.915  22.456  25.374  1.00  0.00     0.142 C 
BRANCH   6   7
ATOM      7  C   UNL A   1      32.654  22.715  23.883  1.00  0.00     0.276 C 
BRANCH   7   8
ATOM      8  N   UNL A   1      33.660  23.185  22.920  1.00  0.00    -0.331 N 
ATOM      9  O   UNL A   1      34.025  28.290  23.000  1.00  0.00    -0.279 OA
ATOM     10  C   UNL A   1      33.519  27.438  22.278  1.00  0.00     0.340 C 
ATOM     11  N   UNL A   1      33.557  26.080  22.492  1.00  0.00    -0.334 N 
ATOM     12  C   UNL A   1      32.713  25.201  21.705  1.00  0.00     0.180 C 
ATOM     13  C   UNL A   1      34.141  25.536  23.717  1.00  0.00     0.180 C 
ATOM     14  C   UNL A   1      33.249  23.766  21.640  1.00  0.00     0.284 C 
ATOM     15  C   UNL A   1      34.655  24.092  23.540  1.00  0.00     0.284 C 
ATOM     16  H   UNL A   1      34.048  22.279  22.657  1.00  0.00     0.348 HD
ENDBRANCH   7   8
ENDBRANCH   6   7
BRANCH   6  17
ATOM     17  C   UNL A   1      32.119  23.088  26.528  1.00  0.00     0.119 C 
BRANCH  17  18
ATOM     18  C   UNL A   1      30.640  23.478  26.742  1.00  0.00     0.225 C 
ATOM     19  O   UNL A   1      29.972  22.686  27.432  1.00  0.00    -0.275 OA
ATOM     20  N   UNL A   1      29.961  24.604  26.420  1.00  0.00    -0.325 N 
ATOM     21  H   UNL A   1      29.070  24.626  26.838  1.00  0.00     0.169 HD
BRANCH  20  22
ATOM     22  C   UNL A   1      30.201  25.744  25.647  1.00  0.00     0.059 A 
ATOM     23  C   UNL A   1      31.084  26.759  25.975  1.00  0.00     0.030 A 
ATOM     24  C   UNL A   1      29.592  25.835  24.401  1.00  0.00     0.137 A 
ATOM     25  C   UNL A   1      31.152  27.910  25.185  1.00  0.00     0.035 A 
ATOM     26  N   UNL A   1      29.626  26.934  23.612  1.00  0.00    -0.250 NA
ATOM     27  C   UNL A   1      30.343  28.005  24.057  1.00  0.00     0.144 A 
BRANCH  27  28
ATOM     28  C   UNL A   1      30.233  29.341  23.335  1.00  0.00     0.433 C 
ATOM     29  F   UNL A   1      30.492  30.406  24.145  1.00  0.00    -0.165 F 
ATOM     30  F   UNL A   1      31.073  29.460  22.268  1.00  0.00    -0.165 F 
ATOM     31  F   UNL A   1      28.980  29.563  22.832  1.00  0.00    -0.165 F 
ENDBRANCH  27  28
ENDBRANCH  20  22
ENDBRANCH  17  18
ENDBRANCH   6  17
ENDBRANCH   3   6
ENDBRANCH   1   2
BRANCH   1  32
ATOM     32  C   UNL A   1      36.894  20.708  24.935  1.00  0.00     0.042 C 
BRANCH  32  33
ATOM     33  C   UNL A   1      38.209  21.054  25.585  1.00  0.00     0.118 C 
BRANCH  33  34
ATOM     34  N   UNL A   1      39.158  19.941  25.587  1.00  0.00    -0.352 N 
ATOM     35  C   UNL A   1      40.486  19.879  25.942  1.00  0.00     0.251 C 
ATOM     36  H   UNL A   1      38.779  19.085  25.282  1.00  0.00     0.163 HD
ATOM     37  O   UNL A   1      41.128  18.853  25.738  1.00  0.00    -0.269 OA
BRANCH  35  38
ATOM     38  C   UNL A   1      41.154  21.061  26.525  1.00  0.00     0.039 A 
ATOM     39  C   UNL A   1      41.733  22.014  25.682  1.00  0.00     0.014 A 
ATOM     40  C   UNL A   1      41.170  21.253  27.902  1.00  0.00     0.014 A 
ATOM     41  C   UNL A   1      42.221  23.205  26.224  1.00  0.00     0.010 A 
ATOM     42  C   UNL A   1      41.490  22.498  28.416  1.00  0.00     0.010 A 
ATOM     43  C   UNL A   1      42.045  23.482  27.588  1.00  0.00    -0.014 A 
BRANCH  43  44
ATOM     44  C   UNL A   1      42.463  24.766  28.203  1.00  0.00     0.031 A 
ATOM     45  C   UNL A   1      41.441  25.852  28.418  1.00  0.00     0.074 A 
ATOM     46  C   UNL A   1      43.763  24.995  28.474  1.00  0.00     0.049 A 
ATOM     47  N   UNL A   1      41.615  27.087  28.811  1.00  0.00    -0.248 NA
ATOM     48  C   UNL A   1      40.038  25.521  28.102  1.00  0.00     0.031 C 
ATOM     49  C   UNL A   1      44.860  24.044  28.264  1.00  0.00     0.029 A 
ATOM     50  N   UNL A   1      44.385  26.108  28.979  1.00  0.00    -0.354 N 
ATOM     51  C   UNL A   1      40.361  27.680  28.753  1.00  0.00     0.074 A 
ATOM     52  C   UNL A   1      39.447  26.698  28.219  1.00  0.00     0.031 C 
ATOM     53  C   UNL A   1      46.010  24.602  28.675  1.00  0.00     0.029 A 
ATOM     54  C   UNL A   1      45.744  25.964  29.124  1.00  0.00     0.049 A 
ATOM     55  H   UNL A   1      43.903  26.933  29.216  1.00  0.00     0.167 HD
ATOM     56  C   UNL A   1      39.990  28.923  29.140  1.00  0.00     0.031 A 
ATOM     57  C   UNL A   1      46.673  26.835  29.560  1.00  0.00     0.031 A 
ATOM     58  C   UNL A   1      40.893  29.885  29.705  1.00  0.00     0.049 A 
ATOM     59  C   UNL A   1      46.239  28.212  29.983  1.00  0.00     0.074 A 
ATOM     60  C   UNL A   1      40.609  31.146  30.197  1.00  0.00     0.029 A 
ATOM     61  N   UNL A   1      42.257  29.689  29.855  1.00  0.00    -0.354 N 
ATOM     62  N   UNL A   1      45.036  28.733  29.989  1.00  0.00    -0.248 NA
ATOM     63  C   UNL A   1      47.290  29.118  30.465  1.00  0.00     0.031 C 
ATOM     64  C   UNL A   1      41.813  31.737  30.592  1.00  0.00     0.029 A 
ATOM     65  C   UNL A   1      42.835  30.817  30.407  1.00  0.00     0.049 A 
ATOM     66  H   UNL A   1      42.741  28.869  29.605  1.00  0.00     0.167 HD
ATOM     67  C   UNL A   1      45.180  30.014  30.507  1.00  0.00     0.074 A 
ATOM     68  C   UNL A   1      46.585  30.185  30.813  1.00  0.00     0.031 C 
ATOM     69  C   UNL A   1      44.234  30.964  30.711  1.00  0.00     0.031 A 
BRANCH  56  70
ATOM     70  C   UNL A   1      38.546  29.303  28.963  1.00  0.00    -0.014 A 
ATOM     71  C   UNL A   1      38.055  29.764  27.731  1.00  0.00     0.009 A 
ATOM     72  C   UNL A   1      37.655  29.177  30.041  1.00  0.00     0.009 A 
ATOM     73  C   UNL A   1      36.715  30.133  27.594  1.00  0.00     0.001 A 
ATOM     74  C   UNL A   1      36.308  29.512  29.891  1.00  0.00     0.001 A 
ATOM     75  C   UNL A   1      35.842  30.001  28.672  1.00  0.00     0.000 A 
ENDBRANCH  56  70
BRANCH  57  76
ATOM     76  C   UNL A   1      48.102  26.431  29.636  1.00  0.00    -0.014 A 
ATOM     77  C   UNL A   1      48.969  26.670  28.557  1.00  0.00     0.009 A 
ATOM     78  C   UNL A   1      48.610  25.799  30.783  1.00  0.00     0.009 A 
ATOM     79  C   UNL A   1      50.303  26.259  28.614  1.00  0.00     0.001 A 
ATOM     80  C   UNL A   1      49.952  25.418  30.849  1.00  0.00     0.001 A 
ATOM     81  C   UNL A   1      50.794  25.638  29.761  1.00  0.00     0.000 A 
ENDBRANCH  57  76
BRANCH  69  82
ATOM     82  C   UNL A   1      44.676  32.257  31.335  1.00  0.00    -0.014 A 
ATOM     83  C   UNL A   1      44.664  32.440  32.725  1.00  0.00     0.009 A 
ATOM     84  C   UNL A   1      45.175  33.282  30.515  1.00  0.00     0.009 A 
ATOM     85  C   UNL A   1      45.118  33.638  33.281  1.00  0.00     0.001 A 
ATOM     86  C   UNL A   1      45.658  34.465  31.076  1.00  0.00     0.001 A 
ATOM     87  C   UNL A   1      45.621  34.645  32.457  1.00  0.00     0.000 A 
ENDBRANCH  69  82
ENDBRANCH  43  44
ENDBRANCH  35  38
ENDBRANCH  33  34
ENDBRANCH  32  33
ENDBRANCH   1  32
TORSDOF 16
ENDMDL
MODEL 2
REMARK VINA RESULT:     -11.8      2.477      7.116
REMARK SMILES O=CN1CC[NH+](C[C@@H](CC(=O)Nc2ccc(C(F)(F)F)nc2)C(=O)NCCCNC(=O)c2ccc(-c3c4nc(c(-c5ccccc5)c5ccc([nH]5)c(-c5ccccc5)c5nc(c(-c6ccccc6)c6ccc3[nH]6)C=C5)C=C4)cc2)CC1
REMARK SMILES IDX 26 1 25 2 23 3 24 4 8 6 7 7 6 8 1 9 2 10 3 11 4 12 81 13
REMARK SMILES IDX 5 14 80 15 9 17 10 18 11 19 12 20 13 22 14 23 22 24 15 25
REMARK SMILES IDX 21 26 16 27 17 28 18 29 19 30 20 31 27 32 28 33 29 34 30 35
REMARK SMILES IDX 31 37 32 38 33 39 79 40 34 41 78 42 35 43 36 44 37 45 72 46
REMARK SMILES IDX 38 47 77 48 71 49 73 50 39 51 76 52 70 53 69 54 40 56 62 57
REMARK SMILES IDX 47 58 61 59 48 60 51 61 60 62 74 63 49 64 50 65 59 67 75 68
REMARK SMILES IDX 52 69 41 70 42 71 46 72 43 73 45 74 44 75 63 76 64 77 68 78
REMARK SMILES IDX 65 79 67 80 66 81 53 82 54 83 58 84 55 85 57 86 56 87
REMARK H PARENT 25 5 6 16 12 21 29 36 73 55 51 66
REMARK Flexibility Score: inf
ROOT
ATOM      1  C   UNL A   1      35.371  24.856  25.394  1.00  0.00     0.117 C 
ENDROOT
BRANCH   1   2
ATOM      2  N   UNL A   1      33.949  24.821  25.545  1.00  0.00    -0.356 N 
ATOM      3  C   UNL A   1      33.082  24.148  24.735  1.00  0.00     0.229 C 
ATOM      4  O   UNL A   1      31.898  24.108  25.083  1.00  0.00    -0.275 OA
ATOM      5  H   UNL A   1      33.563  25.328  26.296  1.00  0.00     0.163 HD
BRANCH   3   6
ATOM      6  C   UNL A   1      33.517  23.551  23.371  1.00  0.00     0.142 C 
BRANCH   6   7
ATOM      7  C   UNL A   1      33.783  22.054  23.590  1.00  0.00     0.276 C 
BRANCH   7   8
ATOM      8  N   UNL A   1      33.322  21.277  24.750  1.00  0.00    -0.331 N 
ATOM      9  O   UNL A   1      34.801  16.390  24.384  1.00  0.00    -0.279 OA
ATOM     10  C   UNL A   1      33.768  17.030  24.217  1.00  0.00     0.340 C 
ATOM     11  N   UNL A   1      33.631  18.389  24.378  1.00  0.00    -0.334 N 
ATOM     12  C   UNL A   1      32.431  19.054  23.911  1.00  0.00     0.180 C 
ATOM     13  C   UNL A   1      34.796  19.224  24.670  1.00  0.00     0.180 C 
ATOM     14  C   UNL A   1      32.168  20.381  24.633  1.00  0.00     0.284 C 
ATOM     15  C   UNL A   1      34.422  20.529  25.404  1.00  0.00     0.284 C 
ATOM     16  H   UNL A   1      32.967  22.049  25.314  1.00  0.00     0.348 HD
ENDBRANCH   7   8
ENDBRANCH   6   7
BRANCH   6  17
ATOM     17  C   UNL A   1      32.843  24.150  22.125  1.00  0.00     0.119 C 
BRANCH  17  18
ATOM     18  C   UNL A   1      32.930  25.505  21.389  1.00  0.00     0.225 C 
ATOM     19  O   UNL A   1      33.032  25.436  20.149  1.00  0.00    -0.275 OA
ATOM     20  N   UNL A   1      32.785  26.773  21.839  1.00  0.00    -0.325 N 
ATOM     21  H   UNL A   1      32.727  27.420  21.099  1.00  0.00     0.169 HD
BRANCH  20  22
ATOM     22  C   UNL A   1      32.694  27.401  23.085  1.00  0.00     0.059 A 
ATOM     23  C   UNL A   1      33.733  28.057  23.725  1.00  0.00     0.030 A 
ATOM     24  C   UNL A   1      31.449  27.474  23.697  1.00  0.00     0.137 A 
ATOM     25  C   UNL A   1      33.559  28.544  25.023  1.00  0.00     0.035 A 
ATOM     26  N   UNL A   1      31.241  27.928  24.955  1.00  0.00    -0.250 NA
ATOM     27  C   UNL A   1      32.324  28.384  25.646  1.00  0.00     0.144 A 
BRANCH  27  28
ATOM     28  C   UNL A   1      32.200  28.689  27.132  1.00  0.00     0.433 C 
ATOM     29  F   UNL A   1      32.026  30.016  27.390  1.00  0.00    -0.165 F 
ATOM     30  F   UNL A   1      31.165  28.043  27.741  1.00  0.00    -0.165 F 
ATOM     31  F   UNL A   1      33.315  28.325  27.837  1.00  0.00    -0.165 F 
ENDBRANCH  27  28
ENDBRANCH  20  22
ENDBRANCH  17  18
ENDBRANCH   6  17
ENDBRANCH   3   6
ENDBRANCH   1   2
BRANCH   1  32
ATOM     32  C   UNL A   1      36.148  23.658  25.866  1.00  0.00     0.042 C 
BRANCH  32  33
ATOM     33  C   UNL A   1      37.220  23.241  24.892  1.00  0.00     0.118 C 
BRANCH  33  34
ATOM     34  N   UNL A   1      38.258  22.411  25.502  1.00  0.00    -0.352 N 
ATOM     35  C   UNL A   1      39.300  22.730  26.345  1.00  0.00     0.251 C 
ATOM     36  H   UNL A   1      38.202  21.456  25.271  1.00  0.00     0.163 HD
ATOM     37  O   UNL A   1      40.137  21.881  26.632  1.00  0.00    -0.269 OA
BRANCH  35  38
ATOM     38  C   UNL A   1      39.438  24.106  26.864  1.00  0.00     0.039 A 
ATOM     39  C   UNL A   1      38.997  24.405  28.156  1.00  0.00     0.014 A 
ATOM     40  C   UNL A   1      40.045  25.092  26.094  1.00  0.00     0.014 A 
ATOM     41  C   UNL A   1      39.272  25.660  28.703  1.00  0.00     0.010 A 
ATOM     42  C   UNL A   1      40.470  26.264  26.694  1.00  0.00     0.010 A 
ATOM     43  C   UNL A   1      40.067  26.577  27.998  1.00  0.00    -0.014 A 
BRANCH  43  44
ATOM     44  C   UNL A   1      40.465  27.889  28.564  1.00  0.00     0.031 A 
ATOM     45  C   UNL A   1      41.873  28.083  29.066  1.00  0.00     0.074 A 
ATOM     46  C   UNL A   1      39.549  28.866  28.717  1.00  0.00     0.049 A 
ATOM     47  N   UNL A   1      42.388  29.095  29.714  1.00  0.00    -0.248 NA
ATOM     48  C   UNL A   1      42.816  26.968  28.855  1.00  0.00     0.031 C 
ATOM     49  C   UNL A   1      38.140  28.786  28.319  1.00  0.00     0.029 A 
ATOM     50  N   UNL A   1      39.667  30.120  29.261  1.00  0.00    -0.354 N 
ATOM     51  C   UNL A   1      43.692  28.723  30.015  1.00  0.00     0.074 A 
ATOM     52  C   UNL A   1      43.869  27.368  29.547  1.00  0.00     0.031 C 
ATOM     53  C   UNL A   1      37.539  29.954  28.595  1.00  0.00     0.029 A 
ATOM     54  C   UNL A   1      38.499  30.844  29.239  1.00  0.00     0.049 A 
ATOM     55  H   UNL A   1      40.510  30.468  29.631  1.00  0.00     0.167 HD
ATOM     56  C   UNL A   1      44.670  29.452  30.601  1.00  0.00     0.031 A 
ATOM     57  C   UNL A   1      38.230  32.081  29.696  1.00  0.00     0.031 A 
ATOM     58  C   UNL A   1      44.501  30.811  31.033  1.00  0.00     0.049 A 
ATOM     59  C   UNL A   1      39.331  32.873  30.345  1.00  0.00     0.074 A 
ATOM     60  C   UNL A   1      45.446  31.666  31.571  1.00  0.00     0.029 A 
ATOM     61  N   UNL A   1      43.308  31.514  30.970  1.00  0.00    -0.354 N 
ATOM     62  N   UNL A   1      40.580  32.532  30.558  1.00  0.00    -0.248 NA
ATOM     63  C   UNL A   1      38.988  34.224  30.812  1.00  0.00     0.031 C 
ATOM     64  C   UNL A   1      44.808  32.869  31.890  1.00  0.00     0.029 A 
ATOM     65  C   UNL A   1      43.484  32.784  31.486  1.00  0.00     0.049 A 
ATOM     66  H   UNL A   1      42.462  31.160  30.612  1.00  0.00     0.167 HD
ATOM     67  C   UNL A   1      41.179  33.637  31.150  1.00  0.00     0.074 A 
ATOM     68  C   UNL A   1      40.160  34.660  31.253  1.00  0.00     0.031 C 
ATOM     69  C   UNL A   1      42.458  33.790  31.572  1.00  0.00     0.031 A 
BRANCH  56  70
ATOM     70  C   UNL A   1      46.004  28.789  30.804  1.00  0.00    -0.014 A 
ATOM     71  C   UNL A   1      47.010  28.853  29.826  1.00  0.00     0.009 A 
ATOM     72  C   UNL A   1      46.268  28.107  32.002  1.00  0.00     0.009 A 
ATOM     73  C   UNL A   1      48.235  28.211  30.025  1.00  0.00     0.001 A 
ATOM     74  C   UNL A   1      47.506  27.498  32.213  1.00  0.00     0.001 A 
ATOM     75  C   UNL A   1      48.483  27.540  31.220  1.00  0.00     0.000 A 
ENDBRANCH  56  70
BRANCH  57  76
ATOM     76  C   UNL A   1      36.867  32.656  29.542  1.00  0.00    -0.014 A 
ATOM     77  C   UNL A   1      36.508  33.336  28.367  1.00  0.00     0.009 A 
ATOM     78  C   UNL A   1      35.917  32.534  30.569  1.00  0.00     0.009 A 
ATOM     79  C   UNL A   1      35.240  33.906  28.236  1.00  0.00     0.001 A 
ATOM     80  C   UNL A   1      34.638  33.077  30.422  1.00  0.00     0.001 A 
ATOM     81  C   UNL A   1      34.305  33.772  29.261  1.00  0.00     0.000 A 
ENDBRANCH  57  76
BRANCH  69  82
ATOM     82  C   UNL A   1      42.843  35.125  32.141  1.00  0.00    -0.014 A 
ATOM     83  C   UNL A   1      42.633  35.433  33.494  1.00  0.00     0.009 A 
ATOM     84  C   UNL A   1      43.488  36.065  31.320  1.00  0.00     0.009 A 
ATOM     85  C   UNL A   1      43.037  36.667  34.006  1.00  0.00     0.001 A 
ATOM     86  C   UNL A   1      43.919  37.284  31.843  1.00  0.00     0.001 A 
ATOM     87  C   UNL A   1      43.685  37.588  33.182  1.00  0.00     0.000 A 
ENDBRANCH  69  82
ENDBRANCH  43  44
ENDBRANCH  35  38
ENDBRANCH  33  34
ENDBRANCH  32  33
ENDBRANCH   1  32
TORSDOF 16
ENDMDL
MODEL 3
REMARK VINA RESULT:     -11.7      3.388      4.764
REMARK SMILES O=CN1CC[NH+](C[C@@H](CC(=O)Nc2ccc(C(F)(F)F)nc2)C(=O)NCCCNC(=O)c2ccc(-c3c4nc(c(-c5ccccc5)c5ccc([nH]5)c(-c5ccccc5)c5nc(c(-c6ccccc6)c6ccc3[nH]6)C=C5)C=C4)cc2)CC1
REMARK SMILES IDX 26 1 25 2 23 3 24 4 8 6 7 7 6 8 1 9 2 10 3 11 4 12 81 13
REMARK SMILES IDX 5 14 80 15 9 17 10 18 11 19 12 20 13 22 14 23 22 24 15 25
REMARK SMILES IDX 21 26 16 27 17 28 18 29 19 30 20 31 27 32 28 33 29 34 30 35
REMARK SMILES IDX 31 37 32 38 33 39 79 40 34 41 78 42 35 43 36 44 37 45 72 46
REMARK SMILES IDX 38 47 77 48 71 49 73 50 39 51 76 52 70 53 69 54 40 56 62 57
REMARK SMILES IDX 47 58 61 59 48 60 51 61 60 62 74 63 49 64 50 65 59 67 75 68
REMARK SMILES IDX 52 69 41 70 42 71 46 72 43 73 45 74 44 75 63 76 64 77 68 78
REMARK SMILES IDX 65 79 67 80 66 81 53 82 54 83 58 84 55 85 57 86 56 87
REMARK H PARENT 25 5 6 16 12 21 29 36 73 55 51 66
REMARK Flexibility Score: inf
ROOT
ATOM      1  C   UNL A   1      35.794  23.254  23.828  1.00  0.00     0.117 C 
ENDROOT
BRANCH   1   2
ATOM      2  N   UNL A   1      34.624  23.654  23.110  1.00  0.00    -0.356 N 
ATOM      3  C   UNL A   1      33.735  24.609  23.510  1.00  0.00     0.229 C 
ATOM      4  O   UNL A   1      32.853  24.931  22.709  1.00  0.00    -0.275 OA
ATOM      5  H   UNL A   1      34.444  23.202  22.253  1.00  0.00     0.163 HD
BRANCH   3   6
ATOM      6  C   UNL A   1      33.738  25.192  24.948  1.00  0.00     0.142 C 
BRANCH   6   7
ATOM      7  C   UNL A   1      33.165  26.615  24.865  1.00  0.00     0.276 C 
BRANCH   7   8
ATOM      8  N   UNL A   1      31.907  27.054  25.486  1.00  0.00    -0.331 N 
ATOM      9  O   UNL A   1      28.800  29.175  22.014  1.00  0.00    -0.279 OA
ATOM     10  C   UNL A   1      29.545  29.563  22.907  1.00  0.00     0.340 C 
ATOM     11  N   UNL A   1      30.307  28.759  23.722  1.00  0.00    -0.334 N 
ATOM     12  C   UNL A   1      31.329  29.347  24.566  1.00  0.00     0.180 C 
ATOM     13  C   UNL A   1      30.366  27.315  23.498  1.00  0.00     0.180 C 
ATOM     14  C   UNL A   1      31.677  28.472  25.775  1.00  0.00     0.284 C 
ATOM     15  C   UNL A   1      30.715  26.529  24.779  1.00  0.00     0.284 C 
ATOM     16  H   UNL A   1      32.044  26.641  26.408  1.00  0.00     0.348 HD
ENDBRANCH   7   8
ENDBRANCH   6   7
BRANCH   6  17
ATOM     17  C   UNL A   1      33.453  24.194  26.083  1.00  0.00     0.119 C 
BRANCH  17  18
ATOM     18  C   UNL A   1      32.215  23.392  26.538  1.00  0.00     0.225 C 
ATOM     19  O   UNL A   1      31.462  23.977  27.339  1.00  0.00    -0.275 OA
ATOM     20  N   UNL A   1      31.722  22.202  26.118  1.00  0.00    -0.325 N 
ATOM     21  H   UNL A   1      30.821  22.032  26.480  1.00  0.00     0.169 HD
BRANCH  20  22
ATOM     22  C   UNL A   1      32.162  21.155  25.305  1.00  0.00     0.059 A 
ATOM     23  C   UNL A   1      32.108  21.143  23.921  1.00  0.00     0.030 A 
ATOM     24  C   UNL A   1      32.800  20.076  25.907  1.00  0.00     0.137 A 
ATOM     25  C   UNL A   1      32.466  19.990  23.217  1.00  0.00     0.035 A 
ATOM     26  N   UNL A   1      33.153  18.940  25.262  1.00  0.00    -0.250 NA
ATOM     27  C   UNL A   1      32.901  18.873  23.924  1.00  0.00     0.144 A 
BRANCH  27  28
ATOM     28  C   UNL A   1      33.058  17.548  23.191  1.00  0.00     0.433 C 
ATOM     29  F   UNL A   1      34.307  17.370  22.674  1.00  0.00    -0.165 F 
ATOM     30  F   UNL A   1      32.809  16.456  23.969  1.00  0.00    -0.165 F 
ATOM     31  F   UNL A   1      32.205  17.433  22.127  1.00  0.00    -0.165 F 
ENDBRANCH  27  28
ENDBRANCH  20  22
ENDBRANCH  17  18
ENDBRANCH   6  17
ENDBRANCH   3   6
ENDBRANCH   1   2
BRANCH   1  32
ATOM     32  C   UNL A   1      35.841  21.844  24.348  1.00  0.00     0.042 C 
BRANCH  32  33
ATOM     33  C   UNL A   1      36.562  21.734  25.666  1.00  0.00     0.118 C 
BRANCH  33  34
ATOM     34  N   UNL A   1      37.618  20.723  25.660  1.00  0.00    -0.352 N 
ATOM     35  C   UNL A   1      38.957  20.803  25.975  1.00  0.00     0.251 C 
ATOM     36  H   UNL A   1      37.320  19.827  25.384  1.00  0.00     0.163 HD
ATOM     37  O   UNL A   1      39.693  19.844  25.770  1.00  0.00    -0.269 OA
BRANCH  35  38
ATOM     38  C   UNL A   1      39.518  22.060  26.513  1.00  0.00     0.039 A 
ATOM     39  C   UNL A   1      40.623  22.013  27.368  1.00  0.00     0.014 A 
ATOM     40  C   UNL A   1      38.982  23.287  26.139  1.00  0.00     0.014 A 
ATOM     41  C   UNL A   1      41.248  23.203  27.747  1.00  0.00     0.010 A 
ATOM     42  C   UNL A   1      39.701  24.447  26.369  1.00  0.00     0.010 A 
ATOM     43  C   UNL A   1      40.830  24.425  27.198  1.00  0.00    -0.014 A 
BRANCH  43  44
ATOM     44  C   UNL A   1      41.511  25.709  27.495  1.00  0.00     0.031 A 
ATOM     45  C   UNL A   1      40.823  26.729  28.364  1.00  0.00     0.074 A 
ATOM     46  C   UNL A   1      42.692  25.999  26.912  1.00  0.00     0.049 A 
ATOM     47  N   UNL A   1      41.177  27.958  28.636  1.00  0.00    -0.248 NA
ATOM     48  C   UNL A   1      39.537  26.332  28.969  1.00  0.00     0.031 C 
ATOM     49  C   UNL A   1      43.438  25.118  26.010  1.00  0.00     0.029 A 
ATOM     50  N   UNL A   1      43.468  27.127  26.987  1.00  0.00    -0.354 N 
ATOM     51  C   UNL A   1      40.148  28.483  29.407  1.00  0.00     0.074 A 
ATOM     52  C   UNL A   1      39.123  27.471  29.498  1.00  0.00     0.031 C 
ATOM     53  C   UNL A   1      44.581  25.723  25.649  1.00  0.00     0.029 A 
ATOM     54  C   UNL A   1      44.624  27.053  26.247  1.00  0.00     0.049 A 
ATOM     55  H   UNL A   1      43.221  27.916  27.522  1.00  0.00     0.167 HD
ATOM     56  C   UNL A   1      40.072  29.690  30.014  1.00  0.00     0.031 A 
ATOM     57  C   UNL A   1      45.602  27.959  26.063  1.00  0.00     0.031 A 
ATOM     58  C   UNL A   1      41.109  30.682  29.952  1.00  0.00     0.049 A 
ATOM     59  C   UNL A   1      45.496  29.294  26.745  1.00  0.00     0.074 A 
ATOM     60  C   UNL A   1      41.166  31.908  30.589  1.00  0.00     0.029 A 
ATOM     61  N   UNL A   1      42.273  30.555  29.209  1.00  0.00    -0.354 N 
ATOM     62  N   UNL A   1      44.548  29.749  27.529  1.00  0.00    -0.248 NA
ATOM     63  C   UNL A   1      46.599  30.241  26.523  1.00  0.00     0.031 C 
ATOM     64  C   UNL A   1      42.340  32.550  30.184  1.00  0.00     0.029 A 
ATOM     65  C   UNL A   1      43.044  31.694  29.350  1.00  0.00     0.049 A 
ATOM     66  H   UNL A   1      42.514  29.772  28.664  1.00  0.00     0.167 HD
ATOM     67  C   UNL A   1      44.956  31.018  27.921  1.00  0.00     0.074 A 
ATOM     68  C   UNL A   1      46.241  31.255  27.297  1.00  0.00     0.031 C 
ATOM     69  C   UNL A   1      44.324  31.907  28.725  1.00  0.00     0.031 A 
BRANCH  56  70
ATOM     70  C   UNL A   1      38.825  29.997  30.797  1.00  0.00    -0.014 A 
ATOM     71  C   UNL A   1      37.718  30.621  30.198  1.00  0.00     0.009 A 
ATOM     72  C   UNL A   1      38.746  29.636  32.151  1.00  0.00     0.009 A 
ATOM     73  C   UNL A   1      36.578  30.916  30.948  1.00  0.00     0.001 A 
ATOM     74  C   UNL A   1      37.591  29.900  32.889  1.00  0.00     0.001 A 
ATOM     75  C   UNL A   1      36.514  30.550  32.291  1.00  0.00     0.000 A 
ENDBRANCH  56  70
BRANCH  57  76
ATOM     76  C   UNL A   1      46.775  27.631  25.209  1.00  0.00    -0.014 A 
ATOM     77  C   UNL A   1      46.793  27.993  23.852  1.00  0.00     0.009 A 
ATOM     78  C   UNL A   1      47.882  26.949  25.741  1.00  0.00     0.009 A 
ATOM     79  C   UNL A   1      47.880  27.655  23.042  1.00  0.00     0.001 A 
ATOM     80  C   UNL A   1      48.980  26.640  24.936  1.00  0.00     0.001 A 
ATOM     81  C   UNL A   1      48.973  26.983  23.585  1.00  0.00     0.000 A 
ENDBRANCH  57  76
BRANCH  69  82
ATOM     82  C   UNL A   1      45.029  33.201  29.015  1.00  0.00    -0.014 A 
ATOM     83  C   UNL A   1      44.829  34.338  28.219  1.00  0.00     0.009 A 
ATOM     84  C   UNL A   1      45.858  33.296  30.146  1.00  0.00     0.009 A 
ATOM     85  C   UNL A   1      45.466  35.540  28.535  1.00  0.00     0.001 A 
ATOM     86  C   UNL A   1      46.468  34.506  30.476  1.00  0.00     0.001 A 
ATOM     87  C   UNL A   1      46.279  35.624  29.667  1.00  0.00     0.000 A 
ENDBRANCH  69  82
ENDBRANCH  43  44
ENDBRANCH  35  38
ENDBRANCH  33  34
ENDBRANCH  32  33
ENDBRANCH   1  32
TORSDOF 16
ENDMDL
