MODEL 1
REMARK VINA RESULT:     -11.8      0.000      0.000
REMARK SMILES O=C(NCCCNC(=O)[C@@H]1CCCC[C@@H]1C(=O)Nc1cccc(C(F)(F)F)c1)c1ccc(-c2c3nc(c(-c4ccccc4)c4ccc([nH]4)c(-c4ccccc4)c4nc(c(-c5ccccc5)c5ccc2[nH]5)C=C4)C=C3)cc1
REMARK SMILES IDX 5 1 4 2 3 3 1 4 2 5 29 7 30 8 76 9 31 10 75 11 32 12 33 13
REMARK SMILES IDX 34 14 69 15 35 16 74 17 68 18 70 19 36 20 73 21 67 22 66 23
REMARK SMILES IDX 37 25 59 26 44 27 58 28 45 29 48 30 57 31 71 32 46 33 47 34
REMARK SMILES IDX 56 36 72 37 49 38 38 39 39 40 43 41 40 42 42 43 41 44 60 45
REMARK SMILES IDX 61 46 65 47 62 48 64 49 63 50 50 51 51 52 55 53 52 54 54 55
REMARK SMILES IDX 53 56 6 57 7 58 8 59 9 61 10 62 11 63 15 64 12 65 14 66
REMARK SMILES IDX 13 67 16 68 17 69 18 70 19 72 20 73 28 74 21 75 23 76 22 77
REMARK SMILES IDX 24 78 25 79 26 80 27 81
REMARK H PARENT 3 6 70 24 48 35 7 60 18 71
REMARK Flexibility Score: inf
ROOT
ATOM      1  C   UNL A   1      32.606  27.731  26.829  1.00  0.00     0.042 C 
ENDROOT
BRANCH   1   2
ATOM      2  C   UNL A   1      33.892  28.564  26.886  1.00  0.00     0.118 C 
BRANCH   2   3
ATOM      3  N   UNL A   1      33.979  29.603  27.896  1.00  0.00    -0.352 N 
ATOM      4  O   UNL A   1      34.678  31.444  28.921  1.00  0.00    -0.269 OA
ATOM      5  C   UNL A   1      35.004  30.377  28.398  1.00  0.00     0.251 C 
ATOM      6  H   UNL A   1      33.111  29.801  28.318  1.00  0.00     0.163 HD
BRANCH   5   7
ATOM      7  C   UNL A   1      36.448  29.979  28.469  1.00  0.00     0.039 A 
ATOM      8  C   UNL A   1      37.366  30.065  27.429  1.00  0.00     0.014 A 
ATOM      9  C   UNL A   1      36.888  29.403  29.683  1.00  0.00     0.014 A 
ATOM     10  C   UNL A   1      38.643  29.497  27.558  1.00  0.00     0.010 A 
ATOM     11  C   UNL A   1      38.181  28.867  29.826  1.00  0.00     0.010 A 
ATOM     12  C   UNL A   1      39.065  28.877  28.748  1.00  0.00    -0.014 A 
BRANCH  12  13
ATOM     13  C   UNL A   1      40.448  28.325  28.814  1.00  0.00     0.031 A 
ATOM     14  C   UNL A   1      40.768  26.905  28.429  1.00  0.00     0.074 A 
ATOM     15  C   UNL A   1      41.461  29.158  29.129  1.00  0.00     0.049 A 
ATOM     16  N   UNL A   1      41.938  26.367  28.173  1.00  0.00    -0.248 NA
ATOM     17  C   UNL A   1      39.645  25.965  28.326  1.00  0.00     0.031 C 
ATOM     18  C   UNL A   1      41.297  30.546  29.562  1.00  0.00     0.029 A 
ATOM     19  N   UNL A   1      42.822  28.981  29.075  1.00  0.00    -0.354 N 
ATOM     20  C   UNL A   1      41.693  25.031  27.876  1.00  0.00     0.074 A 
ATOM     21  C   UNL A   1      40.265  24.832  28.018  1.00  0.00     0.031 C 
ATOM     22  C   UNL A   1      42.505  31.122  29.645  1.00  0.00     0.029 A 
ATOM     23  C   UNL A   1      43.529  30.136  29.307  1.00  0.00     0.049 A 
ATOM     24  H   UNL A   1      43.248  28.113  28.888  1.00  0.00     0.167 HD
ATOM     25  C   UNL A   1      42.571  24.062  27.513  1.00  0.00     0.031 A 
ATOM     26  C   UNL A   1      44.848  30.394  29.230  1.00  0.00     0.031 A 
ATOM     27  C   UNL A   1      43.996  24.249  27.381  1.00  0.00     0.049 A 
ATOM     28  C   UNL A   1      45.798  29.309  28.816  1.00  0.00     0.074 A 
ATOM     29  C   UNL A   1      44.949  23.336  26.959  1.00  0.00     0.029 A 
ATOM     30  N   UNL A   1      44.675  25.418  27.684  1.00  0.00    -0.354 N 
ATOM     31  N   UNL A   1      45.538  28.080  28.443  1.00  0.00    -0.248 NA
ATOM     32  C   UNL A   1      47.227  29.655  28.801  1.00  0.00     0.031 C 
ATOM     33  C   UNL A   1      46.211  23.934  27.063  1.00  0.00     0.029 A 
ATOM     34  C   UNL A   1      46.037  25.239  27.490  1.00  0.00     0.049 A 
ATOM     35  H   UNL A   1      44.253  26.253  27.991  1.00  0.00     0.167 HD
ATOM     36  C   UNL A   1      46.767  27.512  28.129  1.00  0.00     0.074 A 
ATOM     37  C   UNL A   1      47.769  28.538  28.335  1.00  0.00     0.031 C 
ATOM     38  C   UNL A   1      47.036  26.253  27.707  1.00  0.00     0.031 A 
BRANCH  25  39
ATOM     39  C   UNL A   1      42.023  22.686  27.244  1.00  0.00    -0.014 A 
ATOM     40  C   UNL A   1      42.011  21.696  28.240  1.00  0.00     0.009 A 
ATOM     41  C   UNL A   1      41.440  22.399  25.998  1.00  0.00     0.009 A 
ATOM     42  C   UNL A   1      41.452  20.441  27.984  1.00  0.00     0.001 A 
ATOM     43  C   UNL A   1      40.860  21.152  25.754  1.00  0.00     0.001 A 
ATOM     44  C   UNL A   1      40.874  20.171  26.744  1.00  0.00     0.000 A 
ENDBRANCH  25  39
BRANCH  26  45
ATOM     45  C   UNL A   1      45.345  31.765  29.517  1.00  0.00    -0.014 A 
ATOM     46  C   UNL A   1      45.447  32.717  28.491  1.00  0.00     0.009 A 
ATOM     47  C   UNL A   1      45.709  32.129  30.822  1.00  0.00     0.009 A 
ATOM     48  C   UNL A   1      45.919  34.002  28.766  1.00  0.00     0.001 A 
ATOM     49  C   UNL A   1      46.151  33.423  31.099  1.00  0.00     0.001 A 
ATOM     50  C   UNL A   1      46.263  34.356  30.070  1.00  0.00     0.000 A 
ENDBRANCH  26  45
BRANCH  38  51
ATOM     51  C   UNL A   1      48.473  25.922  27.413  1.00  0.00    -0.014 A 
ATOM     52  C   UNL A   1      49.311  25.363  28.392  1.00  0.00     0.009 A 
ATOM     53  C   UNL A   1      48.995  26.163  26.132  1.00  0.00     0.009 A 
ATOM     54  C   UNL A   1      50.652  25.096  28.107  1.00  0.00     0.001 A 
ATOM     55  C   UNL A   1      50.329  25.868  25.842  1.00  0.00     0.001 A 
ATOM     56  C   UNL A   1      51.159  25.346  26.833  1.00  0.00     0.000 A 
ENDBRANCH  38  51
ENDBRANCH  12  13
ENDBRANCH   5   7
ENDBRANCH   2   3
ENDBRANCH   1   2
BRANCH   1  57
ATOM     57  C   UNL A   1      32.602  26.351  26.147  1.00  0.00     0.117 C 
BRANCH  57  58
ATOM     58  N   UNL A   1      33.890  25.797  25.801  1.00  0.00    -0.356 N 
ATOM     59  C   UNL A   1      34.209  24.502  25.503  1.00  0.00     0.223 C 
ATOM     60  H   UNL A   1      34.637  26.437  25.776  1.00  0.00     0.163 HD
ATOM     61  O   UNL A   1      35.402  24.207  25.565  1.00  0.00    -0.275 OA
BRANCH  59  62
ATOM     62  C   UNL A   1      33.115  23.484  25.134  1.00  0.00     0.091 C 
ATOM     63  C   UNL A   1      33.662  22.060  25.361  1.00  0.00     0.014 C 
ATOM     64  C   UNL A   1      32.527  23.705  23.717  1.00  0.00     0.091 C 
ATOM     65  C   UNL A   1      32.708  20.973  24.890  1.00  0.00     0.001 C 
ATOM     66  C   UNL A   1      31.763  22.493  23.141  1.00  0.00     0.014 C 
ATOM     67  C   UNL A   1      32.418  21.143  23.409  1.00  0.00     0.001 C 
BRANCH  64  68
ATOM     68  C   UNL A   1      33.559  24.163  22.692  1.00  0.00     0.228 C 
ATOM     69  O   UNL A   1      34.309  23.337  22.162  1.00  0.00    -0.274 OA
ATOM     70  N   UNL A   1      33.605  25.432  22.192  1.00  0.00    -0.326 N 
ATOM     71  H   UNL A   1      34.177  25.489  21.393  1.00  0.00     0.169 HD
BRANCH  70  72
ATOM     72  C   UNL A   1      33.046  26.682  22.520  1.00  0.00     0.041 A 
ATOM     73  C   UNL A   1      33.949  27.722  22.770  1.00  0.00     0.026 A 
ATOM     74  C   UNL A   1      31.691  26.954  22.689  1.00  0.00     0.039 A 
ATOM     75  C   UNL A   1      33.507  28.996  23.144  1.00  0.00     0.003 A 
ATOM     76  C   UNL A   1      31.220  28.231  23.057  1.00  0.00     0.058 A 
ATOM     77  C   UNL A   1      32.146  29.251  23.285  1.00  0.00     0.013 A 
BRANCH  76  78
ATOM     78  C   UNL A   1      29.741  28.464  23.237  1.00  0.00     0.416 C 
ATOM     79  F   UNL A   1      29.097  27.447  23.875  1.00  0.00    -0.166 F 
ATOM     80  F   UNL A   1      29.474  29.590  23.957  1.00  0.00    -0.166 F 
ATOM     81  F   UNL A   1      29.085  28.634  22.060  1.00  0.00    -0.166 F 
ENDBRANCH  76  78
ENDBRANCH  70  72
ENDBRANCH  64  68
ENDBRANCH  59  62
ENDBRANCH  57  58
ENDBRANCH   1  57
TORSDOF 13
ENDMDL
MODEL 2
REMARK VINA RESULT:     -11.7      4.402      9.070
REMARK SMILES O=C(NCCCNC(=O)[C@@H]1CCCC[C@@H]1C(=O)Nc1cccc(C(F)(F)F)c1)c1ccc(-c2c3nc(c(-c4ccccc4)c4ccc([nH]4)c(-c4ccccc4)c4nc(c(-c5ccccc5)c5ccc2[nH]5)C=C4)C=C3)cc1
REMARK SMILES IDX 5 1 4 2 3 3 1 4 2 5 29 7 30 8 76 9 31 10 75 11 32 12 33 13
REMARK SMILES IDX 34 14 69 15 35 16 74 17 68 18 70 19 36 20 73 21 67 22 66 23
REMARK SMILES IDX 37 25 59 26 44 27 58 28 45 29 48 30 57 31 71 32 46 33 47 34
REMARK SMILES IDX 56 36 72 37 49 38 38 39 39 40 43 41 40 42 42 43 41 44 60 45
REMARK SMILES IDX 61 46 65 47 62 48 64 49 63 50 50 51 51 52 55 53 52 54 54 55
REMARK SMILES IDX 53 56 6 57 7 58 8 59 9 61 10 62 11 63 15 64 12 65 14 66
REMARK SMILES IDX 13 67 16 68 17 69 18 70 19 72 20 73 28 74 21 75 23 76 22 77
REMARK SMILES IDX 24 78 25 79 26 80 27 81
REMARK H PARENT 3 6 70 24 48 35 7 60 18 71
REMARK Flexibility Score: inf
ROOT
ATOM      1  C   UNL A   1      36.045  23.640  24.318  1.00  0.00     0.042 C 
ENDROOT
BRANCH   1   2
ATOM      2  C   UNL A   1      36.886  23.614  25.599  1.00  0.00     0.118 C 
BRANCH   2   3
ATOM      3  N   UNL A   1      38.288  23.258  25.480  1.00  0.00    -0.352 N 
ATOM      4  O   UNL A   1      40.342  22.683  26.099  1.00  0.00    -0.269 OA
ATOM      5  C   UNL A   1      39.408  23.472  26.257  1.00  0.00     0.251 C 
ATOM      6  H   UNL A   1      38.486  22.750  24.660  1.00  0.00     0.163 HD
BRANCH   5   7
ATOM      7  C   UNL A   1      39.627  24.637  27.174  1.00  0.00     0.039 A 
ATOM      8  C   UNL A   1      39.088  24.781  28.448  1.00  0.00     0.014 A 
ATOM      9  C   UNL A   1      40.393  25.710  26.665  1.00  0.00     0.014 A 
ATOM     10  C   UNL A   1      39.217  25.993  29.143  1.00  0.00     0.010 A 
ATOM     11  C   UNL A   1      40.555  26.913  27.377  1.00  0.00     0.010 A 
ATOM     12  C   UNL A   1      39.936  27.081  28.616  1.00  0.00    -0.014 A 
BRANCH  12  13
ATOM     13  C   UNL A   1      40.052  28.324  29.430  1.00  0.00     0.031 A 
ATOM     14  C   UNL A   1      39.017  29.417  29.384  1.00  0.00     0.074 A 
ATOM     15  C   UNL A   1      41.063  28.423  30.316  1.00  0.00     0.049 A 
ATOM     16  N   UNL A   1      38.836  30.413  30.220  1.00  0.00    -0.248 NA
ATOM     17  C   UNL A   1      38.072  29.404  28.259  1.00  0.00     0.031 C 
ATOM     18  C   UNL A   1      42.160  27.462  30.443  1.00  0.00     0.029 A 
ATOM     19  N   UNL A   1      41.301  29.338  31.313  1.00  0.00    -0.354 N 
ATOM     20  C   UNL A   1      37.758  31.141  29.726  1.00  0.00     0.074 A 
ATOM     21  C   UNL A   1      37.348  30.491  28.498  1.00  0.00     0.031 C 
ATOM     22  C   UNL A   1      42.899  27.784  31.514  1.00  0.00     0.029 A 
ATOM     23  C   UNL A   1      42.352  28.992  32.127  1.00  0.00     0.049 A 
ATOM     24  H   UNL A   1      40.770  30.158  31.432  1.00  0.00     0.167 HD
ATOM     25  C   UNL A   1      37.161  32.241  30.249  1.00  0.00     0.031 A 
ATOM     26  C   UNL A   1      42.815  29.557  33.258  1.00  0.00     0.031 A 
ATOM     27  C   UNL A   1      37.570  32.901  31.466  1.00  0.00     0.049 A 
ATOM     28  C   UNL A   1      42.132  30.768  33.822  1.00  0.00     0.074 A 
ATOM     29  C   UNL A   1      36.982  33.986  32.097  1.00  0.00     0.029 A 
ATOM     30  N   UNL A   1      38.676  32.554  32.224  1.00  0.00    -0.354 N 
ATOM     31  N   UNL A   1      41.055  31.382  33.398  1.00  0.00    -0.248 NA
ATOM     32  C   UNL A   1      42.724  31.355  35.033  1.00  0.00     0.031 C 
ATOM     33  C   UNL A   1      37.766  34.331  33.205  1.00  0.00     0.029 A 
ATOM     34  C   UNL A   1      38.806  33.423  33.298  1.00  0.00     0.049 A 
ATOM     35  H   UNL A   1      39.280  31.802  32.031  1.00  0.00     0.167 HD
ATOM     36  C   UNL A   1      40.829  32.415  34.299  1.00  0.00     0.074 A 
ATOM     37  C   UNL A   1      41.868  32.330  35.305  1.00  0.00     0.031 C 
ATOM     38  C   UNL A   1      39.846  33.348  34.292  1.00  0.00     0.031 A 
BRANCH  25  39
ATOM     39  C   UNL A   1      35.996  32.829  29.498  1.00  0.00    -0.014 A 
ATOM     40  C   UNL A   1      36.121  34.026  28.775  1.00  0.00     0.009 A 
ATOM     41  C   UNL A   1      34.776  32.135  29.449  1.00  0.00     0.009 A 
ATOM     42  C   UNL A   1      35.042  34.529  28.044  1.00  0.00     0.001 A 
ATOM     43  C   UNL A   1      33.707  32.626  28.697  1.00  0.00     0.001 A 
ATOM     44  C   UNL A   1      33.838  33.827  28.002  1.00  0.00     0.000 A 
ENDBRANCH  25  39
BRANCH  26  45
ATOM     45  C   UNL A   1      43.976  28.950  33.959  1.00  0.00    -0.014 A 
ATOM     46  C   UNL A   1      43.780  28.034  35.004  1.00  0.00     0.009 A 
ATOM     47  C   UNL A   1      45.286  29.276  33.577  1.00  0.00     0.009 A 
ATOM     48  C   UNL A   1      44.874  27.470  35.662  1.00  0.00     0.001 A 
ATOM     49  C   UNL A   1      46.377  28.687  34.216  1.00  0.00     0.001 A 
ATOM     50  C   UNL A   1      46.171  27.790  35.262  1.00  0.00     0.000 A 
ENDBRANCH  26  45
BRANCH  38  51
ATOM     51  C   UNL A   1      39.832  34.338  35.423  1.00  0.00    -0.014 A 
ATOM     52  C   UNL A   1      40.508  35.566  35.331  1.00  0.00     0.009 A 
ATOM     53  C   UNL A   1      39.123  34.042  36.599  1.00  0.00     0.009 A 
ATOM     54  C   UNL A   1      40.510  36.455  36.409  1.00  0.00     0.001 A 
ATOM     55  C   UNL A   1      39.104  34.945  37.663  1.00  0.00     0.001 A 
ATOM     56  C   UNL A   1      39.807  36.145  37.572  1.00  0.00     0.000 A 
ENDBRANCH  38  51
ENDBRANCH  12  13
ENDBRANCH   5   7
ENDBRANCH   2   3
ENDBRANCH   1   2
BRANCH   1  57
ATOM     57  C   UNL A   1      34.639  24.265  24.322  1.00  0.00     0.117 C 
BRANCH  57  58
ATOM     58  N   UNL A   1      34.400  25.313  25.286  1.00  0.00    -0.356 N 
ATOM     59  C   UNL A   1      33.525  26.360  25.210  1.00  0.00     0.223 C 
ATOM     60  H   UNL A   1      34.939  25.267  26.108  1.00  0.00     0.163 HD
ATOM     61  O   UNL A   1      33.726  27.296  25.983  1.00  0.00    -0.275 OA
BRANCH  59  62
ATOM     62  C   UNL A   1      32.373  26.352  24.190  1.00  0.00     0.091 C 
ATOM     63  C   UNL A   1      31.900  27.803  23.960  1.00  0.00     0.014 C 
ATOM     64  C   UNL A   1      31.227  25.378  24.567  1.00  0.00     0.091 C 
ATOM     65  C   UNL A   1      30.667  27.895  23.074  1.00  0.00     0.001 C 
ATOM     66  C   UNL A   1      29.892  25.640  23.836  1.00  0.00     0.014 C 
ATOM     67  C   UNL A   1      29.523  27.112  23.694  1.00  0.00     0.001 C 
BRANCH  64  68
ATOM     68  C   UNL A   1      30.957  25.307  26.066  1.00  0.00     0.228 C 
ATOM     69  O   UNL A   1      30.275  26.181  26.612  1.00  0.00    -0.274 OA
ATOM     70  N   UNL A   1      31.292  24.231  26.836  1.00  0.00    -0.326 N 
ATOM     71  H   UNL A   1      30.850  24.261  27.715  1.00  0.00     0.169 HD
BRANCH  70  72
ATOM     72  C   UNL A   1      32.104  23.089  26.701  1.00  0.00     0.041 A 
ATOM     73  C   UNL A   1      33.132  22.941  27.640  1.00  0.00     0.026 A 
ATOM     74  C   UNL A   1      32.023  22.142  25.683  1.00  0.00     0.039 A 
ATOM     75  C   UNL A   1      34.025  21.866  27.578  1.00  0.00     0.003 A 
ATOM     76  C   UNL A   1      32.906  21.046  25.604  1.00  0.00     0.058 A 
ATOM     77  C   UNL A   1      33.911  20.919  26.564  1.00  0.00     0.013 A 
BRANCH  76  78
ATOM     78  C   UNL A   1      32.777  20.059  24.471  1.00  0.00     0.416 C 
ATOM     79  F   UNL A   1      33.970  19.579  24.020  1.00  0.00    -0.166 F 
ATOM     80  F   UNL A   1      32.037  18.967  24.812  1.00  0.00    -0.166 F 
ATOM     81  F   UNL A   1      32.155  20.581  23.382  1.00  0.00    -0.166 F 
ENDBRANCH  76  78
ENDBRANCH  70  72
ENDBRANCH  64  68
ENDBRANCH  59  62
ENDBRANCH  57  58
ENDBRANCH   1  57
TORSDOF 13
ENDMDL
MODEL 3
REMARK VINA RESULT:     -11.5      3.561      8.347
REMARK SMILES O=C(NCCCNC(=O)[C@@H]1CCCC[C@@H]1C(=O)Nc1cccc(C(F)(F)F)c1)c1ccc(-c2c3nc(c(-c4ccccc4)c4ccc([nH]4)c(-c4ccccc4)c4nc(c(-c5ccccc5)c5ccc2[nH]5)C=C4)C=C3)cc1
REMARK SMILES IDX 5 1 4 2 3 3 1 4 2 5 29 7 30 8 76 9 31 10 75 11 32 12 33 13
REMARK SMILES IDX 34 14 69 15 35 16 74 17 68 18 70 19 36 20 73 21 67 22 66 23
REMARK SMILES IDX 37 25 59 26 44 27 58 28 45 29 48 30 57 31 71 32 46 33 47 34
REMARK SMILES IDX 56 36 72 37 49 38 38 39 39 40 43 41 40 42 42 43 41 44 60 45
REMARK SMILES IDX 61 46 65 47 62 48 64 49 63 50 50 51 51 52 55 53 52 54 54 55
REMARK SMILES IDX 53 56 6 57 7 58 8 59 9 61 10 62 11 63 15 64 12 65 14 66
REMARK SMILES IDX 13 67 16 68 17 69 18 70 19 72 20 73 28 74 21 75 23 76 22 77
REMARK SMILES IDX 24 78 25 79 26 80 27 81
REMARK H PARENT 3 6 70 24 48 35 7 60 18 71
REMARK Flexibility Score: inf
ROOT
ATOM      1  C   UNL A   1      35.848  23.389  24.301  1.00  0.00     0.042 C 
ENDROOT
BRANCH   1   2
ATOM      2  C   UNL A   1      36.738  23.546  25.539  1.00  0.00     0.118 C 
BRANCH   2   3
ATOM      3  N   UNL A   1      38.051  22.927  25.511  1.00  0.00    -0.352 N 
ATOM      4  O   UNL A   1      39.972  22.105  26.260  1.00  0.00    -0.269 OA
ATOM      5  C   UNL A   1      39.199  23.064  26.263  1.00  0.00     0.251 C 
ATOM      6  H   UNL A   1      38.144  22.259  24.793  1.00  0.00     0.163 HD
BRANCH   5   7
ATOM      7  C   UNL A   1      39.636  24.310  26.973  1.00  0.00     0.039 A 
ATOM      8  C   UNL A   1      39.319  24.652  28.282  1.00  0.00     0.014 A 
ATOM      9  C   UNL A   1      40.378  25.245  26.216  1.00  0.00     0.014 A 
ATOM     10  C   UNL A   1      39.636  25.925  28.782  1.00  0.00     0.010 A 
ATOM     11  C   UNL A   1      40.729  26.507  26.728  1.00  0.00     0.010 A 
ATOM     12  C   UNL A   1      40.329  26.876  28.012  1.00  0.00    -0.014 A 
BRANCH  12  13
ATOM     13  C   UNL A   1      40.653  28.195  28.627  1.00  0.00     0.031 A 
ATOM     14  C   UNL A   1      39.621  29.278  28.801  1.00  0.00     0.074 A 
ATOM     15  C   UNL A   1      41.886  28.382  29.140  1.00  0.00     0.049 A 
ATOM     16  N   UNL A   1      39.678  30.353  29.553  1.00  0.00    -0.248 NA
ATOM     17  C   UNL A   1      38.374  29.152  28.034  1.00  0.00     0.031 C 
ATOM     18  C   UNL A   1      42.997  27.439  29.009  1.00  0.00     0.029 A 
ATOM     19  N   UNL A   1      42.393  29.393  29.919  1.00  0.00    -0.354 N 
ATOM     20  C   UNL A   1      38.478  31.028  29.353  1.00  0.00     0.074 A 
ATOM     21  C   UNL A   1      37.727  30.258  28.382  1.00  0.00     0.031 C 
ATOM     22  C   UNL A   1      44.022  27.867  29.760  1.00  0.00     0.029 A 
ATOM     23  C   UNL A   1      43.655  29.131  30.394  1.00  0.00     0.049 A 
ATOM     24  H   UNL A   1      41.900  30.221  30.119  1.00  0.00     0.167 HD
ATOM     25  C   UNL A   1      38.039  32.176  29.928  1.00  0.00     0.031 A 
ATOM     26  C   UNL A   1      44.429  29.807  31.264  1.00  0.00     0.031 A 
ATOM     27  C   UNL A   1      38.784  32.955  30.887  1.00  0.00     0.049 A 
ATOM     28  C   UNL A   1      43.917  31.069  31.895  1.00  0.00     0.074 A 
ATOM     29  C   UNL A   1      38.388  34.098  31.563  1.00  0.00     0.029 A 
ATOM     30  N   UNL A   1      40.081  32.686  31.292  1.00  0.00    -0.354 N 
ATOM     31  N   UNL A   1      42.743  31.637  31.771  1.00  0.00    -0.248 NA
ATOM     32  C   UNL A   1      44.837  31.774  32.798  1.00  0.00     0.031 C 
ATOM     33  C   UNL A   1      39.466  34.552  32.333  1.00  0.00     0.029 A 
ATOM     34  C   UNL A   1      40.512  33.658  32.183  1.00  0.00     0.049 A 
ATOM     35  H   UNL A   1      40.619  31.917  30.992  1.00  0.00     0.167 HD
ATOM     36  C   UNL A   1      42.776  32.756  32.595  1.00  0.00     0.074 A 
ATOM     37  C   UNL A   1      44.078  32.772  33.230  1.00  0.00     0.031 C 
ATOM     38  C   UNL A   1      41.811  33.683  32.805  1.00  0.00     0.031 A 
BRANCH  25  39
ATOM     39  C   UNL A   1      36.680  32.686  29.525  1.00  0.00    -0.014 A 
ATOM     40  C   UNL A   1      36.503  33.455  28.365  1.00  0.00     0.009 A 
ATOM     41  C   UNL A   1      35.549  32.325  30.277  1.00  0.00     0.009 A 
ATOM     42  C   UNL A   1      35.227  33.876  27.982  1.00  0.00     0.001 A 
ATOM     43  C   UNL A   1      34.273  32.726  29.879  1.00  0.00     0.001 A 
ATOM     44  C   UNL A   1      34.113  33.508  28.736  1.00  0.00     0.000 A 
ENDBRANCH  25  39
BRANCH  26  45
ATOM     45  C   UNL A   1      45.768  29.272  31.623  1.00  0.00    -0.014 A 
ATOM     46  C   UNL A   1      46.902  29.627  30.877  1.00  0.00     0.009 A 
ATOM     47  C   UNL A   1      45.918  28.414  32.722  1.00  0.00     0.009 A 
ATOM     48  C   UNL A   1      48.157  29.118  31.216  1.00  0.00     0.001 A 
ATOM     49  C   UNL A   1      47.178  27.931  33.077  1.00  0.00     0.001 A 
ATOM     50  C   UNL A   1      48.295  28.278  32.319  1.00  0.00     0.000 A 
ENDBRANCH  26  45
BRANCH  38  51
ATOM     51  C   UNL A   1      42.118  34.782  33.784  1.00  0.00    -0.014 A 
ATOM     52  C   UNL A   1      41.821  34.650  35.151  1.00  0.00     0.009 A 
ATOM     53  C   UNL A   1      42.723  35.966  33.335  1.00  0.00     0.009 A 
ATOM     54  C   UNL A   1      42.084  35.697  36.037  1.00  0.00     0.001 A 
ATOM     55  C   UNL A   1      43.010  37.000  34.228  1.00  0.00     0.001 A 
ATOM     56  C   UNL A   1      42.680  36.870  35.575  1.00  0.00     0.000 A 
ENDBRANCH  38  51
ENDBRANCH  12  13
ENDBRANCH   5   7
ENDBRANCH   2   3
ENDBRANCH   1   2
BRANCH   1  57
ATOM     57  C   UNL A   1      34.650  24.330  24.079  1.00  0.00     0.117 C 
BRANCH  57  58
ATOM     58  N   UNL A   1      34.389  25.300  25.116  1.00  0.00    -0.356 N 
ATOM     59  C   UNL A   1      33.464  26.306  25.130  1.00  0.00     0.223 C 
ATOM     60  H   UNL A   1      34.952  25.227  25.920  1.00  0.00     0.163 HD
ATOM     61  O   UNL A   1      33.642  27.198  25.958  1.00  0.00    -0.275 OA
BRANCH  59  62
ATOM     62  C   UNL A   1      32.286  26.308  24.139  1.00  0.00     0.091 C 
ATOM     63  C   UNL A   1      31.819  27.763  23.923  1.00  0.00     0.014 C 
ATOM     64  C   UNL A   1      31.143  25.343  24.545  1.00  0.00     0.091 C 
ATOM     65  C   UNL A   1      30.565  27.866  23.069  1.00  0.00     0.001 C 
ATOM     66  C   UNL A   1      29.792  25.616  23.849  1.00  0.00     0.014 C 
ATOM     67  C   UNL A   1      29.431  27.092  23.718  1.00  0.00     0.001 C 
BRANCH  64  68
ATOM     68  C   UNL A   1      30.910  25.272  26.050  1.00  0.00     0.228 C 
ATOM     69  O   UNL A   1      30.240  26.145  26.612  1.00  0.00    -0.274 OA
ATOM     70  N   UNL A   1      31.268  24.198  26.813  1.00  0.00    -0.326 N 
ATOM     71  H   UNL A   1      30.848  24.227  27.703  1.00  0.00     0.169 HD
BRANCH  70  72
ATOM     72  C   UNL A   1      32.080  23.059  26.658  1.00  0.00     0.041 A 
ATOM     73  C   UNL A   1      33.111  22.897  27.591  1.00  0.00     0.026 A 
ATOM     74  C   UNL A   1      31.996  22.127  25.627  1.00  0.00     0.039 A 
ATOM     75  C   UNL A   1      34.004  21.823  27.511  1.00  0.00     0.003 A 
ATOM     76  C   UNL A   1      32.878  21.032  25.529  1.00  0.00     0.058 A 
ATOM     77  C   UNL A   1      33.887  20.891  26.484  1.00  0.00     0.013 A 
BRANCH  76  78
ATOM     78  C   UNL A   1      32.746  20.061  24.382  1.00  0.00     0.416 C 
ATOM     79  F   UNL A   1      32.152  20.590  23.277  1.00  0.00    -0.166 F 
ATOM     80  F   UNL A   1      33.951  19.578  23.967  1.00  0.00    -0.166 F 
ATOM     81  F   UNL A   1      32.016  18.961  24.702  1.00  0.00    -0.166 F 
ENDBRANCH  76  78
ENDBRANCH  70  72
ENDBRANCH  64  68
ENDBRANCH  59  62
ENDBRANCH  57  58
ENDBRANCH   1  57
TORSDOF 13
ENDMDL
