MODEL 1
REMARK VINA RESULT:     -11.2      0.000      0.000
REMARK SMILES C[C@H]1CCCCN1C(=O)NC[C@H]1CC[C@H](C(=O)NCCCNC(=O)c2ccc(-c3c4nc(c(-c5ccccc5)c5ccc([nH]5)c(-c5ccccc5)c5nc(c(-c6ccccc6)c6ccc3[nH]6)C=C5)C=C4)cc2)O1
REMARK SMILES IDX 19 1 18 2 16 3 17 4 15 6 12 7 13 8 73 9 14 10 11 11 10 12
REMARK SMILES IDX 8 13 9 14 7 16 1 17 2 18 3 19 4 20 6 21 5 22 20 23 21 24
REMARK SMILES IDX 22 25 23 26 24 28 25 29 26 30 72 31 27 32 71 33 28 34 29 35
REMARK SMILES IDX 30 36 65 37 31 38 70 39 64 40 66 41 32 42 69 43 63 44 62 45
REMARK SMILES IDX 33 47 55 48 40 49 54 50 41 51 44 52 53 53 67 54 42 55 43 56
REMARK SMILES IDX 52 58 68 59 45 60 34 61 35 62 39 63 36 64 38 65 37 66 56 67
REMARK SMILES IDX 57 68 61 69 58 70 60 71 59 72 46 73 47 74 51 75 48 76 50 77
REMARK SMILES IDX 49 78
REMARK H PARENT 18 5 10 15 22 27 66 46 44 57
REMARK Flexibility Score: inf
ROOT
ATOM      1  C   UNL A   1      33.281  28.976  24.845  1.00  0.00     0.117 C 
ENDROOT
BRANCH   1   2
ATOM      2  N   UNL A   1      33.856  28.934  23.520  1.00  0.00    -0.354 N 
ATOM      3  C   UNL A   1      33.724  28.009  22.529  1.00  0.00     0.249 C 
ATOM      4  O   UNL A   1      34.331  28.226  21.475  1.00  0.00    -0.272 OA
ATOM      5  H   UNL A   1      34.438  29.697  23.297  1.00  0.00     0.163 HD
BRANCH   3   6
ATOM      6  C   UNL A   1      32.935  26.695  22.724  1.00  0.00     0.207 C 
ATOM      7  C   UNL A   1      31.837  25.809  24.608  1.00  0.00     0.138 C 
ATOM      8  C   UNL A   1      33.260  25.282  24.625  1.00  0.00     0.037 C 
ATOM      9  O   UNL A   1      31.754  26.751  23.520  1.00  0.00    -0.363 OA
ATOM     10  C   UNL A   1      33.827  25.598  23.271  1.00  0.00     0.045 C 
BRANCH   7  11
ATOM     11  C   UNL A   1      30.684  24.807  24.491  1.00  0.00     0.149 C 
BRANCH  11  12
ATOM     12  N   UNL A   1      30.400  24.099  25.709  1.00  0.00    -0.335 N 
ATOM     13  C   UNL A   1      30.886  23.179  26.526  1.00  0.00     0.317 C 
ATOM     14  O   UNL A   1      30.120  23.023  27.490  1.00  0.00    -0.249 OA
ATOM     15  H   UNL A   1      29.534  24.408  26.060  1.00  0.00     0.165 HD
BRANCH  13  16
ATOM     16  N   UNL A   1      32.028  22.441  26.398  1.00  0.00    -0.322 N 
ATOM     17  C   UNL A   1      32.104  21.367  23.960  1.00  0.00     0.031 C 
ATOM     18  C   UNL A   1      32.605  21.479  25.396  1.00  0.00     0.083 C 
ATOM     19  C   UNL A   1      34.131  21.728  25.221  1.00  0.00     0.025 C 
ATOM     20  C   UNL A   1      34.907  21.781  26.523  1.00  0.00     0.004 C 
ATOM     21  C   UNL A   1      32.808  22.424  27.659  1.00  0.00     0.121 C 
ATOM     22  C   UNL A   1      34.267  22.792  27.448  1.00  0.00     0.022 C 
ENDBRANCH  13  16
ENDBRANCH  11  12
ENDBRANCH   7  11
ENDBRANCH   3   6
ENDBRANCH   1   2
BRANCH   1  23
ATOM     23  C   UNL A   1      34.258  28.478  25.904  1.00  0.00     0.042 C 
BRANCH  23  24
ATOM     24  C   UNL A   1      33.731  28.669  27.318  1.00  0.00     0.118 C 
BRANCH  24  25
ATOM     25  N   UNL A   1      33.668  30.078  27.687  1.00  0.00    -0.352 N 
ATOM     26  C   UNL A   1      34.586  30.858  28.334  1.00  0.00     0.251 C 
ATOM     27  H   UNL A   1      32.835  30.538  27.432  1.00  0.00     0.163 HD
ATOM     28  O   UNL A   1      34.260  31.976  28.736  1.00  0.00    -0.269 OA
BRANCH  26  29
ATOM     29  C   UNL A   1      35.959  30.366  28.565  1.00  0.00     0.039 A 
ATOM     30  C   UNL A   1      36.275  29.801  29.804  1.00  0.00     0.014 A 
ATOM     31  C   UNL A   1      36.940  30.486  27.578  1.00  0.00     0.014 A 
ATOM     32  C   UNL A   1      37.562  29.318  30.035  1.00  0.00     0.010 A 
ATOM     33  C   UNL A   1      38.194  29.922  27.776  1.00  0.00     0.010 A 
ATOM     34  C   UNL A   1      38.524  29.352  29.013  1.00  0.00    -0.014 A 
BRANCH  34  35
ATOM     35  C   UNL A   1      39.898  28.838  29.224  1.00  0.00     0.031 A 
ATOM     36  C   UNL A   1      40.951  29.747  29.799  1.00  0.00     0.074 A 
ATOM     37  C   UNL A   1      40.214  27.588  28.837  1.00  0.00     0.049 A 
ATOM     38  N   UNL A   1      42.231  29.530  29.960  1.00  0.00    -0.248 NA
ATOM     39  C   UNL A   1      40.512  31.089  30.218  1.00  0.00     0.031 C 
ATOM     40  C   UNL A   1      39.288  26.625  28.236  1.00  0.00     0.029 A 
ATOM     41  N   UNL A   1      41.409  26.916  28.880  1.00  0.00    -0.354 N 
ATOM     42  C   UNL A   1      42.749  30.710  30.479  1.00  0.00     0.074 A 
ATOM     43  C   UNL A   1      41.660  31.658  30.550  1.00  0.00     0.031 C 
ATOM     44  C   UNL A   1      39.947  25.482  27.984  1.00  0.00     0.029 A 
ATOM     45  C   UNL A   1      41.346  25.646  28.363  1.00  0.00     0.049 A 
ATOM     46  H   UNL A   1      42.234  27.309  29.247  1.00  0.00     0.167 HD
ATOM     47  C   UNL A   1      44.013  30.975  30.883  1.00  0.00     0.031 A 
ATOM     48  C   UNL A   1      42.311  24.722  28.201  1.00  0.00     0.031 A 
ATOM     49  C   UNL A   1      45.090  30.025  30.824  1.00  0.00     0.049 A 
ATOM     50  C   UNL A   1      43.711  25.045  28.646  1.00  0.00     0.074 A 
ATOM     51  C   UNL A   1      46.399  30.178  31.244  1.00  0.00     0.029 A 
ATOM     52  N   UNL A   1      44.977  28.739  30.318  1.00  0.00    -0.354 N 
ATOM     53  N   UNL A   1      44.174  26.148  29.182  1.00  0.00    -0.248 NA
ATOM     54  C   UNL A   1      44.718  23.988  28.477  1.00  0.00     0.031 C 
ATOM     55  C   UNL A   1      47.090  28.999  30.950  1.00  0.00     0.029 A 
ATOM     56  C   UNL A   1      46.197  28.093  30.402  1.00  0.00     0.049 A 
ATOM     57  H   UNL A   1      44.152  28.346  29.952  1.00  0.00     0.167 HD
ATOM     58  C   UNL A   1      45.516  25.908  29.444  1.00  0.00     0.074 A 
ATOM     59  C   UNL A   1      45.789  24.549  29.022  1.00  0.00     0.031 C 
ATOM     60  C   UNL A   1      46.442  26.736  29.986  1.00  0.00     0.031 A 
BRANCH  47  61
ATOM     61  C   UNL A   1      44.294  32.348  31.426  1.00  0.00    -0.014 A 
ATOM     62  C   UNL A   1      44.728  33.387  30.585  1.00  0.00     0.009 A 
ATOM     63  C   UNL A   1      44.092  32.620  32.788  1.00  0.00     0.009 A 
ATOM     64  C   UNL A   1      44.988  34.657  31.104  1.00  0.00     0.001 A 
ATOM     65  C   UNL A   1      44.323  33.899  33.299  1.00  0.00     0.001 A 
ATOM     66  C   UNL A   1      44.779  34.913  32.458  1.00  0.00     0.000 A 
ENDBRANCH  47  61
BRANCH  48  67
ATOM     67  C   UNL A   1      41.991  23.404  27.594  1.00  0.00    -0.014 A 
ATOM     68  C   UNL A   1      41.433  22.376  28.369  1.00  0.00     0.009 A 
ATOM     69  C   UNL A   1      42.253  23.161  26.236  1.00  0.00     0.009 A 
ATOM     70  C   UNL A   1      41.178  21.122  27.807  1.00  0.00     0.001 A 
ATOM     71  C   UNL A   1      41.968  21.917  25.669  1.00  0.00     0.001 A 
ATOM     72  C   UNL A   1      41.442  20.896  26.457  1.00  0.00     0.000 A 
ENDBRANCH  48  67
BRANCH  60  73
ATOM     73  C   UNL A   1      47.821  26.180  30.201  1.00  0.00    -0.014 A 
ATOM     74  C   UNL A   1      48.763  26.138  29.162  1.00  0.00     0.009 A 
ATOM     75  C   UNL A   1      48.196  25.743  31.482  1.00  0.00     0.009 A 
ATOM     76  C   UNL A   1      50.045  25.637  29.396  1.00  0.00     0.001 A 
ATOM     77  C   UNL A   1      49.487  25.271  31.718  1.00  0.00     0.001 A 
ATOM     78  C   UNL A   1      50.408  25.211  30.674  1.00  0.00     0.000 A 
ENDBRANCH  60  73
ENDBRANCH  34  35
ENDBRANCH  26  29
ENDBRANCH  24  25
ENDBRANCH  23  24
ENDBRANCH   1  23
TORSDOF 13
ENDMDL
MODEL 2
REMARK VINA RESULT:     -11.0      1.505      2.293
REMARK SMILES C[C@H]1CCCCN1C(=O)NC[C@H]1CC[C@H](C(=O)NCCCNC(=O)c2ccc(-c3c4nc(c(-c5ccccc5)c5ccc([nH]5)c(-c5ccccc5)c5nc(c(-c6ccccc6)c6ccc3[nH]6)C=C5)C=C4)cc2)O1
REMARK SMILES IDX 19 1 18 2 16 3 17 4 15 6 12 7 13 8 73 9 14 10 11 11 10 12
REMARK SMILES IDX 8 13 9 14 7 16 1 17 2 18 3 19 4 20 6 21 5 22 20 23 21 24
REMARK SMILES IDX 22 25 23 26 24 28 25 29 26 30 72 31 27 32 71 33 28 34 29 35
REMARK SMILES IDX 30 36 65 37 31 38 70 39 64 40 66 41 32 42 69 43 63 44 62 45
REMARK SMILES IDX 33 47 55 48 40 49 54 50 41 51 44 52 53 53 67 54 42 55 43 56
REMARK SMILES IDX 52 58 68 59 45 60 34 61 35 62 39 63 36 64 38 65 37 66 56 67
REMARK SMILES IDX 57 68 61 69 58 70 60 71 59 72 46 73 47 74 51 75 48 76 50 77
REMARK SMILES IDX 49 78
REMARK H PARENT 18 5 10 15 22 27 66 46 44 57
REMARK Flexibility Score: inf
ROOT
ATOM      1  C   UNL A   1      33.144  26.818  25.451  1.00  0.00     0.117 C 
ENDROOT
BRANCH   1   2
ATOM      2  N   UNL A   1      33.387  26.607  24.041  1.00  0.00    -0.354 N 
ATOM      3  C   UNL A   1      33.914  25.536  23.386  1.00  0.00     0.249 C 
ATOM      4  O   UNL A   1      34.005  25.619  22.157  1.00  0.00    -0.272 OA
ATOM      5  H   UNL A   1      33.129  27.360  23.460  1.00  0.00     0.163 HD
BRANCH   3   6
ATOM      6  C   UNL A   1      34.468  24.301  24.132  1.00  0.00     0.207 C 
ATOM      7  C   UNL A   1      36.669  23.696  24.709  1.00  0.00     0.138 C 
ATOM      8  C   UNL A   1      36.375  23.088  23.349  1.00  0.00     0.037 C 
ATOM      9  O   UNL A   1      35.535  24.516  25.054  1.00  0.00    -0.363 OA
ATOM     10  C   UNL A   1      34.891  23.219  23.158  1.00  0.00     0.045 C 
BRANCH   7  11
ATOM     11  C   UNL A   1      36.982  22.759  25.880  1.00  0.00     0.149 C 
BRANCH  11  12
ATOM     12  N   UNL A   1      35.820  22.312  26.597  1.00  0.00    -0.335 N 
ATOM     13  C   UNL A   1      34.824  21.443  26.544  1.00  0.00     0.317 C 
ATOM     14  O   UNL A   1      34.120  21.544  27.562  1.00  0.00    -0.249 OA
ATOM     15  H   UNL A   1      35.734  22.842  27.423  1.00  0.00     0.165 HD
BRANCH  13  16
ATOM     16  N   UNL A   1      34.518  20.555  25.553  1.00  0.00    -0.322 N 
ATOM     17  C   UNL A   1      36.731  19.261  24.826  1.00  0.00     0.031 C 
ATOM     18  C   UNL A   1      35.274  19.658  24.612  1.00  0.00     0.083 C 
ATOM     19  C   UNL A   1      34.550  18.289  24.468  1.00  0.00     0.025 C 
ATOM     20  C   UNL A   1      33.073  18.396  24.143  1.00  0.00     0.004 C 
ATOM     21  C   UNL A   1      33.089  20.646  25.165  1.00  0.00     0.121 C 
ATOM     22  C   UNL A   1      32.399  19.292  25.157  1.00  0.00     0.022 C 
ENDBRANCH  13  16
ENDBRANCH  11  12
ENDBRANCH   7  11
ENDBRANCH   3   6
ENDBRANCH   1   2
BRANCH   1  23
ATOM     23  C   UNL A   1      33.143  28.298  25.811  1.00  0.00     0.042 C 
BRANCH  23  24
ATOM     24  C   UNL A   1      33.755  28.566  27.178  1.00  0.00     0.118 C 
BRANCH  24  25
ATOM     25  N   UNL A   1      33.664  29.973  27.546  1.00  0.00    -0.352 N 
ATOM     26  C   UNL A   1      34.562  30.767  28.205  1.00  0.00     0.251 C 
ATOM     27  H   UNL A   1      32.828  30.420  27.280  1.00  0.00     0.163 HD
ATOM     28  O   UNL A   1      34.214  31.880  28.604  1.00  0.00    -0.269 OA
BRANCH  26  29
ATOM     29  C   UNL A   1      35.939  30.296  28.454  1.00  0.00     0.039 A 
ATOM     30  C   UNL A   1      36.255  29.761  29.707  1.00  0.00     0.014 A 
ATOM     31  C   UNL A   1      36.925  30.406  27.471  1.00  0.00     0.014 A 
ATOM     32  C   UNL A   1      37.546  29.298  29.955  1.00  0.00     0.010 A 
ATOM     33  C   UNL A   1      38.184  29.861  27.688  1.00  0.00     0.010 A 
ATOM     34  C   UNL A   1      38.513  29.321  28.939  1.00  0.00    -0.014 A 
BRANCH  34  35
ATOM     35  C   UNL A   1      39.892  28.829  29.168  1.00  0.00     0.031 A 
ATOM     36  C   UNL A   1      40.924  29.754  29.752  1.00  0.00     0.074 A 
ATOM     37  C   UNL A   1      40.230  27.581  28.789  1.00  0.00     0.049 A 
ATOM     38  N   UNL A   1      42.205  29.556  29.930  1.00  0.00    -0.248 NA
ATOM     39  C   UNL A   1      40.461  31.092  30.161  1.00  0.00     0.031 C 
ATOM     40  C   UNL A   1      39.326  26.603  28.180  1.00  0.00     0.029 A 
ATOM     41  N   UNL A   1      41.434  26.927  28.849  1.00  0.00    -0.354 N 
ATOM     42  C   UNL A   1      42.700  30.746  30.450  1.00  0.00     0.074 A 
ATOM     43  C   UNL A   1      41.597  31.678  30.505  1.00  0.00     0.031 C 
ATOM     44  C   UNL A   1      40.004  25.469  27.940  1.00  0.00     0.029 A 
ATOM     45  C   UNL A   1      41.396  25.654  28.336  1.00  0.00     0.049 A 
ATOM     46  H   UNL A   1      42.250  27.333  29.225  1.00  0.00     0.167 HD
ATOM     47  C   UNL A   1      43.955  31.031  30.869  1.00  0.00     0.031 A 
ATOM     48  C   UNL A   1      42.376  24.744  28.189  1.00  0.00     0.031 A 
ATOM     49  C   UNL A   1      45.046  30.096  30.825  1.00  0.00     0.049 A 
ATOM     50  C   UNL A   1      43.766  25.089  28.650  1.00  0.00     0.074 A 
ATOM     51  C   UNL A   1      46.348  30.269  31.261  1.00  0.00     0.029 A 
ATOM     52  N   UNL A   1      44.959  28.807  30.323  1.00  0.00    -0.354 N 
ATOM     53  N   UNL A   1      44.206  26.201  29.187  1.00  0.00    -0.248 NA
ATOM     54  C   UNL A   1      44.790  24.046  28.497  1.00  0.00     0.031 C 
ATOM     55  C   UNL A   1      47.060  29.099  30.980  1.00  0.00     0.029 A 
ATOM     56  C   UNL A   1      46.187  28.178  30.424  1.00  0.00     0.049 A 
ATOM     57  H   UNL A   1      44.143  28.401  29.949  1.00  0.00     0.167 HD
ATOM     58  C   UNL A   1      45.549  25.981  29.466  1.00  0.00     0.074 A 
ATOM     59  C   UNL A   1      45.846  24.624  29.052  1.00  0.00     0.031 C 
ATOM     60  C   UNL A   1      46.456  26.823  30.016  1.00  0.00     0.031 A 
BRANCH  47  61
ATOM     61  C   UNL A   1      44.210  32.409  31.410  1.00  0.00    -0.014 A 
ATOM     62  C   UNL A   1      44.065  32.691  32.779  1.00  0.00     0.009 A 
ATOM     63  C   UNL A   1      44.633  33.434  30.549  1.00  0.00     0.009 A 
ATOM     64  C   UNL A   1      44.303  33.977  33.267  1.00  0.00     0.001 A 
ATOM     65  C   UNL A   1      44.900  34.712  31.045  1.00  0.00     0.001 A 
ATOM     66  C   UNL A   1      44.725  34.984  32.401  1.00  0.00     0.000 A 
ENDBRANCH  47  61
BRANCH  48  67
ATOM     67  C   UNL A   1      42.082  23.419  27.582  1.00  0.00    -0.014 A 
ATOM     68  C   UNL A   1      41.514  22.392  28.350  1.00  0.00     0.009 A 
ATOM     69  C   UNL A   1      42.381  23.170  26.233  1.00  0.00     0.009 A 
ATOM     70  C   UNL A   1      41.283  21.132  27.791  1.00  0.00     0.001 A 
ATOM     71  C   UNL A   1      42.120  21.920  25.668  1.00  0.00     0.001 A 
ATOM     72  C   UNL A   1      41.584  20.899  26.449  1.00  0.00     0.000 A 
ENDBRANCH  48  67
BRANCH  60  73
ATOM     73  C   UNL A   1      47.840  26.289  30.250  1.00  0.00    -0.014 A 
ATOM     74  C   UNL A   1      48.231  25.796  31.504  1.00  0.00     0.009 A 
ATOM     75  C   UNL A   1      48.746  26.229  29.179  1.00  0.00     0.009 A 
ATOM     76  C   UNL A   1      49.516  25.283  31.688  1.00  0.00     0.001 A 
ATOM     77  C   UNL A   1      50.019  25.688  29.359  1.00  0.00     0.001 A 
ATOM     78  C   UNL A   1      50.406  25.223  30.615  1.00  0.00     0.000 A 
ENDBRANCH  60  73
ENDBRANCH  34  35
ENDBRANCH  26  29
ENDBRANCH  24  25
ENDBRANCH  23  24
ENDBRANCH   1  23
TORSDOF 13
ENDMDL
MODEL 3
REMARK VINA RESULT:     -10.9      2.570      7.619
REMARK SMILES C[C@H]1CCCCN1C(=O)NC[C@H]1CC[C@H](C(=O)NCCCNC(=O)c2ccc(-c3c4nc(c(-c5ccccc5)c5ccc([nH]5)c(-c5ccccc5)c5nc(c(-c6ccccc6)c6ccc3[nH]6)C=C5)C=C4)cc2)O1
REMARK SMILES IDX 19 1 18 2 16 3 17 4 15 6 12 7 13 8 73 9 14 10 11 11 10 12
REMARK SMILES IDX 8 13 9 14 7 16 1 17 2 18 3 19 4 20 6 21 5 22 20 23 21 24
REMARK SMILES IDX 22 25 23 26 24 28 25 29 26 30 72 31 27 32 71 33 28 34 29 35
REMARK SMILES IDX 30 36 65 37 31 38 70 39 64 40 66 41 32 42 69 43 63 44 62 45
REMARK SMILES IDX 33 47 55 48 40 49 54 50 41 51 44 52 53 53 67 54 42 55 43 56
REMARK SMILES IDX 52 58 68 59 45 60 34 61 35 62 39 63 36 64 38 65 37 66 56 67
REMARK SMILES IDX 57 68 61 69 58 70 60 71 59 72 46 73 47 74 51 75 48 76 50 77
REMARK SMILES IDX 49 78
REMARK H PARENT 18 5 10 15 22 27 66 46 44 57
REMARK Flexibility Score: inf
ROOT
ATOM      1  C   UNL A   1      36.483  20.547  25.043  1.00  0.00     0.117 C 
ENDROOT
BRANCH   1   2
ATOM      2  N   UNL A   1      35.281  19.747  24.961  1.00  0.00    -0.354 N 
ATOM      3  C   UNL A   1      33.971  20.119  24.968  1.00  0.00     0.249 C 
ATOM      4  O   UNL A   1      33.132  19.217  24.879  1.00  0.00    -0.272 OA
ATOM      5  H   UNL A   1      35.434  18.777  24.887  1.00  0.00     0.163 HD
BRANCH   3   6
ATOM      6  C   UNL A   1      33.528  21.585  25.177  1.00  0.00     0.207 C 
ATOM      7  C   UNL A   1      34.778  23.568  25.385  1.00  0.00     0.138 C 
ATOM      8  C   UNL A   1      34.571  23.017  26.784  1.00  0.00     0.037 C 
ATOM      9  O   UNL A   1      34.244  22.593  24.468  1.00  0.00    -0.363 OA
ATOM     10  C   UNL A   1      33.523  21.950  26.648  1.00  0.00     0.045 C 
BRANCH   7  11
ATOM     11  C   UNL A   1      34.196  24.944  25.045  1.00  0.00     0.149 C 
BRANCH  11  12
ATOM     12  N   UNL A   1      34.043  25.182  23.636  1.00  0.00    -0.335 N 
ATOM     13  C   UNL A   1      33.150  25.517  22.720  1.00  0.00     0.317 C 
ATOM     14  O   UNL A   1      33.693  25.590  21.606  1.00  0.00    -0.249 OA
ATOM     15  H   UNL A   1      34.913  25.046  23.195  1.00  0.00     0.165 HD
BRANCH  13  16
ATOM     16  N   UNL A   1      31.811  25.739  22.873  1.00  0.00    -0.322 N 
ATOM     17  C   UNL A   1      30.740  23.713  24.232  1.00  0.00     0.031 C 
ATOM     18  C   UNL A   1      30.621  24.966  23.372  1.00  0.00     0.083 C 
ATOM     19  C   UNL A   1      29.689  25.886  24.212  1.00  0.00     0.025 C 
ATOM     20  C   UNL A   1      29.320  27.189  23.530  1.00  0.00     0.004 C 
ATOM     21  C   UNL A   1      31.385  26.984  22.188  1.00  0.00     0.121 C 
ATOM     22  C   UNL A   1      30.579  27.902  23.092  1.00  0.00     0.022 C 
ENDBRANCH  13  16
ENDBRANCH  11  12
ENDBRANCH   7  11
ENDBRANCH   3   6
ENDBRANCH   1   2
BRANCH   1  23
ATOM     23  C   UNL A   1      37.741  19.696  24.915  1.00  0.00     0.042 C 
BRANCH  23  24
ATOM     24  C   UNL A   1      38.895  20.233  25.747  1.00  0.00     0.118 C 
BRANCH  24  25
ATOM     25  N   UNL A   1      39.996  19.281  25.826  1.00  0.00    -0.352 N 
ATOM     26  C   UNL A   1      41.323  19.493  26.081  1.00  0.00     0.251 C 
ATOM     27  H   UNL A   1      39.745  18.341  25.673  1.00  0.00     0.163 HD
ATOM     28  O   UNL A   1      42.131  18.580  25.901  1.00  0.00    -0.269 OA
BRANCH  26  29
ATOM     29  C   UNL A   1      41.795  20.809  26.554  1.00  0.00     0.039 A 
ATOM     30  C   UNL A   1      42.177  21.770  25.613  1.00  0.00     0.014 A 
ATOM     31  C   UNL A   1      41.891  21.089  27.919  1.00  0.00     0.014 A 
ATOM     32  C   UNL A   1      42.612  23.023  26.041  1.00  0.00     0.010 A 
ATOM     33  C   UNL A   1      42.237  22.366  28.342  1.00  0.00     0.010 A 
ATOM     34  C   UNL A   1      42.621  23.339  27.409  1.00  0.00    -0.014 A 
BRANCH  34  35
ATOM     35  C   UNL A   1      43.069  24.665  27.896  1.00  0.00     0.031 A 
ATOM     36  C   UNL A   1      42.048  25.717  28.233  1.00  0.00     0.074 A 
ATOM     37  C   UNL A   1      44.385  24.943  27.969  1.00  0.00     0.049 A 
ATOM     38  N   UNL A   1      42.230  26.968  28.568  1.00  0.00    -0.248 NA
ATOM     39  C   UNL A   1      40.632  25.318  28.149  1.00  0.00     0.031 C 
ATOM     40  C   UNL A   1      45.469  24.015  27.637  1.00  0.00     0.029 A 
ATOM     41  N   UNL A   1      45.033  26.095  28.335  1.00  0.00    -0.354 N 
ATOM     42  C   UNL A   1      40.958  27.507  28.716  1.00  0.00     0.074 A 
ATOM     43  C   UNL A   1      40.013  26.466  28.377  1.00  0.00     0.031 C 
ATOM     44  C   UNL A   1      46.647  24.631  27.832  1.00  0.00     0.029 A 
ATOM     45  C   UNL A   1      46.401  26.004  28.258  1.00  0.00     0.049 A 
ATOM     46  H   UNL A   1      44.562  26.909  28.624  1.00  0.00     0.167 HD
ATOM     47  C   UNL A   1      40.605  28.749  29.121  1.00  0.00     0.031 A 
ATOM     48  C   UNL A   1      47.350  26.930  28.493  1.00  0.00     0.031 A 
ATOM     49  C   UNL A   1      41.548  29.776  29.470  1.00  0.00     0.049 A 
ATOM     50  C   UNL A   1      46.932  28.307  28.930  1.00  0.00     0.074 A 
ATOM     51  C   UNL A   1      41.296  31.056  29.932  1.00  0.00     0.029 A 
ATOM     52  N   UNL A   1      42.926  29.635  29.405  1.00  0.00    -0.354 N 
ATOM     53  N   UNL A   1      45.726  28.785  29.113  1.00  0.00    -0.248 NA
ATOM     54  C   UNL A   1      48.010  29.268  29.206  1.00  0.00     0.031 C 
ATOM     55  C   UNL A   1      42.523  31.705  30.102  1.00  0.00     0.029 A 
ATOM     56  C   UNL A   1      43.538  30.810  29.804  1.00  0.00     0.049 A 
ATOM     57  H   UNL A   1      43.397  28.820  29.117  1.00  0.00     0.167 HD
ATOM     58  C   UNL A   1      45.899  30.090  29.557  1.00  0.00     0.074 A 
ATOM     59  C   UNL A   1      47.327  30.322  29.628  1.00  0.00     0.031 C 
ATOM     60  C   UNL A   1      44.961  31.014  29.878  1.00  0.00     0.031 A 
BRANCH  47  61
ATOM     61  C   UNL A   1      39.137  29.060  29.207  1.00  0.00    -0.014 A 
ATOM     62  C   UNL A   1      38.424  28.872  30.403  1.00  0.00     0.009 A 
ATOM     63  C   UNL A   1      38.463  29.579  28.091  1.00  0.00     0.009 A 
ATOM     64  C   UNL A   1      37.060  29.163  30.468  1.00  0.00     0.001 A 
ATOM     65  C   UNL A   1      37.105  29.897  28.167  1.00  0.00     0.001 A 
ATOM     66  C   UNL A   1      36.404  29.680  29.352  1.00  0.00     0.000 A 
ENDBRANCH  47  61
BRANCH  48  67
ATOM     67  C   UNL A   1      48.787  26.588  28.325  1.00  0.00    -0.014 A 
ATOM     68  C   UNL A   1      49.402  26.684  27.067  1.00  0.00     0.009 A 
ATOM     69  C   UNL A   1      49.549  26.150  29.420  1.00  0.00     0.009 A 
ATOM     70  C   UNL A   1      50.739  26.316  26.902  1.00  0.00     0.001 A 
ATOM     71  C   UNL A   1      50.894  25.812  29.258  1.00  0.00     0.001 A 
ATOM     72  C   UNL A   1      51.485  25.883  27.998  1.00  0.00     0.000 A 
ENDBRANCH  48  67
BRANCH  60  73
ATOM     73  C   UNL A   1      45.448  32.342  30.384  1.00  0.00    -0.014 A 
ATOM     74  C   UNL A   1      45.662  33.422  29.514  1.00  0.00     0.009 A 
ATOM     75  C   UNL A   1      45.642  32.526  31.762  1.00  0.00     0.009 A 
ATOM     76  C   UNL A   1      46.093  34.652  30.014  1.00  0.00     0.001 A 
ATOM     77  C   UNL A   1      46.044  33.765  32.261  1.00  0.00     0.001 A 
ATOM     78  C   UNL A   1      46.277  34.825  31.386  1.00  0.00     0.000 A 
ENDBRANCH  60  73
ENDBRANCH  34  35
ENDBRANCH  26  29
ENDBRANCH  24  25
ENDBRANCH  23  24
ENDBRANCH   1  23
TORSDOF 13
ENDMDL
