MODEL 1
REMARK VINA RESULT:     -12.5      0.000      0.000
REMARK SMILES CC(C)C(=O)Nc1ccc2c([C@H](C(=O)NCCCNC(=O)c3ccc(-c4c5nc(c(-c6ccccc6)c6ccc([nH]6)c(-c6ccccc6)c6nc(c(-c7ccccc7)c7ccc4[nH]7)C=C6)C=C5)cc3)[NH+]3CC[NH+](CC(=O)N(C)C)CC3)c[nH]c2c1
REMARK SMILES IDX 16 1 15 2 13 3 14 4 12 6 11 7 7 8 8 9 85 10 9 11 84 12 10 13
REMARK SMILES IDX 83 14 82 15 6 17 4 18 5 19 2 21 1 22 3 23 70 24 71 25 81 26
REMARK SMILES IDX 72 28 80 29 73 30 74 32 75 33 76 34 77 35 78 36 79 37 17 38
REMARK SMILES IDX 18 39 19 40 20 41 21 43 22 44 23 45 69 46 24 47 68 48 25 49
REMARK SMILES IDX 26 50 27 51 62 52 28 53 67 54 61 55 63 56 29 57 66 58 60 59
REMARK SMILES IDX 59 60 30 62 52 63 37 64 51 65 38 66 41 67 50 68 64 69 39 70
REMARK SMILES IDX 40 71 49 73 65 74 42 75 31 76 32 77 36 78 33 79 35 80 34 81
REMARK SMILES IDX 53 82 54 83 58 84 55 85 57 86 56 87 43 88 44 89 48 90 45 91
REMARK SMILES IDX 47 92 46 93
REMARK H PARENT 15 5 83 16 6 20 70 27 73 31 19 42 63 61 41 72
REMARK Flexibility Score: inf
ROOT
ATOM      1  C   UNL A   1      34.421  27.263  25.382  1.00  0.00     0.118 C 
ENDROOT
BRANCH   1   2
ATOM      2  N   UNL A   1      33.949  26.644  24.147  1.00  0.00    -0.351 N 
ATOM      3  C   UNL A   1      32.752  26.092  23.746  1.00  0.00     0.283 C 
ATOM      4  O   UNL A   1      32.745  25.650  22.591  1.00  0.00    -0.268 OA
ATOM      5  H   UNL A   1      34.639  26.615  23.445  1.00  0.00     0.163 HD
BRANCH   3   6
ATOM      6  C   UNL A   1      31.529  25.996  24.700  1.00  0.00     0.308 C 
BRANCH   6   7
ATOM      7  C   UNL A   1      30.219  26.545  24.140  1.00  0.00     0.044 A 
ATOM      8  C   UNL A   1      29.199  29.972  21.901  1.00  0.00     0.043 A 
ATOM      9  C   UNL A   1      30.533  29.879  22.279  1.00  0.00     0.027 A 
ATOM     10  C   UNL A   1      28.252  29.071  22.397  1.00  0.00     0.052 A 
ATOM     11  C   UNL A   1      30.988  28.795  23.035  1.00  0.00     0.013 A 
ATOM     12  C   UNL A   1      28.732  27.969  23.119  1.00  0.00     0.048 A 
ATOM     13  C   UNL A   1      30.081  27.789  23.422  1.00  0.00     0.009 A 
ATOM     14  N   UNL A   1      28.059  26.894  23.647  1.00  0.00    -0.361 N 
ATOM     15  C   UNL A   1      28.940  26.023  24.232  1.00  0.00     0.094 A 
ATOM     16  H   UNL A   1      27.084  26.768  23.610  1.00  0.00     0.166 HD
BRANCH   8  17
ATOM     17  N   UNL A   1      28.756  30.978  21.038  1.00  0.00    -0.326 N 
ATOM     18  C   UNL A   1      28.121  32.154  21.321  1.00  0.00     0.226 C 
ATOM     19  O   UNL A   1      27.677  32.805  20.366  1.00  0.00    -0.274 OA
ATOM     20  H   UNL A   1      28.926  30.815  20.083  1.00  0.00     0.169 HD
BRANCH  18  21
ATOM     21  C   UNL A   1      28.035  32.743  22.737  1.00  0.00     0.072 C 
ATOM     22  C   UNL A   1      27.507  31.784  23.794  1.00  0.00     0.018 C 
ATOM     23  C   UNL A   1      29.288  33.491  23.189  1.00  0.00     0.018 C 
ENDBRANCH  18  21
ENDBRANCH   8  17
ENDBRANCH   6   7
BRANCH   6  24
ATOM     24  N   UNL A   1      31.284  24.629  25.213  1.00  0.00    -0.312 N 
ATOM     25  C   UNL A   1      31.416  23.485  24.296  1.00  0.00     0.325 C 
ATOM     26  C   UNL A   1      31.889  24.341  26.500  1.00  0.00     0.325 C 
ATOM     27  H   UNL A   1      30.275  24.706  25.337  1.00  0.00     0.349 HD
ATOM     28  C   UNL A   1      32.763  22.720  24.299  1.00  0.00     0.325 C 
ATOM     29  C   UNL A   1      33.306  23.724  26.425  1.00  0.00     0.325 C 
ATOM     30  N   UNL A   1      33.430  22.531  25.598  1.00  0.00    -0.318 N 
ATOM     31  H   UNL A   1      34.424  22.421  25.394  1.00  0.00     0.348 HD
BRANCH  30  32
ATOM     32  C   UNL A   1      33.152  21.256  26.281  1.00  0.00     0.364 C 
BRANCH  32  33
ATOM     33  C   UNL A   1      33.112  20.021  25.373  1.00  0.00     0.277 C 
ATOM     34  O   UNL A   1      32.021  19.499  25.118  1.00  0.00    -0.268 OA
ATOM     35  N   UNL A   1      34.304  19.489  24.878  1.00  0.00    -0.344 N 
ATOM     36  C   UNL A   1      35.637  20.059  25.017  1.00  0.00     0.146 C 
ATOM     37  C   UNL A   1      34.249  18.205  24.194  1.00  0.00     0.146 C 
ENDBRANCH  32  33
ENDBRANCH  30  32
ENDBRANCH   6  24
ENDBRANCH   3   6
ENDBRANCH   1   2
BRANCH   1  38
ATOM     38  C   UNL A   1      33.700  28.565  25.791  1.00  0.00     0.042 C 
BRANCH  38  39
ATOM     39  C   UNL A   1      33.360  28.753  27.275  1.00  0.00     0.118 C 
BRANCH  39  40
ATOM     40  N   UNL A   1      33.481  30.136  27.692  1.00  0.00    -0.352 N 
ATOM     41  C   UNL A   1      34.520  30.790  28.301  1.00  0.00     0.251 C 
ATOM     42  H   UNL A   1      32.691  30.694  27.507  1.00  0.00     0.163 HD
ATOM     43  O   UNL A   1      34.310  31.914  28.771  1.00  0.00    -0.269 OA
BRANCH  41  44
ATOM     44  C   UNL A   1      35.883  30.209  28.426  1.00  0.00     0.039 A 
ATOM     45  C   UNL A   1      36.276  29.715  29.678  1.00  0.00     0.014 A 
ATOM     46  C   UNL A   1      36.824  30.261  27.391  1.00  0.00     0.014 A 
ATOM     47  C   UNL A   1      37.588  29.271  29.891  1.00  0.00     0.010 A 
ATOM     48  C   UNL A   1      38.130  29.785  27.598  1.00  0.00     0.010 A 
ATOM     49  C   UNL A   1      38.531  29.299  28.854  1.00  0.00    -0.014 A 
BRANCH  49  50
ATOM     50  C   UNL A   1      39.930  28.841  29.091  1.00  0.00     0.031 A 
ATOM     51  C   UNL A   1      40.941  29.743  29.754  1.00  0.00     0.074 A 
ATOM     52  C   UNL A   1      40.311  27.605  28.709  1.00  0.00     0.049 A 
ATOM     53  N   UNL A   1      42.201  29.508  30.033  1.00  0.00    -0.248 NA
ATOM     54  C   UNL A   1      40.479  31.082  30.146  1.00  0.00     0.031 C 
ATOM     55  C   UNL A   1      39.450  26.618  28.058  1.00  0.00     0.029 A 
ATOM     56  N   UNL A   1      41.526  26.971  28.814  1.00  0.00    -0.354 N 
ATOM     57  C   UNL A   1      42.685  30.672  30.619  1.00  0.00     0.074 A 
ATOM     58  C   UNL A   1      41.590  31.620  30.631  1.00  0.00     0.031 C 
ATOM     59  C   UNL A   1      40.159  25.498  27.836  1.00  0.00     0.029 A 
ATOM     60  C   UNL A   1      41.530  25.697  28.301  1.00  0.00     0.049 A 
ATOM     61  H   UNL A   1      42.320  27.390  29.220  1.00  0.00     0.167 HD
ATOM     62  C   UNL A   1      43.921  30.930  31.113  1.00  0.00     0.031 A 
ATOM     63  C   UNL A   1      42.521  24.789  28.206  1.00  0.00     0.031 A 
ATOM     64  C   UNL A   1      45.018  29.997  31.122  1.00  0.00     0.049 A 
ATOM     65  C   UNL A   1      43.892  25.111  28.730  1.00  0.00     0.074 A 
ATOM     66  C   UNL A   1      46.287  30.165  31.654  1.00  0.00     0.029 A 
ATOM     67  N   UNL A   1      44.982  28.728  30.570  1.00  0.00    -0.354 N 
ATOM     68  N   UNL A   1      44.313  26.197  29.329  1.00  0.00    -0.248 NA
ATOM     69  C   UNL A   1      44.922  24.073  28.573  1.00  0.00     0.031 C 
ATOM     70  C   UNL A   1      47.033  29.011  31.384  1.00  0.00     0.029 A 
ATOM     71  C   UNL A   1      46.214  28.111  30.724  1.00  0.00     0.049 A 
ATOM     72  H   UNL A   1      44.199  28.323  30.133  1.00  0.00     0.167 HD
ATOM     73  C   UNL A   1      45.646  25.964  29.639  1.00  0.00     0.074 A 
ATOM     74  C   UNL A   1      45.963  24.631  29.175  1.00  0.00     0.031 C 
ATOM     75  C   UNL A   1      46.528  26.786  30.259  1.00  0.00     0.031 A 
BRANCH  62  76
ATOM     76  C   UNL A   1      44.167  32.300  31.683  1.00  0.00    -0.014 A 
ATOM     77  C   UNL A   1      43.933  32.576  33.038  1.00  0.00     0.009 A 
ATOM     78  C   UNL A   1      44.696  33.310  30.864  1.00  0.00     0.009 A 
ATOM     79  C   UNL A   1      44.194  33.847  33.555  1.00  0.00     0.001 A 
ATOM     80  C   UNL A   1      44.978  34.572  31.389  1.00  0.00     0.001 A 
ATOM     81  C   UNL A   1      44.719  34.842  32.731  1.00  0.00     0.000 A 
ENDBRANCH  62  76
BRANCH  63  82
ATOM     82  C   UNL A   1      42.253  23.467  27.584  1.00  0.00    -0.014 A 
ATOM     83  C   UNL A   1      42.500  23.260  26.219  1.00  0.00     0.009 A 
ATOM     84  C   UNL A   1      41.734  22.412  28.350  1.00  0.00     0.009 A 
ATOM     85  C   UNL A   1      42.213  22.028  25.628  1.00  0.00     0.001 A 
ATOM     86  C   UNL A   1      41.470  21.174  27.761  1.00  0.00     0.001 A 
ATOM     87  C   UNL A   1      41.703  20.985  26.400  1.00  0.00     0.000 A 
ENDBRANCH  63  82
BRANCH  75  88
ATOM     88  C   UNL A   1      47.914  26.258  30.499  1.00  0.00    -0.014 A 
ATOM     89  C   UNL A   1      48.273  25.695  31.732  1.00  0.00     0.009 A 
ATOM     90  C   UNL A   1      48.863  26.296  29.465  1.00  0.00     0.009 A 
ATOM     91  C   UNL A   1      49.565  25.204  31.935  1.00  0.00     0.001 A 
ATOM     92  C   UNL A   1      50.147  25.785  29.663  1.00  0.00     0.001 A 
ATOM     93  C   UNL A   1      50.499  25.246  30.900  1.00  0.00     0.000 A 
ENDBRANCH  75  88
ENDBRANCH  49  50
ENDBRANCH  41  44
ENDBRANCH  39  40
ENDBRANCH  38  39
ENDBRANCH   1  38
TORSDOF 16
ENDMDL
MODEL 2
REMARK VINA RESULT:     -12.0      2.482      9.221
REMARK SMILES CC(C)C(=O)Nc1ccc2c([C@H](C(=O)NCCCNC(=O)c3ccc(-c4c5nc(c(-c6ccccc6)c6ccc([nH]6)c(-c6ccccc6)c6nc(c(-c7ccccc7)c7ccc4[nH]7)C=C6)C=C5)cc3)[NH+]3CC[NH+](CC(=O)N(C)C)CC3)c[nH]c2c1
REMARK SMILES IDX 16 1 15 2 13 3 14 4 12 6 11 7 7 8 8 9 85 10 9 11 84 12 10 13
REMARK SMILES IDX 83 14 82 15 6 17 4 18 5 19 2 21 1 22 3 23 70 24 71 25 81 26
REMARK SMILES IDX 72 28 80 29 73 30 74 32 75 33 76 34 77 35 78 36 79 37 17 38
REMARK SMILES IDX 18 39 19 40 20 41 21 43 22 44 23 45 69 46 24 47 68 48 25 49
REMARK SMILES IDX 26 50 27 51 62 52 28 53 67 54 61 55 63 56 29 57 66 58 60 59
REMARK SMILES IDX 59 60 30 62 52 63 37 64 51 65 38 66 41 67 50 68 64 69 39 70
REMARK SMILES IDX 40 71 49 73 65 74 42 75 31 76 32 77 36 78 33 79 35 80 34 81
REMARK SMILES IDX 53 82 54 83 58 84 55 85 57 86 56 87 43 88 44 89 48 90 45 91
REMARK SMILES IDX 47 92 46 93
REMARK H PARENT 15 5 83 16 6 20 70 27 73 31 19 42 63 61 41 72
REMARK Flexibility Score: inf
ROOT
ATOM      1  C   UNL A   1      34.918  24.768  25.563  1.00  0.00     0.118 C 
ENDROOT
BRANCH   1   2
ATOM      2  N   UNL A   1      33.513  24.536  25.888  1.00  0.00    -0.351 N 
ATOM      3  C   UNL A   1      32.402  24.187  25.152  1.00  0.00     0.283 C 
ATOM      4  O   UNL A   1      31.356  24.092  25.804  1.00  0.00    -0.268 OA
ATOM      5  H   UNL A   1      33.317  24.655  26.845  1.00  0.00     0.163 HD
BRANCH   3   6
ATOM      6  C   UNL A   1      32.466  23.982  23.612  1.00  0.00     0.308 C 
BRANCH   6   7
ATOM      7  C   UNL A   1      32.241  22.549  23.135  1.00  0.00     0.044 A 
ATOM      8  C   UNL A   1      32.519  18.767  24.984  1.00  0.00     0.043 A 
ATOM      9  C   UNL A   1      32.888  19.849  25.774  1.00  0.00     0.027 A 
ATOM     10  C   UNL A   1      32.254  18.936  23.621  1.00  0.00     0.052 A 
ATOM     11  C   UNL A   1      32.850  21.151  25.267  1.00  0.00     0.013 A 
ATOM     12  C   UNL A   1      32.180  20.252  23.141  1.00  0.00     0.048 A 
ATOM     13  C   UNL A   1      32.438  21.367  23.937  1.00  0.00     0.009 A 
ATOM     14  N   UNL A   1      31.858  20.722  21.891  1.00  0.00    -0.361 N 
ATOM     15  C   UNL A   1      31.862  22.092  21.883  1.00  0.00     0.094 A 
ATOM     16  H   UNL A   1      31.654  20.156  21.112  1.00  0.00     0.166 HD
BRANCH   8  17
ATOM     17  N   UNL A   1      32.427  17.477  25.513  1.00  0.00    -0.326 N 
ATOM     18  C   UNL A   1      33.237  16.395  25.322  1.00  0.00     0.226 C 
ATOM     19  O   UNL A   1      32.851  15.308  25.770  1.00  0.00    -0.274 OA
ATOM     20  H   UNL A   1      31.662  17.325  26.113  1.00  0.00     0.169 HD
BRANCH  18  21
ATOM     21  C   UNL A   1      34.632  16.491  24.684  1.00  0.00     0.072 C 
ATOM     22  C   UNL A   1      35.709  15.675  25.383  1.00  0.00     0.018 C 
ATOM     23  C   UNL A   1      34.647  16.316  23.167  1.00  0.00     0.018 C 
ENDBRANCH  18  21
ENDBRANCH   8  17
ENDBRANCH   6   7
BRANCH   6  24
ATOM     24  N   UNL A   1      31.561  24.876  22.857  1.00  0.00    -0.312 N 
ATOM     25  C   UNL A   1      30.326  25.356  23.500  1.00  0.00     0.325 C 
ATOM     26  C   UNL A   1      32.221  25.945  22.130  1.00  0.00     0.325 C 
ATOM     27  H   UNL A   1      31.216  24.190  22.186  1.00  0.00     0.349 HD
ATOM     28  C   UNL A   1      30.364  26.755  24.163  1.00  0.00     0.325 C 
ATOM     29  C   UNL A   1      32.366  27.268  22.919  1.00  0.00     0.325 C 
ATOM     30  N   UNL A   1      31.134  27.807  23.478  1.00  0.00    -0.318 N 
ATOM     31  H   UNL A   1      31.408  28.474  24.200  1.00  0.00     0.348 HD
BRANCH  30  32
ATOM     32  C   UNL A   1      30.362  28.684  22.580  1.00  0.00     0.364 C 
BRANCH  32  33
ATOM     33  C   UNL A   1      29.775  29.939  23.235  1.00  0.00     0.277 C 
ATOM     34  O   UNL A   1      30.233  30.320  24.319  1.00  0.00    -0.268 OA
ATOM     35  N   UNL A   1      28.717  30.609  22.619  1.00  0.00    -0.344 N 
ATOM     36  C   UNL A   1      28.155  30.329  21.305  1.00  0.00     0.146 C 
ATOM     37  C   UNL A   1      28.051  31.669  23.364  1.00  0.00     0.146 C 
ENDBRANCH  32  33
ENDBRANCH  30  32
ENDBRANCH   6  24
ENDBRANCH   3   6
ENDBRANCH   1   2
BRANCH   1  38
ATOM     38  C   UNL A   1      35.848  23.546  25.724  1.00  0.00     0.042 C 
BRANCH  38  39
ATOM     39  C   UNL A   1      37.068  23.456  24.799  1.00  0.00     0.118 C 
BRANCH  39  40
ATOM     40  N   UNL A   1      38.085  22.566  25.323  1.00  0.00    -0.352 N 
ATOM     41  C   UNL A   1      39.191  22.837  26.085  1.00  0.00     0.251 C 
ATOM     42  H   UNL A   1      37.960  21.616  25.095  1.00  0.00     0.163 HD
ATOM     43  O   UNL A   1      40.042  21.949  26.220  1.00  0.00    -0.269 OA
BRANCH  41  44
ATOM     44  C   UNL A   1      39.417  24.146  26.752  1.00  0.00     0.039 A 
ATOM     45  C   UNL A   1      40.165  25.114  26.067  1.00  0.00     0.014 A 
ATOM     46  C   UNL A   1      39.035  24.396  28.075  1.00  0.00     0.014 A 
ATOM     47  C   UNL A   1      40.517  26.319  26.689  1.00  0.00     0.010 A 
ATOM     48  C   UNL A   1      39.361  25.619  28.687  1.00  0.00     0.010 A 
ATOM     49  C   UNL A   1      40.120  26.587  28.007  1.00  0.00    -0.014 A 
BRANCH  49  50
ATOM     50  C   UNL A   1      40.512  27.863  28.671  1.00  0.00     0.031 A 
ATOM     51  C   UNL A   1      41.914  28.072  29.184  1.00  0.00     0.074 A 
ATOM     52  C   UNL A   1      39.608  28.851  28.825  1.00  0.00     0.049 A 
ATOM     53  N   UNL A   1      42.426  29.116  29.791  1.00  0.00    -0.248 NA
ATOM     54  C   UNL A   1      42.862  26.963  28.998  1.00  0.00     0.031 C 
ATOM     55  C   UNL A   1      38.215  28.800  28.382  1.00  0.00     0.029 A 
ATOM     56  N   UNL A   1      39.730  30.094  29.400  1.00  0.00    -0.354 N 
ATOM     57  C   UNL A   1      43.747  28.786  30.071  1.00  0.00     0.074 A 
ATOM     58  C   UNL A   1      43.950  27.435  29.592  1.00  0.00     0.031 C 
ATOM     59  C   UNL A   1      37.616  29.963  28.687  1.00  0.00     0.029 A 
ATOM     60  C   UNL A   1      38.570  30.831  29.372  1.00  0.00     0.049 A 
ATOM     61  H   UNL A   1      40.569  30.425  29.794  1.00  0.00     0.167 HD
ATOM     62  C   UNL A   1      44.708  29.537  30.662  1.00  0.00     0.031 A 
ATOM     63  C   UNL A   1      38.299  32.062  29.847  1.00  0.00     0.031 A 
ATOM     64  C   UNL A   1      44.530  30.887  31.132  1.00  0.00     0.049 A 
ATOM     65  C   UNL A   1      39.373  32.862  30.528  1.00  0.00     0.074 A 
ATOM     66  C   UNL A   1      45.472  31.735  31.694  1.00  0.00     0.029 A 
ATOM     67  N   UNL A   1      43.334  31.583  31.105  1.00  0.00    -0.354 N 
ATOM     68  N   UNL A   1      40.628  32.551  30.735  1.00  0.00    -0.248 NA
ATOM     69  C   UNL A   1      38.990  34.189  31.034  1.00  0.00     0.031 C 
ATOM     70  C   UNL A   1      44.833  32.929  32.047  1.00  0.00     0.029 A 
ATOM     71  C   UNL A   1      43.506  32.840  31.663  1.00  0.00     0.049 A 
ATOM     72  H   UNL A   1      42.487  31.237  30.742  1.00  0.00     0.167 HD
ATOM     73  C   UNL A   1      41.190  33.651  31.371  1.00  0.00     0.074 A 
ATOM     74  C   UNL A   1      40.143  34.641  31.507  1.00  0.00     0.031 C 
ATOM     75  C   UNL A   1      42.464  33.822  31.801  1.00  0.00     0.031 A 
BRANCH  62  76
ATOM     76  C   UNL A   1      46.061  28.907  30.851  1.00  0.00    -0.014 A 
ATOM     77  C   UNL A   1      47.063  29.032  29.877  1.00  0.00     0.009 A 
ATOM     78  C   UNL A   1      46.352  28.230  32.045  1.00  0.00     0.009 A 
ATOM     79  C   UNL A   1      48.322  28.463  30.083  1.00  0.00     0.001 A 
ATOM     80  C   UNL A   1      47.619  27.683  32.258  1.00  0.00     0.001 A 
ATOM     81  C   UNL A   1      48.599  27.792  31.274  1.00  0.00     0.000 A 
ENDBRANCH  62  76
BRANCH  63  82
ATOM     82  C   UNL A   1      36.934  32.628  29.692  1.00  0.00    -0.014 A 
ATOM     83  C   UNL A   1      36.591  33.351  28.539  1.00  0.00     0.009 A 
ATOM     84  C   UNL A   1      35.975  32.462  30.702  1.00  0.00     0.009 A 
ATOM     85  C   UNL A   1      35.320  33.914  28.411  1.00  0.00     0.001 A 
ATOM     86  C   UNL A   1      34.697  33.006  30.560  1.00  0.00     0.001 A 
ATOM     87  C   UNL A   1      34.373  33.737  29.419  1.00  0.00     0.000 A 
ENDBRANCH  63  82
BRANCH  75  88
ATOM     88  C   UNL A   1      42.808  35.141  32.433  1.00  0.00    -0.014 A 
ATOM     89  C   UNL A   1      43.439  36.155  31.699  1.00  0.00     0.009 A 
ATOM     90  C   UNL A   1      42.466  35.381  33.773  1.00  0.00     0.009 A 
ATOM     91  C   UNL A   1      43.747  37.377  32.304  1.00  0.00     0.001 A 
ATOM     92  C   UNL A   1      42.755  36.610  34.369  1.00  0.00     0.001 A 
ATOM     93  C   UNL A   1      43.402  37.604  33.636  1.00  0.00     0.000 A 
ENDBRANCH  75  88
ENDBRANCH  49  50
ENDBRANCH  41  44
ENDBRANCH  39  40
ENDBRANCH  38  39
ENDBRANCH   1  38
TORSDOF 16
ENDMDL
MODEL 3
REMARK VINA RESULT:     -12.0      1.048      8.170
REMARK SMILES CC(C)C(=O)Nc1ccc2c([C@H](C(=O)NCCCNC(=O)c3ccc(-c4c5nc(c(-c6ccccc6)c6ccc([nH]6)c(-c6ccccc6)c6nc(c(-c7ccccc7)c7ccc4[nH]7)C=C6)C=C5)cc3)[NH+]3CC[NH+](CC(=O)N(C)C)CC3)c[nH]c2c1
REMARK SMILES IDX 16 1 15 2 13 3 14 4 12 6 11 7 7 8 8 9 85 10 9 11 84 12 10 13
REMARK SMILES IDX 83 14 82 15 6 17 4 18 5 19 2 21 1 22 3 23 70 24 71 25 81 26
REMARK SMILES IDX 72 28 80 29 73 30 74 32 75 33 76 34 77 35 78 36 79 37 17 38
REMARK SMILES IDX 18 39 19 40 20 41 21 43 22 44 23 45 69 46 24 47 68 48 25 49
REMARK SMILES IDX 26 50 27 51 62 52 28 53 67 54 61 55 63 56 29 57 66 58 60 59
REMARK SMILES IDX 59 60 30 62 52 63 37 64 51 65 38 66 41 67 50 68 64 69 39 70
REMARK SMILES IDX 40 71 49 73 65 74 42 75 31 76 32 77 36 78 33 79 35 80 34 81
REMARK SMILES IDX 53 82 54 83 58 84 55 85 57 86 56 87 43 88 44 89 48 90 45 91
REMARK SMILES IDX 47 92 46 93
REMARK H PARENT 15 5 83 16 6 20 70 27 73 31 19 42 63 61 41 72
REMARK Flexibility Score: inf
ROOT
ATOM      1  C   UNL A   1      33.761  26.924  25.268  1.00  0.00     0.118 C 
ENDROOT
BRANCH   1   2
ATOM      2  N   UNL A   1      33.692  26.839  23.812  1.00  0.00    -0.351 N 
ATOM      3  C   UNL A   1      32.680  26.592  22.911  1.00  0.00     0.283 C 
ATOM      4  O   UNL A   1      33.029  26.595  21.724  1.00  0.00    -0.268 OA
ATOM      5  H   UNL A   1      34.563  26.992  23.378  1.00  0.00     0.163 HD
BRANCH   3   6
ATOM      6  C   UNL A   1      31.227  26.286  23.369  1.00  0.00     0.308 C 
BRANCH   6   7
ATOM      7  C   UNL A   1      31.080  25.112  24.334  1.00  0.00     0.044 A 
ATOM      8  C   UNL A   1      32.454  21.123  24.326  1.00  0.00     0.043 A 
ATOM      9  C   UNL A   1      32.757  21.863  23.190  1.00  0.00     0.027 A 
ATOM     10  C   UNL A   1      31.598  21.637  25.305  1.00  0.00     0.052 A 
ATOM     11  C   UNL A   1      32.343  23.193  23.071  1.00  0.00     0.013 A 
ATOM     12  C   UNL A   1      31.227  22.984  25.189  1.00  0.00     0.048 A 
ATOM     13  C   UNL A   1      31.605  23.787  24.114  1.00  0.00     0.009 A 
ATOM     14  N   UNL A   1      30.479  23.773  26.029  1.00  0.00    -0.361 N 
ATOM     15  C   UNL A   1      30.410  25.052  25.545  1.00  0.00     0.094 A 
ATOM     16  H   UNL A   1      30.053  23.462  26.861  1.00  0.00     0.166 HD
BRANCH   8  17
ATOM     17  N   UNL A   1      32.970  19.838  24.516  1.00  0.00    -0.326 N 
ATOM     18  C   UNL A   1      34.266  19.428  24.646  1.00  0.00     0.226 C 
ATOM     19  O   UNL A   1      34.481  18.209  24.637  1.00  0.00    -0.274 OA
ATOM     20  H   UNL A   1      32.298  19.121  24.563  1.00  0.00     0.169 HD
BRANCH  18  21
ATOM     21  C   UNL A   1      35.431  20.395  24.908  1.00  0.00     0.072 C 
ATOM     22  C   UNL A   1      35.245  21.304  26.114  1.00  0.00     0.018 C 
ATOM     23  C   UNL A   1      36.814  19.746  24.863  1.00  0.00     0.018 C 
ENDBRANCH  18  21
ENDBRANCH   8  17
ENDBRANCH   6   7
BRANCH   6  24
ATOM     24  N   UNL A   1      30.527  27.457  23.944  1.00  0.00    -0.312 N 
ATOM     25  C   UNL A   1      30.922  28.809  23.514  1.00  0.00     0.325 C 
ATOM     26  C   UNL A   1      29.083  27.331  24.018  1.00  0.00     0.325 C 
ATOM     27  H   UNL A   1      30.909  27.397  24.887  1.00  0.00     0.349 HD
ATOM     28  C   UNL A   1      30.087  29.473  22.392  1.00  0.00     0.325 C 
ATOM     29  C   UNL A   1      28.323  27.874  22.785  1.00  0.00     0.325 C 
ATOM     30  N   UNL A   1      28.631  29.246  22.407  1.00  0.00    -0.318 N 
ATOM     31  H   UNL A   1      28.316  29.362  21.444  1.00  0.00     0.348 HD
BRANCH  30  32
ATOM     32  C   UNL A   1      27.829  30.283  23.081  1.00  0.00     0.364 C 
BRANCH  32  33
ATOM     33  C   UNL A   1      28.600  31.541  23.496  1.00  0.00     0.277 C 
ATOM     34  O   UNL A   1      29.168  31.562  24.594  1.00  0.00    -0.268 OA
ATOM     35  N   UNL A   1      28.620  32.649  22.648  1.00  0.00    -0.344 N 
ATOM     36  C   UNL A   1      28.083  32.723  21.296  1.00  0.00     0.146 C 
ATOM     37  C   UNL A   1      29.183  33.892  23.158  1.00  0.00     0.146 C 
ENDBRANCH  32  33
ENDBRANCH  30  32
ENDBRANCH   6  24
ENDBRANCH   3   6
ENDBRANCH   1   2
BRANCH   1  38
ATOM     38  C   UNL A   1      33.908  28.349  25.845  1.00  0.00     0.042 C 
BRANCH  38  39
ATOM     39  C   UNL A   1      33.390  28.596  27.267  1.00  0.00     0.118 C 
BRANCH  39  40
ATOM     40  N   UNL A   1      33.483  29.993  27.645  1.00  0.00    -0.352 N 
ATOM     41  C   UNL A   1      34.508  30.683  28.239  1.00  0.00     0.251 C 
ATOM     42  H   UNL A   1      32.684  30.530  27.444  1.00  0.00     0.163 HD
ATOM     43  O   UNL A   1      34.276  31.815  28.677  1.00  0.00    -0.269 OA
BRANCH  41  44
ATOM     44  C   UNL A   1      35.882  30.132  28.382  1.00  0.00     0.039 A 
ATOM     45  C   UNL A   1      36.271  29.653  29.641  1.00  0.00     0.014 A 
ATOM     46  C   UNL A   1      36.834  30.200  27.359  1.00  0.00     0.014 A 
ATOM     47  C   UNL A   1      37.589  29.238  29.872  1.00  0.00     0.010 A 
ATOM     48  C   UNL A   1      38.147  29.752  27.583  1.00  0.00     0.010 A 
ATOM     49  C   UNL A   1      38.544  29.281  28.846  1.00  0.00    -0.014 A 
BRANCH  49  50
ATOM     50  C   UNL A   1      39.950  28.855  29.101  1.00  0.00     0.031 A 
ATOM     51  C   UNL A   1      40.435  27.490  28.681  1.00  0.00     0.074 A 
ATOM     52  C   UNL A   1      40.809  29.690  29.718  1.00  0.00     0.049 A 
ATOM     53  N   UNL A   1      41.622  26.953  28.828  1.00  0.00    -0.248 NA
ATOM     54  C   UNL A   1      39.458  26.614  28.017  1.00  0.00     0.031 C 
ATOM     55  C   UNL A   1      40.490  31.040  30.183  1.00  0.00     0.029 A 
ATOM     56  N   UNL A   1      42.130  29.522  30.061  1.00  0.00    -0.354 N 
ATOM     57  C   UNL A   1      41.533  25.675  28.289  1.00  0.00     0.074 A 
ATOM     58  C   UNL A   1      40.167  25.507  27.836  1.00  0.00     0.031 C 
ATOM     59  C   UNL A   1      41.588  31.582  30.736  1.00  0.00     0.029 A 
ATOM     60  C   UNL A   1      42.679  30.612  30.692  1.00  0.00     0.049 A 
ATOM     61  H   UNL A   1      42.635  28.698  29.872  1.00  0.00     0.167 HD
ATOM     62  C   UNL A   1      42.496  24.728  28.170  1.00  0.00     0.031 A 
ATOM     63  C   UNL A   1      43.916  30.812  31.187  1.00  0.00     0.031 A 
ATOM     64  C   UNL A   1      43.862  24.881  28.602  1.00  0.00     0.049 A 
ATOM     65  C   UNL A   1      44.957  29.734  31.072  1.00  0.00     0.074 A 
ATOM     66  C   UNL A   1      44.913  23.987  28.467  1.00  0.00     0.029 A 
ATOM     67  N   UNL A   1      44.366  25.991  29.256  1.00  0.00    -0.354 N 
ATOM     68  N   UNL A   1      44.866  28.554  30.512  1.00  0.00    -0.248 NA
ATOM     69  C   UNL A   1      46.277  30.024  31.653  1.00  0.00     0.031 C 
ATOM     70  C   UNL A   1      46.043  24.540  29.080  1.00  0.00     0.029 A 
ATOM     71  C   UNL A   1      45.705  25.796  29.556  1.00  0.00     0.049 A 
ATOM     72  H   UNL A   1      43.850  26.800  29.476  1.00  0.00     0.167 HD
ATOM     73  C   UNL A   1      46.119  27.972  30.651  1.00  0.00     0.074 A 
ATOM     74  C   UNL A   1      46.958  28.931  31.338  1.00  0.00     0.031 C 
ATOM     75  C   UNL A   1      46.536  26.749  30.241  1.00  0.00     0.031 A 
BRANCH  62  76
ATOM     76  C   UNL A   1      42.104  23.415  27.551  1.00  0.00    -0.014 A 
ATOM     77  C   UNL A   1      42.348  23.148  26.196  1.00  0.00     0.009 A 
ATOM     78  C   UNL A   1      41.535  22.411  28.350  1.00  0.00     0.009 A 
ATOM     79  C   UNL A   1      42.002  21.912  25.646  1.00  0.00     0.001 A 
ATOM     80  C   UNL A   1      41.212  21.168  27.803  1.00  0.00     0.001 A 
ATOM     81  C   UNL A   1      41.438  20.923  26.450  1.00  0.00     0.000 A 
ENDBRANCH  62  76
BRANCH  63  82
ATOM     82  C   UNL A   1      44.249  32.102  31.842  1.00  0.00    -0.014 A 
ATOM     83  C   UNL A   1      44.039  32.275  33.219  1.00  0.00     0.009 A 
ATOM     84  C   UNL A   1      44.761  33.171  31.092  1.00  0.00     0.009 A 
ATOM     85  C   UNL A   1      44.318  33.500  33.827  1.00  0.00     0.001 A 
ATOM     86  C   UNL A   1      45.061  34.388  31.707  1.00  0.00     0.001 A 
ATOM     87  C   UNL A   1      44.832  34.554  33.072  1.00  0.00     0.000 A 
ENDBRANCH  63  82
BRANCH  75  88
ATOM     88  C   UNL A   1      47.972  26.387  30.497  1.00  0.00    -0.014 A 
ATOM     89  C   UNL A   1      48.972  26.677  29.557  1.00  0.00     0.009 A 
ATOM     90  C   UNL A   1      48.332  25.777  31.709  1.00  0.00     0.009 A 
ATOM     91  C   UNL A   1      50.303  26.337  29.815  1.00  0.00     0.001 A 
ATOM     92  C   UNL A   1      49.664  25.458  31.974  1.00  0.00     0.001 A 
ATOM     93  C   UNL A   1      50.648  25.732  31.023  1.00  0.00     0.000 A 
ENDBRANCH  75  88
ENDBRANCH  49  50
ENDBRANCH  41  44
ENDBRANCH  39  40
ENDBRANCH  38  39
ENDBRANCH   1  38
TORSDOF 16
ENDMDL
