MODEL 1
REMARK VINA RESULT:     -10.4      0.000      0.000
REMARK SMILES CCC[C@@H]([NH2+]C[C@H]1CSc2ccccc21)C(=O)NCCCNC(=O)c1ccc(-c2c3nc(c(-c4ccccc4)c4ccc([nH]4)c(-c4ccccc4)c4nc(c(-c5ccccc5)c5ccc2[nH]5)C=C4)C=C3)cc1
REMARK SMILES IDX 19 1 18 2 16 3 17 4 4 6 3 7 2 8 1 9 5 10 6 13 7 14 8 15
REMARK SMILES IDX 15 16 9 17 10 18 14 19 11 20 13 21 12 22 20 23 21 24 22 25
REMARK SMILES IDX 23 26 24 28 25 29 26 30 72 31 27 32 71 33 28 34 29 35 30 36
REMARK SMILES IDX 65 37 31 38 70 39 64 40 66 41 32 42 69 43 63 44 62 45 33 47
REMARK SMILES IDX 55 48 40 49 54 50 41 51 44 52 53 53 67 54 42 55 43 56 52 58
REMARK SMILES IDX 68 59 45 60 34 61 35 62 39 63 36 64 38 65 37 66 56 67 57 68
REMARK SMILES IDX 61 69 58 70 60 71 59 72 46 73 47 74 51 75 48 76 50 77 49 78
REMARK H PARENT 18 5 5 11 5 12 22 27 66 46 44 57
REMARK Flexibility Score: inf
ROOT
ATOM      1  C   UNL A   1      36.419  20.049  24.835  1.00  0.00     0.118 C 
ENDROOT
BRANCH   1   2
ATOM      2  N   UNL A   1      35.389  20.597  25.701  1.00  0.00    -0.351 N 
ATOM      3  C   UNL A   1      34.037  20.642  25.541  1.00  0.00     0.278 C 
ATOM      4  O   UNL A   1      33.376  21.163  26.445  1.00  0.00    -0.268 OA
ATOM      5  H   UNL A   1      35.722  20.999  26.535  1.00  0.00     0.163 HD
BRANCH   3   6
ATOM      6  C   UNL A   1      33.334  20.049  24.299  1.00  0.00     0.272 C 
BRANCH   6   7
ATOM      7  C   UNL A   1      33.075  18.544  24.488  1.00  0.00     0.075 C 
BRANCH   7   8
ATOM      8  C   UNL A   1      33.335  17.664  23.260  1.00  0.00     0.003 C 
ATOM      9  C   UNL A   1      34.051  16.359  23.570  1.00  0.00     0.004 C 
ENDBRANCH   7   8
ENDBRANCH   6   7
BRANCH   6  10
ATOM     10  N   UNL A   1      32.105  20.803  23.943  1.00  0.00    -0.335 N 
ATOM     11  H   UNL A   1      31.878  21.433  24.713  1.00  0.00     0.346 HD
ATOM     12  H   UNL A   1      31.370  20.118  23.775  1.00  0.00     0.346 HD
BRANCH  10  13
ATOM     13  C   UNL A   1      32.246  21.602  22.712  1.00  0.00     0.270 C 
BRANCH  13  14
ATOM     14  C   UNL A   1      32.223  23.130  22.921  1.00  0.00     0.086 C 
ATOM     15  C   UNL A   1      30.897  23.595  23.561  1.00  0.00     0.089 C 
ATOM     16  C   UNL A   1      33.364  23.609  23.785  1.00  0.00    -0.025 A 
ATOM     17  S   UNL A   1      31.250  24.469  25.115  1.00  0.00    -0.125 SA
ATOM     18  C   UNL A   1      32.995  24.315  24.927  1.00  0.00     0.011 A 
ATOM     19  C   UNL A   1      34.715  23.439  23.474  1.00  0.00     0.005 A 
ATOM     20  C   UNL A   1      33.953  24.841  25.782  1.00  0.00     0.015 A 
ATOM     21  C   UNL A   1      35.684  23.961  24.332  1.00  0.00     0.000 A 
ATOM     22  C   UNL A   1      35.305  24.659  25.481  1.00  0.00     0.001 A 
ENDBRANCH  13  14
ENDBRANCH  10  13
ENDBRANCH   6  10
ENDBRANCH   3   6
ENDBRANCH   1   2
BRANCH   1  23
ATOM     23  C   UNL A   1      37.586  21.013  24.679  1.00  0.00     0.042 C 
BRANCH  23  24
ATOM     24  C   UNL A   1      38.595  20.942  25.818  1.00  0.00     0.118 C 
BRANCH  24  25
ATOM     25  N   UNL A   1      39.534  19.836  25.685  1.00  0.00    -0.352 N 
ATOM     26  C   UNL A   1      40.883  19.804  25.958  1.00  0.00     0.251 C 
ATOM     27  H   UNL A   1      39.149  18.992  25.355  1.00  0.00     0.163 HD
ATOM     28  O   UNL A   1      41.555  18.822  25.661  1.00  0.00    -0.269 OA
BRANCH  26  29
ATOM     29  C   UNL A   1      41.526  20.986  26.568  1.00  0.00     0.039 A 
ATOM     30  C   UNL A   1      41.536  21.147  27.955  1.00  0.00     0.014 A 
ATOM     31  C   UNL A   1      42.060  21.974  25.738  1.00  0.00     0.014 A 
ATOM     32  C   UNL A   1      41.890  22.377  28.496  1.00  0.00     0.010 A 
ATOM     33  C   UNL A   1      42.503  23.177  26.294  1.00  0.00     0.010 A 
ATOM     34  C   UNL A   1      42.358  23.412  27.670  1.00  0.00    -0.014 A 
BRANCH  34  35
ATOM     35  C   UNL A   1      42.649  24.745  28.259  1.00  0.00     0.031 A 
ATOM     36  C   UNL A   1      44.065  25.150  28.574  1.00  0.00     0.074 A 
ATOM     37  C   UNL A   1      41.645  25.624  28.437  1.00  0.00     0.049 A 
ATOM     38  N   UNL A   1      44.507  26.277  29.075  1.00  0.00    -0.248 NA
ATOM     39  C   UNL A   1      45.124  24.167  28.289  1.00  0.00     0.031 C 
ATOM     40  C   UNL A   1      40.238  25.369  28.122  1.00  0.00     0.029 A 
ATOM     41  N   UNL A   1      41.657  26.920  28.887  1.00  0.00    -0.354 N 
ATOM     42  C   UNL A   1      45.885  26.132  29.179  1.00  0.00     0.074 A 
ATOM     43  C   UNL A   1      46.207  24.799  28.719  1.00  0.00     0.031 C 
ATOM     44  C   UNL A   1      39.535  26.494  28.321  1.00  0.00     0.029 A 
ATOM     45  C   UNL A   1      40.425  27.525  28.846  1.00  0.00     0.049 A 
ATOM     46  H   UNL A   1      42.470  27.372  29.207  1.00  0.00     0.167 HD
ATOM     47  C   UNL A   1      46.802  27.031  29.609  1.00  0.00     0.031 A 
ATOM     48  C   UNL A   1      40.046  28.768  29.198  1.00  0.00     0.031 A 
ATOM     49  C   UNL A   1      46.483  28.359  30.063  1.00  0.00     0.049 A 
ATOM     50  C   UNL A   1      41.067  29.722  29.742  1.00  0.00     0.074 A 
ATOM     51  C   UNL A   1      47.343  29.335  30.535  1.00  0.00     0.029 A 
ATOM     52  N   UNL A   1      45.207  28.898  30.093  1.00  0.00    -0.354 N 
ATOM     53  N   UNL A   1      42.361  29.554  29.873  1.00  0.00    -0.248 NA
ATOM     54  C   UNL A   1      40.580  31.031  30.197  1.00  0.00     0.031 C 
ATOM     55  C   UNL A   1      46.582  30.451  30.894  1.00  0.00     0.029 A 
ATOM     56  C   UNL A   1      45.255  30.188  30.591  1.00  0.00     0.049 A 
ATOM     57  H   UNL A   1      44.389  28.433  29.804  1.00  0.00     0.167 HD
ATOM     58  C   UNL A   1      42.843  30.737  30.416  1.00  0.00     0.074 A 
ATOM     59  C   UNL A   1      41.706  31.620  30.575  1.00  0.00     0.031 C 
ATOM     60  C   UNL A   1      44.117  31.056  30.751  1.00  0.00     0.031 A 
BRANCH  47  61
ATOM     61  C   UNL A   1      48.244  26.606  29.629  1.00  0.00    -0.014 A 
ATOM     62  C   UNL A   1      49.056  26.839  28.507  1.00  0.00     0.009 A 
ATOM     63  C   UNL A   1      48.783  25.915  30.726  1.00  0.00     0.009 A 
ATOM     64  C   UNL A   1      50.377  26.387  28.482  1.00  0.00     0.001 A 
ATOM     65  C   UNL A   1      50.112  25.487  30.707  1.00  0.00     0.001 A 
ATOM     66  C   UNL A   1      50.905  25.717  29.584  1.00  0.00     0.000 A 
ENDBRANCH  47  61
BRANCH  48  67
ATOM     67  C   UNL A   1      38.625  29.166  29.027  1.00  0.00    -0.014 A 
ATOM     68  C   UNL A   1      38.180  29.727  27.818  1.00  0.00     0.009 A 
ATOM     69  C   UNL A   1      37.726  29.056  30.098  1.00  0.00     0.009 A 
ATOM     70  C   UNL A   1      36.873  30.201  27.697  1.00  0.00     0.001 A 
ATOM     71  C   UNL A   1      36.411  29.507  29.963  1.00  0.00     0.001 A 
ATOM     72  C   UNL A   1      35.989  30.089  28.769  1.00  0.00     0.000 A 
ENDBRANCH  48  67
BRANCH  60  73
ATOM     73  C   UNL A   1      44.369  32.425  31.315  1.00  0.00    -0.014 A 
ATOM     74  C   UNL A   1      44.695  33.483  30.452  1.00  0.00     0.009 A 
ATOM     75  C   UNL A   1      44.391  32.641  32.700  1.00  0.00     0.009 A 
ATOM     76  C   UNL A   1      45.055  34.729  30.966  1.00  0.00     0.001 A 
ATOM     77  C   UNL A   1      44.728  33.897  33.211  1.00  0.00     0.001 A 
ATOM     78  C   UNL A   1      45.069  34.935  32.344  1.00  0.00     0.000 A 
ENDBRANCH  60  73
ENDBRANCH  34  35
ENDBRANCH  26  29
ENDBRANCH  24  25
ENDBRANCH  23  24
ENDBRANCH   1  23
TORSDOF 15
ENDMDL
MODEL 2
REMARK VINA RESULT:     -10.4      1.101      1.992
REMARK SMILES CCC[C@@H]([NH2+]C[C@H]1CSc2ccccc21)C(=O)NCCCNC(=O)c1ccc(-c2c3nc(c(-c4ccccc4)c4ccc([nH]4)c(-c4ccccc4)c4nc(c(-c5ccccc5)c5ccc2[nH]5)C=C4)C=C3)cc1
REMARK SMILES IDX 19 1 18 2 16 3 17 4 4 6 3 7 2 8 1 9 5 10 6 13 7 14 8 15
REMARK SMILES IDX 15 16 9 17 10 18 14 19 11 20 13 21 12 22 20 23 21 24 22 25
REMARK SMILES IDX 23 26 24 28 25 29 26 30 72 31 27 32 71 33 28 34 29 35 30 36
REMARK SMILES IDX 65 37 31 38 70 39 64 40 66 41 32 42 69 43 63 44 62 45 33 47
REMARK SMILES IDX 55 48 40 49 54 50 41 51 44 52 53 53 67 54 42 55 43 56 52 58
REMARK SMILES IDX 68 59 45 60 34 61 35 62 39 63 36 64 38 65 37 66 56 67 57 68
REMARK SMILES IDX 61 69 58 70 60 71 59 72 46 73 47 74 51 75 48 76 50 77 49 78
REMARK H PARENT 18 5 5 11 5 12 22 27 66 46 44 57
REMARK Flexibility Score: inf
ROOT
ATOM      1  C   UNL A   1      36.189  21.122  25.672  1.00  0.00     0.118 C 
ENDROOT
BRANCH   1   2
ATOM      2  N   UNL A   1      35.035  20.333  25.278  1.00  0.00    -0.351 N 
ATOM      3  C   UNL A   1      33.816  20.727  24.813  1.00  0.00     0.278 C 
ATOM      4  O   UNL A   1      33.001  19.841  24.536  1.00  0.00    -0.268 OA
ATOM      5  H   UNL A   1      35.153  19.359  25.358  1.00  0.00     0.163 HD
BRANCH   3   6
ATOM      6  C   UNL A   1      33.454  22.216  24.610  1.00  0.00     0.272 C 
BRANCH   6   7
ATOM      7  C   UNL A   1      34.104  22.763  23.327  1.00  0.00     0.075 C 
BRANCH   7   8
ATOM      8  C   UNL A   1      35.146  23.868  23.528  1.00  0.00     0.003 C 
ATOM      9  C   UNL A   1      35.182  24.442  24.937  1.00  0.00     0.004 C 
ENDBRANCH   7   8
ENDBRANCH   6   7
BRANCH   6  10
ATOM     10  N   UNL A   1      31.987  22.442  24.653  1.00  0.00    -0.335 N 
ATOM     11  H   UNL A   1      31.764  22.954  25.507  1.00  0.00     0.346 HD
ATOM     12  H   UNL A   1      31.541  21.525  24.625  1.00  0.00     0.346 HD
BRANCH  10  13
ATOM     13  C   UNL A   1      31.479  23.208  23.501  1.00  0.00     0.270 C 
BRANCH  13  14
ATOM     14  C   UNL A   1      30.950  24.618  23.839  1.00  0.00     0.086 C 
ATOM     15  C   UNL A   1      30.587  24.742  25.335  1.00  0.00     0.089 C 
ATOM     16  C   UNL A   1      31.942  25.701  23.496  1.00  0.00    -0.025 A 
ATOM     17  S   UNL A   1      31.544  26.097  26.078  1.00  0.00    -0.125 SA
ATOM     18  C   UNL A   1      32.314  26.529  24.552  1.00  0.00     0.011 A 
ATOM     19  C   UNL A   1      32.435  25.942  22.212  1.00  0.00     0.005 A 
ATOM     20  C   UNL A   1      33.190  27.587  24.356  1.00  0.00     0.015 A 
ATOM     21  C   UNL A   1      33.320  27.001  22.008  1.00  0.00     0.000 A 
ATOM     22  C   UNL A   1      33.697  27.821  23.075  1.00  0.00     0.001 A 
ENDBRANCH  13  14
ENDBRANCH  10  13
ENDBRANCH   6  10
ENDBRANCH   3   6
ENDBRANCH   1   2
BRANCH   1  23
ATOM     23  C   UNL A   1      37.444  20.681  24.933  1.00  0.00     0.042 C 
BRANCH  23  24
ATOM     24  C   UNL A   1      38.730  20.925  25.711  1.00  0.00     0.118 C 
BRANCH  24  25
ATOM     25  N   UNL A   1      39.651  19.796  25.667  1.00  0.00    -0.352 N 
ATOM     26  C   UNL A   1      40.986  19.751  25.998  1.00  0.00     0.251 C 
ATOM     27  H   UNL A   1      39.262  18.946  25.358  1.00  0.00     0.163 HD
ATOM     28  O   UNL A   1      41.650  18.744  25.773  1.00  0.00    -0.269 OA
BRANCH  26  29
ATOM     29  C   UNL A   1      41.629  20.946  26.582  1.00  0.00     0.039 A 
ATOM     30  C   UNL A   1      41.675  21.118  27.967  1.00  0.00     0.014 A 
ATOM     31  C   UNL A   1      42.123  21.936  25.730  1.00  0.00     0.014 A 
ATOM     32  C   UNL A   1      42.025  22.356  28.490  1.00  0.00     0.010 A 
ATOM     33  C   UNL A   1      42.563  23.150  26.266  1.00  0.00     0.010 A 
ATOM     34  C   UNL A   1      42.454  23.393  27.644  1.00  0.00    -0.014 A 
BRANCH  34  35
ATOM     35  C   UNL A   1      42.741  24.733  28.216  1.00  0.00     0.031 A 
ATOM     36  C   UNL A   1      44.157  25.154  28.506  1.00  0.00     0.074 A 
ATOM     37  C   UNL A   1      41.732  25.605  28.400  1.00  0.00     0.049 A 
ATOM     38  N   UNL A   1      44.596  26.290  28.989  1.00  0.00    -0.248 NA
ATOM     39  C   UNL A   1      45.221  24.179  28.215  1.00  0.00     0.031 C 
ATOM     40  C   UNL A   1      40.323  25.334  28.109  1.00  0.00     0.029 A 
ATOM     41  N   UNL A   1      41.738  26.905  28.837  1.00  0.00    -0.354 N 
ATOM     42  C   UNL A   1      45.977  26.159  29.075  1.00  0.00     0.074 A 
ATOM     43  C   UNL A   1      46.305  24.825  28.623  1.00  0.00     0.031 C 
ATOM     44  C   UNL A   1      39.612  26.455  28.306  1.00  0.00     0.029 A 
ATOM     45  C   UNL A   1      40.500  27.499  28.809  1.00  0.00     0.049 A 
ATOM     46  H   UNL A   1      42.552  27.368  29.141  1.00  0.00     0.167 HD
ATOM     47  C   UNL A   1      46.892  27.071  29.483  1.00  0.00     0.031 A 
ATOM     48  C   UNL A   1      40.114  28.741  29.154  1.00  0.00     0.031 A 
ATOM     49  C   UNL A   1      46.567  28.400  29.929  1.00  0.00     0.049 A 
ATOM     50  C   UNL A   1      41.135  29.710  29.674  1.00  0.00     0.074 A 
ATOM     51  C   UNL A   1      47.425  29.389  30.378  1.00  0.00     0.029 A 
ATOM     52  N   UNL A   1      45.287  28.927  29.972  1.00  0.00    -0.354 N 
ATOM     53  N   UNL A   1      42.432  29.555  29.788  1.00  0.00    -0.248 NA
ATOM     54  C   UNL A   1      40.642  31.018  30.124  1.00  0.00     0.031 C 
ATOM     55  C   UNL A   1      46.658  30.500  30.738  1.00  0.00     0.029 A 
ATOM     56  C   UNL A   1      45.330  30.223  30.457  1.00  0.00     0.049 A 
ATOM     57  H   UNL A   1      44.469  28.453  29.700  1.00  0.00     0.167 HD
ATOM     58  C   UNL A   1      42.911  30.747  30.312  1.00  0.00     0.074 A 
ATOM     59  C   UNL A   1      41.768  31.622  30.479  1.00  0.00     0.031 C 
ATOM     60  C   UNL A   1      44.186  31.082  30.625  1.00  0.00     0.031 A 
BRANCH  47  61
ATOM     61  C   UNL A   1      48.338  26.659  29.485  1.00  0.00    -0.014 A 
ATOM     62  C   UNL A   1      48.885  26.036  30.619  1.00  0.00     0.009 A 
ATOM     63  C   UNL A   1      49.176  26.947  28.397  1.00  0.00     0.009 A 
ATOM     64  C   UNL A   1      50.243  25.713  30.665  1.00  0.00     0.001 A 
ATOM     65  C   UNL A   1      50.528  26.599  28.436  1.00  0.00     0.001 A 
ATOM     66  C   UNL A   1      51.062  25.989  29.571  1.00  0.00     0.000 A 
ENDBRANCH  47  61
BRANCH  48  67
ATOM     67  C   UNL A   1      38.688  29.125  29.000  1.00  0.00    -0.014 A 
ATOM     68  C   UNL A   1      38.216  29.650  27.786  1.00  0.00     0.009 A 
ATOM     69  C   UNL A   1      37.811  29.036  30.091  1.00  0.00     0.009 A 
ATOM     70  C   UNL A   1      36.903  30.112  27.678  1.00  0.00     0.001 A 
ATOM     71  C   UNL A   1      36.489  29.474  29.970  1.00  0.00     0.001 A 
ATOM     72  C   UNL A   1      36.040  30.021  28.769  1.00  0.00     0.000 A 
ENDBRANCH  48  67
BRANCH  60  73
ATOM     73  C   UNL A   1      44.434  32.458  31.172  1.00  0.00    -0.014 A 
ATOM     74  C   UNL A   1      44.334  32.685  32.554  1.00  0.00     0.009 A 
ATOM     75  C   UNL A   1      44.657  33.545  30.316  1.00  0.00     0.009 A 
ATOM     76  C   UNL A   1      44.437  33.978  33.067  1.00  0.00     0.001 A 
ATOM     77  C   UNL A   1      44.783  34.836  30.835  1.00  0.00     0.001 A 
ATOM     78  C   UNL A   1      44.663  35.052  32.208  1.00  0.00     0.000 A 
ENDBRANCH  60  73
ENDBRANCH  34  35
ENDBRANCH  26  29
ENDBRANCH  24  25
ENDBRANCH  23  24
ENDBRANCH   1  23
TORSDOF 15
ENDMDL
MODEL 3
REMARK VINA RESULT:     -10.3      2.815      7.744
REMARK SMILES CCC[C@@H]([NH2+]C[C@H]1CSc2ccccc21)C(=O)NCCCNC(=O)c1ccc(-c2c3nc(c(-c4ccccc4)c4ccc([nH]4)c(-c4ccccc4)c4nc(c(-c5ccccc5)c5ccc2[nH]5)C=C4)C=C3)cc1
REMARK SMILES IDX 19 1 18 2 16 3 17 4 4 6 3 7 2 8 1 9 5 10 6 13 7 14 8 15
REMARK SMILES IDX 15 16 9 17 10 18 14 19 11 20 13 21 12 22 20 23 21 24 22 25
REMARK SMILES IDX 23 26 24 28 25 29 26 30 72 31 27 32 71 33 28 34 29 35 30 36
REMARK SMILES IDX 65 37 31 38 70 39 64 40 66 41 32 42 69 43 63 44 62 45 33 47
REMARK SMILES IDX 55 48 40 49 54 50 41 51 44 52 53 53 67 54 42 55 43 56 52 58
REMARK SMILES IDX 68 59 45 60 34 61 35 62 39 63 36 64 38 65 37 66 56 67 57 68
REMARK SMILES IDX 61 69 58 70 60 71 59 72 46 73 47 74 51 75 48 76 50 77 49 78
REMARK H PARENT 18 5 5 11 5 12 22 27 66 46 44 57
REMARK Flexibility Score: inf
ROOT
ATOM      1  C   UNL A   1      31.785  29.638  25.374  1.00  0.00     0.118 C 
ENDROOT
BRANCH   1   2
ATOM      2  N   UNL A   1      32.877  29.611  24.417  1.00  0.00    -0.351 N 
ATOM      3  C   UNL A   1      33.334  28.597  23.631  1.00  0.00     0.278 C 
ATOM      4  O   UNL A   1      34.287  28.843  22.884  1.00  0.00    -0.268 OA
ATOM      5  H   UNL A   1      33.363  30.462  24.320  1.00  0.00     0.163 HD
BRANCH   3   6
ATOM      6  C   UNL A   1      32.688  27.193  23.638  1.00  0.00     0.272 C 
BRANCH   6   7
ATOM      7  C   UNL A   1      31.764  27.014  22.421  1.00  0.00     0.075 C 
BRANCH   7   8
ATOM      8  C   UNL A   1      30.485  27.861  22.425  1.00  0.00     0.003 C 
ATOM      9  C   UNL A   1      29.435  27.397  23.422  1.00  0.00     0.004 C 
ENDBRANCH   7   8
ENDBRANCH   6   7
BRANCH   6  10
ATOM     10  N   UNL A   1      33.702  26.115  23.754  1.00  0.00    -0.335 N 
ATOM     11  H   UNL A   1      34.508  26.367  23.181  1.00  0.00     0.346 HD
ATOM     12  H   UNL A   1      33.260  25.252  23.439  1.00  0.00     0.346 HD
BRANCH  10  13
ATOM     13  C   UNL A   1      34.162  25.890  25.135  1.00  0.00     0.270 C 
BRANCH  13  14
ATOM     14  C   UNL A   1      34.095  24.425  25.615  1.00  0.00     0.086 C 
ATOM     15  C   UNL A   1      32.992  23.637  24.875  1.00  0.00     0.089 C 
ATOM     16  C   UNL A   1      35.405  23.701  25.433  1.00  0.00    -0.025 A 
ATOM     17  S   UNL A   1      33.733  22.202  24.041  1.00  0.00    -0.125 SA
ATOM     18  C   UNL A   1      35.347  22.544  24.659  1.00  0.00     0.011 A 
ATOM     19  C   UNL A   1      36.609  24.083  26.029  1.00  0.00     0.005 A 
ATOM     20  C   UNL A   1      36.478  21.767  24.450  1.00  0.00     0.015 A 
ATOM     21  C   UNL A   1      37.751  23.309  25.819  1.00  0.00     0.000 A 
ATOM     22  C   UNL A   1      37.686  22.156  25.032  1.00  0.00     0.001 A 
ENDBRANCH  13  14
ENDBRANCH  10  13
ENDBRANCH   6  10
ENDBRANCH   3   6
ENDBRANCH   1   2
BRANCH   1  23
ATOM     23  C   UNL A   1      32.251  29.219  26.761  1.00  0.00     0.042 C 
BRANCH  23  24
ATOM     24  C   UNL A   1      33.691  29.608  27.067  1.00  0.00     0.118 C 
BRANCH  24  25
ATOM     25  N   UNL A   1      33.800  30.798  27.899  1.00  0.00    -0.352 N 
ATOM     26  C   UNL A   1      34.829  31.191  28.725  1.00  0.00     0.251 C 
ATOM     27  H   UNL A   1      33.028  31.409  27.866  1.00  0.00     0.163 HD
ATOM     28  O   UNL A   1      34.700  32.162  29.462  1.00  0.00    -0.269 OA
BRANCH  26  29
ATOM     29  C   UNL A   1      36.077  30.400  28.752  1.00  0.00     0.039 A 
ATOM     30  C   UNL A   1      36.485  29.764  29.926  1.00  0.00     0.014 A 
ATOM     31  C   UNL A   1      36.879  30.357  27.609  1.00  0.00     0.014 A 
ATOM     32  C   UNL A   1      37.778  29.264  30.017  1.00  0.00     0.010 A 
ATOM     33  C   UNL A   1      38.146  29.771  27.677  1.00  0.00     0.010 A 
ATOM     34  C   UNL A   1      38.630  29.280  28.900  1.00  0.00    -0.014 A 
BRANCH  34  35
ATOM     35  C   UNL A   1      40.035  28.820  29.044  1.00  0.00     0.031 A 
ATOM     36  C   UNL A   1      41.054  29.681  29.743  1.00  0.00     0.074 A 
ATOM     37  C   UNL A   1      40.377  27.590  28.617  1.00  0.00     0.049 A 
ATOM     38  N   UNL A   1      42.320  29.435  29.975  1.00  0.00    -0.248 NA
ATOM     39  C   UNL A   1      40.596  30.986  30.250  1.00  0.00     0.031 C 
ATOM     40  C   UNL A   1      39.468  26.641  27.973  1.00  0.00     0.029 A 
ATOM     41  N   UNL A   1      41.567  26.912  28.697  1.00  0.00    -0.354 N 
ATOM     42  C   UNL A   1      42.809  30.555  30.636  1.00  0.00     0.074 A 
ATOM     43  C   UNL A   1      41.717  31.496  30.743  1.00  0.00     0.031 C 
ATOM     44  C   UNL A   1      40.113  25.480  27.780  1.00  0.00     0.029 A 
ATOM     45  C   UNL A   1      41.497  25.626  28.218  1.00  0.00     0.049 A 
ATOM     46  H   UNL A   1      42.390  27.308  29.063  1.00  0.00     0.167 HD
ATOM     47  C   UNL A   1      44.055  30.777  31.120  1.00  0.00     0.031 A 
ATOM     48  C   UNL A   1      42.441  24.670  28.132  1.00  0.00     0.031 A 
ATOM     49  C   UNL A   1      45.142  29.840  31.017  1.00  0.00     0.049 A 
ATOM     50  C   UNL A   1      43.833  24.965  28.606  1.00  0.00     0.074 A 
ATOM     51  C   UNL A   1      46.445  29.984  31.462  1.00  0.00     0.029 A 
ATOM     52  N   UNL A   1      45.051  28.585  30.439  1.00  0.00    -0.354 N 
ATOM     53  N   UNL A   1      44.290  26.046  29.191  1.00  0.00    -0.248 NA
ATOM     54  C   UNL A   1      44.842  23.918  28.400  1.00  0.00     0.031 C 
ATOM     55  C   UNL A   1      47.155  28.832  31.111  1.00  0.00     0.029 A 
ATOM     56  C   UNL A   1      46.279  27.949  30.500  1.00  0.00     0.049 A 
ATOM     57  H   UNL A   1      44.236  28.202  30.043  1.00  0.00     0.167 HD
ATOM     58  C   UNL A   1      45.635  25.806  29.432  1.00  0.00     0.074 A 
ATOM     59  C   UNL A   1      45.918  24.472  28.945  1.00  0.00     0.031 C 
ATOM     60  C   UNL A   1      46.550  26.624  30.007  1.00  0.00     0.031 A 
BRANCH  47  61
ATOM     61  C   UNL A   1      44.321  32.096  31.792  1.00  0.00    -0.014 A 
ATOM     62  C   UNL A   1      44.094  32.234  33.171  1.00  0.00     0.009 A 
ATOM     63  C   UNL A   1      44.729  33.218  31.054  1.00  0.00     0.009 A 
ATOM     64  C   UNL A   1      44.267  33.471  33.797  1.00  0.00     0.001 A 
ATOM     65  C   UNL A   1      44.926  34.446  31.688  1.00  0.00     0.001 A 
ATOM     66  C   UNL A   1      44.689  34.574  33.056  1.00  0.00     0.000 A 
ENDBRANCH  47  61
BRANCH  48  67
ATOM     67  C   UNL A   1      42.075  23.342  27.577  1.00  0.00    -0.014 A 
ATOM     68  C   UNL A   1      42.215  23.077  26.205  1.00  0.00     0.009 A 
ATOM     69  C   UNL A   1      41.514  22.360  28.406  1.00  0.00     0.009 A 
ATOM     70  C   UNL A   1      41.769  21.868  25.668  1.00  0.00     0.001 A 
ATOM     71  C   UNL A   1      41.093  21.140  27.870  1.00  0.00     0.001 A 
ATOM     72  C   UNL A   1      41.210  20.900  26.501  1.00  0.00     0.000 A 
ENDBRANCH  48  67
BRANCH  60  73
ATOM     73  C   UNL A   1      47.951  26.106  30.159  1.00  0.00    -0.014 A 
ATOM     74  C   UNL A   1      48.363  25.567  31.388  1.00  0.00     0.009 A 
ATOM     75  C   UNL A   1      48.890  26.251  29.128  1.00  0.00     0.009 A 
ATOM     76  C   UNL A   1      49.693  25.197  31.588  1.00  0.00     0.001 A 
ATOM     77  C   UNL A   1      50.217  25.858  29.324  1.00  0.00     0.001 A 
ATOM     78  C   UNL A   1      50.618  25.341  30.556  1.00  0.00     0.000 A 
ENDBRANCH  60  73
ENDBRANCH  34  35
ENDBRANCH  26  29
ENDBRANCH  24  25
ENDBRANCH  23  24
ENDBRANCH   1  23
TORSDOF 15
ENDMDL
