MODEL 1
REMARK VINA RESULT:     -11.4      0.000      0.000
REMARK SMILES [NH3+][C@]1(C(=O)NCCCNC(=O)c2ccc(-c3c4nc(c(-c5ccccc5)c5ccc([nH]5)c(-c5ccccc5)c5nc(c(-c6ccccc6)c6ccc3[nH]6)C=C5)C=C4)cc2)CC[C@@H]([NH+]2CCC(C(F)(F)F)CC2)C1
REMARK SMILES IDX 7 1 6 2 5 3 3 4 4 5 2 7 60 8 73 9 61 10 62 11 1 12 63 16
REMARK SMILES IDX 64 17 72 18 65 20 71 21 66 22 67 23 68 24 69 25 70 26 8 27
REMARK SMILES IDX 9 28 10 29 11 31 12 32 13 33 59 34 14 35 58 36 15 37 16 38
REMARK SMILES IDX 17 39 52 40 18 41 57 42 51 43 53 44 19 45 56 46 50 47 49 48
REMARK SMILES IDX 20 50 42 51 27 52 41 53 28 54 31 55 40 56 54 57 29 58 30 59
REMARK SMILES IDX 39 61 55 62 32 63 21 64 22 65 26 66 23 67 25 68 24 69 43 70
REMARK SMILES IDX 44 71 48 72 45 73 47 74 46 75 33 76 34 77 38 78 35 79 37 80
REMARK SMILES IDX 36 81
REMARK H PARENT 5 6 1 13 1 14 1 15 63 19 9 30 53 49 31 60
REMARK Flexibility Score: inf
ROOT
ATOM      1  C   UNL A   1      32.100  28.350  27.188  1.00  0.00     0.042 C 
ENDROOT
BRANCH   1   2
ATOM      2  C   UNL A   1      31.541  28.380  25.765  1.00  0.00     0.118 C 
BRANCH   2   3
ATOM      3  N   UNL A   1      30.987  27.095  25.394  1.00  0.00    -0.351 N 
ATOM      4  C   UNL A   1      31.482  26.031  24.707  1.00  0.00     0.281 C 
ATOM      5  O   UNL A   1      30.653  25.149  24.454  1.00  0.00    -0.268 OA
ATOM      6  H   UNL A   1      30.062  26.964  25.703  1.00  0.00     0.163 HD
BRANCH   4   7
ATOM      7  C   UNL A   1      32.990  25.847  24.372  1.00  0.00     0.179 C 
ATOM      8  C   UNL A   1      33.713  25.333  25.624  1.00  0.00     0.085 C 
ATOM      9  C   UNL A   1      33.191  24.718  23.339  1.00  0.00     0.144 C 
ATOM     10  C   UNL A   1      34.902  24.547  25.093  1.00  0.00     0.072 C 
ATOM     11  C   UNL A   1      34.412  23.889  23.793  1.00  0.00     0.191 C 
BRANCH   7  12
ATOM     12  N   UNL A   1      33.649  27.043  23.815  1.00  0.00    -0.345 N 
ATOM     13  H   UNL A   1      33.587  27.021  22.797  1.00  0.00     0.345 HD
ATOM     14  H   UNL A   1      34.630  27.052  24.095  1.00  0.00     0.345 HD
ATOM     15  H   UNL A   1      33.186  27.881  24.166  1.00  0.00     0.345 HD
ENDBRANCH   7  12
BRANCH  11  16
ATOM     16  N   UNL A   1      34.180  22.427  23.884  1.00  0.00    -0.332 N 
ATOM     17  C   UNL A   1      34.847  21.776  25.019  1.00  0.00     0.263 C 
ATOM     18  C   UNL A   1      32.739  22.128  23.847  1.00  0.00     0.263 C 
ATOM     19  H   UNL A   1      34.622  22.020  23.059  1.00  0.00     0.348 HD
ATOM     20  C   UNL A   1      34.627  20.264  25.010  1.00  0.00     0.074 C 
ATOM     21  C   UNL A   1      32.467  20.626  23.816  1.00  0.00     0.074 C 
ATOM     22  C   UNL A   1      33.135  19.926  25.000  1.00  0.00     0.106 C 
BRANCH  22  23
ATOM     23  C   UNL A   1      32.910  18.428  24.948  1.00  0.00     0.392 C 
ATOM     24  F   UNL A   1      31.938  18.116  24.061  1.00  0.00    -0.171 F 
ATOM     25  F   UNL A   1      34.033  17.786  24.556  1.00  0.00    -0.171 F 
ATOM     26  F   UNL A   1      32.548  17.928  26.148  1.00  0.00    -0.171 F 
ENDBRANCH  22  23
ENDBRANCH  11  16
ENDBRANCH   4   7
ENDBRANCH   2   3
ENDBRANCH   1   2
BRANCH   1  27
ATOM     27  C   UNL A   1      33.552  28.827  27.288  1.00  0.00     0.118 C 
BRANCH  27  28
ATOM     28  N   UNL A   1      33.648  30.224  27.693  1.00  0.00    -0.352 N 
ATOM     29  C   UNL A   1      34.640  30.882  28.369  1.00  0.00     0.251 C 
ATOM     30  H   UNL A   1      32.878  30.782  27.440  1.00  0.00     0.163 HD
ATOM     31  O   UNL A   1      34.423  32.011  28.818  1.00  0.00    -0.269 OA
BRANCH  29  32
ATOM     32  C   UNL A   1      35.960  30.256  28.580  1.00  0.00     0.039 A 
ATOM     33  C   UNL A   1      36.889  30.267  27.534  1.00  0.00     0.014 A 
ATOM     34  C   UNL A   1      36.276  29.628  29.788  1.00  0.00     0.014 A 
ATOM     35  C   UNL A   1      38.160  29.722  27.727  1.00  0.00     0.010 A 
ATOM     36  C   UNL A   1      37.563  29.138  30.000  1.00  0.00     0.010 A 
ATOM     37  C   UNL A   1      38.521  29.194  28.977  1.00  0.00    -0.014 A 
BRANCH  37  38
ATOM     38  C   UNL A   1      39.909  28.747  29.253  1.00  0.00     0.031 A 
ATOM     39  C   UNL A   1      40.910  29.682  29.870  1.00  0.00     0.074 A 
ATOM     40  C   UNL A   1      40.291  27.515  28.863  1.00  0.00     0.049 A 
ATOM     41  N   UNL A   1      42.188  29.496  30.089  1.00  0.00    -0.248 NA
ATOM     42  C   UNL A   1      40.416  31.008  30.276  1.00  0.00     0.031 C 
ATOM     43  C   UNL A   1      39.424  26.523  28.222  1.00  0.00     0.029 A 
ATOM     44  N   UNL A   1      41.513  26.894  28.930  1.00  0.00    -0.354 N 
ATOM     45  C   UNL A   1      42.653  30.680  30.642  1.00  0.00     0.074 A 
ATOM     46  C   UNL A   1      41.531  31.593  30.693  1.00  0.00     0.031 C 
ATOM     47  C   UNL A   1      40.137  25.414  27.970  1.00  0.00     0.029 A 
ATOM     48  C   UNL A   1      41.518  25.632  28.388  1.00  0.00     0.049 A 
ATOM     49  H   UNL A   1      42.309  27.312  29.330  1.00  0.00     0.167 HD
ATOM     50  C   UNL A   1      43.901  30.978  31.078  1.00  0.00     0.031 A 
ATOM     51  C   UNL A   1      42.524  24.753  28.224  1.00  0.00     0.031 A 
ATOM     52  C   UNL A   1      45.017  30.070  31.031  1.00  0.00     0.049 A 
ATOM     53  C   UNL A   1      43.905  25.122  28.684  1.00  0.00     0.074 A 
ATOM     54  C   UNL A   1      46.304  30.260  31.507  1.00  0.00     0.029 A 
ATOM     55  N   UNL A   1      44.982  28.805  30.467  1.00  0.00    -0.354 N 
ATOM     56  N   UNL A   1      44.314  26.224  29.263  1.00  0.00    -0.248 NA
ATOM     57  C   UNL A   1      44.962  24.124  28.467  1.00  0.00     0.031 C 
ATOM     58  C   UNL A   1      47.060  29.129  31.184  1.00  0.00     0.029 A 
ATOM     59  C   UNL A   1      46.233  28.216  30.552  1.00  0.00     0.049 A 
ATOM     60  H   UNL A   1      44.187  28.387  30.066  1.00  0.00     0.167 HD
ATOM     61  C   UNL A   1      45.672  26.046  29.494  1.00  0.00     0.074 A 
ATOM     62  C   UNL A   1      46.012  24.724  29.011  1.00  0.00     0.031 C 
ATOM     63  C   UNL A   1      46.559  26.905  30.053  1.00  0.00     0.031 A 
BRANCH  50  64
ATOM     64  C   UNL A   1      44.130  32.355  31.637  1.00  0.00    -0.014 A 
ATOM     65  C   UNL A   1      43.970  32.619  33.007  1.00  0.00     0.009 A 
ATOM     66  C   UNL A   1      44.553  33.391  30.790  1.00  0.00     0.009 A 
ATOM     67  C   UNL A   1      44.200  33.901  33.511  1.00  0.00     0.001 A 
ATOM     68  C   UNL A   1      44.805  34.666  31.301  1.00  0.00     0.001 A 
ATOM     69  C   UNL A   1      44.620  34.922  32.658  1.00  0.00     0.000 A 
ENDBRANCH  50  64
BRANCH  51  70
ATOM     70  C   UNL A   1      42.263  23.438  27.587  1.00  0.00    -0.014 A 
ATOM     71  C   UNL A   1      42.465  23.265  26.209  1.00  0.00     0.009 A 
ATOM     72  C   UNL A   1      41.813  22.349  28.351  1.00  0.00     0.009 A 
ATOM     73  C   UNL A   1      42.201  22.033  25.606  1.00  0.00     0.001 A 
ATOM     74  C   UNL A   1      41.575  21.112  27.749  1.00  0.00     0.001 A 
ATOM     75  C   UNL A   1      41.761  20.957  26.376  1.00  0.00     0.000 A 
ENDBRANCH  51  70
BRANCH  63  76
ATOM     76  C   UNL A   1      47.978  26.432  30.182  1.00  0.00    -0.014 A 
ATOM     77  C   UNL A   1      48.416  25.767  31.338  1.00  0.00     0.009 A 
ATOM     78  C   UNL A   1      48.880  26.627  29.124  1.00  0.00     0.009 A 
ATOM     79  C   UNL A   1      49.738  25.331  31.441  1.00  0.00     0.001 A 
ATOM     80  C   UNL A   1      50.193  26.168  29.221  1.00  0.00     0.001 A 
ATOM     81  C   UNL A   1      50.624  25.528  30.382  1.00  0.00     0.000 A 
ENDBRANCH  63  76
ENDBRANCH  37  38
ENDBRANCH  29  32
ENDBRANCH  27  28
ENDBRANCH   1  27
TORSDOF 13
ENDMDL
MODEL 2
REMARK VINA RESULT:     -11.2      3.620      8.243
REMARK SMILES [NH3+][C@]1(C(=O)NCCCNC(=O)c2ccc(-c3c4nc(c(-c5ccccc5)c5ccc([nH]5)c(-c5ccccc5)c5nc(c(-c6ccccc6)c6ccc3[nH]6)C=C5)C=C4)cc2)CC[C@@H]([NH+]2CCC(C(F)(F)F)CC2)C1
REMARK SMILES IDX 7 1 6 2 5 3 3 4 4 5 2 7 60 8 73 9 61 10 62 11 1 12 63 16
REMARK SMILES IDX 64 17 72 18 65 20 71 21 66 22 67 23 68 24 69 25 70 26 8 27
REMARK SMILES IDX 9 28 10 29 11 31 12 32 13 33 59 34 14 35 58 36 15 37 16 38
REMARK SMILES IDX 17 39 52 40 18 41 57 42 51 43 53 44 19 45 56 46 50 47 49 48
REMARK SMILES IDX 20 50 42 51 27 52 41 53 28 54 31 55 40 56 54 57 29 58 30 59
REMARK SMILES IDX 39 61 55 62 32 63 21 64 22 65 26 66 23 67 25 68 24 69 43 70
REMARK SMILES IDX 44 71 48 72 45 73 47 74 46 75 33 76 34 77 38 78 35 79 37 80
REMARK SMILES IDX 36 81
REMARK H PARENT 5 6 1 13 1 14 1 15 63 19 9 30 53 49 31 60
REMARK Flexibility Score: inf
ROOT
ATOM      1  C   UNL A   1      36.406  22.321  24.541  1.00  0.00     0.042 C 
ENDROOT
BRANCH   1   2
ATOM      2  C   UNL A   1      35.731  21.124  25.212  1.00  0.00     0.118 C 
BRANCH   2   3
ATOM      3  N   UNL A   1      35.266  21.464  26.540  1.00  0.00    -0.351 N 
ATOM      4  C   UNL A   1      34.164  22.111  27.003  1.00  0.00     0.281 C 
ATOM      5  O   UNL A   1      34.176  22.350  28.216  1.00  0.00    -0.268 OA
ATOM      6  H   UNL A   1      35.872  21.164  27.255  1.00  0.00     0.163 HD
BRANCH   4   7
ATOM      7  C   UNL A   1      32.914  22.419  26.129  1.00  0.00     0.179 C 
ATOM      8  C   UNL A   1      31.802  22.964  27.035  1.00  0.00     0.085 C 
ATOM      9  C   UNL A   1      33.197  23.581  25.153  1.00  0.00     0.144 C 
ATOM     10  C   UNL A   1      30.960  23.852  26.131  1.00  0.00     0.072 C 
ATOM     11  C   UNL A   1      31.952  24.494  25.147  1.00  0.00     0.191 C 
BRANCH   7  12
ATOM     12  N   UNL A   1      32.442  21.290  25.307  1.00  0.00    -0.345 N 
ATOM     13  H   UNL A   1      33.242  20.734  25.003  1.00  0.00     0.345 HD
ATOM     14  H   UNL A   1      31.948  21.648  24.490  1.00  0.00     0.345 HD
ATOM     15  H   UNL A   1      31.813  20.707  25.859  1.00  0.00     0.345 HD
ENDBRANCH   7  12
BRANCH  11  16
ATOM     16  N   UNL A   1      32.227  25.931  25.389  1.00  0.00    -0.332 N 
ATOM     17  C   UNL A   1      31.240  26.601  26.247  1.00  0.00     0.263 C 
ATOM     18  C   UNL A   1      33.601  26.121  25.880  1.00  0.00     0.263 C 
ATOM     19  H   UNL A   1      32.133  26.392  24.483  1.00  0.00     0.348 HD
ATOM     20  C   UNL A   1      31.542  28.092  26.394  1.00  0.00     0.074 C 
ATOM     21  C   UNL A   1      33.959  27.598  26.024  1.00  0.00     0.074 C 
ATOM     22  C   UNL A   1      32.957  28.316  26.930  1.00  0.00     0.106 C 
BRANCH  22  23
ATOM     23  C   UNL A   1      33.278  29.793  27.037  1.00  0.00     0.392 C 
ATOM     24  F   UNL A   1      34.389  29.993  27.783  1.00  0.00    -0.171 F 
ATOM     25  F   UNL A   1      33.512  30.325  25.816  1.00  0.00    -0.171 F 
ATOM     26  F   UNL A   1      32.271  30.491  27.603  1.00  0.00    -0.171 F 
ENDBRANCH  22  23
ENDBRANCH  11  16
ENDBRANCH   4   7
ENDBRANCH   2   3
ENDBRANCH   1   2
BRANCH   1  27
ATOM     27  C   UNL A   1      37.363  23.083  25.463  1.00  0.00     0.118 C 
BRANCH  27  28
ATOM     28  N   UNL A   1      38.596  22.345  25.710  1.00  0.00    -0.352 N 
ATOM     29  C   UNL A   1      39.801  22.776  26.197  1.00  0.00     0.251 C 
ATOM     30  H   UNL A   1      38.555  21.386  25.494  1.00  0.00     0.163 HD
ATOM     31  O   UNL A   1      40.788  22.041  26.110  1.00  0.00    -0.269 OA
BRANCH  29  32
ATOM     32  C   UNL A   1      39.939  24.111  26.811  1.00  0.00     0.039 A 
ATOM     33  C   UNL A   1      39.411  24.327  28.088  1.00  0.00     0.014 A 
ATOM     34  C   UNL A   1      40.553  25.162  26.122  1.00  0.00     0.014 A 
ATOM     35  C   UNL A   1      39.571  25.568  28.707  1.00  0.00     0.010 A 
ATOM     36  C   UNL A   1      40.765  26.381  26.763  1.00  0.00     0.010 A 
ATOM     37  C   UNL A   1      40.290  26.591  28.066  1.00  0.00    -0.014 A 
BRANCH  37  38
ATOM     38  C   UNL A   1      40.603  27.864  28.760  1.00  0.00     0.031 A 
ATOM     39  C   UNL A   1      41.906  28.045  29.486  1.00  0.00     0.074 A 
ATOM     40  C   UNL A   1      39.667  28.832  28.808  1.00  0.00     0.049 A 
ATOM     41  N   UNL A   1      42.305  29.047  30.228  1.00  0.00    -0.248 NA
ATOM     42  C   UNL A   1      42.880  26.946  29.382  1.00  0.00     0.031 C 
ATOM     43  C   UNL A   1      38.348  28.768  28.172  1.00  0.00     0.029 A 
ATOM     44  N   UNL A   1      39.673  30.053  29.435  1.00  0.00    -0.354 N 
ATOM     45  C   UNL A   1      43.565  28.697  30.691  1.00  0.00     0.074 A 
ATOM     46  C   UNL A   1      43.852  27.374  30.177  1.00  0.00     0.031 C 
ATOM     47  C   UNL A   1      37.681  29.904  28.429  1.00  0.00     0.029 A 
ATOM     48  C   UNL A   1      38.502  30.755  29.282  1.00  0.00     0.049 A 
ATOM     49  H   UNL A   1      40.444  30.394  29.944  1.00  0.00     0.167 HD
ATOM     50  C   UNL A   1      44.413  29.416  31.466  1.00  0.00     0.031 A 
ATOM     51  C   UNL A   1      38.121  31.943  29.788  1.00  0.00     0.031 A 
ATOM     52  C   UNL A   1      44.131  30.732  31.975  1.00  0.00     0.049 A 
ATOM     53  C   UNL A   1      39.065  32.703  30.674  1.00  0.00     0.074 A 
ATOM     54  C   UNL A   1      44.953  31.565  32.716  1.00  0.00     0.029 A 
ATOM     55  N   UNL A   1      42.930  31.404  31.805  1.00  0.00    -0.354 N 
ATOM     56  N   UNL A   1      40.280  32.384  31.050  1.00  0.00    -0.248 NA
ATOM     57  C   UNL A   1      38.586  33.986  31.203  1.00  0.00     0.031 C 
ATOM     58  C   UNL A   1      44.230  32.718  33.038  1.00  0.00     0.029 A 
ATOM     59  C   UNL A   1      42.977  32.626  32.455  1.00  0.00     0.049 A 
ATOM     60  H   UNL A   1      42.159  31.063  31.297  1.00  0.00     0.167 HD
ATOM     61  C   UNL A   1      40.715  33.434  31.847  1.00  0.00     0.074 A 
ATOM     62  C   UNL A   1      39.643  34.407  31.883  1.00  0.00     0.031 C 
ATOM     63  C   UNL A   1      41.897  33.577  32.495  1.00  0.00     0.031 A 
BRANCH  50  64
ATOM     64  C   UNL A   1      45.730  28.785  31.824  1.00  0.00    -0.014 A 
ATOM     65  C   UNL A   1      45.869  27.994  32.976  1.00  0.00     0.009 A 
ATOM     66  C   UNL A   1      46.835  28.947  30.974  1.00  0.00     0.009 A 
ATOM     67  C   UNL A   1      47.096  27.405  33.286  1.00  0.00     0.001 A 
ATOM     68  C   UNL A   1      48.055  28.337  31.274  1.00  0.00     0.001 A 
ATOM     69  C   UNL A   1      48.187  27.574  32.433  1.00  0.00     0.000 A 
ENDBRANCH  50  64
BRANCH  51  70
ATOM     70  C   UNL A   1      36.774  32.483  29.475  1.00  0.00    -0.014 A 
ATOM     71  C   UNL A   1      35.698  32.255  30.346  1.00  0.00     0.009 A 
ATOM     72  C   UNL A   1      36.557  33.231  28.307  1.00  0.00     0.009 A 
ATOM     73  C   UNL A   1      34.426  32.747  30.042  1.00  0.00     0.001 A 
ATOM     74  C   UNL A   1      35.290  33.744  28.019  1.00  0.00     0.001 A 
ATOM     75  C   UNL A   1      34.225  33.494  28.882  1.00  0.00     0.000 A 
ENDBRANCH  51  70
BRANCH  63  76
ATOM     76  C   UNL A   1      42.093  34.838  33.286  1.00  0.00    -0.014 A 
ATOM     77  C   UNL A   1      41.511  34.993  34.554  1.00  0.00     0.009 A 
ATOM     78  C   UNL A   1      42.893  35.870  32.772  1.00  0.00     0.009 A 
ATOM     79  C   UNL A   1      41.705  36.170  35.279  1.00  0.00     0.001 A 
ATOM     80  C   UNL A   1      43.105  37.034  33.509  1.00  0.00     0.001 A 
ATOM     81  C   UNL A   1      42.504  37.188  34.758  1.00  0.00     0.000 A 
ENDBRANCH  63  76
ENDBRANCH  37  38
ENDBRANCH  29  32
ENDBRANCH  27  28
ENDBRANCH   1  27
TORSDOF 13
ENDMDL
MODEL 3
REMARK VINA RESULT:     -11.1      3.456      4.657
REMARK SMILES [NH3+][C@]1(C(=O)NCCCNC(=O)c2ccc(-c3c4nc(c(-c5ccccc5)c5ccc([nH]5)c(-c5ccccc5)c5nc(c(-c6ccccc6)c6ccc3[nH]6)C=C5)C=C4)cc2)CC[C@@H]([NH+]2CCC(C(F)(F)F)CC2)C1
REMARK SMILES IDX 7 1 6 2 5 3 3 4 4 5 2 7 60 8 73 9 61 10 62 11 1 12 63 16
REMARK SMILES IDX 64 17 72 18 65 20 71 21 66 22 67 23 68 24 69 25 70 26 8 27
REMARK SMILES IDX 9 28 10 29 11 31 12 32 13 33 59 34 14 35 58 36 15 37 16 38
REMARK SMILES IDX 17 39 52 40 18 41 57 42 51 43 53 44 19 45 56 46 50 47 49 48
REMARK SMILES IDX 20 50 42 51 27 52 41 53 28 54 31 55 40 56 54 57 29 58 30 59
REMARK SMILES IDX 39 61 55 62 32 63 21 64 22 65 26 66 23 67 25 68 24 69 43 70
REMARK SMILES IDX 44 71 48 72 45 73 47 74 46 75 33 76 34 77 38 78 35 79 37 80
REMARK SMILES IDX 36 81
REMARK H PARENT 5 6 1 13 1 14 1 15 63 19 9 30 53 49 31 60
REMARK Flexibility Score: inf
ROOT
ATOM      1  C   UNL A   1      34.059  28.842  25.769  1.00  0.00     0.042 C 
ENDROOT
BRANCH   1   2
ATOM      2  C   UNL A   1      33.161  27.991  24.869  1.00  0.00     0.118 C 
BRANCH   2   3
ATOM      3  N   UNL A   1      33.798  26.735  24.533  1.00  0.00    -0.351 N 
ATOM      4  C   UNL A   1      33.351  25.454  24.466  1.00  0.00     0.281 C 
ATOM      5  O   UNL A   1      34.234  24.607  24.284  1.00  0.00    -0.268 OA
ATOM      6  H   UNL A   1      34.751  26.829  24.306  1.00  0.00     0.163 HD
BRANCH   4   7
ATOM      7  C   UNL A   1      31.845  25.064  24.479  1.00  0.00     0.179 C 
ATOM      8  C   UNL A   1      31.185  25.690  25.715  1.00  0.00     0.085 C 
ATOM      9  C   UNL A   1      31.097  25.712  23.294  1.00  0.00     0.144 C 
ATOM     10  C   UNL A   1      29.727  25.882  25.326  1.00  0.00     0.072 C 
ATOM     11  C   UNL A   1      29.745  26.231  23.828  1.00  0.00     0.191 C 
BRANCH   7  12
ATOM     12  N   UNL A   1      31.581  23.616  24.397  1.00  0.00    -0.345 N 
ATOM     13  H   UNL A   1      30.640  23.422  24.741  1.00  0.00     0.345 HD
ATOM     14  H   UNL A   1      32.261  23.113  24.967  1.00  0.00     0.345 HD
ATOM     15  H   UNL A   1      31.657  23.311  23.427  1.00  0.00     0.345 HD
ENDBRANCH   7  12
BRANCH  11  16
ATOM     16  N   UNL A   1      29.449  27.650  23.515  1.00  0.00    -0.332 N 
ATOM     17  C   UNL A   1      30.257  28.211  22.424  1.00  0.00     0.263 C 
ATOM     18  C   UNL A   1      28.008  27.841  23.287  1.00  0.00     0.263 C 
ATOM     19  H   UNL A   1      29.726  28.183  24.340  1.00  0.00     0.348 HD
ATOM     20  C   UNL A   1      29.954  29.693  22.204  1.00  0.00     0.074 C 
ATOM     21  C   UNL A   1      27.650  29.311  23.081  1.00  0.00     0.074 C 
ATOM     22  C   UNL A   1      28.465  29.915  21.936  1.00  0.00     0.106 C 
BRANCH  22  23
ATOM     23  C   UNL A   1      28.150  31.387  21.759  1.00  0.00     0.392 C 
ATOM     24  F   UNL A   1      29.271  32.136  21.864  1.00  0.00    -0.171 F 
ATOM     25  F   UNL A   1      27.622  31.623  20.538  1.00  0.00    -0.171 F 
ATOM     26  F   UNL A   1      27.270  31.832  22.681  1.00  0.00    -0.171 F 
ENDBRANCH  22  23
ENDBRANCH  11  16
ENDBRANCH   4   7
ENDBRANCH   2   3
ENDBRANCH   1   2
BRANCH   1  27
ATOM     27  C   UNL A   1      33.541  28.976  27.204  1.00  0.00     0.118 C 
BRANCH  27  28
ATOM     28  N   UNL A   1      33.631  30.344  27.699  1.00  0.00    -0.352 N 
ATOM     29  C   UNL A   1      34.613  30.956  28.429  1.00  0.00     0.251 C 
ATOM     30  H   UNL A   1      32.864  30.917  27.471  1.00  0.00     0.163 HD
ATOM     31  O   UNL A   1      34.389  32.054  28.947  1.00  0.00    -0.269 OA
BRANCH  29  32
ATOM     32  C   UNL A   1      35.930  30.317  28.619  1.00  0.00     0.039 A 
ATOM     33  C   UNL A   1      36.851  30.341  27.566  1.00  0.00     0.014 A 
ATOM     34  C   UNL A   1      36.250  29.664  29.813  1.00  0.00     0.014 A 
ATOM     35  C   UNL A   1      38.119  29.783  27.739  1.00  0.00     0.010 A 
ATOM     36  C   UNL A   1      37.535  29.161  30.006  1.00  0.00     0.010 A 
ATOM     37  C   UNL A   1      38.486  29.229  28.977  1.00  0.00    -0.014 A 
BRANCH  37  38
ATOM     38  C   UNL A   1      39.873  28.768  29.234  1.00  0.00     0.031 A 
ATOM     39  C   UNL A   1      40.896  29.696  29.823  1.00  0.00     0.074 A 
ATOM     40  C   UNL A   1      40.232  27.527  28.851  1.00  0.00     0.049 A 
ATOM     41  N   UNL A   1      42.175  29.496  30.022  1.00  0.00    -0.248 NA
ATOM     42  C   UNL A   1      40.426  31.033  30.222  1.00  0.00     0.031 C 
ATOM     43  C   UNL A   1      39.341  26.538  28.237  1.00  0.00     0.029 A 
ATOM     44  N   UNL A   1      41.446  26.890  28.906  1.00  0.00    -0.354 N 
ATOM     45  C   UNL A   1      42.665  30.680  30.554  1.00  0.00     0.074 A 
ATOM     46  C   UNL A   1      41.556  31.608  30.613  1.00  0.00     0.031 C 
ATOM     47  C   UNL A   1      40.036  25.418  27.986  1.00  0.00     0.029 A 
ATOM     48  C   UNL A   1      41.426  25.622  28.377  1.00  0.00     0.049 A 
ATOM     49  H   UNL A   1      42.255  27.302  29.287  1.00  0.00     0.167 HD
ATOM     50  C   UNL A   1      43.924  30.966  30.964  1.00  0.00     0.031 A 
ATOM     51  C   UNL A   1      42.418  24.728  28.207  1.00  0.00     0.031 A 
ATOM     52  C   UNL A   1      45.027  30.044  30.909  1.00  0.00     0.049 A 
ATOM     53  C   UNL A   1      43.811  25.084  28.638  1.00  0.00     0.074 A 
ATOM     54  C   UNL A   1      46.324  30.222  31.361  1.00  0.00     0.029 A 
ATOM     55  N   UNL A   1      44.966  28.773  30.360  1.00  0.00    -0.354 N 
ATOM     56  N   UNL A   1      44.244  26.187  29.198  1.00  0.00    -0.248 NA
ATOM     57  C   UNL A   1      44.851  24.070  28.414  1.00  0.00     0.031 C 
ATOM     58  C   UNL A   1      47.061  29.078  31.037  1.00  0.00     0.029 A 
ATOM     59  C   UNL A   1      46.211  28.168  30.430  1.00  0.00     0.049 A 
ATOM     60  H   UNL A   1      44.159  28.360  29.977  1.00  0.00     0.167 HD
ATOM     61  C   UNL A   1      45.603  25.994  29.407  1.00  0.00     0.074 A 
ATOM     62  C   UNL A   1      45.918  24.662  28.934  1.00  0.00     0.031 C 
ATOM     63  C   UNL A   1      46.511  26.848  29.941  1.00  0.00     0.031 A 
BRANCH  50  64
ATOM     64  C   UNL A   1      44.181  32.346  31.503  1.00  0.00    -0.014 A 
ATOM     65  C   UNL A   1      44.055  32.627  32.873  1.00  0.00     0.009 A 
ATOM     66  C   UNL A   1      44.596  33.369  30.636  1.00  0.00     0.009 A 
ATOM     67  C   UNL A   1      44.309  33.912  33.359  1.00  0.00     0.001 A 
ATOM     68  C   UNL A   1      44.873  34.646  31.128  1.00  0.00     0.001 A 
ATOM     69  C   UNL A   1      44.721  34.919  32.486  1.00  0.00     0.000 A 
ENDBRANCH  50  64
BRANCH  51  70
ATOM     70  C   UNL A   1      42.129  23.409  27.589  1.00  0.00    -0.014 A 
ATOM     71  C   UNL A   1      41.647  22.349  28.373  1.00  0.00     0.009 A 
ATOM     72  C   UNL A   1      42.331  23.203  26.215  1.00  0.00     0.009 A 
ATOM     73  C   UNL A   1      41.394  21.102  27.796  1.00  0.00     0.001 A 
ATOM     74  C   UNL A   1      42.051  21.963  25.637  1.00  0.00     0.001 A 
ATOM     75  C   UNL A   1      41.592  20.912  26.429  1.00  0.00     0.000 A 
ENDBRANCH  51  70
BRANCH  63  76
ATOM     76  C   UNL A   1      47.926  26.357  30.051  1.00  0.00    -0.014 A 
ATOM     77  C   UNL A   1      48.812  26.459  28.966  1.00  0.00     0.009 A 
ATOM     78  C   UNL A   1      48.387  25.816  31.260  1.00  0.00     0.009 A 
ATOM     79  C   UNL A   1      50.125  26.000  29.085  1.00  0.00     0.001 A 
ATOM     80  C   UNL A   1      49.707  25.383  31.383  1.00  0.00     0.001 A 
ATOM     81  C   UNL A   1      50.573  25.467  30.293  1.00  0.00     0.000 A 
ENDBRANCH  63  76
ENDBRANCH  37  38
ENDBRANCH  29  32
ENDBRANCH  27  28
ENDBRANCH   1  27
TORSDOF 13
ENDMDL
