MODEL 1
REMARK VINA RESULT:     -10.4      0.000      0.000
REMARK SMILES O=C(CN(CC(=O)NCc1ccccc1)c1ccccc1)NCCCNC(=O)c1ccc(-c2c3nc(c(-c4ccccc4)c4ccc([nH]4)c(-c4ccccc4)c4nc(c(-c5ccccc5)c5ccc2[nH]5)C=C4)C=C3)cc1
REMARK SMILES IDX 1 1 2 2 22 3 3 5 4 6 5 7 6 8 7 9 8 10 9 12 10 13 11 14 15 15
REMARK SMILES IDX 12 16 14 17 13 18 16 19 17 20 21 21 18 22 20 23 19 24 23 25
REMARK SMILES IDX 24 26 25 27 26 28 27 29 28 31 29 32 30 33 76 34 31 35 75 36
REMARK SMILES IDX 32 37 33 38 34 39 69 40 35 41 74 42 68 43 70 44 36 45 73 46
REMARK SMILES IDX 67 47 66 48 37 50 59 51 44 52 58 53 45 54 48 55 57 56 71 57
REMARK SMILES IDX 46 58 47 59 56 61 72 62 49 63 38 64 39 65 43 66 40 67 42 68
REMARK SMILES IDX 41 69 60 70 61 71 65 72 62 73 64 74 63 75 50 76 51 77 55 78
REMARK SMILES IDX 52 79 54 80 53 81
REMARK H PARENT 22 4 8 11 26 30 70 49 48 60
REMARK Flexibility Score: inf
ROOT
ATOM      1  O   UNL A   1      34.153  28.533  26.574  1.00  0.00    -0.273 OA
ATOM      2  C   UNL A   1      33.283  28.533  25.704  1.00  0.00     0.239 C 
ATOM      3  N   UNL A   1      32.175  29.347  25.763  1.00  0.00    -0.354 N 
ATOM      4  H   UNL A   1      31.600  29.438  24.969  1.00  0.00     0.163 HD
ENDROOT
BRANCH   2   5
ATOM      5  C   UNL A   1      33.395  27.644  24.467  1.00  0.00     0.217 C 
BRANCH   5   6
ATOM      6  N   UNL A   1      32.958  26.225  24.605  1.00  0.00    -0.353 N 
BRANCH   6   7
ATOM      7  C   UNL A   1      31.489  25.997  24.681  1.00  0.00     0.217 C 
BRANCH   7   8
ATOM      8  C   UNL A   1      30.868  25.769  26.072  1.00  0.00     0.239 C 
ATOM      9  O   UNL A   1      30.538  26.735  26.769  1.00  0.00    -0.273 OA
ATOM     10  N   UNL A   1      30.624  24.535  26.586  1.00  0.00    -0.350 N 
ATOM     11  H   UNL A   1      30.413  24.523  27.548  1.00  0.00     0.163 HD
BRANCH  10  12
ATOM     12  C   UNL A   1      30.624  23.240  25.952  1.00  0.00     0.151 C 
BRANCH  12  13
ATOM     13  C   UNL A   1      31.870  22.441  26.233  1.00  0.00    -0.029 A 
ATOM     14  C   UNL A   1      32.697  22.744  27.321  1.00  0.00     0.005 A 
ATOM     15  C   UNL A   1      32.272  21.416  25.364  1.00  0.00     0.005 A 
ATOM     16  C   UNL A   1      33.908  22.080  27.522  1.00  0.00     0.000 A 
ATOM     17  C   UNL A   1      33.477  20.737  25.571  1.00  0.00     0.000 A 
ATOM     18  C   UNL A   1      34.300  21.078  26.643  1.00  0.00     0.000 A 
ENDBRANCH  12  13
ENDBRANCH  10  12
ENDBRANCH   7   8
ENDBRANCH   6   7
BRANCH   6  19
ATOM     19  C   UNL A   1      33.870  25.181  24.433  1.00  0.00     0.038 A 
ATOM     20  C   UNL A   1      33.798  24.265  23.368  1.00  0.00     0.026 A 
ATOM     21  C   UNL A   1      34.964  24.989  25.296  1.00  0.00     0.026 A 
ATOM     22  C   UNL A   1      34.766  23.273  23.145  1.00  0.00     0.002 A 
ATOM     23  C   UNL A   1      35.912  23.969  25.115  1.00  0.00     0.002 A 
ATOM     24  C   UNL A   1      35.824  23.120  24.025  1.00  0.00     0.000 A 
ENDBRANCH   6  19
ENDBRANCH   5   6
ENDBRANCH   2   5
BRANCH   3  25
ATOM     25  C   UNL A   1      31.843  30.071  26.970  1.00  0.00     0.117 C 
BRANCH  25  26
ATOM     26  C   UNL A   1      31.472  31.526  26.721  1.00  0.00     0.042 C 
BRANCH  26  27
ATOM     27  C   UNL A   1      32.660  32.480  26.729  1.00  0.00     0.118 C 
BRANCH  27  28
ATOM     28  N   UNL A   1      32.408  33.697  27.489  1.00  0.00    -0.352 N 
ATOM     29  C   UNL A   1      33.108  34.268  28.518  1.00  0.00     0.251 C 
ATOM     30  H   UNL A   1      31.601  34.191  27.216  1.00  0.00     0.163 HD
ATOM     31  O   UNL A   1      32.622  35.234  29.114  1.00  0.00    -0.269 OA
BRANCH  29  32
ATOM     32  C   UNL A   1      34.421  33.740  28.941  1.00  0.00     0.039 A 
ATOM     33  C   UNL A   1      34.486  32.966  30.103  1.00  0.00     0.014 A 
ATOM     34  C   UNL A   1      35.590  34.028  28.231  1.00  0.00     0.014 A 
ATOM     35  C   UNL A   1      35.708  32.433  30.518  1.00  0.00     0.010 A 
ATOM     36  C   UNL A   1      36.794  33.433  28.603  1.00  0.00     0.010 A 
ATOM     37  C   UNL A   1      36.867  32.634  29.752  1.00  0.00    -0.014 A 
BRANCH  37  38
ATOM     38  C   UNL A   1      38.157  32.011  30.142  1.00  0.00     0.031 A 
ATOM     39  C   UNL A   1      39.093  32.719  31.083  1.00  0.00     0.074 A 
ATOM     40  C   UNL A   1      38.512  30.828  29.605  1.00  0.00     0.049 A 
ATOM     41  N   UNL A   1      40.275  32.346  31.507  1.00  0.00    -0.248 NA
ATOM     42  C   UNL A   1      38.656  34.027  31.597  1.00  0.00     0.031 C 
ATOM     43  C   UNL A   1      37.716  30.056  28.648  1.00  0.00     0.029 A 
ATOM     44  N   UNL A   1      39.640  30.066  29.789  1.00  0.00    -0.354 N 
ATOM     45  C   UNL A   1      40.727  33.377  32.321  1.00  0.00     0.074 A 
ATOM     46  C   UNL A   1      39.715  34.410  32.295  1.00  0.00     0.031 C 
ATOM     47  C   UNL A   1      38.366  28.919  28.354  1.00  0.00     0.029 A 
ATOM     48  C   UNL A   1      39.638  28.897  29.069  1.00  0.00     0.049 A 
ATOM     49  H   UNL A   1      40.380  30.333  30.381  1.00  0.00     0.167 HD
ATOM     50  C   UNL A   1      41.872  33.451  33.041  1.00  0.00     0.031 A 
ATOM     51  C   UNL A   1      40.556  27.917  28.990  1.00  0.00     0.031 A 
ATOM     52  C   UNL A   1      42.874  32.419  33.080  1.00  0.00     0.049 A 
ATOM     53  C   UNL A   1      41.819  28.024  29.796  1.00  0.00     0.074 A 
ATOM     54  C   UNL A   1      44.041  32.378  33.825  1.00  0.00     0.029 A 
ATOM     55  N   UNL A   1      42.830  31.247  32.342  1.00  0.00    -0.354 N 
ATOM     56  N   UNL A   1      42.200  28.975  30.613  1.00  0.00    -0.248 NA
ATOM     57  C   UNL A   1      42.774  26.912  29.677  1.00  0.00     0.031 C 
ATOM     58  C   UNL A   1      44.724  31.201  33.502  1.00  0.00     0.029 A 
ATOM     59  C   UNL A   1      43.957  30.486  32.596  1.00  0.00     0.049 A 
ATOM     60  H   UNL A   1      42.103  30.994  31.727  1.00  0.00     0.167 HD
ATOM     61  C   UNL A   1      43.424  28.565  31.126  1.00  0.00     0.074 A 
ATOM     62  C   UNL A   1      43.713  27.273  30.540  1.00  0.00     0.031 C 
ATOM     63  C   UNL A   1      44.234  29.203  32.004  1.00  0.00     0.031 A 
BRANCH  50  64
ATOM     64  C   UNL A   1      42.103  34.699  33.845  1.00  0.00    -0.014 A 
ATOM     65  C   UNL A   1      41.704  34.782  35.190  1.00  0.00     0.009 A 
ATOM     66  C   UNL A   1      42.759  35.795  33.264  1.00  0.00     0.009 A 
ATOM     67  C   UNL A   1      41.923  35.950  35.922  1.00  0.00     0.001 A 
ATOM     68  C   UNL A   1      43.003  36.952  34.007  1.00  0.00     0.001 A 
ATOM     69  C   UNL A   1      42.577  37.031  35.332  1.00  0.00     0.000 A 
ENDBRANCH  50  64
BRANCH  51  70
ATOM     70  C   UNL A   1      40.305  26.732  28.129  1.00  0.00    -0.014 A 
ATOM     71  C   UNL A   1      39.534  25.660  28.604  1.00  0.00     0.009 A 
ATOM     72  C   UNL A   1      40.841  26.663  26.834  1.00  0.00     0.009 A 
ATOM     73  C   UNL A   1      39.325  24.532  27.808  1.00  0.00     0.001 A 
ATOM     74  C   UNL A   1      40.607  25.545  26.030  1.00  0.00     0.001 A 
ATOM     75  C   UNL A   1      39.857  24.477  26.521  1.00  0.00     0.000 A 
ENDBRANCH  51  70
BRANCH  63  76
ATOM     76  C   UNL A   1      45.495  28.494  32.411  1.00  0.00    -0.014 A 
ATOM     77  C   UNL A   1      46.694  28.678  31.704  1.00  0.00     0.009 A 
ATOM     78  C   UNL A   1      45.490  27.658  33.538  1.00  0.00     0.009 A 
ATOM     79  C   UNL A   1      47.854  28.007  32.099  1.00  0.00     0.001 A 
ATOM     80  C   UNL A   1      46.657  27.012  33.946  1.00  0.00     0.001 A 
ATOM     81  C   UNL A   1      47.836  27.180  33.220  1.00  0.00     0.000 A 
ENDBRANCH  63  76
ENDBRANCH  37  38
ENDBRANCH  29  32
ENDBRANCH  27  28
ENDBRANCH  26  27
ENDBRANCH  25  26
ENDBRANCH   3  25
TORSDOF 16
ENDMDL
MODEL 2
REMARK VINA RESULT:     -10.4      3.303      8.541
REMARK SMILES O=C(CN(CC(=O)NCc1ccccc1)c1ccccc1)NCCCNC(=O)c1ccc(-c2c3nc(c(-c4ccccc4)c4ccc([nH]4)c(-c4ccccc4)c4nc(c(-c5ccccc5)c5ccc2[nH]5)C=C4)C=C3)cc1
REMARK SMILES IDX 1 1 2 2 22 3 3 5 4 6 5 7 6 8 7 9 8 10 9 12 10 13 11 14 15 15
REMARK SMILES IDX 12 16 14 17 13 18 16 19 17 20 21 21 18 22 20 23 19 24 23 25
REMARK SMILES IDX 24 26 25 27 26 28 27 29 28 31 29 32 30 33 76 34 31 35 75 36
REMARK SMILES IDX 32 37 33 38 34 39 69 40 35 41 74 42 68 43 70 44 36 45 73 46
REMARK SMILES IDX 67 47 66 48 37 50 59 51 44 52 58 53 45 54 48 55 57 56 71 57
REMARK SMILES IDX 46 58 47 59 56 61 72 62 49 63 38 64 39 65 43 66 40 67 42 68
REMARK SMILES IDX 41 69 60 70 61 71 65 72 62 73 64 74 63 75 50 76 51 77 55 78
REMARK SMILES IDX 52 79 54 80 53 81
REMARK H PARENT 22 4 8 11 26 30 70 49 48 60
REMARK Flexibility Score: inf
ROOT
ATOM      1  O   UNL A   1      36.834  23.889  25.595  1.00  0.00    -0.273 OA
ATOM      2  C   UNL A   1      35.954  23.042  25.748  1.00  0.00     0.239 C 
ATOM      3  N   UNL A   1      36.061  21.765  25.247  1.00  0.00    -0.354 N 
ATOM      4  H   UNL A   1      35.418  21.077  25.538  1.00  0.00     0.163 HD
ENDROOT
BRANCH   2   5
ATOM      5  C   UNL A   1      34.686  23.346  26.543  1.00  0.00     0.217 C 
BRANCH   5   6
ATOM      6  N   UNL A   1      33.542  23.946  25.800  1.00  0.00    -0.353 N 
BRANCH   6   7
ATOM      7  C   UNL A   1      32.672  22.994  25.056  1.00  0.00     0.217 C 
BRANCH   7   8
ATOM      8  C   UNL A   1      32.698  23.050  23.517  1.00  0.00     0.239 C 
ATOM      9  O   UNL A   1      33.492  22.344  22.884  1.00  0.00    -0.273 OA
ATOM     10  N   UNL A   1      31.856  23.827  22.785  1.00  0.00    -0.350 N 
ATOM     11  H   UNL A   1      32.103  23.921  21.836  1.00  0.00     0.163 HD
BRANCH  10  12
ATOM     12  C   UNL A   1      30.661  24.535  23.172  1.00  0.00     0.151 C 
BRANCH  12  13
ATOM     13  C   UNL A   1      30.810  26.033  23.105  1.00  0.00    -0.029 A 
ATOM     14  C   UNL A   1      32.008  26.625  22.684  1.00  0.00     0.005 A 
ATOM     15  C   UNL A   1      29.774  26.873  23.535  1.00  0.00     0.005 A 
ATOM     16  C   UNL A   1      32.188  28.008  22.725  1.00  0.00     0.000 A 
ATOM     17  C   UNL A   1      29.946  28.261  23.562  1.00  0.00     0.000 A 
ATOM     18  C   UNL A   1      31.157  28.827  23.169  1.00  0.00     0.000 A 
ENDBRANCH  12  13
ENDBRANCH  10  12
ENDBRANCH   7   8
ENDBRANCH   6   7
BRANCH   6  19
ATOM     19  C   UNL A   1      33.191  25.284  25.996  1.00  0.00     0.038 A 
ATOM     20  C   UNL A   1      31.931  25.686  26.476  1.00  0.00     0.026 A 
ATOM     21  C   UNL A   1      34.092  26.340  25.767  1.00  0.00     0.026 A 
ATOM     22  C   UNL A   1      31.610  27.023  26.760  1.00  0.00     0.002 A 
ATOM     23  C   UNL A   1      33.768  27.686  25.997  1.00  0.00     0.002 A 
ATOM     24  C   UNL A   1      32.530  28.028  26.514  1.00  0.00     0.000 A 
ENDBRANCH   6  19
ENDBRANCH   5   6
ENDBRANCH   2   5
BRANCH   3  25
ATOM     25  C   UNL A   1      37.099  21.416  24.303  1.00  0.00     0.117 C 
BRANCH  25  26
ATOM     26  C   UNL A   1      37.781  20.091  24.615  1.00  0.00     0.042 C 
BRANCH  26  27
ATOM     27  C   UNL A   1      38.612  20.106  25.891  1.00  0.00     0.118 C 
BRANCH  27  28
ATOM     28  N   UNL A   1      39.811  19.283  25.800  1.00  0.00    -0.352 N 
ATOM     29  C   UNL A   1      41.125  19.591  26.030  1.00  0.00     0.251 C 
ATOM     30  H   UNL A   1      39.649  18.351  25.528  1.00  0.00     0.163 HD
ATOM     31  O   UNL A   1      41.997  18.765  25.745  1.00  0.00    -0.269 OA
BRANCH  29  32
ATOM     32  C   UNL A   1      41.521  20.899  26.593  1.00  0.00     0.039 A 
ATOM     33  C   UNL A   1      41.994  21.885  25.723  1.00  0.00     0.014 A 
ATOM     34  C   UNL A   1      41.468  21.151  27.967  1.00  0.00     0.014 A 
ATOM     35  C   UNL A   1      42.355  23.139  26.220  1.00  0.00     0.010 A 
ATOM     36  C   UNL A   1      41.756  22.425  28.452  1.00  0.00     0.010 A 
ATOM     37  C   UNL A   1      42.206  23.431  27.585  1.00  0.00    -0.014 A 
BRANCH  37  38
ATOM     38  C   UNL A   1      42.516  24.783  28.115  1.00  0.00     0.031 A 
ATOM     39  C   UNL A   1      43.914  25.131  28.547  1.00  0.00     0.074 A 
ATOM     40  C   UNL A   1      41.525  25.683  28.257  1.00  0.00     0.049 A 
ATOM     41  N   UNL A   1      44.363  26.247  29.065  1.00  0.00    -0.248 NA
ATOM     42  C   UNL A   1      44.937  24.084  28.399  1.00  0.00     0.031 C 
ATOM     43  C   UNL A   1      40.118  25.458  27.916  1.00  0.00     0.029 A 
ATOM     44  N   UNL A   1      41.549  26.972  28.730  1.00  0.00    -0.354 N 
ATOM     45  C   UNL A   1      45.711  26.030  29.320  1.00  0.00     0.074 A 
ATOM     46  C   UNL A   1      45.997  24.663  28.943  1.00  0.00     0.031 C 
ATOM     47  C   UNL A   1      39.423  26.581  28.162  1.00  0.00     0.029 A 
ATOM     48  C   UNL A   1      40.323  27.589  28.712  1.00  0.00     0.049 A 
ATOM     49  H   UNL A   1      42.370  27.412  29.052  1.00  0.00     0.167 HD
ATOM     50  C   UNL A   1      46.634  26.895  29.806  1.00  0.00     0.031 A 
ATOM     51  C   UNL A   1      39.961  28.827  29.095  1.00  0.00     0.031 A 
ATOM     52  C   UNL A   1      46.356  28.259  30.168  1.00  0.00     0.049 A 
ATOM     53  C   UNL A   1      41.002  29.766  29.633  1.00  0.00     0.074 A 
ATOM     54  C   UNL A   1      47.237  29.230  30.615  1.00  0.00     0.029 A 
ATOM     55  N   UNL A   1      45.102  28.847  30.126  1.00  0.00    -0.354 N 
ATOM     56  N   UNL A   1      42.286  29.566  29.804  1.00  0.00    -0.248 NA
ATOM     57  C   UNL A   1      40.544  31.108  30.020  1.00  0.00     0.031 C 
ATOM     58  C   UNL A   1      46.508  30.391  30.887  1.00  0.00     0.029 A 
ATOM     59  C   UNL A   1      45.181  30.160  30.560  1.00  0.00     0.049 A 
ATOM     60  H   UNL A   1      44.277  28.398  29.832  1.00  0.00     0.167 HD
ATOM     61  C   UNL A   1      42.794  30.763  30.291  1.00  0.00     0.074 A 
ATOM     62  C   UNL A   1      41.683  31.688  30.373  1.00  0.00     0.031 C 
ATOM     63  C   UNL A   1      44.067  31.068  30.639  1.00  0.00     0.031 A 
BRANCH  50  64
ATOM     64  C   UNL A   1      48.037  26.384  29.977  1.00  0.00    -0.014 A 
ATOM     65  C   UNL A   1      48.977  26.479  28.938  1.00  0.00     0.009 A 
ATOM     66  C   UNL A   1      48.435  25.831  31.204  1.00  0.00     0.009 A 
ATOM     67  C   UNL A   1      50.276  25.997  29.113  1.00  0.00     0.001 A 
ATOM     68  C   UNL A   1      49.743  25.375  31.385  1.00  0.00     0.001 A 
ATOM     69  C   UNL A   1      50.658  25.450  30.337  1.00  0.00     0.000 A 
ENDBRANCH  50  64
BRANCH  51  70
ATOM     70  C   UNL A   1      38.546  29.261  28.963  1.00  0.00    -0.014 A 
ATOM     71  C   UNL A   1      37.678  29.196  30.063  1.00  0.00     0.009 A 
ATOM     72  C   UNL A   1      38.056  29.736  27.737  1.00  0.00     0.009 A 
ATOM     73  C   UNL A   1      36.340  29.573  29.931  1.00  0.00     0.001 A 
ATOM     74  C   UNL A   1      36.723  30.139  27.616  1.00  0.00     0.001 A 
ATOM     75  C   UNL A   1      35.865  30.048  28.710  1.00  0.00     0.000 A 
ENDBRANCH  51  70
BRANCH  63  76
ATOM     76  C   UNL A   1      44.332  32.471  31.106  1.00  0.00    -0.014 A 
ATOM     77  C   UNL A   1      44.672  33.489  30.201  1.00  0.00     0.009 A 
ATOM     78  C   UNL A   1      44.207  32.785  32.468  1.00  0.00     0.009 A 
ATOM     79  C   UNL A   1      44.916  34.786  30.659  1.00  0.00     0.001 A 
ATOM     80  C   UNL A   1      44.424  34.087  32.919  1.00  0.00     0.001 A 
ATOM     81  C   UNL A   1      44.788  35.084  32.014  1.00  0.00     0.000 A 
ENDBRANCH  63  76
ENDBRANCH  37  38
ENDBRANCH  29  32
ENDBRANCH  27  28
ENDBRANCH  26  27
ENDBRANCH  25  26
ENDBRANCH   3  25
TORSDOF 16
ENDMDL
MODEL 3
REMARK VINA RESULT:     -10.3      0.595      5.898
REMARK SMILES O=C(CN(CC(=O)NCc1ccccc1)c1ccccc1)NCCCNC(=O)c1ccc(-c2c3nc(c(-c4ccccc4)c4ccc([nH]4)c(-c4ccccc4)c4nc(c(-c5ccccc5)c5ccc2[nH]5)C=C4)C=C3)cc1
REMARK SMILES IDX 1 1 2 2 22 3 3 5 4 6 5 7 6 8 7 9 8 10 9 12 10 13 11 14 15 15
REMARK SMILES IDX 12 16 14 17 13 18 16 19 17 20 21 21 18 22 20 23 19 24 23 25
REMARK SMILES IDX 24 26 25 27 26 28 27 29 28 31 29 32 30 33 76 34 31 35 75 36
REMARK SMILES IDX 32 37 33 38 34 39 69 40 35 41 74 42 68 43 70 44 36 45 73 46
REMARK SMILES IDX 67 47 66 48 37 50 59 51 44 52 58 53 45 54 48 55 57 56 71 57
REMARK SMILES IDX 46 58 47 59 56 61 72 62 49 63 38 64 39 65 43 66 40 67 42 68
REMARK SMILES IDX 41 69 60 70 61 71 65 72 62 73 64 74 63 75 50 76 51 77 55 78
REMARK SMILES IDX 52 79 54 80 53 81
REMARK H PARENT 22 4 8 11 26 30 70 49 48 60
REMARK Flexibility Score: inf
ROOT
ATOM      1  O   UNL A   1      34.151  28.774  26.486  1.00  0.00    -0.273 OA
ATOM      2  C   UNL A   1      33.253  28.694  25.647  1.00  0.00     0.239 C 
ATOM      3  N   UNL A   1      32.097  29.436  25.726  1.00  0.00    -0.354 N 
ATOM      4  H   UNL A   1      31.490  29.468  24.952  1.00  0.00     0.163 HD
ENDROOT
BRANCH   2   5
ATOM      5  C   UNL A   1      33.381  27.783  24.428  1.00  0.00     0.217 C 
BRANCH   5   6
ATOM      6  N   UNL A   1      32.975  26.359  24.596  1.00  0.00    -0.353 N 
BRANCH   6   7
ATOM      7  C   UNL A   1      31.511  26.104  24.702  1.00  0.00     0.217 C 
BRANCH   7   8
ATOM      8  C   UNL A   1      30.928  25.837  26.102  1.00  0.00     0.239 C 
ATOM      9  O   UNL A   1      30.643  26.784  26.845  1.00  0.00    -0.273 OA
ATOM     10  N   UNL A   1      30.667  24.591  26.577  1.00  0.00    -0.350 N 
ATOM     11  H   UNL A   1      30.485  24.547  27.543  1.00  0.00     0.163 HD
BRANCH  10  12
ATOM     12  C   UNL A   1      30.614  23.321  25.895  1.00  0.00     0.151 C 
BRANCH  12  13
ATOM     13  C   UNL A   1      31.815  22.452  26.164  1.00  0.00    -0.029 A 
ATOM     14  C   UNL A   1      32.661  22.699  27.253  1.00  0.00     0.005 A 
ATOM     15  C   UNL A   1      32.158  21.415  25.284  1.00  0.00     0.005 A 
ATOM     16  C   UNL A   1      33.833  21.967  27.443  1.00  0.00     0.000 A 
ATOM     17  C   UNL A   1      33.324  20.668  25.482  1.00  0.00     0.000 A 
ATOM     18  C   UNL A   1      34.167  20.953  26.554  1.00  0.00     0.000 A 
ENDBRANCH  12  13
ENDBRANCH  10  12
ENDBRANCH   7   8
ENDBRANCH   6   7
BRANCH   6  19
ATOM     19  C   UNL A   1      33.903  25.329  24.425  1.00  0.00     0.038 A 
ATOM     20  C   UNL A   1      34.946  25.075  25.334  1.00  0.00     0.026 A 
ATOM     21  C   UNL A   1      33.842  24.434  23.341  1.00  0.00     0.026 A 
ATOM     22  C   UNL A   1      35.822  23.984  25.209  1.00  0.00     0.002 A 
ATOM     23  C   UNL A   1      34.743  23.371  23.175  1.00  0.00     0.002 A 
ATOM     24  C   UNL A   1      35.724  23.132  24.123  1.00  0.00     0.000 A 
ENDBRANCH   6  19
ENDBRANCH   5   6
ENDBRANCH   2   5
BRANCH   3  25
ATOM     25  C   UNL A   1      31.759  30.168  26.928  1.00  0.00     0.117 C 
BRANCH  25  26
ATOM     26  C   UNL A   1      31.575  31.660  26.696  1.00  0.00     0.042 C 
BRANCH  26  27
ATOM     27  C   UNL A   1      32.829  32.488  26.952  1.00  0.00     0.118 C 
BRANCH  27  28
ATOM     28  N   UNL A   1      32.549  33.754  27.617  1.00  0.00    -0.352 N 
ATOM     29  C   UNL A   1      33.208  34.394  28.632  1.00  0.00     0.251 C 
ATOM     30  H   UNL A   1      31.755  34.228  27.279  1.00  0.00     0.163 HD
ATOM     31  O   UNL A   1      32.702  35.398  29.141  1.00  0.00    -0.269 OA
BRANCH  29  32
ATOM     32  C   UNL A   1      34.502  33.895  29.142  1.00  0.00     0.039 A 
ATOM     33  C   UNL A   1      34.500  33.048  30.253  1.00  0.00     0.014 A 
ATOM     34  C   UNL A   1      35.716  34.282  28.565  1.00  0.00     0.014 A 
ATOM     35  C   UNL A   1      35.704  32.541  30.746  1.00  0.00     0.010 A 
ATOM     36  C   UNL A   1      36.909  33.717  29.010  1.00  0.00     0.010 A 
ATOM     37  C   UNL A   1      36.917  32.845  30.107  1.00  0.00    -0.014 A 
BRANCH  37  38
ATOM     38  C   UNL A   1      38.196  32.254  30.575  1.00  0.00     0.031 A 
ATOM     39  C   UNL A   1      38.702  30.966  29.986  1.00  0.00     0.074 A 
ATOM     40  C   UNL A   1      38.878  32.851  31.571  1.00  0.00     0.049 A 
ATOM     41  N   UNL A   1      39.777  30.285  30.294  1.00  0.00    -0.248 NA
ATOM     42  C   UNL A   1      37.884  30.350  28.930  1.00  0.00     0.031 C 
ATOM     43  C   UNL A   1      38.476  34.081  32.258  1.00  0.00     0.029 A 
ATOM     44  N   UNL A   1      40.057  32.501  32.182  1.00  0.00    -0.354 N 
ATOM     45  C   UNL A   1      39.755  29.157  29.484  1.00  0.00     0.074 A 
ATOM     46  C   UNL A   1      38.538  29.220  28.706  1.00  0.00     0.031 C 
ATOM     47  C   UNL A   1      39.407  34.397  33.172  1.00  0.00     0.029 A 
ATOM     48  C   UNL A   1      40.449  33.376  33.164  1.00  0.00     0.049 A 
ATOM     49  H   UNL A   1      40.572  31.697  31.939  1.00  0.00     0.167 HD
ATOM     50  C   UNL A   1      40.672  28.165  29.383  1.00  0.00     0.031 A 
ATOM     51  C   UNL A   1      41.527  33.361  33.969  1.00  0.00     0.031 A 
ATOM     52  C   UNL A   1      41.891  28.106  30.146  1.00  0.00     0.049 A 
ATOM     53  C   UNL A   1      42.529  32.249  33.839  1.00  0.00     0.074 A 
ATOM     54  C   UNL A   1      42.910  27.171  30.072  1.00  0.00     0.029 A 
ATOM     55  N   UNL A   1      42.255  29.017  31.124  1.00  0.00    -0.354 N 
ATOM     56  N   UNL A   1      42.525  31.226  33.021  1.00  0.00    -0.248 NA
ATOM     57  C   UNL A   1      43.691  32.299  34.738  1.00  0.00     0.031 C 
ATOM     58  C   UNL A   1      43.869  27.493  31.037  1.00  0.00     0.029 A 
ATOM     59  C   UNL A   1      43.472  28.656  31.676  1.00  0.00     0.049 A 
ATOM     60  H   UNL A   1      41.726  29.805  31.387  1.00  0.00     0.167 HD
ATOM     61  C   UNL A   1      43.695  30.525  33.287  1.00  0.00     0.074 A 
ATOM     62  C   UNL A   1      44.390  31.249  34.330  1.00  0.00     0.031 C 
ATOM     63  C   UNL A   1      44.151  29.385  32.716  1.00  0.00     0.031 A 
BRANCH  50  64
ATOM     64  C   UNL A   1      40.387  27.057  28.408  1.00  0.00    -0.014 A 
ATOM     65  C   UNL A   1      39.597  25.954  28.772  1.00  0.00     0.009 A 
ATOM     66  C   UNL A   1      40.885  27.132  27.098  1.00  0.00     0.009 A 
ATOM     67  C   UNL A   1      39.344  24.932  27.855  1.00  0.00     0.001 A 
ATOM     68  C   UNL A   1      40.606  26.122  26.175  1.00  0.00     0.001 A 
ATOM     69  C   UNL A   1      39.845  25.019  26.557  1.00  0.00     0.000 A 
ENDBRANCH  50  64
BRANCH  51  70
ATOM     70  C   UNL A   1      41.730  34.450  34.961  1.00  0.00    -0.014 A 
ATOM     71  C   UNL A   1      41.242  34.317  36.269  1.00  0.00     0.009 A 
ATOM     72  C   UNL A   1      42.404  35.627  34.602  1.00  0.00     0.009 A 
ATOM     73  C   UNL A   1      41.402  35.353  37.192  1.00  0.00     0.001 A 
ATOM     74  C   UNL A   1      42.587  36.649  35.535  1.00  0.00     0.001 A 
ATOM     75  C   UNL A   1      42.079  36.515  36.826  1.00  0.00     0.000 A 
ENDBRANCH  51  70
BRANCH  63  76
ATOM     76  C   UNL A   1      45.483  28.869  33.185  1.00  0.00    -0.014 A 
ATOM     77  C   UNL A   1      45.577  27.956  34.246  1.00  0.00     0.009 A 
ATOM     78  C   UNL A   1      46.655  29.279  32.532  1.00  0.00     0.009 A 
ATOM     79  C   UNL A   1      46.825  27.492  34.667  1.00  0.00     0.001 A 
ATOM     80  C   UNL A   1      47.898  28.792  32.937  1.00  0.00     0.001 A 
ATOM     81  C   UNL A   1      47.983  27.906  34.010  1.00  0.00     0.000 A 
ENDBRANCH  63  76
ENDBRANCH  37  38
ENDBRANCH  29  32
ENDBRANCH  27  28
ENDBRANCH  26  27
ENDBRANCH  25  26
ENDBRANCH   3  25
TORSDOF 16
ENDMDL
