MODEL 1
REMARK VINA RESULT:     -11.5      0.000      0.000
REMARK SMILES COc1ccc(CNC(=O)[C@H]2CC(C)=C(C)C[C@@H]2C(=O)NCCCNC(=O)c2ccc(-c3c4nc(c(-c5ccccc5)c5ccc([nH]5)c(-c5ccccc5)c5nc(c(-c6ccccc6)c6ccc3[nH]6)C=C5)C=C4)cc2)cc1OC
REMARK SMILES IDX 22 1 21 2 19 3 20 4 18 6 11 7 12 8 13 9 17 10 14 11 15 12
REMARK SMILES IDX 16 13 9 14 8 15 10 17 7 18 6 19 3 20 4 21 77 22 5 23 76 24
REMARK SMILES IDX 2 25 1 26 78 27 79 28 23 29 24 30 25 31 26 32 27 34 28 35
REMARK SMILES IDX 29 36 75 37 30 38 74 39 31 40 32 41 33 42 68 43 34 44 73 45
REMARK SMILES IDX 67 46 69 47 35 48 72 49 66 50 65 51 36 53 58 54 43 55 57 56
REMARK SMILES IDX 44 57 47 58 56 59 70 60 45 61 46 62 55 64 71 65 48 66 37 67
REMARK SMILES IDX 38 68 42 69 39 70 41 71 40 72 59 73 60 74 64 75 61 76 63 77
REMARK SMILES IDX 62 78 49 79 50 80 54 81 51 82 53 83 52 84
REMARK H PARENT 21 5 8 16 25 33 69 52 47 63
REMARK Flexibility Score: inf
ROOT
ATOM      1  C   UNL A   1      36.324  20.546  24.717  1.00  0.00     0.117 C 
ENDROOT
BRANCH   1   2
ATOM      2  N   UNL A   1      35.617  20.765  25.967  1.00  0.00    -0.356 N 
ATOM      3  C   UNL A   1      34.524  21.528  26.259  1.00  0.00     0.224 C 
ATOM      4  O   UNL A   1      34.216  21.598  27.450  1.00  0.00    -0.275 OA
ATOM      5  H   UNL A   1      35.991  20.279  26.737  1.00  0.00     0.163 HD
BRANCH   3   6
ATOM      6  C   UNL A   1      33.685  22.190  25.148  1.00  0.00     0.095 C 
ATOM      7  C   UNL A   1      34.180  23.588  24.753  1.00  0.00     0.095 C 
ATOM      8  C   UNL A   1      33.714  24.716  25.666  1.00  0.00     0.045 C 
ATOM      9  C   UNL A   1      32.334  24.590  26.245  1.00  0.00    -0.074 C 
ATOM     10  C   UNL A   1      32.185  22.190  25.520  1.00  0.00     0.045 C 
ATOM     11  C   UNL A   1      31.809  25.883  26.822  1.00  0.00     0.039 C 
ATOM     12  C   UNL A   1      31.643  23.433  26.196  1.00  0.00    -0.074 C 
ATOM     13  C   UNL A   1      30.264  23.286  26.788  1.00  0.00     0.039 C 
BRANCH   7  14
ATOM     14  C   UNL A   1      34.200  23.776  23.235  1.00  0.00     0.224 C 
ATOM     15  N   UNL A   1      33.145  24.052  22.448  1.00  0.00    -0.352 N 
ATOM     16  H   UNL A   1      33.392  24.207  21.507  1.00  0.00     0.163 HD
ATOM     17  O   UNL A   1      35.278  23.650  22.638  1.00  0.00    -0.275 OA
BRANCH  15  18
ATOM     18  C   UNL A   1      31.729  24.168  22.688  1.00  0.00     0.151 C 
BRANCH  18  19
ATOM     19  C   UNL A   1      31.311  25.583  23.003  1.00  0.00    -0.025 A 
ATOM     20  C   UNL A   1      30.521  28.264  23.363  1.00  0.00     0.160 A 
ATOM     21  C   UNL A   1      29.683  27.218  23.765  1.00  0.00     0.051 A 
ATOM     22  C   UNL A   1      31.786  27.987  22.837  1.00  0.00     0.161 A 
ATOM     23  C   UNL A   1      30.077  25.889  23.590  1.00  0.00     0.009 A 
ATOM     24  C   UNL A   1      32.155  26.647  22.645  1.00  0.00     0.056 A 
BRANCH  20  25
ATOM     25  O   UNL A   1      30.074  29.544  23.553  1.00  0.00    -0.493 OA
ATOM     26  C   UNL A   1      29.424  30.036  22.379  1.00  0.00     0.278 C 
ENDBRANCH  20  25
BRANCH  22  27
ATOM     27  O   UNL A   1      32.761  28.860  22.443  1.00  0.00    -0.493 OA
ATOM     28  C   UNL A   1      34.114  28.549  22.736  1.00  0.00     0.278 C 
ENDBRANCH  22  27
ENDBRANCH  18  19
ENDBRANCH  15  18
ENDBRANCH   7  14
ENDBRANCH   3   6
ENDBRANCH   1   2
BRANCH   1  29
ATOM     29  C   UNL A   1      37.516  19.606  24.921  1.00  0.00     0.042 C 
BRANCH  29  30
ATOM     30  C   UNL A   1      38.657  20.237  25.706  1.00  0.00     0.118 C 
BRANCH  30  31
ATOM     31  N   UNL A   1      39.814  19.362  25.775  1.00  0.00    -0.352 N 
ATOM     32  C   UNL A   1      41.125  19.659  26.042  1.00  0.00     0.251 C 
ATOM     33  H   UNL A   1      39.629  18.410  25.604  1.00  0.00     0.163 HD
ATOM     34  O   UNL A   1      41.989  18.805  25.836  1.00  0.00    -0.269 OA
BRANCH  32  35
ATOM     35  C   UNL A   1      41.521  20.984  26.568  1.00  0.00     0.039 A 
ATOM     36  C   UNL A   1      41.395  21.221  27.941  1.00  0.00     0.014 A 
ATOM     37  C   UNL A   1      41.942  22.016  25.723  1.00  0.00     0.014 A 
ATOM     38  C   UNL A   1      41.711  22.475  28.467  1.00  0.00     0.010 A 
ATOM     39  C   UNL A   1      42.329  23.243  26.257  1.00  0.00     0.010 A 
ATOM     40  C   UNL A   1      42.194  23.493  27.631  1.00  0.00    -0.014 A 
BRANCH  40  41
ATOM     41  C   UNL A   1      42.518  24.837  28.171  1.00  0.00     0.031 A 
ATOM     42  C   UNL A   1      43.932  25.170  28.564  1.00  0.00     0.074 A 
ATOM     43  C   UNL A   1      41.537  25.742  28.342  1.00  0.00     0.049 A 
ATOM     44  N   UNL A   1      44.406  26.272  29.090  1.00  0.00    -0.248 NA
ATOM     45  C   UNL A   1      44.943  24.119  28.365  1.00  0.00     0.031 C 
ATOM     46  C   UNL A   1      40.122  25.531  28.029  1.00  0.00     0.029 A 
ATOM     47  N   UNL A   1      41.583  27.027  28.824  1.00  0.00    -0.354 N 
ATOM     48  C   UNL A   1      45.758  26.037  29.303  1.00  0.00     0.074 A 
ATOM     49  C   UNL A   1      46.022  24.675  28.894  1.00  0.00     0.031 C 
ATOM     50  C   UNL A   1      39.441  26.655  28.299  1.00  0.00     0.029 A 
ATOM     51  C   UNL A   1      40.361  27.653  28.834  1.00  0.00     0.049 A 
ATOM     52  H   UNL A   1      42.413  27.458  29.131  1.00  0.00     0.167 HD
ATOM     53  C   UNL A   1      46.702  26.884  29.779  1.00  0.00     0.031 A 
ATOM     54  C   UNL A   1      40.021  28.893  29.231  1.00  0.00     0.031 A 
ATOM     55  C   UNL A   1      46.446  28.246  30.164  1.00  0.00     0.049 A 
ATOM     56  C   UNL A   1      41.087  29.816  29.750  1.00  0.00     0.074 A 
ATOM     57  C   UNL A   1      47.344  29.202  30.604  1.00  0.00     0.029 A 
ATOM     58  N   UNL A   1      45.196  28.843  30.151  1.00  0.00    -0.354 N 
ATOM     59  N   UNL A   1      42.371  29.597  29.892  1.00  0.00    -0.248 NA
ATOM     60  C   UNL A   1      40.655  31.163  30.153  1.00  0.00     0.031 C 
ATOM     61  C   UNL A   1      46.629  30.369  30.895  1.00  0.00     0.029 A 
ATOM     62  C   UNL A   1      45.294  30.152  30.593  1.00  0.00     0.049 A 
ATOM     63  H   UNL A   1      44.361  28.403  29.869  1.00  0.00     0.167 HD
ATOM     64  C   UNL A   1      42.906  30.783  30.376  1.00  0.00     0.074 A 
ATOM     65  C   UNL A   1      41.809  31.722  30.489  1.00  0.00     0.031 C 
ATOM     66  C   UNL A   1      44.191  31.069  30.699  1.00  0.00     0.031 A 
BRANCH  53  67
ATOM     67  C   UNL A   1      48.103  26.354  29.910  1.00  0.00    -0.014 A 
ATOM     68  C   UNL A   1      49.014  26.434  28.845  1.00  0.00     0.009 A 
ATOM     69  C   UNL A   1      48.526  25.789  31.124  1.00  0.00     0.009 A 
ATOM     70  C   UNL A   1      50.307  25.923  28.980  1.00  0.00     0.001 A 
ATOM     71  C   UNL A   1      49.828  25.305  31.265  1.00  0.00     0.001 A 
ATOM     72  C   UNL A   1      50.714  25.363  30.190  1.00  0.00     0.000 A 
ENDBRANCH  53  67
BRANCH  54  73
ATOM     73  C   UNL A   1      38.608  29.344  29.130  1.00  0.00    -0.014 A 
ATOM     74  C   UNL A   1      38.121  29.884  27.931  1.00  0.00     0.009 A 
ATOM     75  C   UNL A   1      37.742  29.233  30.228  1.00  0.00     0.009 A 
ATOM     76  C   UNL A   1      36.799  30.326  27.841  1.00  0.00     0.001 A 
ATOM     77  C   UNL A   1      36.414  29.652  30.127  1.00  0.00     0.001 A 
ATOM     78  C   UNL A   1      35.946  30.206  28.936  1.00  0.00     0.000 A 
ENDBRANCH  54  73
BRANCH  66  79
ATOM     79  C   UNL A   1      44.480  32.462  31.177  1.00  0.00    -0.014 A 
ATOM     80  C   UNL A   1      44.855  33.474  30.280  1.00  0.00     0.009 A 
ATOM     81  C   UNL A   1      44.337  32.775  32.538  1.00  0.00     0.009 A 
ATOM     82  C   UNL A   1      45.112  34.765  30.743  1.00  0.00     0.001 A 
ATOM     83  C   UNL A   1      44.570  34.072  32.994  1.00  0.00     0.001 A 
ATOM     84  C   UNL A   1      44.966  35.064  32.098  1.00  0.00     0.000 A 
ENDBRANCH  66  79
ENDBRANCH  40  41
ENDBRANCH  32  35
ENDBRANCH  30  31
ENDBRANCH  29  30
ENDBRANCH   1  29
TORSDOF 15
ENDMDL
MODEL 2
REMARK VINA RESULT:     -11.4      0.422      5.786
REMARK SMILES COc1ccc(CNC(=O)[C@H]2CC(C)=C(C)C[C@@H]2C(=O)NCCCNC(=O)c2ccc(-c3c4nc(c(-c5ccccc5)c5ccc([nH]5)c(-c5ccccc5)c5nc(c(-c6ccccc6)c6ccc3[nH]6)C=C5)C=C4)cc2)cc1OC
REMARK SMILES IDX 22 1 21 2 19 3 20 4 18 6 11 7 12 8 13 9 17 10 14 11 15 12
REMARK SMILES IDX 16 13 9 14 8 15 10 17 7 18 6 19 3 20 4 21 77 22 5 23 76 24
REMARK SMILES IDX 2 25 1 26 78 27 79 28 23 29 24 30 25 31 26 32 27 34 28 35
REMARK SMILES IDX 29 36 75 37 30 38 74 39 31 40 32 41 33 42 68 43 34 44 73 45
REMARK SMILES IDX 67 46 69 47 35 48 72 49 66 50 65 51 36 53 58 54 43 55 57 56
REMARK SMILES IDX 44 57 47 58 56 59 70 60 45 61 46 62 55 64 71 65 48 66 37 67
REMARK SMILES IDX 38 68 42 69 39 70 41 71 40 72 59 73 60 74 64 75 61 76 63 77
REMARK SMILES IDX 62 78 49 79 50 80 54 81 51 82 53 83 52 84
REMARK H PARENT 21 5 8 16 25 33 69 52 47 63
REMARK Flexibility Score: inf
ROOT
ATOM      1  C   UNL A   1      36.537  20.809  24.734  1.00  0.00     0.117 C 
ENDROOT
BRANCH   1   2
ATOM      2  N   UNL A   1      35.783  20.895  25.972  1.00  0.00    -0.356 N 
ATOM      3  C   UNL A   1      34.602  21.513  26.264  1.00  0.00     0.224 C 
ATOM      4  O   UNL A   1      34.263  21.500  27.449  1.00  0.00    -0.275 OA
ATOM      5  H   UNL A   1      36.196  20.425  26.733  1.00  0.00     0.163 HD
BRANCH   3   6
ATOM      6  C   UNL A   1      33.715  22.115  25.157  1.00  0.00     0.095 C 
ATOM      7  C   UNL A   1      34.177  23.499  24.683  1.00  0.00     0.095 C 
ATOM      8  C   UNL A   1      33.730  24.661  25.562  1.00  0.00     0.045 C 
ATOM      9  C   UNL A   1      32.374  24.546  26.197  1.00  0.00    -0.074 C 
ATOM     10  C   UNL A   1      32.230  22.114  25.584  1.00  0.00     0.045 C 
ATOM     11  C   UNL A   1      31.854  25.857  26.736  1.00  0.00     0.039 C 
ATOM     12  C   UNL A   1      31.696  23.380  26.224  1.00  0.00    -0.074 C 
ATOM     13  C   UNL A   1      30.342  23.244  26.873  1.00  0.00     0.039 C 
BRANCH   7  14
ATOM     14  C   UNL A   1      34.139  23.620  23.158  1.00  0.00     0.224 C 
ATOM     15  N   UNL A   1      33.052  23.852  22.400  1.00  0.00    -0.352 N 
ATOM     16  H   UNL A   1      33.263  23.967  21.445  1.00  0.00     0.163 HD
ATOM     17  O   UNL A   1      35.195  23.477  22.527  1.00  0.00    -0.275 OA
BRANCH  15  18
ATOM     18  C   UNL A   1      31.645  23.965  22.687  1.00  0.00     0.151 C 
BRANCH  18  19
ATOM     19  C   UNL A   1      31.231  25.385  22.990  1.00  0.00    -0.025 A 
ATOM     20  C   UNL A   1      30.444  28.069  23.326  1.00  0.00     0.160 A 
ATOM     21  C   UNL A   1      29.617  27.029  23.762  1.00  0.00     0.051 A 
ATOM     22  C   UNL A   1      31.698  27.786  22.778  1.00  0.00     0.161 A 
ATOM     23  C   UNL A   1      30.010  25.698  23.598  1.00  0.00     0.009 A 
ATOM     24  C   UNL A   1      32.066  26.444  22.599  1.00  0.00     0.056 A 
BRANCH  20  25
ATOM     25  O   UNL A   1      29.999  29.352  23.507  1.00  0.00    -0.493 OA
ATOM     26  C   UNL A   1      29.379  29.848  22.318  1.00  0.00     0.278 C 
ENDBRANCH  20  25
BRANCH  22  27
ATOM     27  O   UNL A   1      32.663  28.655  22.351  1.00  0.00    -0.493 OA
ATOM     28  C   UNL A   1      33.916  28.664  23.017  1.00  0.00     0.278 C 
ENDBRANCH  22  27
ENDBRANCH  18  19
ENDBRANCH  15  18
ENDBRANCH   7  14
ENDBRANCH   3   6
ENDBRANCH   1   2
BRANCH   1  29
ATOM     29  C   UNL A   1      37.706  19.828  24.872  1.00  0.00     0.042 C 
BRANCH  29  30
ATOM     30  C   UNL A   1      38.818  20.337  25.779  1.00  0.00     0.118 C 
BRANCH  30  31
ATOM     31  N   UNL A   1      39.941  19.417  25.824  1.00  0.00    -0.352 N 
ATOM     32  C   UNL A   1      41.268  19.662  26.059  1.00  0.00     0.251 C 
ATOM     33  H   UNL A   1      39.714  18.472  25.662  1.00  0.00     0.163 HD
ATOM     34  O   UNL A   1      42.093  18.774  25.838  1.00  0.00    -0.269 OA
BRANCH  32  35
ATOM     35  C   UNL A   1      41.729  20.972  26.570  1.00  0.00     0.039 A 
ATOM     36  C   UNL A   1      41.711  21.193  27.951  1.00  0.00     0.014 A 
ATOM     37  C   UNL A   1      42.106  22.007  25.709  1.00  0.00     0.014 A 
ATOM     38  C   UNL A   1      42.091  22.434  28.467  1.00  0.00     0.010 A 
ATOM     39  C   UNL A   1      42.556  23.220  26.226  1.00  0.00     0.010 A 
ATOM     40  C   UNL A   1      42.530  23.453  27.609  1.00  0.00    -0.014 A 
BRANCH  40  41
ATOM     41  C   UNL A   1      42.920  24.784  28.139  1.00  0.00     0.031 A 
ATOM     42  C   UNL A   1      41.870  25.834  28.383  1.00  0.00     0.074 A 
ATOM     43  C   UNL A   1      44.218  25.060  28.364  1.00  0.00     0.049 A 
ATOM     44  N   UNL A   1      42.016  27.066  28.804  1.00  0.00    -0.248 NA
ATOM     45  C   UNL A   1      40.476  25.462  28.093  1.00  0.00     0.031 C 
ATOM     46  C   UNL A   1      45.333  24.138  28.137  1.00  0.00     0.029 A 
ATOM     47  N   UNL A   1      44.819  26.199  28.835  1.00  0.00    -0.354 N 
ATOM     48  C   UNL A   1      40.741  27.617  28.807  1.00  0.00     0.074 A 
ATOM     49  C   UNL A   1      39.839  26.604  28.303  1.00  0.00     0.031 C 
ATOM     50  C   UNL A   1      46.479  24.739  28.496  1.00  0.00     0.029 A 
ATOM     51  C   UNL A   1      46.184  26.095  28.946  1.00  0.00     0.049 A 
ATOM     52  H   UNL A   1      44.319  27.014  29.072  1.00  0.00     0.167 HD
ATOM     53  C   UNL A   1      40.350  28.850  29.210  1.00  0.00     0.031 A 
ATOM     54  C   UNL A   1      47.096  26.993  29.364  1.00  0.00     0.031 A 
ATOM     55  C   UNL A   1      41.241  29.850  29.732  1.00  0.00     0.049 A 
ATOM     56  C   UNL A   1      46.636  28.352  29.811  1.00  0.00     0.074 A 
ATOM     57  C   UNL A   1      40.936  31.108  30.220  1.00  0.00     0.029 A 
ATOM     58  N   UNL A   1      42.615  29.700  29.836  1.00  0.00    -0.354 N 
ATOM     59  N   UNL A   1      45.420  28.837  29.861  1.00  0.00    -0.248 NA
ATOM     60  C   UNL A   1      47.677  29.282  30.271  1.00  0.00     0.031 C 
ATOM     61  C   UNL A   1      42.133  31.735  30.584  1.00  0.00     0.029 A 
ATOM     62  C   UNL A   1      43.176  30.850  30.364  1.00  0.00     0.049 A 
ATOM     63  H   UNL A   1      43.118  28.895  29.573  1.00  0.00     0.167 HD
ATOM     64  C   UNL A   1      45.545  30.119  30.379  1.00  0.00     0.074 A 
ATOM     65  C   UNL A   1      46.954  30.329  30.642  1.00  0.00     0.031 C 
ATOM     66  C   UNL A   1      44.580  31.040  30.616  1.00  0.00     0.031 A 
BRANCH  53  67
ATOM     67  C   UNL A   1      38.888  29.182  29.096  1.00  0.00    -0.014 A 
ATOM     68  C   UNL A   1      38.015  29.003  30.181  1.00  0.00     0.009 A 
ATOM     69  C   UNL A   1      38.381  29.705  27.896  1.00  0.00     0.009 A 
ATOM     70  C   UNL A   1      36.656  29.303  30.053  1.00  0.00     0.001 A 
ATOM     71  C   UNL A   1      37.028  30.031  27.780  1.00  0.00     0.001 A 
ATOM     72  C   UNL A   1      36.166  29.820  28.855  1.00  0.00     0.000 A 
ENDBRANCH  53  67
BRANCH  54  73
ATOM     73  C   UNL A   1      48.535  26.627  29.401  1.00  0.00    -0.014 A 
ATOM     74  C   UNL A   1      49.094  26.069  30.561  1.00  0.00     0.009 A 
ATOM     75  C   UNL A   1      49.355  26.828  28.280  1.00  0.00     0.009 A 
ATOM     76  C   UNL A   1      50.452  25.742  30.605  1.00  0.00     0.001 A 
ATOM     77  C   UNL A   1      50.705  26.476  28.319  1.00  0.00     0.001 A 
ATOM     78  C   UNL A   1      51.254  25.942  29.484  1.00  0.00     0.000 A 
ENDBRANCH  54  73
BRANCH  66  79
ATOM     79  C   UNL A   1      45.015  32.346  31.215  1.00  0.00    -0.014 A 
ATOM     80  C   UNL A   1      45.354  33.439  30.403  1.00  0.00     0.009 A 
ATOM     81  C   UNL A   1      45.049  32.495  32.610  1.00  0.00     0.009 A 
ATOM     82  C   UNL A   1      45.749  34.648  30.979  1.00  0.00     0.001 A 
ATOM     83  C   UNL A   1      45.420  33.711  33.182  1.00  0.00     0.001 A 
ATOM     84  C   UNL A   1      45.778  34.784  32.367  1.00  0.00     0.000 A 
ENDBRANCH  66  79
ENDBRANCH  40  41
ENDBRANCH  32  35
ENDBRANCH  30  31
ENDBRANCH  29  30
ENDBRANCH   1  29
TORSDOF 15
ENDMDL
MODEL 3
REMARK VINA RESULT:     -11.3      1.856      6.898
REMARK SMILES COc1ccc(CNC(=O)[C@H]2CC(C)=C(C)C[C@@H]2C(=O)NCCCNC(=O)c2ccc(-c3c4nc(c(-c5ccccc5)c5ccc([nH]5)c(-c5ccccc5)c5nc(c(-c6ccccc6)c6ccc3[nH]6)C=C5)C=C4)cc2)cc1OC
REMARK SMILES IDX 22 1 21 2 19 3 20 4 18 6 11 7 12 8 13 9 17 10 14 11 15 12
REMARK SMILES IDX 16 13 9 14 8 15 10 17 7 18 6 19 3 20 4 21 77 22 5 23 76 24
REMARK SMILES IDX 2 25 1 26 78 27 79 28 23 29 24 30 25 31 26 32 27 34 28 35
REMARK SMILES IDX 29 36 75 37 30 38 74 39 31 40 32 41 33 42 68 43 34 44 73 45
REMARK SMILES IDX 67 46 69 47 35 48 72 49 66 50 65 51 36 53 58 54 43 55 57 56
REMARK SMILES IDX 44 57 47 58 56 59 70 60 45 61 46 62 55 64 71 65 48 66 37 67
REMARK SMILES IDX 38 68 42 69 39 70 41 71 40 72 59 73 60 74 64 75 61 76 63 77
REMARK SMILES IDX 62 78 49 79 50 80 54 81 51 82 53 83 52 84
REMARK H PARENT 21 5 8 16 25 33 69 52 47 63
REMARK Flexibility Score: inf
ROOT
ATOM      1  C   UNL A   1      31.800  26.675  26.439  1.00  0.00     0.117 C 
ENDROOT
BRANCH   1   2
ATOM      2  N   UNL A   1      32.156  25.389  27.013  1.00  0.00    -0.356 N 
ATOM      3  C   UNL A   1      32.842  24.331  26.492  1.00  0.00     0.224 C 
ATOM      4  O   UNL A   1      32.893  23.320  27.196  1.00  0.00    -0.275 OA
ATOM      5  H   UNL A   1      31.849  25.258  27.940  1.00  0.00     0.163 HD
BRANCH   3   6
ATOM      6  C   UNL A   1      33.575  24.435  25.141  1.00  0.00     0.095 C 
ATOM      7  C   UNL A   1      33.328  23.238  24.212  1.00  0.00     0.095 C 
ATOM      8  C   UNL A   1      34.192  22.017  24.496  1.00  0.00     0.045 C 
ATOM      9  C   UNL A   1      35.598  22.276  24.959  1.00  0.00    -0.074 C 
ATOM     10  C   UNL A   1      35.082  24.702  25.352  1.00  0.00     0.045 C 
ATOM     11  C   UNL A   1      36.490  21.062  24.865  1.00  0.00     0.039 C 
ATOM     12  C   UNL A   1      36.000  23.496  25.367  1.00  0.00    -0.074 C 
ATOM     13  C   UNL A   1      37.401  23.769  25.851  1.00  0.00     0.039 C 
BRANCH   7  14
ATOM     14  C   UNL A   1      33.058  23.681  22.773  1.00  0.00     0.224 C 
ATOM     15  N   UNL A   1      31.940  24.271  22.312  1.00  0.00    -0.352 N 
ATOM     16  H   UNL A   1      32.005  24.541  21.368  1.00  0.00     0.163 HD
ATOM     17  O   UNL A   1      33.929  23.473  21.917  1.00  0.00    -0.275 OA
BRANCH  15  18
ATOM     18  C   UNL A   1      30.668  24.590  22.907  1.00  0.00     0.151 C 
BRANCH  18  19
ATOM     19  C   UNL A   1      30.486  26.073  23.119  1.00  0.00    -0.025 A 
ATOM     20  C   UNL A   1      30.166  28.868  23.287  1.00  0.00     0.160 A 
ATOM     21  C   UNL A   1      29.119  28.013  23.644  1.00  0.00     0.051 A 
ATOM     22  C   UNL A   1      31.403  28.341  22.904  1.00  0.00     0.161 A 
ATOM     23  C   UNL A   1      29.280  26.626  23.565  1.00  0.00     0.009 A 
ATOM     24  C   UNL A   1      31.539  26.948  22.807  1.00  0.00     0.056 A 
BRANCH  20  25
ATOM     25  O   UNL A   1      29.944  30.216  23.378  1.00  0.00    -0.493 OA
ATOM     26  C   UNL A   1      28.739  30.580  22.701  1.00  0.00     0.278 C 
ENDBRANCH  20  25
BRANCH  22  27
ATOM     27  O   UNL A   1      32.554  29.003  22.577  1.00  0.00    -0.493 OA
ATOM     28  C   UNL A   1      33.799  28.430  22.943  1.00  0.00     0.278 C 
ENDBRANCH  22  27
ENDBRANCH  18  19
ENDBRANCH  15  18
ENDBRANCH   7  14
ENDBRANCH   3   6
ENDBRANCH   1   2
BRANCH   1  29
ATOM     29  C   UNL A   1      32.131  27.816  27.406  1.00  0.00     0.042 C 
BRANCH  29  30
ATOM     30  C   UNL A   1      33.466  28.487  27.116  1.00  0.00     0.118 C 
BRANCH  30  31
ATOM     31  N   UNL A   1      33.454  29.894  27.476  1.00  0.00    -0.352 N 
ATOM     32  C   UNL A   1      34.404  30.645  28.116  1.00  0.00     0.251 C 
ATOM     33  H   UNL A   1      32.638  30.383  27.220  1.00  0.00     0.163 HD
ATOM     34  O   UNL A   1      34.109  31.770  28.522  1.00  0.00    -0.269 OA
BRANCH  32  35
ATOM     35  C   UNL A   1      35.775  30.130  28.332  1.00  0.00     0.039 A 
ATOM     36  C   UNL A   1      36.105  29.624  29.594  1.00  0.00     0.014 A 
ATOM     37  C   UNL A   1      36.755  30.206  27.338  1.00  0.00     0.014 A 
ATOM     38  C   UNL A   1      37.403  29.176  29.849  1.00  0.00     0.010 A 
ATOM     39  C   UNL A   1      38.028  29.691  27.569  1.00  0.00     0.010 A 
ATOM     40  C   UNL A   1      38.371  29.193  28.835  1.00  0.00    -0.014 A 
BRANCH  40  41
ATOM     41  C   UNL A   1      39.760  28.737  29.096  1.00  0.00     0.031 A 
ATOM     42  C   UNL A   1      40.741  29.658  29.770  1.00  0.00     0.074 A 
ATOM     43  C   UNL A   1      40.148  27.513  28.693  1.00  0.00     0.049 A 
ATOM     44  N   UNL A   1      42.005  29.459  30.048  1.00  0.00    -0.248 NA
ATOM     45  C   UNL A   1      40.245  30.988  30.161  1.00  0.00     0.031 C 
ATOM     46  C   UNL A   1      39.302  26.539  28.002  1.00  0.00     0.029 A 
ATOM     47  N   UNL A   1      41.359  26.878  28.809  1.00  0.00    -0.354 N 
ATOM     48  C   UNL A   1      42.456  30.640  30.622  1.00  0.00     0.074 A 
ATOM     49  C   UNL A   1      41.346  31.568  30.613  1.00  0.00     0.031 C 
ATOM     50  C   UNL A   1      40.011  25.420  27.781  1.00  0.00     0.029 A 
ATOM     51  C   UNL A   1      41.367  25.610  28.284  1.00  0.00     0.049 A 
ATOM     52  H   UNL A   1      42.147  27.293  29.230  1.00  0.00     0.167 HD
ATOM     53  C   UNL A   1      43.679  30.924  31.132  1.00  0.00     0.031 A 
ATOM     54  C   UNL A   1      42.358  24.701  28.215  1.00  0.00     0.031 A 
ATOM     55  C   UNL A   1      44.776  29.995  31.163  1.00  0.00     0.049 A 
ATOM     56  C   UNL A   1      43.704  25.037  28.791  1.00  0.00     0.074 A 
ATOM     57  C   UNL A   1      46.037  30.167  31.707  1.00  0.00     0.029 A 
ATOM     58  N   UNL A   1      44.739  28.718  30.628  1.00  0.00    -0.354 N 
ATOM     59  N   UNL A   1      44.097  26.139  29.383  1.00  0.00    -0.248 NA
ATOM     60  C   UNL A   1      44.739  23.998  28.700  1.00  0.00     0.031 C 
ATOM     61  C   UNL A   1      46.777  29.004  31.466  1.00  0.00     0.029 A 
ATOM     62  C   UNL A   1      45.961  28.094  30.813  1.00  0.00     0.049 A 
ATOM     63  H   UNL A   1      43.960  28.312  30.182  1.00  0.00     0.167 HD
ATOM     64  C   UNL A   1      45.416  25.918  29.756  1.00  0.00     0.074 A 
ATOM     65  C   UNL A   1      45.750  24.572  29.337  1.00  0.00     0.031 C 
ATOM     66  C   UNL A   1      46.274  26.755  30.388  1.00  0.00     0.031 A 
BRANCH  53  67
ATOM     67  C   UNL A   1      43.890  32.302  31.694  1.00  0.00    -0.014 A 
ATOM     68  C   UNL A   1      43.646  32.581  33.048  1.00  0.00     0.009 A 
ATOM     69  C   UNL A   1      44.364  33.331  30.864  1.00  0.00     0.009 A 
ATOM     70  C   UNL A   1      43.833  33.871  33.550  1.00  0.00     0.001 A 
ATOM     71  C   UNL A   1      44.578  34.612  31.375  1.00  0.00     0.001 A 
ATOM     72  C   UNL A   1      44.303  34.883  32.715  1.00  0.00     0.000 A 
ENDBRANCH  53  67
BRANCH  54  73
ATOM     73  C   UNL A   1      42.106  23.373  27.597  1.00  0.00    -0.014 A 
ATOM     74  C   UNL A   1      41.503  22.348  28.341  1.00  0.00     0.009 A 
ATOM     75  C   UNL A   1      42.462  23.127  26.262  1.00  0.00     0.009 A 
ATOM     76  C   UNL A   1      41.284  21.093  27.767  1.00  0.00     0.001 A 
ATOM     77  C   UNL A   1      42.217  21.880  25.684  1.00  0.00     0.001 A 
ATOM     78  C   UNL A   1      41.637  20.862  26.439  1.00  0.00     0.000 A 
ENDBRANCH  54  73
BRANCH  66  79
ATOM     79  C   UNL A   1      47.646  26.225  30.689  1.00  0.00    -0.014 A 
ATOM     80  C   UNL A   1      48.660  26.245  29.720  1.00  0.00     0.009 A 
ATOM     81  C   UNL A   1      47.937  25.737  31.972  1.00  0.00     0.009 A 
ATOM     82  C   UNL A   1      49.932  25.755  30.022  1.00  0.00     0.001 A 
ATOM     83  C   UNL A   1      49.215  25.272  32.279  1.00  0.00     0.001 A 
ATOM     84  C   UNL A   1      50.209  25.273  31.301  1.00  0.00     0.000 A 
ENDBRANCH  66  79
ENDBRANCH  40  41
ENDBRANCH  32  35
ENDBRANCH  30  31
ENDBRANCH  29  30
ENDBRANCH   1  29
TORSDOF 15
ENDMDL
