MODEL 1
REMARK VINA RESULT:     -10.4      0.000      0.000
REMARK SMILES Cc1ccc(S(=O)(=O)N2CCN(C(=O)[C@H]3CCCC[C@@H]3C(=O)NCCCNC(=O)c3ccc(-c4c5nc(c(-c6ccccc6)c6ccc([nH]6)c(-c6ccccc6)c6nc(c(-c7ccccc7)c7ccc4[nH]7)C=C6)C=C5)cc3)CC2)cc1C
REMARK SMILES IDX 24 1 23 2 21 3 22 4 20 6 15 7 16 8 17 9 19 10 18 11 13 12
REMARK SMILES IDX 9 13 10 14 79 15 11 16 78 17 12 18 14 19 6 20 7 21 8 22 5 23
REMARK SMILES IDX 1 24 2 25 3 26 81 27 4 28 80 29 82 30 25 31 26 32 27 33
REMARK SMILES IDX 28 34 29 36 30 37 31 38 77 39 32 40 76 41 33 42 34 43 35 44
REMARK SMILES IDX 70 45 36 46 75 47 69 48 71 49 37 50 74 51 68 52 67 53 38 55
REMARK SMILES IDX 60 56 45 57 59 58 46 59 49 60 58 61 72 62 47 63 48 64 57 66
REMARK SMILES IDX 73 67 50 68 39 69 40 70 44 71 41 72 43 73 42 74 61 75 62 76
REMARK SMILES IDX 66 77 63 78 65 79 64 80 51 81 52 82 56 83 53 84 55 85 54 86
REMARK H PARENT 23 5 27 35 71 54 49 65
REMARK Flexibility Score: inf
ROOT
ATOM      1  C   UNL A   1      34.286  33.927  30.404  1.00  0.00     0.117 C 
ENDROOT
BRANCH   1   2
ATOM      2  N   UNL A   1      34.788  34.745  31.485  1.00  0.00    -0.356 N 
ATOM      3  C   UNL A   1      35.879  34.546  32.267  1.00  0.00     0.223 C 
ATOM      4  O   UNL A   1      36.083  35.372  33.158  1.00  0.00    -0.275 OA
ATOM      5  H   UNL A   1      34.268  35.556  31.681  1.00  0.00     0.163 HD
BRANCH   3   6
ATOM      6  C   UNL A   1      36.742  33.300  32.082  1.00  0.00     0.091 C 
ATOM      7  C   UNL A   1      37.491  32.976  33.415  1.00  0.00     0.091 C 
ATOM      8  C   UNL A   1      38.622  34.015  33.608  1.00  0.00     0.014 C 
ATOM      9  C   UNL A   1      39.595  34.096  32.442  1.00  0.00     0.001 C 
ATOM     10  C   UNL A   1      37.776  33.339  30.929  1.00  0.00     0.014 C 
ATOM     11  C   UNL A   1      38.861  34.378  31.148  1.00  0.00     0.001 C 
BRANCH   7  12
ATOM     12  C   UNL A   1      37.880  31.492  33.339  1.00  0.00     0.226 C 
ATOM     13  N   UNL A   1      41.396  29.829  35.020  1.00  0.00    -0.194 NA
ATOM     14  C   UNL A   1      40.932  29.424  33.683  1.00  0.00     0.124 C 
ATOM     15  C   UNL A   1      41.070  31.221  35.397  1.00  0.00     0.124 C 
ATOM     16  C   UNL A   1      39.434  29.665  33.550  1.00  0.00     0.136 C 
ATOM     17  C   UNL A   1      39.585  31.554  35.189  1.00  0.00     0.136 C 
ATOM     18  N   UNL A   1      39.035  31.031  33.932  1.00  0.00    -0.340 N 
ATOM     19  O   UNL A   1      37.147  30.688  32.749  1.00  0.00    -0.275 OA
BRANCH  13  20
ATOM     20  S   UNL A   1      41.983  28.704  36.117  1.00  0.00     0.243 S 
ATOM     21  O   UNL A   1      40.854  28.080  36.767  1.00  0.00    -0.207 OA
ATOM     22  O   UNL A   1      43.023  29.368  36.880  1.00  0.00    -0.207 OA
BRANCH  20  23
ATOM     23  C   UNL A   1      42.794  27.426  35.179  1.00  0.00     0.082 A 
ATOM     24  C   UNL A   1      44.699  24.330  32.843  1.00  0.00     0.044 C 
ATOM     25  C   UNL A   1      44.023  25.371  33.690  1.00  0.00    -0.048 A 
ATOM     26  C   UNL A   1      44.351  26.709  33.470  1.00  0.00     0.005 A 
ATOM     27  C   UNL A   1      43.064  25.057  34.674  1.00  0.00    -0.047 A 
ATOM     28  C   UNL A   1      43.732  27.715  34.203  1.00  0.00     0.022 A 
ATOM     29  C   UNL A   1      42.467  26.092  35.425  1.00  0.00     0.025 A 
ATOM     30  C   UNL A   1      42.628  23.647  34.961  1.00  0.00     0.044 C 
ENDBRANCH  20  23
ENDBRANCH  13  20
ENDBRANCH   7  12
ENDBRANCH   3   6
ENDBRANCH   1   2
BRANCH   1  31
ATOM     31  C   UNL A   1      34.857  34.292  29.054  1.00  0.00     0.042 C 
BRANCH  31  32
ATOM     32  C   UNL A   1      35.375  33.114  28.255  1.00  0.00     0.118 C 
BRANCH  32  33
ATOM     33  N   UNL A   1      34.395  32.052  28.081  1.00  0.00    -0.352 N 
ATOM     34  C   UNL A   1      34.575  30.692  28.000  1.00  0.00     0.251 C 
ATOM     35  H   UNL A   1      33.461  32.355  28.012  1.00  0.00     0.163 HD
ATOM     36  O   UNL A   1      33.632  29.964  27.707  1.00  0.00    -0.269 OA
BRANCH  34  37
ATOM     37  C   UNL A   1      35.917  30.110  28.226  1.00  0.00     0.039 A 
ATOM     38  C   UNL A   1      36.842  30.116  27.181  1.00  0.00     0.014 A 
ATOM     39  C   UNL A   1      36.273  29.584  29.467  1.00  0.00     0.014 A 
ATOM     40  C   UNL A   1      38.143  29.665  27.410  1.00  0.00     0.010 A 
ATOM     41  C   UNL A   1      37.600  29.273  29.732  1.00  0.00     0.010 A 
ATOM     42  C   UNL A   1      38.546  29.282  28.699  1.00  0.00    -0.014 A 
BRANCH  42  43
ATOM     43  C   UNL A   1      39.939  28.852  28.981  1.00  0.00     0.031 A 
ATOM     44  C   UNL A   1      40.888  29.787  29.686  1.00  0.00     0.074 A 
ATOM     45  C   UNL A   1      40.368  27.645  28.563  1.00  0.00     0.049 A 
ATOM     46  N   UNL A   1      42.145  29.603  30.003  1.00  0.00    -0.248 NA
ATOM     47  C   UNL A   1      40.369  31.114  30.058  1.00  0.00     0.031 C 
ATOM     48  C   UNL A   1      39.567  26.668  27.821  1.00  0.00     0.029 A 
ATOM     49  N   UNL A   1      41.586  27.030  28.709  1.00  0.00    -0.354 N 
ATOM     50  C   UNL A   1      42.563  30.791  30.590  1.00  0.00     0.074 A 
ATOM     51  C   UNL A   1      41.455  31.713  30.521  1.00  0.00     0.031 C 
ATOM     52  C   UNL A   1      40.299  25.560  27.619  1.00  0.00     0.029 A 
ATOM     53  C   UNL A   1      41.634  25.766  28.174  1.00  0.00     0.049 A 
ATOM     54  H   UNL A   1      42.355  27.457  29.153  1.00  0.00     0.167 HD
ATOM     55  C   UNL A   1      43.755  31.083  31.163  1.00  0.00     0.031 A 
ATOM     56  C   UNL A   1      42.638  24.871  28.135  1.00  0.00     0.031 A 
ATOM     57  C   UNL A   1      44.855  30.162  31.244  1.00  0.00     0.049 A 
ATOM     58  C   UNL A   1      43.956  25.222  28.770  1.00  0.00     0.074 A 
ATOM     59  C   UNL A   1      46.083  30.340  31.857  1.00  0.00     0.029 A 
ATOM     60  N   UNL A   1      44.861  28.891  30.692  1.00  0.00    -0.354 N 
ATOM     61  N   UNL A   1      44.307  26.321  29.391  1.00  0.00    -0.248 NA
ATOM     62  C   UNL A   1      45.010  24.200  28.709  1.00  0.00     0.031 C 
ATOM     63  C   UNL A   1      46.855  29.198  31.620  1.00  0.00     0.029 A 
ATOM     64  C   UNL A   1      46.082  28.282  30.924  1.00  0.00     0.049 A 
ATOM     65  H   UNL A   1      44.108  28.481  30.208  1.00  0.00     0.167 HD
ATOM     66  C   UNL A   1      45.612  26.111  29.823  1.00  0.00     0.074 A 
ATOM     67  C   UNL A   1      45.978  24.773  29.409  1.00  0.00     0.031 C 
ATOM     68  C   UNL A   1      46.432  26.951  30.502  1.00  0.00     0.031 A 
BRANCH  55  69
ATOM     69  C   UNL A   1      43.926  32.463  31.741  1.00  0.00    -0.014 A 
ATOM     70  C   UNL A   1      44.466  33.514  30.981  1.00  0.00     0.009 A 
ATOM     71  C   UNL A   1      43.518  32.722  33.059  1.00  0.00     0.009 A 
ATOM     72  C   UNL A   1      44.631  34.781  31.542  1.00  0.00     0.001 A 
ATOM     73  C   UNL A   1      43.652  34.000  33.605  1.00  0.00     0.001 A 
ATOM     74  C   UNL A   1      44.219  35.025  32.851  1.00  0.00     0.000 A 
ENDBRANCH  55  69
BRANCH  56  75
ATOM     75  C   UNL A   1      42.434  23.545  27.492  1.00  0.00    -0.014 A 
ATOM     76  C   UNL A   1      42.742  23.352  26.136  1.00  0.00     0.009 A 
ATOM     77  C   UNL A   1      41.917  22.467  28.227  1.00  0.00     0.009 A 
ATOM     78  C   UNL A   1      42.507  22.119  25.524  1.00  0.00     0.001 A 
ATOM     79  C   UNL A   1      41.716  21.225  27.621  1.00  0.00     0.001 A 
ATOM     80  C   UNL A   1      42.000  21.055  26.267  1.00  0.00     0.000 A 
ENDBRANCH  56  75
BRANCH  68  81
ATOM     81  C   UNL A   1      47.792  26.429  30.875  1.00  0.00    -0.014 A 
ATOM     82  C   UNL A   1      48.017  25.768  32.093  1.00  0.00     0.009 A 
ATOM     83  C   UNL A   1      48.859  26.573  29.974  1.00  0.00     0.009 A 
ATOM     84  C   UNL A   1      49.293  25.302  32.418  1.00  0.00     0.001 A 
ATOM     85  C   UNL A   1      50.124  26.075  30.285  1.00  0.00     0.001 A 
ATOM     86  C   UNL A   1      50.343  25.451  31.513  1.00  0.00     0.000 A 
ENDBRANCH  68  81
ENDBRANCH  42  43
ENDBRANCH  34  37
ENDBRANCH  32  33
ENDBRANCH  31  32
ENDBRANCH   1  31
TORSDOF 13
ENDMDL
MODEL 2
REMARK VINA RESULT:     -10.3      0.333      5.651
REMARK SMILES Cc1ccc(S(=O)(=O)N2CCN(C(=O)[C@H]3CCCC[C@@H]3C(=O)NCCCNC(=O)c3ccc(-c4c5nc(c(-c6ccccc6)c6ccc([nH]6)c(-c6ccccc6)c6nc(c(-c7ccccc7)c7ccc4[nH]7)C=C6)C=C5)cc3)CC2)cc1C
REMARK SMILES IDX 24 1 23 2 21 3 22 4 20 6 15 7 16 8 17 9 19 10 18 11 13 12
REMARK SMILES IDX 9 13 10 14 79 15 11 16 78 17 12 18 14 19 6 20 7 21 8 22 5 23
REMARK SMILES IDX 1 24 2 25 3 26 81 27 4 28 80 29 82 30 25 31 26 32 27 33
REMARK SMILES IDX 28 34 29 36 30 37 31 38 77 39 32 40 76 41 33 42 34 43 35 44
REMARK SMILES IDX 70 45 36 46 75 47 69 48 71 49 37 50 74 51 68 52 67 53 38 55
REMARK SMILES IDX 60 56 45 57 59 58 46 59 49 60 58 61 72 62 47 63 48 64 57 66
REMARK SMILES IDX 73 67 50 68 39 69 40 70 44 71 41 72 43 73 42 74 61 75 62 76
REMARK SMILES IDX 66 77 63 78 65 79 64 80 51 81 52 82 56 83 53 84 55 85 54 86
REMARK H PARENT 23 5 27 35 71 54 49 65
REMARK Flexibility Score: inf
ROOT
ATOM      1  C   UNL A   1      34.311  33.921  30.400  1.00  0.00     0.117 C 
ENDROOT
BRANCH   1   2
ATOM      2  N   UNL A   1      34.802  34.737  31.488  1.00  0.00    -0.356 N 
ATOM      3  C   UNL A   1      35.875  34.527  32.292  1.00  0.00     0.223 C 
ATOM      4  O   UNL A   1      36.072  35.354  33.184  1.00  0.00    -0.275 OA
ATOM      5  H   UNL A   1      34.289  35.556  31.671  1.00  0.00     0.163 HD
BRANCH   3   6
ATOM      6  C   UNL A   1      36.725  33.270  32.128  1.00  0.00     0.091 C 
ATOM      7  C   UNL A   1      37.452  32.947  33.474  1.00  0.00     0.091 C 
ATOM      8  C   UNL A   1      38.593  33.974  33.675  1.00  0.00     0.014 C 
ATOM      9  C   UNL A   1      39.582  34.034  32.521  1.00  0.00     0.001 C 
ATOM     10  C   UNL A   1      37.775  33.286  30.989  1.00  0.00     0.014 C 
ATOM     11  C   UNL A   1      38.870  34.314  31.215  1.00  0.00     0.001 C 
BRANCH   7  12
ATOM     12  C   UNL A   1      37.824  31.458  33.415  1.00  0.00     0.226 C 
ATOM     13  N   UNL A   1      41.367  29.788  35.032  1.00  0.00    -0.194 NA
ATOM     14  C   UNL A   1      40.864  29.365  33.716  1.00  0.00     0.124 C 
ATOM     15  C   UNL A   1      41.065  31.190  35.391  1.00  0.00     0.124 C 
ATOM     16  C   UNL A   1      39.365  29.619  33.618  1.00  0.00     0.136 C 
ATOM     17  C   UNL A   1      39.579  31.535  35.217  1.00  0.00     0.136 C 
ATOM     18  N   UNL A   1      38.990  30.996  33.985  1.00  0.00    -0.340 N 
ATOM     19  O   UNL A   1      37.067  30.651  32.860  1.00  0.00    -0.275 OA
BRANCH  13  20
ATOM     20  S   UNL A   1      41.973  28.678  36.133  1.00  0.00     0.243 S 
ATOM     21  O   UNL A   1      40.854  28.013  36.760  1.00  0.00    -0.207 OA
ATOM     22  O   UNL A   1      42.976  29.372  36.918  1.00  0.00    -0.207 OA
BRANCH  20  23
ATOM     23  C   UNL A   1      42.842  27.432  35.203  1.00  0.00     0.082 A 
ATOM     24  C   UNL A   1      44.892  24.419  32.882  1.00  0.00     0.044 C 
ATOM     25  C   UNL A   1      44.164  25.431  33.722  1.00  0.00    -0.048 A 
ATOM     26  C   UNL A   1      44.503  26.775  33.569  1.00  0.00     0.005 A 
ATOM     27  C   UNL A   1      43.146  25.083  34.633  1.00  0.00    -0.047 A 
ATOM     28  C   UNL A   1      43.838  27.755  34.297  1.00  0.00     0.022 A 
ATOM     29  C   UNL A   1      42.502  26.091  35.381  1.00  0.00     0.025 A 
ATOM     30  C   UNL A   1      42.696  23.664  34.843  1.00  0.00     0.044 C 
ENDBRANCH  20  23
ENDBRANCH  13  20
ENDBRANCH   7  12
ENDBRANCH   3   6
ENDBRANCH   1   2
BRANCH   1  31
ATOM     31  C   UNL A   1      34.860  34.319  29.050  1.00  0.00     0.042 C 
BRANCH  31  32
ATOM     32  C   UNL A   1      35.379  33.162  28.222  1.00  0.00     0.118 C 
BRANCH  32  33
ATOM     33  N   UNL A   1      34.403  32.100  28.029  1.00  0.00    -0.352 N 
ATOM     34  C   UNL A   1      34.585  30.739  27.958  1.00  0.00     0.251 C 
ATOM     35  H   UNL A   1      33.471  32.402  27.936  1.00  0.00     0.163 HD
ATOM     36  O   UNL A   1      33.649  30.010  27.647  1.00  0.00    -0.269 OA
BRANCH  34  37
ATOM     37  C   UNL A   1      35.921  30.158  28.219  1.00  0.00     0.039 A 
ATOM     38  C   UNL A   1      36.858  30.124  27.184  1.00  0.00     0.014 A 
ATOM     39  C   UNL A   1      36.261  29.673  29.481  1.00  0.00     0.014 A 
ATOM     40  C   UNL A   1      38.153  29.674  27.443  1.00  0.00     0.010 A 
ATOM     41  C   UNL A   1      37.583  29.364  29.771  1.00  0.00     0.010 A 
ATOM     42  C   UNL A   1      38.541  29.333  28.749  1.00  0.00    -0.014 A 
BRANCH  42  43
ATOM     43  C   UNL A   1      39.928  28.906  29.060  1.00  0.00     0.031 A 
ATOM     44  C   UNL A   1      40.399  27.529  28.666  1.00  0.00     0.074 A 
ATOM     45  C   UNL A   1      40.751  29.732  29.735  1.00  0.00     0.049 A 
ATOM     46  N   UNL A   1      41.564  26.966  28.867  1.00  0.00    -0.248 NA
ATOM     47  C   UNL A   1      39.425  26.658  27.987  1.00  0.00     0.031 C 
ATOM     48  C   UNL A   1      40.402  31.069  30.222  1.00  0.00     0.029 A 
ATOM     49  N   UNL A   1      42.056  29.570  30.125  1.00  0.00    -0.354 N 
ATOM     50  C   UNL A   1      41.453  25.679  28.357  1.00  0.00     0.074 A 
ATOM     51  C   UNL A   1      40.091  25.516  27.904  1.00  0.00     0.031 C 
ATOM     52  C   UNL A   1      41.479  31.622  30.803  1.00  0.00     0.029 A 
ATOM     53  C   UNL A   1      42.580  30.664  30.771  1.00  0.00     0.049 A 
ATOM     54  H   UNL A   1      42.570  28.746  29.960  1.00  0.00     0.167 HD
ATOM     55  C   UNL A   1      42.404  24.722  28.246  1.00  0.00     0.031 A 
ATOM     56  C   UNL A   1      43.807  30.873  31.281  1.00  0.00     0.031 A 
ATOM     57  C   UNL A   1      43.764  24.887  28.684  1.00  0.00     0.049 A 
ATOM     58  C   UNL A   1      44.846  29.792  31.155  1.00  0.00     0.074 A 
ATOM     59  C   UNL A   1      44.821  24.002  28.563  1.00  0.00     0.029 A 
ATOM     60  N   UNL A   1      44.252  26.011  29.331  1.00  0.00    -0.354 N 
ATOM     61  N   UNL A   1      44.746  28.610  30.596  1.00  0.00    -0.248 NA
ATOM     62  C   UNL A   1      46.172  30.084  31.717  1.00  0.00     0.031 C 
ATOM     63  C   UNL A   1      45.933  24.566  29.193  1.00  0.00     0.029 A 
ATOM     64  C   UNL A   1      45.589  25.832  29.642  1.00  0.00     0.049 A 
ATOM     65  H   UNL A   1      43.727  26.818  29.538  1.00  0.00     0.167 HD
ATOM     66  C   UNL A   1      46.003  28.029  30.712  1.00  0.00     0.074 A 
ATOM     67  C   UNL A   1      46.851  28.998  31.375  1.00  0.00     0.031 C 
ATOM     68  C   UNL A   1      46.418  26.804  30.305  1.00  0.00     0.031 A 
BRANCH  55  69
ATOM     69  C   UNL A   1      42.000  23.410  27.629  1.00  0.00    -0.014 A 
ATOM     70  C   UNL A   1      41.392  22.399  28.392  1.00  0.00     0.009 A 
ATOM     71  C   UNL A   1      42.209  23.189  26.259  1.00  0.00     0.009 A 
ATOM     72  C   UNL A   1      41.039  21.183  27.805  1.00  0.00     0.001 A 
ATOM     73  C   UNL A   1      41.823  21.985  25.667  1.00  0.00     0.001 A 
ATOM     74  C   UNL A   1      41.250  20.979  26.442  1.00  0.00     0.000 A 
ENDBRANCH  55  69
BRANCH  56  75
ATOM     75  C   UNL A   1      44.134  32.167  31.939  1.00  0.00    -0.014 A 
ATOM     76  C   UNL A   1      44.675  33.230  31.200  1.00  0.00     0.009 A 
ATOM     77  C   UNL A   1      43.916  32.342  33.315  1.00  0.00     0.009 A 
ATOM     78  C   UNL A   1      45.022  34.427  31.829  1.00  0.00     0.001 A 
ATOM     79  C   UNL A   1      44.232  33.553  33.935  1.00  0.00     0.001 A 
ATOM     80  C   UNL A   1      44.796  34.590  33.194  1.00  0.00     0.000 A 
ENDBRANCH  56  75
BRANCH  68  81
ATOM     81  C   UNL A   1      47.865  26.460  30.529  1.00  0.00    -0.014 A 
ATOM     82  C   UNL A   1      48.292  25.798  31.690  1.00  0.00     0.009 A 
ATOM     83  C   UNL A   1      48.811  26.776  29.540  1.00  0.00     0.009 A 
ATOM     84  C   UNL A   1      49.643  25.500  31.876  1.00  0.00     0.001 A 
ATOM     85  C   UNL A   1      50.154  26.444  29.712  1.00  0.00     0.001 A 
ATOM     86  C   UNL A   1      50.572  25.818  30.886  1.00  0.00     0.000 A 
ENDBRANCH  68  81
ENDBRANCH  42  43
ENDBRANCH  34  37
ENDBRANCH  32  33
ENDBRANCH  31  32
ENDBRANCH   1  31
TORSDOF 13
ENDMDL
MODEL 3
REMARK VINA RESULT:      -9.9      5.673     11.973
REMARK SMILES Cc1ccc(S(=O)(=O)N2CCN(C(=O)[C@H]3CCCC[C@@H]3C(=O)NCCCNC(=O)c3ccc(-c4c5nc(c(-c6ccccc6)c6ccc([nH]6)c(-c6ccccc6)c6nc(c(-c7ccccc7)c7ccc4[nH]7)C=C6)C=C5)cc3)CC2)cc1C
REMARK SMILES IDX 24 1 23 2 21 3 22 4 20 6 15 7 16 8 17 9 19 10 18 11 13 12
REMARK SMILES IDX 9 13 10 14 79 15 11 16 78 17 12 18 14 19 6 20 7 21 8 22 5 23
REMARK SMILES IDX 1 24 2 25 3 26 81 27 4 28 80 29 82 30 25 31 26 32 27 33
REMARK SMILES IDX 28 34 29 36 30 37 31 38 77 39 32 40 76 41 33 42 34 43 35 44
REMARK SMILES IDX 70 45 36 46 75 47 69 48 71 49 37 50 74 51 68 52 67 53 38 55
REMARK SMILES IDX 60 56 45 57 59 58 46 59 49 60 58 61 72 62 47 63 48 64 57 66
REMARK SMILES IDX 73 67 50 68 39 69 40 70 44 71 41 72 43 73 42 74 61 75 62 76
REMARK SMILES IDX 66 77 63 78 65 79 64 80 51 81 52 82 56 83 53 84 55 85 54 86
REMARK H PARENT 23 5 27 35 71 54 49 65
REMARK Flexibility Score: inf
ROOT
ATOM      1  C   UNL A   1      36.833  19.619  24.948  1.00  0.00     0.117 C 
ENDROOT
BRANCH   1   2
ATOM      2  N   UNL A   1      36.700  18.220  25.285  1.00  0.00    -0.356 N 
ATOM      3  C   UNL A   1      35.737  17.341  24.907  1.00  0.00     0.223 C 
ATOM      4  O   UNL A   1      35.819  16.198  25.359  1.00  0.00    -0.275 OA
ATOM      5  H   UNL A   1      37.403  17.854  25.868  1.00  0.00     0.163 HD
BRANCH   3   6
ATOM      6  C   UNL A   1      34.574  17.803  24.034  1.00  0.00     0.091 C 
ATOM      7  C   UNL A   1      33.657  18.773  24.848  1.00  0.00     0.091 C 
ATOM      8  C   UNL A   1      32.858  17.941  25.881  1.00  0.00     0.014 C 
ATOM      9  C   UNL A   1      32.046  16.810  25.270  1.00  0.00     0.001 C 
ATOM     10  C   UNL A   1      33.690  16.692  23.411  1.00  0.00     0.014 C 
ATOM     11  C   UNL A   1      32.932  15.892  24.454  1.00  0.00     0.001 C 
BRANCH   7  12
ATOM     12  C   UNL A   1      32.869  19.589  23.813  1.00  0.00     0.226 C 
ATOM     13  N   UNL A   1      32.515  23.812  23.831  1.00  0.00    -0.194 NA
ATOM     14  C   UNL A   1      31.354  22.956  23.536  1.00  0.00     0.124 C 
ATOM     15  C   UNL A   1      33.503  23.220  24.759  1.00  0.00     0.124 C 
ATOM     16  C   UNL A   1      31.817  21.602  23.015  1.00  0.00     0.136 C 
ATOM     17  C   UNL A   1      33.934  21.808  24.337  1.00  0.00     0.136 C 
ATOM     18  N   UNL A   1      32.822  20.964  23.882  1.00  0.00    -0.340 N 
ATOM     19  O   UNL A   1      32.275  19.014  22.893  1.00  0.00    -0.275 OA
BRANCH  13  20
ATOM     20  S   UNL A   1      32.814  25.209  22.954  1.00  0.00     0.243 S 
ATOM     21  O   UNL A   1      31.681  25.448  22.092  1.00  0.00    -0.207 OA
ATOM     22  O   UNL A   1      34.158  25.089  22.422  1.00  0.00    -0.207 OA
BRANCH  20  23
ATOM     23  C   UNL A   1      32.858  26.561  24.113  1.00  0.00     0.082 A 
ATOM     24  C   UNL A   1      32.906  29.797  26.976  1.00  0.00     0.044 C 
ATOM     25  C   UNL A   1      32.865  28.702  25.948  1.00  0.00    -0.048 A 
ATOM     26  C   UNL A   1      33.751  27.634  26.091  1.00  0.00     0.005 A 
ATOM     27  C   UNL A   1      31.960  28.698  24.866  1.00  0.00    -0.047 A 
ATOM     28  C   UNL A   1      33.732  26.579  25.187  1.00  0.00     0.022 A 
ATOM     29  C   UNL A   1      31.976  27.629  23.945  1.00  0.00     0.025 A 
ATOM     30  C   UNL A   1      30.952  29.790  24.647  1.00  0.00     0.044 C 
ENDBRANCH  20  23
ENDBRANCH  13  20
ENDBRANCH   7  12
ENDBRANCH   3   6
ENDBRANCH   1   2
BRANCH   1  31
ATOM     31  C   UNL A   1      38.254  20.038  24.654  1.00  0.00     0.042 C 
BRANCH  31  32
ATOM     32  C   UNL A   1      39.149  20.109  25.874  1.00  0.00     0.118 C 
BRANCH  32  33
ATOM     33  N   UNL A   1      40.295  19.214  25.808  1.00  0.00    -0.352 N 
ATOM     34  C   UNL A   1      41.625  19.469  26.049  1.00  0.00     0.251 C 
ATOM     35  H   UNL A   1      40.087  18.287  25.553  1.00  0.00     0.163 HD
ATOM     36  O   UNL A   1      42.468  18.613  25.801  1.00  0.00    -0.269 OA
BRANCH  34  37
ATOM     37  C   UNL A   1      42.042  20.789  26.570  1.00  0.00     0.039 A 
ATOM     38  C   UNL A   1      42.397  21.792  25.667  1.00  0.00     0.014 A 
ATOM     39  C   UNL A   1      42.059  21.050  27.940  1.00  0.00     0.014 A 
ATOM     40  C   UNL A   1      42.692  23.072  26.139  1.00  0.00     0.010 A 
ATOM     41  C   UNL A   1      42.210  22.352  28.396  1.00  0.00     0.010 A 
ATOM     42  C   UNL A   1      42.558  23.375  27.504  1.00  0.00    -0.014 A 
BRANCH  42  43
ATOM     43  C   UNL A   1      42.811  24.743  28.024  1.00  0.00     0.031 A 
ATOM     44  C   UNL A   1      44.212  25.160  28.392  1.00  0.00     0.074 A 
ATOM     45  C   UNL A   1      41.783  25.593  28.209  1.00  0.00     0.049 A 
ATOM     46  N   UNL A   1      44.632  26.301  28.880  1.00  0.00    -0.248 NA
ATOM     47  C   UNL A   1      45.277  24.158  28.222  1.00  0.00     0.031 C 
ATOM     48  C   UNL A   1      40.374  25.294  27.944  1.00  0.00     0.029 A 
ATOM     49  N   UNL A   1      41.767  26.889  28.661  1.00  0.00    -0.354 N 
ATOM     50  C   UNL A   1      45.997  26.142  29.088  1.00  0.00     0.074 A 
ATOM     51  C   UNL A   1      46.324  24.778  28.745  1.00  0.00     0.031 C 
ATOM     52  C   UNL A   1      39.637  26.389  28.192  1.00  0.00     0.029 A 
ATOM     53  C   UNL A   1      40.513  27.451  28.677  1.00  0.00     0.049 A 
ATOM     54  H   UNL A   1      42.576  27.370  28.947  1.00  0.00     0.167 HD
ATOM     55  C   UNL A   1      46.906  27.056  29.500  1.00  0.00     0.031 A 
ATOM     56  C   UNL A   1      40.113  28.683  29.042  1.00  0.00     0.031 A 
ATOM     57  C   UNL A   1      46.585  28.418  29.829  1.00  0.00     0.049 A 
ATOM     58  C   UNL A   1      41.140  29.678  29.506  1.00  0.00     0.074 A 
ATOM     59  C   UNL A   1      47.442  29.440  30.199  1.00  0.00     0.029 A 
ATOM     60  N   UNL A   1      45.304  28.947  29.830  1.00  0.00    -0.354 N 
ATOM     61  N   UNL A   1      42.439  29.535  29.620  1.00  0.00    -0.248 NA
ATOM     62  C   UNL A   1      40.646  31.012  29.877  1.00  0.00     0.031 C 
ATOM     63  C   UNL A   1      46.671  30.570  30.485  1.00  0.00     0.029 A 
ATOM     64  C   UNL A   1      45.343  30.273  30.223  1.00  0.00     0.049 A 
ATOM     65  H   UNL A   1      44.488  28.452  29.588  1.00  0.00     0.167 HD
ATOM     66  C   UNL A   1      42.920  30.768  30.046  1.00  0.00     0.074 A 
ATOM     67  C   UNL A   1      41.776  31.650  30.149  1.00  0.00     0.031 C 
ATOM     68  C   UNL A   1      44.195  31.136  30.325  1.00  0.00     0.031 A 
BRANCH  55  69
ATOM     69  C   UNL A   1      48.337  26.604  29.622  1.00  0.00    -0.014 A 
ATOM     70  C   UNL A   1      48.818  26.005  30.798  1.00  0.00     0.009 A 
ATOM     71  C   UNL A   1      49.212  26.756  28.534  1.00  0.00     0.009 A 
ATOM     72  C   UNL A   1      50.153  25.608  30.897  1.00  0.00     0.001 A 
ATOM     73  C   UNL A   1      50.537  26.325  28.624  1.00  0.00     0.001 A 
ATOM     74  C   UNL A   1      51.009  25.763  29.808  1.00  0.00     0.000 A 
ENDBRANCH  55  69
BRANCH  56  75
ATOM     75  C   UNL A   1      38.675  29.056  28.964  1.00  0.00    -0.014 A 
ATOM     76  C   UNL A   1      38.117  29.509  27.758  1.00  0.00     0.009 A 
ATOM     77  C   UNL A   1      37.853  28.974  30.099  1.00  0.00     0.009 A 
ATOM     78  C   UNL A   1      36.778  29.901  27.699  1.00  0.00     0.001 A 
ATOM     79  C   UNL A   1      36.506  29.334  30.029  1.00  0.00     0.001 A 
ATOM     80  C   UNL A   1      35.972  29.808  28.832  1.00  0.00     0.000 A 
ENDBRANCH  56  75
BRANCH  68  81
ATOM     81  C   UNL A   1      44.423  32.567  30.728  1.00  0.00    -0.014 A 
ATOM     82  C   UNL A   1      44.416  32.961  32.075  1.00  0.00     0.009 A 
ATOM     83  C   UNL A   1      44.684  33.530  29.741  1.00  0.00     0.009 A 
ATOM     84  C   UNL A   1      44.621  34.298  32.421  1.00  0.00     0.001 A 
ATOM     85  C   UNL A   1      44.925  34.858  30.091  1.00  0.00     0.001 A 
ATOM     86  C   UNL A   1      44.880  35.244  31.430  1.00  0.00     0.000 A 
ENDBRANCH  68  81
ENDBRANCH  42  43
ENDBRANCH  34  37
ENDBRANCH  32  33
ENDBRANCH  31  32
ENDBRANCH   1  31
TORSDOF 13
ENDMDL
