MODEL 1
REMARK VINA RESULT:     -11.1      0.000      0.000
REMARK SMILES O=C(NCCCNC(=O)c1cc2ncc(Cl)cn2n1)c1ccc(-c2c3nc(c(-c4ccccc4)c4ccc([nH]4)c(-c4ccccc4)c4nc(c(-c5ccccc5)c5ccc2[nH]5)C=C4)C=C3)cc1
REMARK SMILES IDX 4 1 3 2 1 3 2 4 20 6 21 7 67 8 22 9 66 10 23 11 24 12 25 13
REMARK SMILES IDX 60 14 26 15 65 16 59 17 61 18 27 19 64 20 58 21 57 22 28 24
REMARK SMILES IDX 50 25 35 26 49 27 36 28 39 29 48 30 62 31 37 32 38 33 47 35
REMARK SMILES IDX 63 36 40 37 29 38 30 39 34 40 31 41 33 42 32 43 51 44 52 45
REMARK SMILES IDX 56 46 53 47 55 48 54 49 41 50 42 51 46 52 43 53 45 54 44 55
REMARK SMILES IDX 5 56 6 57 7 58 8 59 9 61 10 62 11 63 19 64 12 65 18 66 13 67
REMARK SMILES IDX 17 68 14 69 15 70 16 71
REMARK H PARENT 3 5 61 23 39 34 7 60
REMARK Flexibility Score: inf
ROOT
ATOM      1  C   UNL A   1      34.063  33.563  28.420  1.00  0.00     0.118 C 
ENDROOT
BRANCH   1   2
ATOM      2  N   UNL A   1      33.642  32.289  27.868  1.00  0.00    -0.352 N 
ATOM      3  O   UNL A   1      33.508  30.155  27.292  1.00  0.00    -0.269 OA
ATOM      4  C   UNL A   1      34.216  31.053  27.752  1.00  0.00     0.251 C 
ATOM      5  H   UNL A   1      32.734  32.321  27.489  1.00  0.00     0.163 HD
BRANCH   4   6
ATOM      6  C   UNL A   1      35.633  30.744  28.070  1.00  0.00     0.039 A 
ATOM      7  C   UNL A   1      36.555  31.639  28.616  1.00  0.00     0.014 A 
ATOM      8  C   UNL A   1      36.044  29.422  27.814  1.00  0.00     0.014 A 
ATOM      9  C   UNL A   1      37.877  31.247  28.820  1.00  0.00     0.010 A 
ATOM     10  C   UNL A   1      37.355  29.020  28.037  1.00  0.00     0.010 A 
ATOM     11  C   UNL A   1      38.281  29.945  28.514  1.00  0.00    -0.014 A 
BRANCH  11  12
ATOM     12  C   UNL A   1      39.635  29.534  28.885  1.00  0.00     0.031 A 
ATOM     13  C   UNL A   1      39.850  29.321  30.347  1.00  0.00     0.074 A 
ATOM     14  C   UNL A   1      40.586  29.184  27.994  1.00  0.00     0.049 A 
ATOM     15  N   UNL A   1      40.730  29.872  31.120  1.00  0.00    -0.248 NA
ATOM     16  C   UNL A   1      38.912  28.426  31.046  1.00  0.00     0.031 C 
ATOM     17  C   UNL A   1      40.443  29.026  26.545  1.00  0.00     0.029 A 
ATOM     18  N   UNL A   1      41.866  28.768  28.225  1.00  0.00    -0.354 N 
ATOM     19  C   UNL A   1      40.562  29.281  32.371  1.00  0.00     0.074 A 
ATOM     20  C   UNL A   1      39.360  28.489  32.299  1.00  0.00     0.031 C 
ATOM     21  C   UNL A   1      41.501  28.334  26.067  1.00  0.00     0.029 A 
ATOM     22  C   UNL A   1      42.452  28.121  27.145  1.00  0.00     0.049 A 
ATOM     23  H   UNL A   1      42.331  28.916  29.080  1.00  0.00     0.167 HD
ATOM     24  C   UNL A   1      41.524  29.309  33.334  1.00  0.00     0.031 A 
ATOM     25  C   UNL A   1      43.599  27.397  27.157  1.00  0.00     0.031 A 
ATOM     26  C   UNL A   1      42.501  30.335  33.111  1.00  0.00     0.049 A 
ATOM     27  C   UNL A   1      44.363  27.773  28.366  1.00  0.00     0.074 A 
ATOM     28  C   UNL A   1      42.464  31.711  33.016  1.00  0.00     0.029 A 
ATOM     29  N   UNL A   1      43.717  29.957  32.598  1.00  0.00    -0.354 N 
ATOM     30  N   UNL A   1      44.918  28.935  28.543  1.00  0.00    -0.248 NA
ATOM     31  C   UNL A   1      44.187  26.973  29.568  1.00  0.00     0.031 C 
ATOM     32  C   UNL A   1      43.422  32.035  32.012  1.00  0.00     0.029 A 
ATOM     33  C   UNL A   1      44.017  30.843  31.596  1.00  0.00     0.049 A 
ATOM     34  H   UNL A   1      44.267  29.197  32.892  1.00  0.00     0.167 HD
ATOM     35  C   UNL A   1      44.766  29.195  29.895  1.00  0.00     0.074 A 
ATOM     36  C   UNL A   1      44.415  27.910  30.492  1.00  0.00     0.031 C 
ATOM     37  C   UNL A   1      44.668  30.475  30.358  1.00  0.00     0.031 A 
BRANCH  24  38
ATOM     38  C   UNL A   1      41.767  28.155  34.272  1.00  0.00    -0.014 A 
ATOM     39  C   UNL A   1      41.615  28.340  35.656  1.00  0.00     0.009 A 
ATOM     40  C   UNL A   1      42.406  26.970  33.854  1.00  0.00     0.009 A 
ATOM     41  C   UNL A   1      42.107  27.398  36.571  1.00  0.00     0.001 A 
ATOM     42  C   UNL A   1      42.861  26.011  34.761  1.00  0.00     0.001 A 
ATOM     43  C   UNL A   1      42.731  26.238  36.124  1.00  0.00     0.000 A 
ENDBRANCH  24  38
BRANCH  25  44
ATOM     44  C   UNL A   1      43.954  26.199  26.365  1.00  0.00    -0.014 A 
ATOM     45  C   UNL A   1      45.157  26.151  25.639  1.00  0.00     0.009 A 
ATOM     46  C   UNL A   1      43.255  24.993  26.551  1.00  0.00     0.009 A 
ATOM     47  C   UNL A   1      45.663  24.933  25.163  1.00  0.00     0.001 A 
ATOM     48  C   UNL A   1      43.758  23.779  26.070  1.00  0.00     0.001 A 
ATOM     49  C   UNL A   1      44.972  23.747  25.393  1.00  0.00     0.000 A 
ENDBRANCH  25  44
BRANCH  37  50
ATOM     50  C   UNL A   1      44.983  31.602  29.405  1.00  0.00    -0.014 A 
ATOM     51  C   UNL A   1      46.264  32.172  29.291  1.00  0.00     0.009 A 
ATOM     52  C   UNL A   1      43.999  31.988  28.483  1.00  0.00     0.009 A 
ATOM     53  C   UNL A   1      46.542  33.120  28.300  1.00  0.00     0.001 A 
ATOM     54  C   UNL A   1      44.283  32.917  27.480  1.00  0.00     0.001 A 
ATOM     55  C   UNL A   1      45.552  33.486  27.390  1.00  0.00     0.000 A 
ENDBRANCH  37  50
ENDBRANCH  11  12
ENDBRANCH   4   6
ENDBRANCH   1   2
BRANCH   1  56
ATOM     56  C   UNL A   1      32.947  34.592  28.578  1.00  0.00     0.042 C 
BRANCH  56  57
ATOM     57  C   UNL A   1      33.411  35.925  29.171  1.00  0.00     0.118 C 
BRANCH  57  58
ATOM     58  N   UNL A   1      32.556  36.370  30.261  1.00  0.00    -0.351 N 
ATOM     59  C   UNL A   1      32.595  36.062  31.604  1.00  0.00     0.271 C 
ATOM     60  H   UNL A   1      31.835  36.987  29.999  1.00  0.00     0.163 HD
ATOM     61  O   UNL A   1      31.631  36.376  32.299  1.00  0.00    -0.267 OA
BRANCH  59  62
ATOM     62  C   UNL A   1      33.749  35.343  32.161  1.00  0.00     0.152 A 
ATOM     63  C   UNL A   1      34.833  35.931  32.856  1.00  0.00     0.085 A 
ATOM     64  N   UNL A   1      33.927  34.017  32.019  1.00  0.00    -0.161 NA
ATOM     65  C   UNL A   1      35.644  34.890  33.234  1.00  0.00     0.155 A 
ATOM     66  N   UNL A   1      35.068  33.740  32.685  1.00  0.00    -0.220 N 
ATOM     67  N   UNL A   1      36.784  34.847  33.991  1.00  0.00    -0.235 NA
ATOM     68  C   UNL A   1      35.647  32.494  32.877  1.00  0.00     0.137 A 
ATOM     69  C   UNL A   1      37.294  33.662  34.170  1.00  0.00     0.135 A 
ATOM     70  C   UNL A   1      36.757  32.388  33.613  1.00  0.00     0.077 A 
ATOM     71  Cl  UNL A   1      37.553  30.920  33.950  1.00  0.00    -0.081 Cl
ENDBRANCH  59  62
ENDBRANCH  57  58
ENDBRANCH  56  57
ENDBRANCH   1  56
TORSDOF 10
ENDMDL
MODEL 2
REMARK VINA RESULT:     -11.0      3.546      5.804
REMARK SMILES O=C(NCCCNC(=O)c1cc2ncc(Cl)cn2n1)c1ccc(-c2c3nc(c(-c4ccccc4)c4ccc([nH]4)c(-c4ccccc4)c4nc(c(-c5ccccc5)c5ccc2[nH]5)C=C4)C=C3)cc1
REMARK SMILES IDX 4 1 3 2 1 3 2 4 20 6 21 7 67 8 22 9 66 10 23 11 24 12 25 13
REMARK SMILES IDX 60 14 26 15 65 16 59 17 61 18 27 19 64 20 58 21 57 22 28 24
REMARK SMILES IDX 50 25 35 26 49 27 36 28 39 29 48 30 62 31 37 32 38 33 47 35
REMARK SMILES IDX 63 36 40 37 29 38 30 39 34 40 31 41 33 42 32 43 51 44 52 45
REMARK SMILES IDX 56 46 53 47 55 48 54 49 41 50 42 51 46 52 43 53 45 54 44 55
REMARK SMILES IDX 5 56 6 57 7 58 8 59 9 61 10 62 11 63 19 64 12 65 18 66 13 67
REMARK SMILES IDX 17 68 14 69 15 70 16 71
REMARK H PARENT 3 5 61 23 39 34 7 60
REMARK Flexibility Score: inf
ROOT
ATOM      1  C   UNL A   1      34.523  31.662  27.698  1.00  0.00     0.118 C 
ENDROOT
BRANCH   1   2
ATOM      2  N   UNL A   1      34.479  31.973  29.114  1.00  0.00    -0.352 N 
ATOM      3  O   UNL A   1      34.993  32.287  31.245  1.00  0.00    -0.269 OA
ATOM      4  C   UNL A   1      35.339  31.807  30.164  1.00  0.00     0.251 C 
ATOM      5  H   UNL A   1      33.635  32.403  29.382  1.00  0.00     0.163 HD
BRANCH   4   6
ATOM      6  C   UNL A   1      36.608  31.037  30.105  1.00  0.00     0.039 A 
ATOM      7  C   UNL A   1      37.881  31.585  29.940  1.00  0.00     0.014 A 
ATOM      8  C   UNL A   1      36.486  29.643  30.259  1.00  0.00     0.014 A 
ATOM      9  C   UNL A   1      38.996  30.754  29.846  1.00  0.00     0.010 A 
ATOM     10  C   UNL A   1      37.598  28.812  30.189  1.00  0.00     0.010 A 
ATOM     11  C   UNL A   1      38.852  29.367  29.951  1.00  0.00    -0.014 A 
BRANCH  11  12
ATOM     12  C   UNL A   1      40.062  28.547  29.998  1.00  0.00     0.031 A 
ATOM     13  C   UNL A   1      40.701  28.443  31.343  1.00  0.00     0.074 A 
ATOM     14  C   UNL A   1      40.491  27.779  28.975  1.00  0.00     0.049 A 
ATOM     15  N   UNL A   1      41.917  28.729  31.682  1.00  0.00    -0.248 NA
ATOM     16  C   UNL A   1      39.845  28.029  32.469  1.00  0.00     0.031 C 
ATOM     17  C   UNL A   1      39.810  27.516  27.705  1.00  0.00     0.029 A 
ATOM     18  N   UNL A   1      41.584  26.964  28.914  1.00  0.00    -0.354 N 
ATOM     19  C   UNL A   1      42.029  28.387  33.029  1.00  0.00     0.074 A 
ATOM     20  C   UNL A   1      40.700  28.073  33.490  1.00  0.00     0.031 C 
ATOM     21  C   UNL A   1      40.377  26.441  27.112  1.00  0.00     0.029 A 
ATOM     22  C   UNL A   1      41.534  26.029  27.888  1.00  0.00     0.049 A 
ATOM     23  H   UNL A   1      42.340  27.034  29.540  1.00  0.00     0.167 HD
ATOM     24  C   UNL A   1      43.228  28.181  33.639  1.00  0.00     0.031 A 
ATOM     25  C   UNL A   1      42.342  24.950  27.732  1.00  0.00     0.031 A 
ATOM     26  C   UNL A   1      44.324  28.757  32.915  1.00  0.00     0.049 A 
ATOM     27  C   UNL A   1      43.554  25.166  28.549  1.00  0.00     0.074 A 
ATOM     28  C   UNL A   1      44.668  30.035  32.523  1.00  0.00     0.029 A 
ATOM     29  N   UNL A   1      45.112  27.914  32.172  1.00  0.00    -0.354 N 
ATOM     30  N   UNL A   1      44.456  26.066  28.288  1.00  0.00    -0.248 NA
ATOM     31  C   UNL A   1      43.580  24.628  29.900  1.00  0.00     0.031 C 
ATOM     32  C   UNL A   1      45.264  29.876  31.239  1.00  0.00     0.029 A 
ATOM     33  C   UNL A   1      45.293  28.511  30.951  1.00  0.00     0.049 A 
ATOM     34  H   UNL A   1      45.477  27.047  32.460  1.00  0.00     0.167 HD
ATOM     35  C   UNL A   1      44.872  26.518  29.529  1.00  0.00     0.074 A 
ATOM     36  C   UNL A   1      44.385  25.522  30.479  1.00  0.00     0.031 C 
ATOM     37  C   UNL A   1      45.328  27.794  29.696  1.00  0.00     0.031 A 
BRANCH  24  38
ATOM     38  C   UNL A   1      43.428  27.134  34.703  1.00  0.00    -0.014 A 
ATOM     39  C   UNL A   1      43.420  25.774  34.352  1.00  0.00     0.009 A 
ATOM     40  C   UNL A   1      43.349  27.437  36.078  1.00  0.00     0.009 A 
ATOM     41  C   UNL A   1      43.308  24.774  35.329  1.00  0.00     0.001 A 
ATOM     42  C   UNL A   1      43.278  26.443  37.055  1.00  0.00     0.001 A 
ATOM     43  C   UNL A   1      43.235  25.109  36.677  1.00  0.00     0.000 A 
ENDBRANCH  24  38
BRANCH  25  44
ATOM     44  C   UNL A   1      42.022  23.620  27.166  1.00  0.00    -0.014 A 
ATOM     45  C   UNL A   1      42.850  23.041  26.189  1.00  0.00     0.009 A 
ATOM     46  C   UNL A   1      41.070  22.794  27.790  1.00  0.00     0.009 A 
ATOM     47  C   UNL A   1      42.761  21.675  25.888  1.00  0.00     0.001 A 
ATOM     48  C   UNL A   1      40.977  21.433  27.483  1.00  0.00     0.001 A 
ATOM     49  C   UNL A   1      41.835  20.869  26.545  1.00  0.00     0.000 A 
ENDBRANCH  25  44
BRANCH  37  50
ATOM     50  C   UNL A   1      45.611  28.615  28.462  1.00  0.00    -0.014 A 
ATOM     51  C   UNL A   1      44.635  29.404  27.828  1.00  0.00     0.009 A 
ATOM     52  C   UNL A   1      46.939  28.719  28.023  1.00  0.00     0.009 A 
ATOM     53  C   UNL A   1      44.976  30.253  26.769  1.00  0.00     0.001 A 
ATOM     54  C   UNL A   1      47.283  29.583  26.982  1.00  0.00     0.001 A 
ATOM     55  C   UNL A   1      46.303  30.347  26.352  1.00  0.00     0.000 A 
ENDBRANCH  37  50
ENDBRANCH  11  12
ENDBRANCH   4   6
ENDBRANCH   1   2
BRANCH   1  56
ATOM     56  C   UNL A   1      34.174  30.217  27.349  1.00  0.00     0.042 C 
BRANCH  56  57
ATOM     57  C   UNL A   1      32.891  30.070  26.527  1.00  0.00     0.118 C 
BRANCH  57  58
ATOM     58  N   UNL A   1      33.162  29.922  25.105  1.00  0.00    -0.351 N 
ATOM     59  C   UNL A   1      33.282  28.784  24.337  1.00  0.00     0.271 C 
ATOM     60  H   UNL A   1      33.279  30.767  24.614  1.00  0.00     0.163 HD
ATOM     61  O   UNL A   1      33.740  28.897  23.202  1.00  0.00    -0.267 OA
BRANCH  59  62
ATOM     62  C   UNL A   1      32.906  27.478  24.894  1.00  0.00     0.152 A 
ATOM     63  C   UNL A   1      33.806  26.485  25.351  1.00  0.00     0.085 A 
ATOM     64  N   UNL A   1      31.632  27.054  24.981  1.00  0.00    -0.161 NA
ATOM     65  C   UNL A   1      33.023  25.462  25.828  1.00  0.00     0.155 A 
ATOM     66  N   UNL A   1      31.703  25.838  25.564  1.00  0.00    -0.220 N 
ATOM     67  N   UNL A   1      33.338  24.288  26.456  1.00  0.00    -0.235 NA
ATOM     68  C   UNL A   1      30.644  25.015  25.920  1.00  0.00     0.137 A 
ATOM     69  C   UNL A   1      32.323  23.544  26.797  1.00  0.00     0.135 A 
ATOM     70  C   UNL A   1      30.888  23.859  26.544  1.00  0.00     0.077 A 
ATOM     71  Cl  UNL A   1      29.683  22.771  27.061  1.00  0.00    -0.081 Cl
ENDBRANCH  59  62
ENDBRANCH  57  58
ENDBRANCH  56  57
ENDBRANCH   1  56
TORSDOF 10
ENDMDL
MODEL 3
REMARK VINA RESULT:     -10.9      2.819      4.858
REMARK SMILES O=C(NCCCNC(=O)c1cc2ncc(Cl)cn2n1)c1ccc(-c2c3nc(c(-c4ccccc4)c4ccc([nH]4)c(-c4ccccc4)c4nc(c(-c5ccccc5)c5ccc2[nH]5)C=C4)C=C3)cc1
REMARK SMILES IDX 4 1 3 2 1 3 2 4 20 6 21 7 67 8 22 9 66 10 23 11 24 12 25 13
REMARK SMILES IDX 60 14 26 15 65 16 59 17 61 18 27 19 64 20 58 21 57 22 28 24
REMARK SMILES IDX 50 25 35 26 49 27 36 28 39 29 48 30 62 31 37 32 38 33 47 35
REMARK SMILES IDX 63 36 40 37 29 38 30 39 34 40 31 41 33 42 32 43 51 44 52 45
REMARK SMILES IDX 56 46 53 47 55 48 54 49 41 50 42 51 46 52 43 53 45 54 44 55
REMARK SMILES IDX 5 56 6 57 7 58 8 59 9 61 10 62 11 63 19 64 12 65 18 66 13 67
REMARK SMILES IDX 17 68 14 69 15 70 16 71
REMARK H PARENT 3 5 61 23 39 34 7 60
REMARK Flexibility Score: inf
ROOT
ATOM      1  C   UNL A   1      37.517  33.303  33.445  1.00  0.00     0.118 C 
ENDROOT
BRANCH   1   2
ATOM      2  N   UNL A   1      37.840  33.927  32.175  1.00  0.00    -0.352 N 
ATOM      3  O   UNL A   1      38.448  34.306  30.080  1.00  0.00    -0.269 OA
ATOM      4  C   UNL A   1      38.410  33.496  31.009  1.00  0.00     0.251 C 
ATOM      5  H   UNL A   1      37.594  34.879  32.147  1.00  0.00     0.163 HD
BRANCH   4   6
ATOM      6  C   UNL A   1      39.040  32.165  30.814  1.00  0.00     0.039 A 
ATOM      7  C   UNL A   1      38.381  30.937  30.897  1.00  0.00     0.014 A 
ATOM      8  C   UNL A   1      40.410  32.178  30.495  1.00  0.00     0.014 A 
ATOM      9  C   UNL A   1      39.093  29.748  30.749  1.00  0.00     0.010 A 
ATOM     10  C   UNL A   1      41.120  30.995  30.323  1.00  0.00     0.010 A 
ATOM     11  C   UNL A   1      40.464  29.777  30.480  1.00  0.00    -0.014 A 
BRANCH  11  12
ATOM     12  C   UNL A   1      41.138  28.513  30.182  1.00  0.00     0.031 A 
ATOM     13  C   UNL A   1      42.005  27.988  31.280  1.00  0.00     0.074 A 
ATOM     14  C   UNL A   1      40.878  27.758  29.096  1.00  0.00     0.049 A 
ATOM     15  N   UNL A   1      43.260  27.678  31.236  1.00  0.00    -0.248 NA
ATOM     16  C   UNL A   1      41.400  27.860  32.617  1.00  0.00     0.031 C 
ATOM     17  C   UNL A   1      39.831  27.964  28.091  1.00  0.00     0.029 A 
ATOM     18  N   UNL A   1      41.426  26.562  28.730  1.00  0.00    -0.354 N 
ATOM     19  C   UNL A   1      43.572  27.168  32.496  1.00  0.00     0.074 A 
ATOM     20  C   UNL A   1      42.427  27.411  33.337  1.00  0.00     0.031 C 
ATOM     21  C   UNL A   1      39.669  26.826  27.380  1.00  0.00     0.029 A 
ATOM     22  C   UNL A   1      40.682  25.866  27.786  1.00  0.00     0.049 A 
ATOM     23  H   UNL A   1      42.272  26.225  29.102  1.00  0.00     0.167 HD
ATOM     24  C   UNL A   1      44.667  26.394  32.726  1.00  0.00     0.031 A 
ATOM     25  C   UNL A   1      40.842  24.570  27.420  1.00  0.00     0.031 A 
ATOM     26  C   UNL A   1      45.659  26.516  31.697  1.00  0.00     0.049 A 
ATOM     27  C   UNL A   1      42.195  24.143  27.836  1.00  0.00     0.074 A 
ATOM     28  C   UNL A   1      46.417  27.554  31.194  1.00  0.00     0.029 A 
ATOM     29  N   UNL A   1      45.747  25.506  30.773  1.00  0.00    -0.354 N 
ATOM     30  N   UNL A   1      43.293  24.585  27.299  1.00  0.00    -0.248 NA
ATOM     31  C   UNL A   1      42.346  23.495  29.129  1.00  0.00     0.031 C 
ATOM     32  C   UNL A   1      46.500  27.300  29.794  1.00  0.00     0.029 A 
ATOM     33  C   UNL A   1      45.833  26.101  29.541  1.00  0.00     0.049 A 
ATOM     34  H   UNL A   1      45.747  24.540  30.958  1.00  0.00     0.167 HD
ATOM     35  C   UNL A   1      44.191  24.667  28.351  1.00  0.00     0.074 A 
ATOM     36  C   UNL A   1      43.590  23.879  29.424  1.00  0.00     0.031 C 
ATOM     37  C   UNL A   1      45.197  25.589  28.348  1.00  0.00     0.031 A 
BRANCH  24  38
ATOM     38  C   UNL A   1      44.660  25.249  33.706  1.00  0.00    -0.014 A 
ATOM     39  C   UNL A   1      43.865  24.119  33.451  1.00  0.00     0.009 A 
ATOM     40  C   UNL A   1      45.198  25.369  35.003  1.00  0.00     0.009 A 
ATOM     41  C   UNL A   1      43.601  23.177  34.455  1.00  0.00     0.001 A 
ATOM     42  C   UNL A   1      44.970  24.411  35.994  1.00  0.00     0.001 A 
ATOM     43  C   UNL A   1      44.151  23.325  35.724  1.00  0.00     0.000 A 
ENDBRANCH  24  38
BRANCH  25  44
ATOM     44  C   UNL A   1      39.818  23.585  27.004  1.00  0.00    -0.014 A 
ATOM     45  C   UNL A   1      38.555  24.012  26.559  1.00  0.00     0.009 A 
ATOM     46  C   UNL A   1      40.176  22.246  26.768  1.00  0.00     0.009 A 
ATOM     47  C   UNL A   1      37.706  23.143  25.859  1.00  0.00     0.001 A 
ATOM     48  C   UNL A   1      39.326  21.378  26.076  1.00  0.00     0.001 A 
ATOM     49  C   UNL A   1      38.099  21.831  25.605  1.00  0.00     0.000 A 
ENDBRANCH  25  44
BRANCH  37  50
ATOM     50  C   UNL A   1      45.466  26.341  27.068  1.00  0.00    -0.014 A 
ATOM     51  C   UNL A   1      44.840  27.560  26.749  1.00  0.00     0.009 A 
ATOM     52  C   UNL A   1      46.502  25.889  26.236  1.00  0.00     0.009 A 
ATOM     53  C   UNL A   1      45.221  28.288  25.617  1.00  0.00     0.001 A 
ATOM     54  C   UNL A   1      46.897  26.628  25.119  1.00  0.00     0.001 A 
ATOM     55  C   UNL A   1      46.256  27.824  24.807  1.00  0.00     0.000 A 
ENDBRANCH  37  50
ENDBRANCH  11  12
ENDBRANCH   4   6
ENDBRANCH   1   2
BRANCH   1  56
ATOM     56  C   UNL A   1      36.858  34.230  34.464  1.00  0.00     0.042 C 
BRANCH  56  57
ATOM     57  C   UNL A   1      35.329  34.164  34.465  1.00  0.00     0.118 C 
BRANCH  57  58
ATOM     58  N   UNL A   1      34.721  35.483  34.374  1.00  0.00    -0.351 N 
ATOM     59  C   UNL A   1      34.209  36.152  33.283  1.00  0.00     0.271 C 
ATOM     60  H   UNL A   1      34.667  35.975  35.225  1.00  0.00     0.163 HD
ATOM     61  O   UNL A   1      33.956  37.349  33.405  1.00  0.00    -0.267 OA
BRANCH  59  62
ATOM     62  C   UNL A   1      34.020  35.446  32.009  1.00  0.00     0.152 A 
ATOM     63  C   UNL A   1      33.175  35.862  30.952  1.00  0.00     0.085 A 
ATOM     64  N   UNL A   1      34.607  34.270  31.725  1.00  0.00    -0.161 NA
ATOM     65  C   UNL A   1      33.347  34.939  29.950  1.00  0.00     0.155 A 
ATOM     66  N   UNL A   1      34.212  33.972  30.469  1.00  0.00    -0.220 N 
ATOM     67  N   UNL A   1      32.852  34.870  28.676  1.00  0.00    -0.235 NA
ATOM     68  C   UNL A   1      34.597  32.878  29.706  1.00  0.00     0.137 A 
ATOM     69  C   UNL A   1      33.245  33.844  27.976  1.00  0.00     0.135 A 
ATOM     70  C   UNL A   1      34.152  32.761  28.451  1.00  0.00     0.077 A 
ATOM     71  Cl  UNL A   1      34.567  31.487  27.398  1.00  0.00    -0.081 Cl
ENDBRANCH  59  62
ENDBRANCH  57  58
ENDBRANCH  56  57
ENDBRANCH   1  56
TORSDOF 10
ENDMDL
