MODEL 1
REMARK VINA RESULT:     -13.0      0.000      0.000
REMARK SMILES CS(=O)(=O)c1ccc(/C=C(/C(=O)NCCCNC(=O)c2ccc(-c3c4nc(c(-c5ccccc5)c5ccc([nH]5)c(-c5ccccc5)c5nc(c(-c6ccccc6)c6ccc3[nH]6)C=C5)C=C4)cc2)c2cccc(-c3ccc(S(C)(=O)=O)cc3)c2)cc1
REMARK SMILES IDX 14 1 13 2 11 3 12 4 10 6 9 7 8 8 5 9 6 10 85 11 7 12 84 13
REMARK SMILES IDX 2 14 1 15 3 16 4 17 68 18 69 19 83 20 70 21 72 22 71 23
REMARK SMILES IDX 73 24 74 25 82 26 75 27 81 28 76 29 77 30 78 31 79 32 80 33
REMARK SMILES IDX 15 34 16 35 17 36 18 37 19 39 20 40 21 41 67 42 22 43 66 44
REMARK SMILES IDX 23 45 24 46 25 47 60 48 26 49 65 50 59 51 61 52 27 53 64 54
REMARK SMILES IDX 58 55 57 56 28 58 50 59 35 60 49 61 36 62 39 63 48 64 62 65
REMARK SMILES IDX 37 66 38 67 47 69 63 70 40 71 29 72 30 73 34 74 31 75 33 76
REMARK SMILES IDX 32 77 51 78 52 79 56 80 53 81 55 82 54 83 41 84 42 85 46 86
REMARK SMILES IDX 43 87 45 88 44 89
REMARK H PARENT 13 5 17 38 61 57 39 68
REMARK Flexibility Score: inf
ROOT
ATOM      1  C   UNL A   1      32.888  21.942  25.733  1.00  0.00     0.118 C 
ENDROOT
BRANCH   1   2
ATOM      2  N   UNL A   1      31.743  22.212  26.583  1.00  0.00    -0.352 N 
ATOM      3  C   UNL A   1      30.908  23.271  26.745  1.00  0.00     0.251 C 
ATOM      4  O   UNL A   1      30.044  23.136  27.616  1.00  0.00    -0.269 OA
ATOM      5  H   UNL A   1      31.522  21.459  27.176  1.00  0.00     0.163 HD
BRANCH   3   6
ATOM      6  C   UNL A   1      30.944  24.514  25.884  1.00  0.00     0.047 C 
ATOM      7  C   UNL A   1      29.903  24.867  25.093  1.00  0.00     0.022 C 
BRANCH   7   8
ATOM      8  C   UNL A   1      29.710  26.077  24.258  1.00  0.00    -0.025 A 
ATOM      9  C   UNL A   1      29.215  28.447  22.825  1.00  0.00     0.067 A 
ATOM     10  C   UNL A   1      30.490  27.883  22.816  1.00  0.00     0.021 A 
ATOM     11  C   UNL A   1      28.171  27.815  23.501  1.00  0.00     0.021 A 
ATOM     12  C   UNL A   1      30.726  26.690  23.512  1.00  0.00     0.009 A 
ATOM     13  C   UNL A   1      28.422  26.636  24.213  1.00  0.00     0.009 A 
BRANCH   9  14
ATOM     14  S   UNL A   1      28.901  29.962  21.948  1.00  0.00     0.175 S 
ATOM     15  C   UNL A   1      28.618  31.187  23.200  1.00  0.00     0.163 C 
ATOM     16  O   UNL A   1      27.656  29.791  21.224  1.00  0.00    -0.224 OA
ATOM     17  O   UNL A   1      30.130  30.294  21.252  1.00  0.00    -0.224 OA
ENDBRANCH   9  14
ENDBRANCH   7   8
BRANCH   6  18
ATOM     18  C   UNL A   1      32.240  25.241  25.803  1.00  0.00    -0.012 A 
ATOM     19  C   UNL A   1      33.204  24.811  24.877  1.00  0.00     0.009 A 
ATOM     20  C   UNL A   1      32.476  26.422  26.524  1.00  0.00     0.017 A 
ATOM     21  C   UNL A   1      34.363  25.548  24.656  1.00  0.00     0.001 A 
ATOM     22  C   UNL A   1      33.602  27.220  26.252  1.00  0.00    -0.018 A 
ATOM     23  C   UNL A   1      34.552  26.753  25.328  1.00  0.00     0.009 A 
BRANCH  22  24
ATOM     24  C   UNL A   1      33.705  28.573  26.816  1.00  0.00    -0.018 A 
ATOM     25  C   UNL A   1      34.933  29.011  27.349  1.00  0.00     0.010 A 
ATOM     26  C   UNL A   1      32.632  29.477  26.775  1.00  0.00     0.010 A 
ATOM     27  C   UNL A   1      35.093  30.316  27.812  1.00  0.00     0.021 A 
ATOM     28  C   UNL A   1      32.780  30.785  27.242  1.00  0.00     0.021 A 
ATOM     29  C   UNL A   1      34.011  31.196  27.757  1.00  0.00     0.067 A 
BRANCH  29  30
ATOM     30  S   UNL A   1      34.250  32.872  28.289  1.00  0.00     0.175 S 
ATOM     31  C   UNL A   1      32.847  33.730  27.626  1.00  0.00     0.163 C 
ATOM     32  O   UNL A   1      34.145  32.864  29.735  1.00  0.00    -0.224 OA
ATOM     33  O   UNL A   1      35.437  33.381  27.627  1.00  0.00    -0.224 OA
ENDBRANCH  29  30
ENDBRANCH  22  24
ENDBRANCH   6  18
ENDBRANCH   3   6
ENDBRANCH   1   2
BRANCH   1  34
ATOM     34  C   UNL A   1      34.127  21.638  26.576  1.00  0.00     0.042 C 
BRANCH  34  35
ATOM     35  C   UNL A   1      35.425  22.190  25.984  1.00  0.00     0.118 C 
BRANCH  35  36
ATOM     36  N   UNL A   1      36.371  21.135  25.651  1.00  0.00    -0.352 N 
ATOM     37  C   UNL A   1      37.734  21.180  25.509  1.00  0.00     0.251 C 
ATOM     38  H   UNL A   1      35.969  20.248  25.504  1.00  0.00     0.163 HD
ATOM     39  O   UNL A   1      38.322  20.228  25.004  1.00  0.00    -0.269 OA
BRANCH  37  40
ATOM     40  C   UNL A   1      38.504  22.364  25.950  1.00  0.00     0.039 A 
ATOM     41  C   UNL A   1      39.712  22.166  26.627  1.00  0.00     0.014 A 
ATOM     42  C   UNL A   1      38.019  23.661  25.753  1.00  0.00     0.014 A 
ATOM     43  C   UNL A   1      40.456  23.266  27.060  1.00  0.00     0.010 A 
ATOM     44  C   UNL A   1      38.794  24.757  26.126  1.00  0.00     0.010 A 
ATOM     45  C   UNL A   1      40.017  24.571  26.789  1.00  0.00    -0.014 A 
BRANCH  45  46
ATOM     46  C   UNL A   1      40.829  25.750  27.182  1.00  0.00     0.031 A 
ATOM     47  C   UNL A   1      40.269  26.784  28.119  1.00  0.00     0.074 A 
ATOM     48  C   UNL A   1      42.051  25.923  26.643  1.00  0.00     0.049 A 
ATOM     49  N   UNL A   1      40.810  27.901  28.534  1.00  0.00    -0.248 NA
ATOM     50  C   UNL A   1      38.914  26.542  28.640  1.00  0.00     0.031 C 
ATOM     51  C   UNL A   1      42.692  25.016  25.688  1.00  0.00     0.029 A 
ATOM     52  N   UNL A   1      42.968  26.929  26.813  1.00  0.00    -0.354 N 
ATOM     53  C   UNL A   1      39.857  28.505  29.345  1.00  0.00     0.074 A 
ATOM     54  C   UNL A   1      38.688  27.652  29.328  1.00  0.00     0.031 C 
ATOM     55  C   UNL A   1      43.907  25.493  25.378  1.00  0.00     0.029 A 
ATOM     56  C   UNL A   1      44.115  26.757  26.077  1.00  0.00     0.049 A 
ATOM     57  H   UNL A   1      42.819  27.700  27.406  1.00  0.00     0.167 HD
ATOM     58  C   UNL A   1      39.950  29.657  30.052  1.00  0.00     0.031 A 
ATOM     59  C   UNL A   1      45.210  27.531  25.971  1.00  0.00     0.031 A 
ATOM     60  C   UNL A   1      41.114  30.501  30.075  1.00  0.00     0.049 A 
ATOM     61  C   UNL A   1      45.289  28.807  26.760  1.00  0.00     0.074 A 
ATOM     62  C   UNL A   1      41.330  31.655  30.809  1.00  0.00     0.029 A 
ATOM     63  N   UNL A   1      42.259  30.288  29.322  1.00  0.00    -0.354 N 
ATOM     64  N   UNL A   1      44.408  29.327  27.579  1.00  0.00    -0.248 NA
ATOM     65  C   UNL A   1      46.521  29.596  26.618  1.00  0.00     0.031 C 
ATOM     66  C   UNL A   1      42.585  32.167  30.461  1.00  0.00     0.029 A 
ATOM     67  C   UNL A   1      43.174  31.301  29.553  1.00  0.00     0.049 A 
ATOM     68  H   UNL A   1      42.400  29.526  28.713  1.00  0.00     0.167 HD
ATOM     69  C   UNL A   1      44.985  30.491  28.068  1.00  0.00     0.074 A 
ATOM     70  C   UNL A   1      46.300  30.591  27.465  1.00  0.00     0.031 C 
ATOM     71  C   UNL A   1      44.473  31.394  28.939  1.00  0.00     0.031 A 
BRANCH  58  72
ATOM     72  C   UNL A   1      38.744  30.075  30.849  1.00  0.00    -0.014 A 
ATOM     73  C   UNL A   1      38.544  29.622  32.163  1.00  0.00     0.009 A 
ATOM     74  C   UNL A   1      37.803  30.951  30.284  1.00  0.00     0.009 A 
ATOM     75  C   UNL A   1      37.403  29.998  32.877  1.00  0.00     0.001 A 
ATOM     76  C   UNL A   1      36.680  31.351  31.011  1.00  0.00     0.001 A 
ATOM     77  C   UNL A   1      36.475  30.865  32.301  1.00  0.00     0.000 A 
ENDBRANCH  58  72
BRANCH  59  78
ATOM     78  C   UNL A   1      46.332  27.105  25.094  1.00  0.00    -0.014 A 
ATOM     79  C   UNL A   1      47.039  25.925  25.366  1.00  0.00     0.009 A 
ATOM     80  C   UNL A   1      46.686  27.865  23.968  1.00  0.00     0.009 A 
ATOM     81  C   UNL A   1      48.091  25.524  24.540  1.00  0.00     0.001 A 
ATOM     82  C   UNL A   1      47.720  27.448  23.129  1.00  0.00     0.001 A 
ATOM     83  C   UNL A   1      48.427  26.282  23.420  1.00  0.00     0.000 A 
ENDBRANCH  59  78
BRANCH  71  84
ATOM     84  C   UNL A   1      45.347  32.558  29.311  1.00  0.00    -0.014 A 
ATOM     85  C   UNL A   1      46.301  32.455  30.336  1.00  0.00     0.009 A 
ATOM     86  C   UNL A   1      45.239  33.764  28.601  1.00  0.00     0.009 A 
ATOM     87  C   UNL A   1      47.106  33.547  30.663  1.00  0.00     0.001 A 
ATOM     88  C   UNL A   1      46.066  34.845  28.911  1.00  0.00     0.001 A 
ATOM     89  C   UNL A   1      46.992  34.739  29.948  1.00  0.00     0.000 A 
ENDBRANCH  71  84
ENDBRANCH  45  46
ENDBRANCH  37  40
ENDBRANCH  35  36
ENDBRANCH  34  35
ENDBRANCH   1  34
TORSDOF 15
ENDMDL
MODEL 2
REMARK VINA RESULT:     -12.7      0.373      5.598
REMARK SMILES CS(=O)(=O)c1ccc(/C=C(/C(=O)NCCCNC(=O)c2ccc(-c3c4nc(c(-c5ccccc5)c5ccc([nH]5)c(-c5ccccc5)c5nc(c(-c6ccccc6)c6ccc3[nH]6)C=C5)C=C4)cc2)c2cccc(-c3ccc(S(C)(=O)=O)cc3)c2)cc1
REMARK SMILES IDX 14 1 13 2 11 3 12 4 10 6 9 7 8 8 5 9 6 10 85 11 7 12 84 13
REMARK SMILES IDX 2 14 1 15 3 16 4 17 68 18 69 19 83 20 70 21 72 22 71 23
REMARK SMILES IDX 73 24 74 25 82 26 75 27 81 28 76 29 77 30 78 31 79 32 80 33
REMARK SMILES IDX 15 34 16 35 17 36 18 37 19 39 20 40 21 41 67 42 22 43 66 44
REMARK SMILES IDX 23 45 24 46 25 47 60 48 26 49 65 50 59 51 61 52 27 53 64 54
REMARK SMILES IDX 58 55 57 56 28 58 50 59 35 60 49 61 36 62 39 63 48 64 62 65
REMARK SMILES IDX 37 66 38 67 47 69 63 70 40 71 29 72 30 73 34 74 31 75 33 76
REMARK SMILES IDX 32 77 51 78 52 79 56 80 53 81 55 82 54 83 41 84 42 85 46 86
REMARK SMILES IDX 43 87 45 88 44 89
REMARK H PARENT 13 5 17 38 61 57 39 68
REMARK Flexibility Score: inf
ROOT
ATOM      1  C   UNL A   1      33.023  22.013  25.785  1.00  0.00     0.118 C 
ENDROOT
BRANCH   1   2
ATOM      2  N   UNL A   1      31.825  22.240  26.571  1.00  0.00    -0.352 N 
ATOM      3  C   UNL A   1      30.944  23.268  26.687  1.00  0.00     0.251 C 
ATOM      4  O   UNL A   1      30.040  23.101  27.510  1.00  0.00    -0.269 OA
ATOM      5  H   UNL A   1      31.599  21.478  27.152  1.00  0.00     0.163 HD
BRANCH   3   6
ATOM      6  C   UNL A   1      30.982  24.513  25.828  1.00  0.00     0.047 C 
ATOM      7  C   UNL A   1      29.945  24.864  25.031  1.00  0.00     0.022 C 
BRANCH   7   8
ATOM      8  C   UNL A   1      29.754  26.075  24.197  1.00  0.00    -0.025 A 
ATOM      9  C   UNL A   1      29.264  28.447  22.766  1.00  0.00     0.067 A 
ATOM     10  C   UNL A   1      30.536  27.876  22.749  1.00  0.00     0.021 A 
ATOM     11  C   UNL A   1      28.220  27.822  23.450  1.00  0.00     0.021 A 
ATOM     12  C   UNL A   1      30.768  26.682  23.444  1.00  0.00     0.009 A 
ATOM     13  C   UNL A   1      28.469  26.642  24.160  1.00  0.00     0.009 A 
BRANCH   9  14
ATOM     14  S   UNL A   1      28.953  29.963  21.891  1.00  0.00     0.175 S 
ATOM     15  C   UNL A   1      28.655  31.184  23.144  1.00  0.00     0.163 C 
ATOM     16  O   UNL A   1      27.715  29.791  21.155  1.00  0.00    -0.224 OA
ATOM     17  O   UNL A   1      30.187  30.302  21.208  1.00  0.00    -0.224 OA
ENDBRANCH   9  14
ENDBRANCH   7   8
BRANCH   6  18
ATOM     18  C   UNL A   1      32.277  25.244  25.757  1.00  0.00    -0.012 A 
ATOM     19  C   UNL A   1      33.242  24.827  24.827  1.00  0.00     0.009 A 
ATOM     20  C   UNL A   1      32.509  26.417  26.492  1.00  0.00     0.017 A 
ATOM     21  C   UNL A   1      34.400  25.570  24.616  1.00  0.00     0.001 A 
ATOM     22  C   UNL A   1      33.633  27.221  26.230  1.00  0.00    -0.018 A 
ATOM     23  C   UNL A   1      34.585  26.767  25.302  1.00  0.00     0.009 A 
BRANCH  22  24
ATOM     24  C   UNL A   1      33.733  28.567  26.810  1.00  0.00    -0.018 A 
ATOM     25  C   UNL A   1      34.965  29.011  27.329  1.00  0.00     0.010 A 
ATOM     26  C   UNL A   1      32.650  29.461  26.799  1.00  0.00     0.010 A 
ATOM     27  C   UNL A   1      35.119  30.312  27.806  1.00  0.00     0.021 A 
ATOM     28  C   UNL A   1      32.793  30.765  27.280  1.00  0.00     0.021 A 
ATOM     29  C   UNL A   1      34.028  31.181  27.781  1.00  0.00     0.067 A 
BRANCH  29  30
ATOM     30  S   UNL A   1      34.260  32.852  28.331  1.00  0.00     0.175 S 
ATOM     31  C   UNL A   1      32.861  33.714  27.663  1.00  0.00     0.163 C 
ATOM     32  O   UNL A   1      34.142  32.831  29.775  1.00  0.00    -0.224 OA
ATOM     33  O   UNL A   1      35.451  33.370  27.683  1.00  0.00    -0.224 OA
ENDBRANCH  29  30
ENDBRANCH  22  24
ENDBRANCH   6  18
ENDBRANCH   3   6
ENDBRANCH   1   2
BRANCH   1  34
ATOM     34  C   UNL A   1      34.201  21.646  26.689  1.00  0.00     0.042 C 
BRANCH  34  35
ATOM     35  C   UNL A   1      35.530  22.264  26.250  1.00  0.00     0.118 C 
BRANCH  35  36
ATOM     36  N   UNL A   1      36.531  21.254  25.939  1.00  0.00    -0.352 N 
ATOM     37  C   UNL A   1      37.889  21.372  25.785  1.00  0.00     0.251 C 
ATOM     38  H   UNL A   1      36.178  20.343  25.818  1.00  0.00     0.163 HD
ATOM     39  O   UNL A   1      38.526  20.440  25.302  1.00  0.00    -0.269 OA
BRANCH  37  40
ATOM     40  C   UNL A   1      38.594  22.607  26.189  1.00  0.00     0.039 A 
ATOM     41  C   UNL A   1      39.759  22.497  26.954  1.00  0.00     0.014 A 
ATOM     42  C   UNL A   1      38.086  23.871  25.870  1.00  0.00     0.014 A 
ATOM     43  C   UNL A   1      40.442  23.648  27.354  1.00  0.00     0.010 A 
ATOM     44  C   UNL A   1      38.804  25.015  26.212  1.00  0.00     0.010 A 
ATOM     45  C   UNL A   1      39.985  24.916  26.963  1.00  0.00    -0.014 A 
BRANCH  45  46
ATOM     46  C   UNL A   1      40.736  26.146  27.322  1.00  0.00     0.031 A 
ATOM     47  C   UNL A   1      42.111  26.390  26.766  1.00  0.00     0.074 A 
ATOM     48  C   UNL A   1      40.203  27.014  28.203  1.00  0.00     0.049 A 
ATOM     49  N   UNL A   1      42.935  27.378  27.006  1.00  0.00    -0.248 NA
ATOM     50  C   UNL A   1      42.640  25.379  25.837  1.00  0.00     0.031 C 
ATOM     51  C   UNL A   1      38.895  26.872  28.847  1.00  0.00     0.029 A 
ATOM     52  N   UNL A   1      40.702  28.185  28.715  1.00  0.00    -0.354 N 
ATOM     53  C   UNL A   1      44.085  27.098  26.277  1.00  0.00     0.074 A 
ATOM     54  C   UNL A   1      43.868  25.826  25.622  1.00  0.00     0.031 C 
ATOM     55  C   UNL A   1      38.685  27.927  29.649  1.00  0.00     0.029 A 
ATOM     56  C   UNL A   1      39.855  28.798  29.607  1.00  0.00     0.049 A 
ATOM     57  H   UNL A   1      41.581  28.551  28.468  1.00  0.00     0.167 HD
ATOM     58  C   UNL A   1      45.212  27.839  26.151  1.00  0.00     0.031 A 
ATOM     59  C   UNL A   1      40.005  29.931  30.318  1.00  0.00     0.031 A 
ATOM     60  C   UNL A   1      45.424  29.107  26.796  1.00  0.00     0.049 A 
ATOM     61  C   UNL A   1      41.266  30.733  30.166  1.00  0.00     0.074 A 
ATOM     62  C   UNL A   1      46.505  29.964  26.682  1.00  0.00     0.029 A 
ATOM     63  N   UNL A   1      44.539  29.698  27.686  1.00  0.00    -0.354 N 
ATOM     64  N   UNL A   1      42.313  30.491  29.417  1.00  0.00    -0.248 NA
ATOM     65  C   UNL A   1      41.359  31.971  30.952  1.00  0.00     0.031 C 
ATOM     66  C   UNL A   1      46.297  31.048  27.541  1.00  0.00     0.029 A 
ATOM     67  C   UNL A   1      45.061  30.894  28.149  1.00  0.00     0.049 A 
ATOM     68  H   UNL A   1      43.667  29.321  27.949  1.00  0.00     0.167 HD
ATOM     69  C   UNL A   1      43.180  31.556  29.621  1.00  0.00     0.074 A 
ATOM     70  C   UNL A   1      42.527  32.454  30.553  1.00  0.00     0.031 C 
ATOM     71  C   UNL A   1      44.406  31.771  29.084  1.00  0.00     0.031 A 
BRANCH  58  72
ATOM     72  C   UNL A   1      46.310  27.279  25.289  1.00  0.00    -0.014 A 
ATOM     73  C   UNL A   1      46.740  27.945  24.129  1.00  0.00     0.009 A 
ATOM     74  C   UNL A   1      46.939  26.077  25.652  1.00  0.00     0.009 A 
ATOM     75  C   UNL A   1      47.743  27.395  23.326  1.00  0.00     0.001 A 
ATOM     76  C   UNL A   1      47.962  25.546  24.864  1.00  0.00     0.001 A 
ATOM     77  C   UNL A   1      48.354  26.198  23.697  1.00  0.00     0.000 A 
ENDBRANCH  58  72
BRANCH  59  78
ATOM     78  C   UNL A   1      38.917  30.382  31.224  1.00  0.00    -0.014 A 
ATOM     79  C   UNL A   1      37.849  31.144  30.727  1.00  0.00     0.009 A 
ATOM     80  C   UNL A   1      38.930  30.036  32.583  1.00  0.00     0.009 A 
ATOM     81  C   UNL A   1      36.826  31.567  31.578  1.00  0.00     0.001 A 
ATOM     82  C   UNL A   1      37.892  30.436  33.426  1.00  0.00     0.001 A 
ATOM     83  C   UNL A   1      36.844  31.208  32.924  1.00  0.00     0.000 A 
ENDBRANCH  59  78
BRANCH  71  84
ATOM     84  C   UNL A   1      45.110  33.041  29.472  1.00  0.00    -0.014 A 
ATOM     85  C   UNL A   1      44.773  34.271  28.885  1.00  0.00     0.009 A 
ATOM     86  C   UNL A   1      46.100  33.010  30.467  1.00  0.00     0.009 A 
ATOM     87  C   UNL A   1      45.437  35.439  29.264  1.00  0.00     0.001 A 
ATOM     88  C   UNL A   1      46.741  34.183  30.864  1.00  0.00     0.001 A 
ATOM     89  C   UNL A   1      46.417  35.395  30.256  1.00  0.00     0.000 A 
ENDBRANCH  71  84
ENDBRANCH  45  46
ENDBRANCH  37  40
ENDBRANCH  35  36
ENDBRANCH  34  35
ENDBRANCH   1  34
TORSDOF 15
ENDMDL
MODEL 3
REMARK VINA RESULT:     -12.5      4.096      9.171
REMARK SMILES CS(=O)(=O)c1ccc(/C=C(/C(=O)NCCCNC(=O)c2ccc(-c3c4nc(c(-c5ccccc5)c5ccc([nH]5)c(-c5ccccc5)c5nc(c(-c6ccccc6)c6ccc3[nH]6)C=C5)C=C4)cc2)c2cccc(-c3ccc(S(C)(=O)=O)cc3)c2)cc1
REMARK SMILES IDX 14 1 13 2 11 3 12 4 10 6 9 7 8 8 5 9 6 10 85 11 7 12 84 13
REMARK SMILES IDX 2 14 1 15 3 16 4 17 68 18 69 19 83 20 70 21 72 22 71 23
REMARK SMILES IDX 73 24 74 25 82 26 75 27 81 28 76 29 77 30 78 31 79 32 80 33
REMARK SMILES IDX 15 34 16 35 17 36 18 37 19 39 20 40 21 41 67 42 22 43 66 44
REMARK SMILES IDX 23 45 24 46 25 47 60 48 26 49 65 50 59 51 61 52 27 53 64 54
REMARK SMILES IDX 58 55 57 56 28 58 50 59 35 60 49 61 36 62 39 63 48 64 62 65
REMARK SMILES IDX 37 66 38 67 47 69 63 70 40 71 29 72 30 73 34 74 31 75 33 76
REMARK SMILES IDX 32 77 51 78 52 79 56 80 53 81 55 82 54 83 41 84 42 85 46 86
REMARK SMILES IDX 43 87 45 88 44 89
REMARK H PARENT 13 5 17 38 61 57 39 68
REMARK Flexibility Score: inf
ROOT
ATOM      1  C   UNL A   1      36.680  34.341  32.149  1.00  0.00     0.118 C 
ENDROOT
BRANCH   1   2
ATOM      2  N   UNL A   1      37.642  34.568  31.087  1.00  0.00    -0.352 N 
ATOM      3  C   UNL A   1      37.994  33.892  29.962  1.00  0.00     0.251 C 
ATOM      4  O   UNL A   1      38.908  34.398  29.305  1.00  0.00    -0.269 OA
ATOM      5  H   UNL A   1      38.157  35.398  31.209  1.00  0.00     0.163 HD
BRANCH   3   6
ATOM      6  C   UNL A   1      37.288  32.649  29.469  1.00  0.00     0.047 C 
ATOM      7  C   UNL A   1      36.156  32.715  28.730  1.00  0.00     0.022 C 
BRANCH   7   8
ATOM      8  C   UNL A   1      35.377  31.631  28.084  1.00  0.00    -0.025 A 
ATOM      9  C   UNL A   1      33.789  29.725  26.757  1.00  0.00     0.067 A 
ATOM     10  C   UNL A   1      35.146  29.478  26.961  1.00  0.00     0.021 A 
ATOM     11  C   UNL A   1      33.204  30.892  27.250  1.00  0.00     0.021 A 
ATOM     12  C   UNL A   1      35.927  30.420  27.643  1.00  0.00     0.009 A 
ATOM     13  C   UNL A   1      33.998  31.838  27.910  1.00  0.00     0.009 A 
BRANCH   9  14
ATOM     14  S   UNL A   1      32.785  28.541  25.891  1.00  0.00     0.175 S 
ATOM     15  C   UNL A   1      32.934  28.955  24.173  1.00  0.00     0.163 C 
ATOM     16  O   UNL A   1      31.406  28.782  26.274  1.00  0.00    -0.224 OA
ATOM     17  O   UNL A   1      33.403  27.246  26.105  1.00  0.00    -0.224 OA
ENDBRANCH   9  14
ENDBRANCH   7   8
BRANCH   6  18
ATOM     18  C   UNL A   1      37.788  31.342  29.978  1.00  0.00    -0.012 A 
ATOM     19  C   UNL A   1      37.009  30.631  30.904  1.00  0.00     0.009 A 
ATOM     20  C   UNL A   1      38.943  30.736  29.461  1.00  0.00     0.017 A 
ATOM     21  C   UNL A   1      37.357  29.340  31.290  1.00  0.00     0.001 A 
ATOM     22  C   UNL A   1      39.262  29.403  29.777  1.00  0.00    -0.018 A 
ATOM     23  C   UNL A   1      38.467  28.725  30.717  1.00  0.00     0.009 A 
BRANCH  22  24
ATOM     24  C   UNL A   1      40.314  28.695  29.035  1.00  0.00    -0.018 A 
ATOM     25  C   UNL A   1      40.849  27.501  29.556  1.00  0.00     0.010 A 
ATOM     26  C   UNL A   1      40.755  29.135  27.777  1.00  0.00     0.010 A 
ATOM     27  C   UNL A   1      41.784  26.757  28.838  1.00  0.00     0.021 A 
ATOM     28  C   UNL A   1      41.697  28.399  27.052  1.00  0.00     0.021 A 
ATOM     29  C   UNL A   1      42.204  27.214  27.589  1.00  0.00     0.067 A 
BRANCH  29  30
ATOM     30  S   UNL A   1      43.345  26.222  26.660  1.00  0.00     0.175 S 
ATOM     31  C   UNL A   1      42.297  25.193  25.665  1.00  0.00     0.163 C 
ATOM     32  O   UNL A   1      44.064  27.128  25.787  1.00  0.00    -0.224 OA
ATOM     33  O   UNL A   1      44.050  25.364  27.596  1.00  0.00    -0.224 OA
ENDBRANCH  29  30
ENDBRANCH  22  24
ENDBRANCH   6  18
ENDBRANCH   3   6
ENDBRANCH   1   2
BRANCH   1  34
ATOM     34  C   UNL A   1      37.392  34.039  33.469  1.00  0.00     0.042 C 
BRANCH  34  35
ATOM     35  C   UNL A   1      36.804  32.849  34.227  1.00  0.00     0.118 C 
BRANCH  35  36
ATOM     36  N   UNL A   1      37.354  32.724  35.569  1.00  0.00    -0.352 N 
ATOM     37  C   UNL A   1      38.469  32.058  36.011  1.00  0.00     0.251 C 
ATOM     38  H   UNL A   1      36.845  33.190  36.271  1.00  0.00     0.163 HD
ATOM     39  O   UNL A   1      38.635  31.889  37.216  1.00  0.00    -0.269 OA
BRANCH  37  40
ATOM     40  C   UNL A   1      39.469  31.536  35.055  1.00  0.00     0.039 A 
ATOM     41  C   UNL A   1      39.144  30.413  34.288  1.00  0.00     0.014 A 
ATOM     42  C   UNL A   1      40.741  32.108  34.949  1.00  0.00     0.014 A 
ATOM     43  C   UNL A   1      40.072  29.895  33.382  1.00  0.00     0.010 A 
ATOM     44  C   UNL A   1      41.641  31.632  33.998  1.00  0.00     0.010 A 
ATOM     45  C   UNL A   1      41.318  30.518  33.209  1.00  0.00    -0.014 A 
BRANCH  45  46
ATOM     46  C   UNL A   1      42.290  30.021  32.202  1.00  0.00     0.031 A 
ATOM     47  C   UNL A   1      42.964  28.689  32.384  1.00  0.00     0.074 A 
ATOM     48  C   UNL A   1      42.615  30.801  31.154  1.00  0.00     0.049 A 
ATOM     49  N   UNL A   1      43.875  28.117  31.638  1.00  0.00    -0.248 NA
ATOM     50  C   UNL A   1      42.583  27.911  33.573  1.00  0.00     0.031 C 
ATOM     51  C   UNL A   1      42.064  32.132  30.885  1.00  0.00     0.029 A 
ATOM     52  N   UNL A   1      43.495  30.590  30.122  1.00  0.00    -0.354 N 
ATOM     53  C   UNL A   1      44.190  26.923  32.276  1.00  0.00     0.074 A 
ATOM     54  C   UNL A   1      43.406  26.875  33.492  1.00  0.00     0.031 C 
ATOM     55  C   UNL A   1      42.600  32.607  29.751  1.00  0.00     0.029 A 
ATOM     56  C   UNL A   1      43.559  31.636  29.233  1.00  0.00     0.049 A 
ATOM     57  H   UNL A   1      44.029  29.769  30.028  1.00  0.00     0.167 HD
ATOM     58  C   UNL A   1      45.042  25.947  31.879  1.00  0.00     0.031 A 
ATOM     59  C   UNL A   1      44.310  31.799  28.129  1.00  0.00     0.031 A 
ATOM     60  C   UNL A   1      45.815  25.991  30.667  1.00  0.00     0.049 A 
ATOM     61  C   UNL A   1      45.252  30.707  27.711  1.00  0.00     0.074 A 
ATOM     62  C   UNL A   1      46.659  25.025  30.145  1.00  0.00     0.029 A 
ATOM     63  N   UNL A   1      45.846  27.064  29.789  1.00  0.00    -0.354 N 
ATOM     64  N   UNL A   1      45.485  29.552  28.287  1.00  0.00    -0.248 NA
ATOM     65  C   UNL A   1      46.027  30.936  26.484  1.00  0.00     0.031 C 
ATOM     66  C   UNL A   1      47.239  25.535  28.978  1.00  0.00     0.029 A 
ATOM     67  C   UNL A   1      46.714  26.796  28.744  1.00  0.00     0.049 A 
ATOM     68  H   UNL A   1      45.327  27.895  29.894  1.00  0.00     0.167 HD
ATOM     69  C   UNL A   1      46.414  28.908  27.481  1.00  0.00     0.074 A 
ATOM     70  C   UNL A   1      46.689  29.794  26.368  1.00  0.00     0.031 C 
ATOM     71  C   UNL A   1      46.986  27.691  27.649  1.00  0.00     0.031 A 
BRANCH  58  72
ATOM     72  C   UNL A   1      45.190  24.753  32.782  1.00  0.00    -0.014 A 
ATOM     73  C   UNL A   1      46.225  24.676  33.729  1.00  0.00     0.009 A 
ATOM     74  C   UNL A   1      44.268  23.697  32.700  1.00  0.00     0.009 A 
ATOM     75  C   UNL A   1      46.363  23.547  34.539  1.00  0.00     0.001 A 
ATOM     76  C   UNL A   1      44.389  22.583  33.533  1.00  0.00     0.001 A 
ATOM     77  C   UNL A   1      45.442  22.503  34.442  1.00  0.00     0.000 A 
ENDBRANCH  58  72
BRANCH  59  78
ATOM     78  C   UNL A   1      44.182  33.045  27.328  1.00  0.00    -0.014 A 
ATOM     79  C   UNL A   1      43.526  33.029  26.088  1.00  0.00     0.009 A 
ATOM     80  C   UNL A   1      44.695  34.259  27.810  1.00  0.00     0.009 A 
ATOM     81  C   UNL A   1      43.405  34.200  25.337  1.00  0.00     0.001 A 
ATOM     82  C   UNL A   1      44.548  35.433  27.069  1.00  0.00     0.001 A 
ATOM     83  C   UNL A   1      43.910  35.401  25.831  1.00  0.00     0.000 A 
ENDBRANCH  59  78
BRANCH  71  84
ATOM     84  C   UNL A   1      47.949  27.236  26.589  1.00  0.00    -0.014 A 
ATOM     85  C   UNL A   1      49.322  27.518  26.680  1.00  0.00     0.009 A 
ATOM     86  C   UNL A   1      47.480  26.482  25.501  1.00  0.00     0.009 A 
ATOM     87  C   UNL A   1      50.200  27.081  25.686  1.00  0.00     0.001 A 
ATOM     88  C   UNL A   1      48.365  26.023  24.524  1.00  0.00     0.001 A 
ATOM     89  C   UNL A   1      49.721  26.331  24.612  1.00  0.00     0.000 A 
ENDBRANCH  71  84
ENDBRANCH  45  46
ENDBRANCH  37  40
ENDBRANCH  35  36
ENDBRANCH  34  35
ENDBRANCH   1  34
TORSDOF 15
ENDMDL
