MODEL 1
REMARK VINA RESULT:     -10.5      0.000      0.000
REMARK SMILES CCCC[C@@H](Sc1nc(OCCC2CCCCC2)cc(OCCC2CCCCC2)n1)C(=O)NCCCNC(=O)c1ccc(-c2c3nc(c(-c4ccccc4)c4ccc([nH]4)c(-c4ccccc4)c4nc(c(-c5ccccc5)c5ccc2[nH]5)C=C4)C=C3)cc1
REMARK SMILES IDX 31 1 32 2 33 3 5 5 4 6 3 7 2 8 1 9 6 10 7 11 8 12 30 13 9 14
REMARK SMILES IDX 20 15 19 16 10 17 11 18 12 19 13 20 14 21 18 22 15 23 17 24
REMARK SMILES IDX 16 25 21 26 22 27 23 28 24 29 25 30 29 31 26 32 28 33 27 34
REMARK SMILES IDX 34 35 35 36 36 37 37 38 38 39 39 41 40 42 41 43 87 44 42 45
REMARK SMILES IDX 86 46 43 47 44 48 45 49 80 50 46 51 85 52 79 53 81 54 47 55
REMARK SMILES IDX 84 56 78 57 77 58 48 60 70 61 55 62 69 63 56 64 59 65 68 66
REMARK SMILES IDX 82 67 57 68 58 69 67 71 83 72 60 73 49 74 50 75 54 76 51 77
REMARK SMILES IDX 53 78 52 79 71 80 72 81 76 82 73 83 75 84 74 85 61 86 62 87
REMARK SMILES IDX 66 88 63 89 65 90 64 91
REMARK H PARENT 33 4 37 40 81 59 59 70
REMARK Flexibility Score: inf
ROOT
ATOM      1  C   UNL A   1      30.692  28.593  23.864  1.00  0.00     0.233 C 
ATOM      2  O   UNL A   1      29.687  28.297  23.213  1.00  0.00    -0.274 OA
ATOM      3  N   UNL A   1      30.703  29.803  24.505  1.00  0.00    -0.355 N 
ATOM      4  H   UNL A   1      29.894  30.349  24.377  1.00  0.00     0.163 HD
ENDROOT
BRANCH   1   5
ATOM      5  C   UNL A   1      31.916  27.668  23.915  1.00  0.00     0.144 C 
BRANCH   5   6
ATOM      6  C   UNL A   1      31.852  26.904  25.260  1.00  0.00     0.025 C 
BRANCH   6   7
ATOM      7  C   UNL A   1      30.567  26.176  25.639  1.00  0.00     0.001 C 
BRANCH   7   8
ATOM      8  C   UNL A   1      30.657  24.653  25.703  1.00  0.00    -0.003 C 
ATOM      9  C   UNL A   1      31.830  24.148  26.520  1.00  0.00     0.004 C 
ENDBRANCH   7   8
ENDBRANCH   6   7
ENDBRANCH   5   6
BRANCH   5  10
ATOM     10  S   UNL A   1      31.918  26.783  22.284  1.00  0.00    -0.073 SA
BRANCH  10  11
ATOM     11  C   UNL A   1      32.681  25.268  22.709  1.00  0.00     0.195 A 
ATOM     12  N   UNL A   1      33.921  25.328  23.196  1.00  0.00    -0.187 NA
ATOM     13  N   UNL A   1      31.947  24.156  22.564  1.00  0.00    -0.187 NA
ATOM     14  C   UNL A   1      34.477  24.172  23.557  1.00  0.00     0.221 A 
ATOM     15  C   UNL A   1      32.536  23.008  22.909  1.00  0.00     0.221 A 
ATOM     16  C   UNL A   1      33.826  22.976  23.374  1.00  0.00     0.136 A 
BRANCH  14  17
ATOM     17  O   UNL A   1      35.597  24.355  24.318  1.00  0.00    -0.477 OA
BRANCH  17  18
ATOM     18  C   UNL A   1      36.603  23.364  24.454  1.00  0.00     0.231 C 
BRANCH  18  19
ATOM     19  C   UNL A   1      36.395  22.186  25.443  1.00  0.00     0.045 C 
BRANCH  19  20
ATOM     20  C   UNL A   1      37.589  21.320  25.884  1.00  0.00    -0.008 C 
ATOM     21  C   UNL A   1      37.832  20.093  24.990  1.00  0.00     0.004 C 
ATOM     22  C   UNL A   1      38.891  22.115  25.930  1.00  0.00     0.004 C 
ATOM     23  C   UNL A   1      39.011  19.257  25.521  1.00  0.00     0.000 C 
ATOM     24  C   UNL A   1      40.019  21.320  26.560  1.00  0.00     0.000 C 
ATOM     25  C   UNL A   1      40.287  20.072  25.744  1.00  0.00     0.000 C 
ENDBRANCH  19  20
ENDBRANCH  18  19
ENDBRANCH  17  18
ENDBRANCH  14  17
BRANCH  15  26
ATOM     26  O   UNL A   1      31.738  21.913  22.722  1.00  0.00    -0.477 OA
BRANCH  26  27
ATOM     27  C   UNL A   1      32.288  20.596  22.753  1.00  0.00     0.231 C 
BRANCH  27  28
ATOM     28  C   UNL A   1      32.158  19.928  24.134  1.00  0.00     0.045 C 
BRANCH  28  29
ATOM     29  C   UNL A   1      32.318  18.384  24.230  1.00  0.00    -0.008 C 
ATOM     30  C   UNL A   1      32.970  17.766  22.979  1.00  0.00     0.004 C 
ATOM     31  C   UNL A   1      32.854  17.951  25.604  1.00  0.00     0.004 C 
ATOM     32  C   UNL A   1      33.977  16.631  23.152  1.00  0.00     0.000 C 
ATOM     33  C   UNL A   1      33.495  16.571  25.623  1.00  0.00     0.000 C 
ATOM     34  C   UNL A   1      34.544  16.469  24.543  1.00  0.00     0.000 C 
ENDBRANCH  28  29
ENDBRANCH  27  28
ENDBRANCH  26  27
ENDBRANCH  15  26
ENDBRANCH  10  11
ENDBRANCH   5  10
ENDBRANCH   1   5
BRANCH   3  35
ATOM     35  C   UNL A   1      31.727  30.406  25.347  1.00  0.00     0.117 C 
BRANCH  35  36
ATOM     36  C   UNL A   1      31.194  31.604  26.114  1.00  0.00     0.042 C 
BRANCH  36  37
ATOM     37  C   UNL A   1      32.107  32.021  27.251  1.00  0.00     0.118 C 
BRANCH  37  38
ATOM     38  N   UNL A   1      32.169  33.469  27.399  1.00  0.00    -0.352 N 
ATOM     39  C   UNL A   1      33.024  34.237  28.147  1.00  0.00     0.251 C 
ATOM     40  H   UNL A   1      31.497  33.972  26.884  1.00  0.00     0.163 HD
ATOM     41  O   UNL A   1      32.784  35.419  28.344  1.00  0.00    -0.269 OA
BRANCH  39  42
ATOM     42  C   UNL A   1      34.232  33.615  28.721  1.00  0.00     0.039 A 
ATOM     43  C   UNL A   1      35.486  34.081  28.327  1.00  0.00     0.014 A 
ATOM     44  C   UNL A   1      34.120  32.577  29.651  1.00  0.00     0.014 A 
ATOM     45  C   UNL A   1      36.630  33.540  28.912  1.00  0.00     0.010 A 
ATOM     46  C   UNL A   1      35.250  32.119  30.310  1.00  0.00     0.010 A 
ATOM     47  C   UNL A   1      36.517  32.582  29.932  1.00  0.00    -0.014 A 
BRANCH  47  48
ATOM     48  C   UNL A   1      37.717  32.042  30.611  1.00  0.00     0.031 A 
ATOM     49  C   UNL A   1      38.451  30.870  30.023  1.00  0.00     0.074 A 
ATOM     50  C   UNL A   1      38.101  32.565  31.790  1.00  0.00     0.049 A 
ATOM     51  N   UNL A   1      39.497  30.236  30.488  1.00  0.00    -0.248 NA
ATOM     52  C   UNL A   1      37.922  30.314  28.767  1.00  0.00     0.031 C 
ATOM     53  C   UNL A   1      37.428  33.663  32.490  1.00  0.00     0.029 A 
ATOM     54  N   UNL A   1      39.147  32.238  32.613  1.00  0.00    -0.354 N 
ATOM     55  C   UNL A   1      39.733  29.198  29.595  1.00  0.00     0.074 A 
ATOM     56  C   UNL A   1      38.690  29.249  28.597  1.00  0.00     0.031 C 
ATOM     57  C   UNL A   1      38.098  33.938  33.619  1.00  0.00     0.029 A 
ATOM     58  C   UNL A   1      39.215  33.009  33.746  1.00  0.00     0.049 A 
ATOM     59  H   UNL A   1      39.788  31.519  32.410  1.00  0.00     0.167 HD
ATOM     60  C   UNL A   1      40.742  28.294  29.596  1.00  0.00     0.031 A 
ATOM     61  C   UNL A   1      40.078  32.968  34.777  1.00  0.00     0.031 A 
ATOM     62  C   UNL A   1      41.780  28.254  30.590  1.00  0.00     0.049 A 
ATOM     63  C   UNL A   1      41.194  31.962  34.756  1.00  0.00     0.074 A 
ATOM     64  C   UNL A   1      42.891  27.432  30.642  1.00  0.00     0.029 A 
ATOM     65  N   UNL A   1      41.827  29.065  31.715  1.00  0.00    -0.354 N 
ATOM     66  N   UNL A   1      41.463  31.049  33.854  1.00  0.00    -0.248 NA
ATOM     67  C   UNL A   1      42.131  31.992  35.885  1.00  0.00     0.031 C 
ATOM     68  C   UNL A   1      43.572  27.697  31.835  1.00  0.00     0.029 A 
ATOM     69  C   UNL A   1      42.926  28.736  32.489  1.00  0.00     0.049 A 
ATOM     70  H   UNL A   1      41.175  29.771  31.931  1.00  0.00     0.167 HD
ATOM     71  C   UNL A   1      42.612  30.408  34.296  1.00  0.00     0.074 A 
ATOM     72  C   UNL A   1      42.999  31.052  35.535  1.00  0.00     0.031 C 
ATOM     73  C   UNL A   1      43.287  29.377  33.727  1.00  0.00     0.031 A 
BRANCH  60  74
ATOM     74  C   UNL A   1      40.746  27.262  28.502  1.00  0.00    -0.014 A 
ATOM     75  C   UNL A   1      41.335  27.518  27.251  1.00  0.00     0.009 A 
ATOM     76  C   UNL A   1      40.163  26.007  28.728  1.00  0.00     0.009 A 
ATOM     77  C   UNL A   1      41.293  26.558  26.237  1.00  0.00     0.001 A 
ATOM     78  C   UNL A   1      40.154  25.036  27.725  1.00  0.00     0.001 A 
ATOM     79  C   UNL A   1      40.706  25.316  26.477  1.00  0.00     0.000 A 
ENDBRANCH  60  74
BRANCH  61  80
ATOM     80  C   UNL A   1      39.917  33.919  35.908  1.00  0.00    -0.014 A 
ATOM     81  C   UNL A   1      40.373  35.242  35.804  1.00  0.00     0.009 A 
ATOM     82  C   UNL A   1      39.278  33.513  37.091  1.00  0.00     0.009 A 
ATOM     83  C   UNL A   1      40.211  36.132  36.869  1.00  0.00     0.001 A 
ATOM     84  C   UNL A   1      39.089  34.413  38.141  1.00  0.00     0.001 A 
ATOM     85  C   UNL A   1      39.563  35.719  38.032  1.00  0.00     0.000 A 
ENDBRANCH  61  80
BRANCH  73  86
ATOM     86  C   UNL A   1      44.528  28.900  34.430  1.00  0.00    -0.014 A 
ATOM     87  C   UNL A   1      44.491  27.823  35.330  1.00  0.00     0.009 A 
ATOM     88  C   UNL A   1      45.761  29.513  34.154  1.00  0.00     0.009 A 
ATOM     89  C   UNL A   1      45.657  27.395  35.967  1.00  0.00     0.001 A 
ATOM     90  C   UNL A   1      46.930  29.061  34.766  1.00  0.00     0.001 A 
ATOM     91  C   UNL A   1      46.876  28.011  35.680  1.00  0.00     0.000 A 
ENDBRANCH  73  86
ENDBRANCH  47  48
ENDBRANCH  39  42
ENDBRANCH  37  38
ENDBRANCH  36  37
ENDBRANCH  35  36
ENDBRANCH   3  35
TORSDOF 23
ENDMDL
MODEL 2
REMARK VINA RESULT:     -10.5      0.992      3.200
REMARK SMILES CCCC[C@@H](Sc1nc(OCCC2CCCCC2)cc(OCCC2CCCCC2)n1)C(=O)NCCCNC(=O)c1ccc(-c2c3nc(c(-c4ccccc4)c4ccc([nH]4)c(-c4ccccc4)c4nc(c(-c5ccccc5)c5ccc2[nH]5)C=C4)C=C3)cc1
REMARK SMILES IDX 31 1 32 2 33 3 5 5 4 6 3 7 2 8 1 9 6 10 7 11 8 12 30 13 9 14
REMARK SMILES IDX 20 15 19 16 10 17 11 18 12 19 13 20 14 21 18 22 15 23 17 24
REMARK SMILES IDX 16 25 21 26 22 27 23 28 24 29 25 30 29 31 26 32 28 33 27 34
REMARK SMILES IDX 34 35 35 36 36 37 37 38 38 39 39 41 40 42 41 43 87 44 42 45
REMARK SMILES IDX 86 46 43 47 44 48 45 49 80 50 46 51 85 52 79 53 81 54 47 55
REMARK SMILES IDX 84 56 78 57 77 58 48 60 70 61 55 62 69 63 56 64 59 65 68 66
REMARK SMILES IDX 82 67 57 68 58 69 67 71 83 72 60 73 49 74 50 75 54 76 51 77
REMARK SMILES IDX 53 78 52 79 71 80 72 81 76 82 73 83 75 84 74 85 61 86 62 87
REMARK SMILES IDX 66 88 63 89 65 90 64 91
REMARK H PARENT 33 4 37 40 81 59 59 70
REMARK Flexibility Score: inf
ROOT
ATOM      1  C   UNL A   1      31.239  28.341  23.067  1.00  0.00     0.233 C 
ATOM      2  O   UNL A   1      30.568  28.524  22.048  1.00  0.00    -0.274 OA
ATOM      3  N   UNL A   1      31.650  29.444  23.767  1.00  0.00    -0.355 N 
ATOM      4  H   UNL A   1      31.379  30.307  23.380  1.00  0.00     0.163 HD
ENDROOT
BRANCH   1   5
ATOM      5  C   UNL A   1      31.652  26.931  23.513  1.00  0.00     0.144 C 
BRANCH   5   6
ATOM      6  C   UNL A   1      30.433  26.308  24.235  1.00  0.00     0.025 C 
BRANCH   6   7
ATOM      7  C   UNL A   1      30.520  26.035  25.733  1.00  0.00     0.001 C 
BRANCH   7   8
ATOM      8  C   UNL A   1      30.779  24.583  26.133  1.00  0.00    -0.003 C 
ATOM      9  C   UNL A   1      32.243  24.273  26.376  1.00  0.00     0.004 C 
ENDBRANCH   7   8
ENDBRANCH   6   7
ENDBRANCH   5   6
BRANCH   5  10
ATOM     10  S   UNL A   1      32.401  26.151  22.004  1.00  0.00    -0.073 SA
BRANCH  10  11
ATOM     11  C   UNL A   1      33.029  24.657  22.659  1.00  0.00     0.195 A 
ATOM     12  N   UNL A   1      32.243  23.581  22.585  1.00  0.00    -0.187 NA
ATOM     13  N   UNL A   1      34.278  24.684  23.145  1.00  0.00    -0.187 NA
ATOM     14  C   UNL A   1      32.748  22.439  23.048  1.00  0.00     0.221 A 
ATOM     15  C   UNL A   1      34.752  23.532  23.626  1.00  0.00     0.221 A 
ATOM     16  C   UNL A   1      33.992  22.389  23.631  1.00  0.00     0.136 A 
BRANCH  14  17
ATOM     17  O   UNL A   1      32.015  21.355  22.655  1.00  0.00    -0.477 OA
BRANCH  17  18
ATOM     18  C   UNL A   1      32.277  20.041  23.122  1.00  0.00     0.231 C 
BRANCH  18  19
ATOM     19  C   UNL A   1      32.572  19.803  24.627  1.00  0.00     0.045 C 
BRANCH  19  20
ATOM     20  C   UNL A   1      33.156  18.459  25.101  1.00  0.00    -0.008 C 
ATOM     21  C   UNL A   1      32.192  17.272  24.948  1.00  0.00     0.004 C 
ATOM     22  C   UNL A   1      34.444  18.099  24.365  1.00  0.00     0.004 C 
ATOM     23  C   UNL A   1      32.831  15.978  25.484  1.00  0.00     0.000 C 
ATOM     24  C   UNL A   1      35.125  16.888  24.975  1.00  0.00     0.000 C 
ATOM     25  C   UNL A   1      34.209  15.685  24.888  1.00  0.00     0.000 C 
ENDBRANCH  19  20
ENDBRANCH  18  19
ENDBRANCH  17  18
ENDBRANCH  14  17
BRANCH  15  26
ATOM     26  O   UNL A   1      36.024  23.634  24.118  1.00  0.00    -0.477 OA
BRANCH  26  27
ATOM     27  C   UNL A   1      36.303  23.334  25.486  1.00  0.00     0.231 C 
BRANCH  27  28
ATOM     28  C   UNL A   1      36.692  21.861  25.707  1.00  0.00     0.045 C 
BRANCH  28  29
ATOM     29  C   UNL A   1      38.126  21.404  25.317  1.00  0.00    -0.008 C 
ATOM     30  C   UNL A   1      39.230  22.208  26.030  1.00  0.00     0.004 C 
ATOM     31  C   UNL A   1      38.252  19.872  25.303  1.00  0.00     0.004 C 
ATOM     32  C   UNL A   1      40.477  21.477  26.523  1.00  0.00     0.000 C 
ATOM     33  C   UNL A   1      39.679  19.357  25.424  1.00  0.00     0.000 C 
ATOM     34  C   UNL A   1      40.356  19.974  26.623  1.00  0.00     0.000 C 
ENDBRANCH  28  29
ENDBRANCH  27  28
ENDBRANCH  26  27
ENDBRANCH  15  26
ENDBRANCH  10  11
ENDBRANCH   5  10
ENDBRANCH   1   5
BRANCH   3  35
ATOM     35  C   UNL A   1      32.427  29.536  24.996  1.00  0.00     0.117 C 
BRANCH  35  36
ATOM     36  C   UNL A   1      31.739  30.404  26.035  1.00  0.00     0.042 C 
BRANCH  36  37
ATOM     37  C   UNL A   1      32.724  31.119  26.941  1.00  0.00     0.118 C 
BRANCH  37  38
ATOM     38  N   UNL A   1      32.380  32.523  27.121  1.00  0.00    -0.352 N 
ATOM     39  C   UNL A   1      32.958  33.469  27.928  1.00  0.00     0.251 C 
ATOM     40  H   UNL A   1      31.619  32.841  26.582  1.00  0.00     0.163 HD
ATOM     41  O   UNL A   1      32.394  34.533  28.136  1.00  0.00    -0.269 OA
BRANCH  39  42
ATOM     42  C   UNL A   1      34.263  33.181  28.552  1.00  0.00     0.039 A 
ATOM     43  C   UNL A   1      34.298  32.453  29.741  1.00  0.00     0.014 A 
ATOM     44  C   UNL A   1      35.446  33.626  27.956  1.00  0.00     0.014 A 
ATOM     45  C   UNL A   1      35.531  32.124  30.303  1.00  0.00     0.010 A 
ATOM     46  C   UNL A   1      36.668  33.205  28.454  1.00  0.00     0.010 A 
ATOM     47  C   UNL A   1      36.723  32.467  29.644  1.00  0.00    -0.014 A 
BRANCH  47  48
ATOM     48  C   UNL A   1      38.041  32.071  30.190  1.00  0.00     0.031 A 
ATOM     49  C   UNL A   1      38.799  30.930  29.575  1.00  0.00     0.074 A 
ATOM     50  C   UNL A   1      38.518  32.697  31.282  1.00  0.00     0.049 A 
ATOM     51  N   UNL A   1      39.948  30.415  29.934  1.00  0.00    -0.248 NA
ATOM     52  C   UNL A   1      38.171  30.254  28.427  1.00  0.00     0.031 C 
ATOM     53  C   UNL A   1      37.841  33.779  32.004  1.00  0.00     0.029 A 
ATOM     54  N   UNL A   1      39.683  32.510  31.980  1.00  0.00    -0.354 N 
ATOM     55  C   UNL A   1      40.164  29.345  29.074  1.00  0.00     0.074 A 
ATOM     56  C   UNL A   1      39.005  29.248  28.216  1.00  0.00     0.031 C 
ATOM     57  C   UNL A   1      38.617  34.178  33.022  1.00  0.00     0.029 A 
ATOM     58  C   UNL A   1      39.821  33.355  33.053  1.00  0.00     0.049 A 
ATOM     59  H   UNL A   1      40.356  31.835  31.734  1.00  0.00     0.167 HD
ATOM     60  C   UNL A   1      41.242  28.530  28.993  1.00  0.00     0.031 A 
ATOM     61  C   UNL A   1      40.804  33.450  33.966  1.00  0.00     0.031 A 
ATOM     62  C   UNL A   1      42.394  28.639  29.846  1.00  0.00     0.049 A 
ATOM     63  C   UNL A   1      41.994  32.540  33.854  1.00  0.00     0.074 A 
ATOM     64  C   UNL A   1      43.573  27.916  29.798  1.00  0.00     0.029 A 
ATOM     65  N   UNL A   1      42.506  29.520  30.912  1.00  0.00    -0.354 N 
ATOM     66  N   UNL A   1      42.231  31.597  32.975  1.00  0.00    -0.248 NA
ATOM     67  C   UNL A   1      43.058  32.718  34.851  1.00  0.00     0.031 C 
ATOM     68  C   UNL A   1      44.369  28.311  30.879  1.00  0.00     0.029 A 
ATOM     69  C   UNL A   1      43.718  29.331  31.555  1.00  0.00     0.049 A 
ATOM     70  H   UNL A   1      41.825  30.181  31.173  1.00  0.00     0.167 HD
ATOM     71  C   UNL A   1      43.480  31.082  33.298  1.00  0.00     0.074 A 
ATOM     72  C   UNL A   1      43.957  31.833  34.442  1.00  0.00     0.031 C 
ATOM     73  C   UNL A   1      44.169  30.077  32.702  1.00  0.00     0.031 A 
BRANCH  60  74
ATOM     74  C   UNL A   1      41.205  27.435  27.962  1.00  0.00    -0.014 A 
ATOM     75  C   UNL A   1      41.635  27.652  26.641  1.00  0.00     0.009 A 
ATOM     76  C   UNL A   1      40.742  26.160  28.319  1.00  0.00     0.009 A 
ATOM     77  C   UNL A   1      41.555  26.631  25.692  1.00  0.00     0.001 A 
ATOM     78  C   UNL A   1      40.696  25.131  27.378  1.00  0.00     0.001 A 
ATOM     79  C   UNL A   1      41.089  25.370  26.062  1.00  0.00     0.000 A 
ENDBRANCH  60  74
BRANCH  61  80
ATOM     80  C   UNL A   1      40.699  34.453  35.057  1.00  0.00    -0.014 A 
ATOM     81  C   UNL A   1      40.097  34.122  36.281  1.00  0.00     0.009 A 
ATOM     82  C   UNL A   1      41.229  35.742  34.889  1.00  0.00     0.009 A 
ATOM     83  C   UNL A   1      40.008  35.069  37.304  1.00  0.00     0.001 A 
ATOM     84  C   UNL A   1      41.168  36.676  35.925  1.00  0.00     0.001 A 
ATOM     85  C   UNL A   1      40.550  36.342  37.129  1.00  0.00     0.000 A 
ENDBRANCH  61  80
BRANCH  73  86
ATOM     86  C   UNL A   1      45.525  29.750  33.264  1.00  0.00    -0.014 A 
ATOM     87  C   UNL A   1      45.686  28.780  34.267  1.00  0.00     0.009 A 
ATOM     88  C   UNL A   1      46.662  30.393  32.750  1.00  0.00     0.009 A 
ATOM     89  C   UNL A   1      46.956  28.490  34.769  1.00  0.00     0.001 A 
ATOM     90  C   UNL A   1      47.933  30.076  33.230  1.00  0.00     0.001 A 
ATOM     91  C   UNL A   1      48.078  29.133  34.247  1.00  0.00     0.000 A 
ENDBRANCH  73  86
ENDBRANCH  47  48
ENDBRANCH  39  42
ENDBRANCH  37  38
ENDBRANCH  36  37
ENDBRANCH  35  36
ENDBRANCH   3  35
TORSDOF 23
ENDMDL
MODEL 3
REMARK VINA RESULT:     -10.2      1.625      2.455
REMARK SMILES CCCC[C@@H](Sc1nc(OCCC2CCCCC2)cc(OCCC2CCCCC2)n1)C(=O)NCCCNC(=O)c1ccc(-c2c3nc(c(-c4ccccc4)c4ccc([nH]4)c(-c4ccccc4)c4nc(c(-c5ccccc5)c5ccc2[nH]5)C=C4)C=C3)cc1
REMARK SMILES IDX 31 1 32 2 33 3 5 5 4 6 3 7 2 8 1 9 6 10 7 11 8 12 30 13 9 14
REMARK SMILES IDX 20 15 19 16 10 17 11 18 12 19 13 20 14 21 18 22 15 23 17 24
REMARK SMILES IDX 16 25 21 26 22 27 23 28 24 29 25 30 29 31 26 32 28 33 27 34
REMARK SMILES IDX 34 35 35 36 36 37 37 38 38 39 39 41 40 42 41 43 87 44 42 45
REMARK SMILES IDX 86 46 43 47 44 48 45 49 80 50 46 51 85 52 79 53 81 54 47 55
REMARK SMILES IDX 84 56 78 57 77 58 48 60 70 61 55 62 69 63 56 64 59 65 68 66
REMARK SMILES IDX 82 67 57 68 58 69 67 71 83 72 60 73 49 74 50 75 54 76 51 77
REMARK SMILES IDX 53 78 52 79 71 80 72 81 76 82 73 83 75 84 74 85 61 86 62 87
REMARK SMILES IDX 66 88 63 89 65 90 64 91
REMARK H PARENT 33 4 37 40 81 59 59 70
REMARK Flexibility Score: inf
ROOT
ATOM      1  C   UNL A   1      31.532  28.071  26.731  1.00  0.00     0.233 C 
ATOM      2  O   UNL A   1      31.131  27.309  27.614  1.00  0.00    -0.274 OA
ATOM      3  N   UNL A   1      31.659  29.398  27.044  1.00  0.00    -0.355 N 
ATOM      4  H   UNL A   1      31.402  29.635  27.964  1.00  0.00     0.163 HD
ENDROOT
BRANCH   1   5
ATOM      5  C   UNL A   1      31.828  27.569  25.311  1.00  0.00     0.144 C 
BRANCH   5   6
ATOM      6  C   UNL A   1      30.890  28.342  24.352  1.00  0.00     0.025 C 
BRANCH   6   7
ATOM      7  C   UNL A   1      30.099  27.566  23.304  1.00  0.00     0.001 C 
BRANCH   7   8
ATOM      8  C   UNL A   1      28.621  27.933  23.177  1.00  0.00    -0.003 C 
ATOM      9  C   UNL A   1      28.387  29.331  22.640  1.00  0.00     0.004 C 
ENDBRANCH   7   8
ENDBRANCH   6   7
ENDBRANCH   5   6
BRANCH   5  10
ATOM     10  S   UNL A   1      33.675  27.646  25.148  1.00  0.00    -0.073 SA
BRANCH  10  11
ATOM     11  C   UNL A   1      34.055  26.002  24.693  1.00  0.00     0.195 A 
ATOM     12  N   UNL A   1      35.112  25.437  25.279  1.00  0.00    -0.187 NA
ATOM     13  N   UNL A   1      33.227  25.406  23.824  1.00  0.00    -0.187 NA
ATOM     14  C   UNL A   1      35.367  24.169  24.956  1.00  0.00     0.221 A 
ATOM     15  C   UNL A   1      33.519  24.144  23.497  1.00  0.00     0.221 A 
ATOM     16  C   UNL A   1      34.615  23.503  24.018  1.00  0.00     0.136 A 
BRANCH  14  17
ATOM     17  O   UNL A   1      36.253  23.588  25.817  1.00  0.00    -0.477 OA
BRANCH  17  18
ATOM     18  C   UNL A   1      37.561  23.200  25.427  1.00  0.00     0.231 C 
BRANCH  18  19
ATOM     19  C   UNL A   1      38.750  23.411  26.401  1.00  0.00     0.045 C 
BRANCH  19  20
ATOM     20  C   UNL A   1      39.908  22.396  26.445  1.00  0.00    -0.008 C 
ATOM     21  C   UNL A   1      40.730  22.446  27.744  1.00  0.00     0.004 C 
ATOM     22  C   UNL A   1      39.424  20.960  26.267  1.00  0.00     0.004 C 
ATOM     23  C   UNL A   1      41.892  21.437  27.692  1.00  0.00     0.000 C 
ATOM     24  C   UNL A   1      40.577  19.989  26.103  1.00  0.00     0.000 C 
ATOM     25  C   UNL A   1      41.451  20.015  27.341  1.00  0.00     0.000 C 
ENDBRANCH  19  20
ENDBRANCH  18  19
ENDBRANCH  17  18
ENDBRANCH  14  17
BRANCH  15  26
ATOM     26  O   UNL A   1      32.644  23.602  22.596  1.00  0.00    -0.477 OA
BRANCH  26  27
ATOM     27  C   UNL A   1      31.617  22.708  23.025  1.00  0.00     0.231 C 
BRANCH  27  28
ATOM     28  C   UNL A   1      31.023  23.093  24.392  1.00  0.00     0.045 C 
BRANCH  28  29
ATOM     29  C   UNL A   1      31.416  22.249  25.638  1.00  0.00    -0.008 C 
ATOM     30  C   UNL A   1      32.164  20.953  25.276  1.00  0.00     0.004 C 
ATOM     31  C   UNL A   1      32.001  23.125  26.758  1.00  0.00     0.004 C 
ATOM     32  C   UNL A   1      33.331  20.502  26.152  1.00  0.00     0.000 C 
ATOM     33  C   UNL A   1      32.846  22.367  27.772  1.00  0.00     0.000 C 
ATOM     34  C   UNL A   1      33.907  21.558  27.066  1.00  0.00     0.000 C 
ENDBRANCH  28  29
ENDBRANCH  27  28
ENDBRANCH  26  27
ENDBRANCH  15  26
ENDBRANCH  10  11
ENDBRANCH   5  10
ENDBRANCH   1   5
BRANCH   3  35
ATOM     35  C   UNL A   1      32.118  30.512  26.225  1.00  0.00     0.117 C 
BRANCH  35  36
ATOM     36  C   UNL A   1      31.740  31.852  26.832  1.00  0.00     0.042 C 
BRANCH  36  37
ATOM     37  C   UNL A   1      32.950  32.710  27.150  1.00  0.00     0.118 C 
BRANCH  37  38
ATOM     38  N   UNL A   1      32.571  34.046  27.591  1.00  0.00    -0.352 N 
ATOM     39  C   UNL A   1      33.036  34.783  28.650  1.00  0.00     0.251 C 
ATOM     40  H   UNL A   1      31.879  34.487  27.046  1.00  0.00     0.163 HD
ATOM     41  O   UNL A   1      32.440  35.785  29.016  1.00  0.00    -0.269 OA
BRANCH  39  42
ATOM     42  C   UNL A   1      34.257  34.343  29.350  1.00  0.00     0.039 A 
ATOM     43  C   UNL A   1      34.135  33.566  30.502  1.00  0.00     0.014 A 
ATOM     44  C   UNL A   1      35.518  34.697  28.862  1.00  0.00     0.014 A 
ATOM     45  C   UNL A   1      35.286  33.096  31.133  1.00  0.00     0.010 A 
ATOM     46  C   UNL A   1      36.655  34.138  29.425  1.00  0.00     0.010 A 
ATOM     47  C   UNL A   1      36.551  33.349  30.577  1.00  0.00    -0.014 A 
BRANCH  47  48
ATOM     48  C   UNL A   1      37.781  32.804  31.196  1.00  0.00     0.031 A 
ATOM     49  C   UNL A   1      38.529  31.687  30.526  1.00  0.00     0.074 A 
ATOM     50  C   UNL A   1      38.181  33.272  32.393  1.00  0.00     0.049 A 
ATOM     51  N   UNL A   1      39.603  31.057  30.930  1.00  0.00    -0.248 NA
ATOM     52  C   UNL A   1      37.983  31.187  29.254  1.00  0.00     0.031 C 
ATOM     53  C   UNL A   1      37.498  34.311  33.169  1.00  0.00     0.029 A 
ATOM     54  N   UNL A   1      39.256  32.928  33.171  1.00  0.00    -0.354 N 
ATOM     55  C   UNL A   1      39.843  30.076  29.975  1.00  0.00     0.074 A 
ATOM     56  C   UNL A   1      38.774  30.155  29.006  1.00  0.00     0.031 C 
ATOM     57  C   UNL A   1      38.189  34.541  34.295  1.00  0.00     0.029 A 
ATOM     58  C   UNL A   1      39.333  33.638  34.343  1.00  0.00     0.049 A 
ATOM     59  H   UNL A   1      39.909  32.239  32.913  1.00  0.00     0.167 HD
ATOM     60  C   UNL A   1      40.874  29.202  29.902  1.00  0.00     0.031 A 
ATOM     61  C   UNL A   1      40.222  33.563  35.350  1.00  0.00     0.031 A 
ATOM     62  C   UNL A   1      41.937  29.135  30.867  1.00  0.00     0.049 A 
ATOM     63  C   UNL A   1      41.362  32.590  35.246  1.00  0.00     0.074 A 
ATOM     64  C   UNL A   1      43.071  28.342  30.846  1.00  0.00     0.029 A 
ATOM     65  N   UNL A   1      41.992  29.884  32.033  1.00  0.00    -0.354 N 
ATOM     66  N   UNL A   1      41.632  31.736  34.288  1.00  0.00    -0.248 NA
ATOM     67  C   UNL A   1      42.327  32.583  36.352  1.00  0.00     0.031 C 
ATOM     68  C   UNL A   1      43.775  28.559  32.035  1.00  0.00     0.029 A 
ATOM     69  C   UNL A   1      43.119  29.542  32.761  1.00  0.00     0.049 A 
ATOM     70  H   UNL A   1      41.328  30.558  32.304  1.00  0.00     0.167 HD
ATOM     71  C   UNL A   1      42.808  31.102  34.666  1.00  0.00     0.074 A 
ATOM     72  C   UNL A   1      43.210  31.688  35.929  1.00  0.00     0.031 C 
ATOM     73  C   UNL A   1      43.495  30.124  34.025  1.00  0.00     0.031 A 
BRANCH  60  74
ATOM     74  C   UNL A   1      40.878  28.233  28.751  1.00  0.00    -0.014 A 
ATOM     75  C   UNL A   1      41.508  28.538  27.532  1.00  0.00     0.009 A 
ATOM     76  C   UNL A   1      40.250  26.986  28.891  1.00  0.00     0.009 A 
ATOM     77  C   UNL A   1      41.465  27.638  26.466  1.00  0.00     0.001 A 
ATOM     78  C   UNL A   1      40.239  26.073  27.836  1.00  0.00     0.001 A 
ATOM     79  C   UNL A   1      40.833  26.404  26.620  1.00  0.00     0.000 A 
ENDBRANCH  60  74
BRANCH  61  80
ATOM     80  C   UNL A   1      40.066  34.445  36.536  1.00  0.00    -0.014 A 
ATOM     81  C   UNL A   1      39.320  34.026  37.648  1.00  0.00     0.009 A 
ATOM     82  C   UNL A   1      40.689  35.703  36.572  1.00  0.00     0.009 A 
ATOM     83  C   UNL A   1      39.184  34.858  38.762  1.00  0.00     0.001 A 
ATOM     84  C   UNL A   1      40.577  36.518  37.699  1.00  0.00     0.001 A 
ATOM     85  C   UNL A   1      39.818  36.099  38.790  1.00  0.00     0.000 A 
ENDBRANCH  61  80
BRANCH  73  86
ATOM     86  C   UNL A   1      44.765  29.642  34.670  1.00  0.00    -0.014 A 
ATOM     87  C   UNL A   1      45.998  30.260  34.408  1.00  0.00     0.009 A 
ATOM     88  C   UNL A   1      44.717  28.580  35.587  1.00  0.00     0.009 A 
ATOM     89  C   UNL A   1      47.163  29.798  35.024  1.00  0.00     0.001 A 
ATOM     90  C   UNL A   1      45.878  28.143  36.227  1.00  0.00     0.001 A 
ATOM     91  C   UNL A   1      47.101  28.745  35.936  1.00  0.00     0.000 A 
ENDBRANCH  73  86
ENDBRANCH  47  48
ENDBRANCH  39  42
ENDBRANCH  37  38
ENDBRANCH  36  37
ENDBRANCH  35  36
ENDBRANCH   3  35
TORSDOF 23
ENDMDL
