MODEL 1
REMARK VINA RESULT:     -11.8      0.000      0.000
REMARK SMILES C[C@H](Nc1ccc(C(=O)NCCCNC(=O)c2ccc(-c3c4nc(c(-c5ccccc5)c5ccc([nH]5)c(-c5ccccc5)c5nc(c(-c6ccccc6)c6ccc3[nH]6)C=C5)C=C4)cc2)c(F)c1F)c1ccccc1Cl
REMARK SMILES IDX 11 1 10 2 8 3 9 4 7 6 4 7 5 8 67 9 6 10 65 11 68 12 66 13
REMARK SMILES IDX 3 14 2 16 1 17 69 18 70 19 74 20 71 21 73 22 75 23 72 24
REMARK SMILES IDX 12 25 13 26 14 27 15 28 16 30 17 31 18 32 64 33 19 34 63 35
REMARK SMILES IDX 20 36 21 37 22 38 57 39 23 40 62 41 56 42 58 43 24 44 61 45
REMARK SMILES IDX 55 46 54 47 25 49 47 50 32 51 46 52 33 53 36 54 45 55 59 56
REMARK SMILES IDX 34 57 35 58 44 60 60 61 37 62 26 63 27 64 31 65 28 66 30 67
REMARK SMILES IDX 29 68 48 69 49 70 53 71 50 72 52 73 51 74 38 75 39 76 43 77
REMARK SMILES IDX 40 78 42 79 41 80
REMARK H PARENT 10 5 3 15 14 29 58 48 36 59
REMARK Flexibility Score: inf
ROOT
ATOM      1  C   UNL A   1      36.226  20.571  24.973  1.00  0.00     0.118 C 
ENDROOT
BRANCH   1   2
ATOM      2  N   UNL A   1      35.151  19.602  24.917  1.00  0.00    -0.352 N 
ATOM      3  C   UNL A   1      33.791  19.694  25.024  1.00  0.00     0.254 C 
ATOM      4  O   UNL A   1      33.178  18.625  24.939  1.00  0.00    -0.269 OA
ATOM      5  H   UNL A   1      35.467  18.681  24.771  1.00  0.00     0.163 HD
BRANCH   3   6
ATOM      6  C   UNL A   1      33.000  20.945  25.183  1.00  0.00     0.078 A 
ATOM      7  C   UNL A   1      31.395  23.301  25.186  1.00  0.00     0.074 A 
ATOM      8  C   UNL A   1      31.443  22.480  24.063  1.00  0.00     0.030 A 
ATOM      9  C   UNL A   1      32.132  22.908  26.307  1.00  0.00     0.182 A 
ATOM     10  C   UNL A   1      32.249  21.336  24.054  1.00  0.00     0.019 A 
ATOM     11  C   UNL A   1      32.888  21.737  26.322  1.00  0.00     0.173 A 
ATOM     12  F   UNL A   1      32.073  23.659  27.421  1.00  0.00    -0.201 F 
ATOM     13  F   UNL A   1      33.423  21.397  27.498  1.00  0.00    -0.203 F 
BRANCH   7  14
ATOM     14  N   UNL A   1      30.584  24.424  25.242  1.00  0.00    -0.376 N 
ATOM     15  H   UNL A   1      29.738  24.387  25.744  1.00  0.00     0.161 HD
BRANCH  14  16
ATOM     16  C   UNL A   1      30.965  25.661  24.569  1.00  0.00     0.108 C 
ATOM     17  C   UNL A   1      29.726  26.378  24.026  1.00  0.00     0.036 C 
BRANCH  16  18
ATOM     18  C   UNL A   1      31.783  26.531  25.508  1.00  0.00    -0.007 A 
ATOM     19  C   UNL A   1      31.082  27.310  26.454  1.00  0.00     0.007 A 
ATOM     20  C   UNL A   1      33.187  26.633  25.487  1.00  0.00     0.046 A 
ATOM     21  C   UNL A   1      31.751  28.181  27.317  1.00  0.00     0.000 A 
ATOM     22  C   UNL A   1      33.851  27.515  26.347  1.00  0.00     0.021 A 
ATOM     23  Cl  UNL A   1      34.185  25.702  24.421  1.00  0.00    -0.084 Cl
ATOM     24  C   UNL A   1      33.135  28.293  27.254  1.00  0.00     0.002 A 
ENDBRANCH  16  18
ENDBRANCH  14  16
ENDBRANCH   7  14
ENDBRANCH   3   6
ENDBRANCH   1   2
BRANCH   1  25
ATOM     25  C   UNL A   1      37.582  19.892  24.773  1.00  0.00     0.042 C 
BRANCH  25  26
ATOM     26  C   UNL A   1      38.644  20.382  25.753  1.00  0.00     0.118 C 
BRANCH  26  27
ATOM     27  N   UNL A   1      39.774  19.464  25.823  1.00  0.00    -0.352 N 
ATOM     28  C   UNL A   1      41.103  19.712  26.043  1.00  0.00     0.251 C 
ATOM     29  H   UNL A   1      39.545  18.515  25.692  1.00  0.00     0.163 HD
ATOM     30  O   UNL A   1      41.930  18.838  25.800  1.00  0.00    -0.269 OA
BRANCH  28  31
ATOM     31  C   UNL A   1      41.547  21.013  26.582  1.00  0.00     0.039 A 
ATOM     32  C   UNL A   1      41.496  21.223  27.965  1.00  0.00     0.014 A 
ATOM     33  C   UNL A   1      41.942  22.046  25.731  1.00  0.00     0.014 A 
ATOM     34  C   UNL A   1      41.871  22.459  28.491  1.00  0.00     0.010 A 
ATOM     35  C   UNL A   1      42.392  23.251  26.262  1.00  0.00     0.010 A 
ATOM     36  C   UNL A   1      42.340  23.476  27.645  1.00  0.00    -0.014 A 
BRANCH  36  37
ATOM     37  C   UNL A   1      42.743  24.799  28.180  1.00  0.00     0.031 A 
ATOM     38  C   UNL A   1      41.702  25.863  28.406  1.00  0.00     0.074 A 
ATOM     39  C   UNL A   1      44.044  25.062  28.401  1.00  0.00     0.049 A 
ATOM     40  N   UNL A   1      41.860  27.105  28.790  1.00  0.00    -0.248 NA
ATOM     41  C   UNL A   1      40.303  25.492  28.137  1.00  0.00     0.031 C 
ATOM     42  C   UNL A   1      45.147  24.124  28.185  1.00  0.00     0.029 A 
ATOM     43  N   UNL A   1      44.660  26.202  28.851  1.00  0.00    -0.354 N 
ATOM     44  C   UNL A   1      40.588  27.665  28.783  1.00  0.00     0.074 A 
ATOM     45  C   UNL A   1      39.678  26.647  28.307  1.00  0.00     0.031 C 
ATOM     46  C   UNL A   1      46.302  24.718  28.531  1.00  0.00     0.029 A 
ATOM     47  C   UNL A   1      46.024  26.087  28.949  1.00  0.00     0.049 A 
ATOM     48  H   UNL A   1      44.169  27.025  29.082  1.00  0.00     0.167 HD
ATOM     49  C   UNL A   1      40.207  28.909  29.159  1.00  0.00     0.031 A 
ATOM     50  C   UNL A   1      46.949  26.989  29.328  1.00  0.00     0.031 A 
ATOM     51  C   UNL A   1      41.113  29.912  29.650  1.00  0.00     0.049 A 
ATOM     52  C   UNL A   1      46.501  28.364  29.736  1.00  0.00     0.074 A 
ATOM     53  C   UNL A   1      40.824  31.185  30.109  1.00  0.00     0.029 A 
ATOM     54  N   UNL A   1      42.486  29.749  29.749  1.00  0.00    -0.354 N 
ATOM     55  N   UNL A   1      45.289  28.860  29.781  1.00  0.00    -0.248 NA
ATOM     56  C   UNL A   1      47.551  29.301  30.160  1.00  0.00     0.031 C 
ATOM     57  C   UNL A   1      42.029  31.810  30.443  1.00  0.00     0.029 A 
ATOM     58  C   UNL A   1      43.061  30.906  30.246  1.00  0.00     0.049 A 
ATOM     59  H   UNL A   1      42.978  28.933  29.503  1.00  0.00     0.167 HD
ATOM     60  C   UNL A   1      45.426  30.153  30.268  1.00  0.00     0.074 A 
ATOM     61  C   UNL A   1      46.838  30.359  30.517  1.00  0.00     0.031 C 
ATOM     62  C   UNL A   1      44.469  31.088  30.490  1.00  0.00     0.031 A 
BRANCH  49  63
ATOM     63  C   UNL A   1      38.747  29.251  29.046  1.00  0.00    -0.014 A 
ATOM     64  C   UNL A   1      37.882  29.127  30.146  1.00  0.00     0.009 A 
ATOM     65  C   UNL A   1      38.232  29.731  27.833  1.00  0.00     0.009 A 
ATOM     66  C   UNL A   1      36.526  29.435  30.020  1.00  0.00     0.001 A 
ATOM     67  C   UNL A   1      36.882  30.069  27.718  1.00  0.00     0.001 A 
ATOM     68  C   UNL A   1      36.028  29.911  28.808  1.00  0.00     0.000 A 
ENDBRANCH  49  63
BRANCH  50  69
ATOM     69  C   UNL A   1      48.387  26.616  29.359  1.00  0.00    -0.014 A 
ATOM     70  C   UNL A   1      48.942  26.016  30.501  1.00  0.00     0.009 A 
ATOM     71  C   UNL A   1      49.216  26.862  28.253  1.00  0.00     0.009 A 
ATOM     72  C   UNL A   1      50.302  25.701  30.546  1.00  0.00     0.001 A 
ATOM     73  C   UNL A   1      50.569  26.518  28.290  1.00  0.00     0.001 A 
ATOM     74  C   UNL A   1      51.113  25.947  29.440  1.00  0.00     0.000 A 
ENDBRANCH  50  69
BRANCH  62  75
ATOM     75  C   UNL A   1      44.914  32.400  31.071  1.00  0.00    -0.014 A 
ATOM     76  C   UNL A   1      45.001  32.592  32.458  1.00  0.00     0.009 A 
ATOM     77  C   UNL A   1      45.292  33.444  30.212  1.00  0.00     0.009 A 
ATOM     78  C   UNL A   1      45.426  33.819  32.974  1.00  0.00     0.001 A 
ATOM     79  C   UNL A   1      45.744  34.657  30.730  1.00  0.00     0.001 A 
ATOM     80  C   UNL A   1      45.802  34.847  32.110  1.00  0.00     0.000 A 
ENDBRANCH  62  75
ENDBRANCH  36  37
ENDBRANCH  28  31
ENDBRANCH  26  27
ENDBRANCH  25  26
ENDBRANCH   1  25
TORSDOF 13
ENDMDL
MODEL 2
REMARK VINA RESULT:     -11.6      0.841      5.967
REMARK SMILES C[C@H](Nc1ccc(C(=O)NCCCNC(=O)c2ccc(-c3c4nc(c(-c5ccccc5)c5ccc([nH]5)c(-c5ccccc5)c5nc(c(-c6ccccc6)c6ccc3[nH]6)C=C5)C=C4)cc2)c(F)c1F)c1ccccc1Cl
REMARK SMILES IDX 11 1 10 2 8 3 9 4 7 6 4 7 5 8 67 9 6 10 65 11 68 12 66 13
REMARK SMILES IDX 3 14 2 16 1 17 69 18 70 19 74 20 71 21 73 22 75 23 72 24
REMARK SMILES IDX 12 25 13 26 14 27 15 28 16 30 17 31 18 32 64 33 19 34 63 35
REMARK SMILES IDX 20 36 21 37 22 38 57 39 23 40 62 41 56 42 58 43 24 44 61 45
REMARK SMILES IDX 55 46 54 47 25 49 47 50 32 51 46 52 33 53 36 54 45 55 59 56
REMARK SMILES IDX 34 57 35 58 44 60 60 61 37 62 26 63 27 64 31 65 28 66 30 67
REMARK SMILES IDX 29 68 48 69 49 70 53 71 50 72 52 73 51 74 38 75 39 76 43 77
REMARK SMILES IDX 40 78 42 79 41 80
REMARK H PARENT 10 5 3 15 14 29 58 48 36 59
REMARK Flexibility Score: inf
ROOT
ATOM      1  C   UNL A   1      36.351  20.201  24.995  1.00  0.00     0.118 C 
ENDROOT
BRANCH   1   2
ATOM      2  N   UNL A   1      35.233  19.284  24.915  1.00  0.00    -0.352 N 
ATOM      3  C   UNL A   1      33.891  19.410  25.142  1.00  0.00     0.254 C 
ATOM      4  O   UNL A   1      33.226  18.381  24.983  1.00  0.00    -0.269 OA
ATOM      5  H   UNL A   1      35.495  18.376  24.637  1.00  0.00     0.163 HD
BRANCH   3   6
ATOM      6  C   UNL A   1      33.171  20.660  25.509  1.00  0.00     0.078 A 
ATOM      7  C   UNL A   1      31.964  23.053  26.481  1.00  0.00     0.074 A 
ATOM      8  C   UNL A   1      32.972  22.426  27.206  1.00  0.00     0.030 A 
ATOM      9  C   UNL A   1      31.596  22.484  25.258  1.00  0.00     0.182 A 
ATOM     10  C   UNL A   1      33.549  21.238  26.740  1.00  0.00     0.019 A 
ATOM     11  C   UNL A   1      32.210  21.335  24.762  1.00  0.00     0.173 A 
ATOM     12  F   UNL A   1      30.653  23.090  24.515  1.00  0.00    -0.201 F 
ATOM     13  F   UNL A   1      31.877  20.979  23.518  1.00  0.00    -0.203 F 
BRANCH   7  14
ATOM     14  N   UNL A   1      31.391  24.245  26.896  1.00  0.00    -0.376 N 
ATOM     15  H   UNL A   1      31.133  24.356  27.840  1.00  0.00     0.161 HD
BRANCH  14  16
ATOM     16  C   UNL A   1      31.162  25.338  25.957  1.00  0.00     0.108 C 
ATOM     17  C   UNL A   1      29.670  25.667  25.872  1.00  0.00     0.036 C 
BRANCH  16  18
ATOM     18  C   UNL A   1      32.008  26.539  26.346  1.00  0.00    -0.007 A 
ATOM     19  C   UNL A   1      31.371  27.587  27.045  1.00  0.00     0.007 A 
ATOM     20  C   UNL A   1      33.373  26.691  26.038  1.00  0.00     0.046 A 
ATOM     21  C   UNL A   1      32.059  28.752  27.391  1.00  0.00     0.000 A 
ATOM     22  C   UNL A   1      34.054  27.866  26.377  1.00  0.00     0.021 A 
ATOM     23  Cl  UNL A   1      34.300  25.471  25.232  1.00  0.00    -0.084 Cl
ATOM     24  C   UNL A   1      33.398  28.897  27.045  1.00  0.00     0.002 A 
ENDBRANCH  16  18
ENDBRANCH  14  16
ENDBRANCH   7  14
ENDBRANCH   3   6
ENDBRANCH   1   2
BRANCH   1  25
ATOM     25  C   UNL A   1      37.678  19.455  24.842  1.00  0.00     0.042 C 
BRANCH  25  26
ATOM     26  C   UNL A   1      38.855  20.200  25.466  1.00  0.00     0.118 C 
BRANCH  26  27
ATOM     27  N   UNL A   1      39.977  19.308  25.727  1.00  0.00    -0.352 N 
ATOM     28  C   UNL A   1      41.268  19.591  26.088  1.00  0.00     0.251 C 
ATOM     29  H   UNL A   1      39.775  18.349  25.630  1.00  0.00     0.163 HD
ATOM     30  O   UNL A   1      42.126  18.718  26.000  1.00  0.00    -0.269 OA
BRANCH  28  31
ATOM     31  C   UNL A   1      41.632  20.931  26.592  1.00  0.00     0.039 A 
ATOM     32  C   UNL A   1      41.464  21.207  27.953  1.00  0.00     0.014 A 
ATOM     33  C   UNL A   1      42.066  21.932  25.722  1.00  0.00     0.014 A 
ATOM     34  C   UNL A   1      41.762  22.478  28.443  1.00  0.00     0.010 A 
ATOM     35  C   UNL A   1      42.439  23.175  26.225  1.00  0.00     0.010 A 
ATOM     36  C   UNL A   1      42.269  23.467  27.586  1.00  0.00    -0.014 A 
BRANCH  36  37
ATOM     37  C   UNL A   1      42.592  24.826  28.081  1.00  0.00     0.031 A 
ATOM     38  C   UNL A   1      44.010  25.170  28.455  1.00  0.00     0.074 A 
ATOM     39  C   UNL A   1      41.606  25.726  28.253  1.00  0.00     0.049 A 
ATOM     40  N   UNL A   1      44.481  26.272  28.980  1.00  0.00    -0.248 NA
ATOM     41  C   UNL A   1      45.025  24.126  28.238  1.00  0.00     0.031 C 
ATOM     42  C   UNL A   1      40.190  25.499  27.959  1.00  0.00     0.029 A 
ATOM     43  N   UNL A   1      41.646  27.014  28.722  1.00  0.00    -0.354 N 
ATOM     44  C   UNL A   1      45.837  26.043  29.178  1.00  0.00     0.074 A 
ATOM     45  C   UNL A   1      46.104  24.683  28.768  1.00  0.00     0.031 C 
ATOM     46  C   UNL A   1      39.500  26.619  28.229  1.00  0.00     0.029 A 
ATOM     47  C   UNL A   1      40.417  27.625  28.753  1.00  0.00     0.049 A 
ATOM     48  H   UNL A   1      42.476  27.458  29.010  1.00  0.00     0.167 HD
ATOM     49  C   UNL A   1      46.783  26.897  29.640  1.00  0.00     0.031 A 
ATOM     50  C   UNL A   1      40.068  28.859  29.164  1.00  0.00     0.031 A 
ATOM     51  C   UNL A   1      46.517  28.255  30.029  1.00  0.00     0.049 A 
ATOM     52  C   UNL A   1      41.135  29.785  29.677  1.00  0.00     0.074 A 
ATOM     53  C   UNL A   1      47.411  29.220  30.459  1.00  0.00     0.029 A 
ATOM     54  N   UNL A   1      45.261  28.841  30.029  1.00  0.00    -0.354 N 
ATOM     55  N   UNL A   1      42.422  29.575  29.802  1.00  0.00    -0.248 NA
ATOM     56  C   UNL A   1      40.700  31.126  30.093  1.00  0.00     0.031 C 
ATOM     57  C   UNL A   1      46.688  30.377  30.764  1.00  0.00     0.029 A 
ATOM     58  C   UNL A   1      45.353  30.150  30.470  1.00  0.00     0.049 A 
ATOM     59  H   UNL A   1      44.427  28.393  29.757  1.00  0.00     0.167 HD
ATOM     60  C   UNL A   1      42.956  30.765  30.279  1.00  0.00     0.074 A 
ATOM     61  C   UNL A   1      41.854  31.696  30.407  1.00  0.00     0.031 C 
ATOM     62  C   UNL A   1      44.243  31.061  30.585  1.00  0.00     0.031 A 
BRANCH  49  63
ATOM     63  C   UNL A   1      48.190  26.377  29.754  1.00  0.00    -0.014 A 
ATOM     64  C   UNL A   1      48.646  25.759  30.930  1.00  0.00     0.009 A 
ATOM     65  C   UNL A   1      49.064  26.481  28.662  1.00  0.00     0.009 A 
ATOM     66  C   UNL A   1      49.960  25.295  31.024  1.00  0.00     0.001 A 
ATOM     67  C   UNL A   1      50.368  25.988  28.747  1.00  0.00     0.001 A 
ATOM     68  C   UNL A   1      50.818  25.405  29.930  1.00  0.00     0.000 A 
ENDBRANCH  49  63
BRANCH  50  69
ATOM     69  C   UNL A   1      38.650  29.298  29.089  1.00  0.00    -0.014 A 
ATOM     70  C   UNL A   1      37.800  29.151  30.197  1.00  0.00     0.009 A 
ATOM     71  C   UNL A   1      38.134  29.860  27.911  1.00  0.00     0.009 A 
ATOM     72  C   UNL A   1      36.457  29.527  30.115  1.00  0.00     0.001 A 
ATOM     73  C   UNL A   1      36.799  30.264  27.842  1.00  0.00     0.001 A 
ATOM     74  C   UNL A   1      35.959  30.087  28.940  1.00  0.00     0.000 A 
ENDBRANCH  50  69
BRANCH  62  75
ATOM     75  C   UNL A   1      44.534  32.462  31.043  1.00  0.00    -0.014 A 
ATOM     76  C   UNL A   1      44.526  32.802  32.404  1.00  0.00     0.009 A 
ATOM     77  C   UNL A   1      44.862  33.445  30.096  1.00  0.00     0.009 A 
ATOM     78  C   UNL A   1      44.809  34.110  32.805  1.00  0.00     0.001 A 
ATOM     79  C   UNL A   1      45.174  34.742  30.501  1.00  0.00     0.001 A 
ATOM     80  C   UNL A   1      45.137  35.076  31.854  1.00  0.00     0.000 A 
ENDBRANCH  62  75
ENDBRANCH  36  37
ENDBRANCH  28  31
ENDBRANCH  26  27
ENDBRANCH  25  26
ENDBRANCH   1  25
TORSDOF 13
ENDMDL
MODEL 3
REMARK VINA RESULT:     -11.5      4.163      8.839
REMARK SMILES C[C@H](Nc1ccc(C(=O)NCCCNC(=O)c2ccc(-c3c4nc(c(-c5ccccc5)c5ccc([nH]5)c(-c5ccccc5)c5nc(c(-c6ccccc6)c6ccc3[nH]6)C=C5)C=C4)cc2)c(F)c1F)c1ccccc1Cl
REMARK SMILES IDX 11 1 10 2 8 3 9 4 7 6 4 7 5 8 67 9 6 10 65 11 68 12 66 13
REMARK SMILES IDX 3 14 2 16 1 17 69 18 70 19 74 20 71 21 73 22 75 23 72 24
REMARK SMILES IDX 12 25 13 26 14 27 15 28 16 30 17 31 18 32 64 33 19 34 63 35
REMARK SMILES IDX 20 36 21 37 22 38 57 39 23 40 62 41 56 42 58 43 24 44 61 45
REMARK SMILES IDX 55 46 54 47 25 49 47 50 32 51 46 52 33 53 36 54 45 55 59 56
REMARK SMILES IDX 34 57 35 58 44 60 60 61 37 62 26 63 27 64 31 65 28 66 30 67
REMARK SMILES IDX 29 68 48 69 49 70 53 71 50 72 52 73 51 74 38 75 39 76 43 77
REMARK SMILES IDX 40 78 42 79 41 80
REMARK H PARENT 10 5 3 15 14 29 58 48 36 59
REMARK Flexibility Score: inf
ROOT
ATOM      1  C   UNL A   1      31.499  30.246  25.704  1.00  0.00     0.118 C 
ENDROOT
BRANCH   1   2
ATOM      2  N   UNL A   1      30.622  30.383  24.558  1.00  0.00    -0.352 N 
ATOM      3  C   UNL A   1      30.382  29.611  23.456  1.00  0.00     0.254 C 
ATOM      4  O   UNL A   1      29.555  30.065  22.659  1.00  0.00    -0.269 OA
ATOM      5  H   UNL A   1      30.084  31.207  24.578  1.00  0.00     0.163 HD
BRANCH   3   6
ATOM      6  C   UNL A   1      30.982  28.280  23.162  1.00  0.00     0.078 A 
ATOM      7  C   UNL A   1      31.850  25.608  22.679  1.00  0.00     0.074 A 
ATOM      8  C   UNL A   1      30.537  25.866  23.059  1.00  0.00     0.030 A 
ATOM      9  C   UNL A   1      32.704  26.703  22.515  1.00  0.00     0.182 A 
ATOM     10  C   UNL A   1      30.118  27.176  23.319  1.00  0.00     0.019 A 
ATOM     11  C   UNL A   1      32.273  28.014  22.714  1.00  0.00     0.173 A 
ATOM     12  F   UNL A   1      33.967  26.489  22.108  1.00  0.00    -0.201 F 
ATOM     13  F   UNL A   1      33.138  28.975  22.380  1.00  0.00    -0.203 F 
BRANCH   7  14
ATOM     14  N   UNL A   1      32.293  24.328  22.384  1.00  0.00    -0.376 N 
ATOM     15  H   UNL A   1      32.415  24.061  21.444  1.00  0.00     0.161 HD
BRANCH  14  16
ATOM     16  C   UNL A   1      32.581  23.368  23.445  1.00  0.00     0.108 C 
ATOM     17  C   UNL A   1      32.246  21.947  22.986  1.00  0.00     0.036 C 
BRANCH  16  18
ATOM     18  C   UNL A   1      34.024  23.514  23.897  1.00  0.00    -0.007 A 
ATOM     19  C   UNL A   1      35.019  22.882  23.121  1.00  0.00     0.007 A 
ATOM     20  C   UNL A   1      34.436  24.216  25.045  1.00  0.00     0.046 A 
ATOM     21  C   UNL A   1      36.364  22.917  23.497  1.00  0.00     0.000 A 
ATOM     22  C   UNL A   1      35.784  24.239  25.422  1.00  0.00     0.021 A 
ATOM     23  Cl  UNL A   1      33.339  25.085  26.065  1.00  0.00    -0.084 Cl
ATOM     24  C   UNL A   1      36.745  23.585  24.654  1.00  0.00     0.002 A 
ENDBRANCH  16  18
ENDBRANCH  14  16
ENDBRANCH   7  14
ENDBRANCH   3   6
ENDBRANCH   1   2
BRANCH   1  25
ATOM     25  C   UNL A   1      31.374  31.455  26.632  1.00  0.00     0.042 C 
BRANCH  25  26
ATOM     26  C   UNL A   1      32.696  32.189  26.836  1.00  0.00     0.118 C 
BRANCH  26  27
ATOM     27  N   UNL A   1      32.492  33.512  27.412  1.00  0.00    -0.352 N 
ATOM     28  C   UNL A   1      33.150  34.143  28.434  1.00  0.00     0.251 C 
ATOM     29  H   UNL A   1      31.767  34.036  27.000  1.00  0.00     0.163 HD
ATOM     30  O   UNL A   1      32.656  35.144  28.945  1.00  0.00    -0.269 OA
BRANCH  28  31
ATOM     31  C   UNL A   1      34.451  33.638  28.917  1.00  0.00     0.039 A 
ATOM     32  C   UNL A   1      35.619  34.056  28.270  1.00  0.00     0.014 A 
ATOM     33  C   UNL A   1      34.520  32.703  29.951  1.00  0.00     0.014 A 
ATOM     34  C   UNL A   1      36.855  33.559  28.683  1.00  0.00     0.010 A 
ATOM     35  C   UNL A   1      35.759  32.270  30.415  1.00  0.00     0.010 A 
ATOM     36  C   UNL A   1      36.936  32.676  29.771  1.00  0.00    -0.014 A 
BRANCH  36  37
ATOM     37  C   UNL A   1      38.237  32.132  30.228  1.00  0.00     0.031 A 
ATOM     38  C   UNL A   1      38.737  30.824  29.674  1.00  0.00     0.074 A 
ATOM     39  C   UNL A   1      38.934  32.779  31.181  1.00  0.00     0.049 A 
ATOM     40  N   UNL A   1      39.806  30.143  30.002  1.00  0.00    -0.248 NA
ATOM     41  C   UNL A   1      37.912  30.183  28.637  1.00  0.00     0.031 C 
ATOM     42  C   UNL A   1      38.534  34.035  31.818  1.00  0.00     0.029 A 
ATOM     43  N   UNL A   1      40.125  32.463  31.783  1.00  0.00    -0.354 N 
ATOM     44  C   UNL A   1      39.765  28.987  29.232  1.00  0.00     0.074 A 
ATOM     45  C   UNL A   1      38.543  29.032  28.461  1.00  0.00     0.031 C 
ATOM     46  C   UNL A   1      39.478  34.397  32.702  1.00  0.00     0.029 A 
ATOM     47  C   UNL A   1      40.523  33.380  32.724  1.00  0.00     0.049 A 
ATOM     48  H   UNL A   1      40.644  31.656  31.563  1.00  0.00     0.167 HD
ATOM     49  C   UNL A   1      40.675  27.986  29.156  1.00  0.00     0.031 A 
ATOM     50  C   UNL A   1      41.609  33.395  33.520  1.00  0.00     0.031 A 
ATOM     51  C   UNL A   1      41.899  27.955  29.910  1.00  0.00     0.049 A 
ATOM     52  C   UNL A   1      42.601  32.270  33.420  1.00  0.00     0.074 A 
ATOM     53  C   UNL A   1      42.915  27.017  29.868  1.00  0.00     0.029 A 
ATOM     54  N   UNL A   1      42.274  28.912  30.840  1.00  0.00    -0.354 N 
ATOM     55  N   UNL A   1      42.579  31.214  32.645  1.00  0.00    -0.248 NA
ATOM     56  C   UNL A   1      43.777  32.349  34.298  1.00  0.00     0.031 C 
ATOM     57  C   UNL A   1      43.883  27.382  30.807  1.00  0.00     0.029 A 
ATOM     58  C   UNL A   1      43.497  28.577  31.393  1.00  0.00     0.049 A 
ATOM     59  H   UNL A   1      41.747  29.711  31.073  1.00  0.00     0.167 HD
ATOM     60  C   UNL A   1      43.750  30.520  32.916  1.00  0.00     0.074 A 
ATOM     61  C   UNL A   1      44.466  31.283  33.918  1.00  0.00     0.031 C 
ATOM     62  C   UNL A   1      44.194  29.354  32.385  1.00  0.00     0.031 A 
BRANCH  49  63
ATOM     63  C   UNL A   1      40.372  26.842  28.228  1.00  0.00    -0.014 A 
ATOM     64  C   UNL A   1      40.868  26.818  26.914  1.00  0.00     0.009 A 
ATOM     65  C   UNL A   1      39.604  25.759  28.681  1.00  0.00     0.009 A 
ATOM     66  C   UNL A   1      40.565  25.755  26.061  1.00  0.00     0.001 A 
ATOM     67  C   UNL A   1      39.330  24.681  27.836  1.00  0.00     0.001 A 
ATOM     68  C   UNL A   1      39.801  24.685  26.524  1.00  0.00     0.000 A 
ENDBRANCH  49  63
BRANCH  50  69
ATOM     69  C   UNL A   1      41.826  34.521  34.466  1.00  0.00    -0.014 A 
ATOM     70  C   UNL A   1      41.341  34.448  35.781  1.00  0.00     0.009 A 
ATOM     71  C   UNL A   1      42.513  35.676  34.060  1.00  0.00     0.009 A 
ATOM     72  C   UNL A   1      41.511  35.521  36.659  1.00  0.00     0.001 A 
ATOM     73  C   UNL A   1      42.707  36.735  34.949  1.00  0.00     0.001 A 
ATOM     74  C   UNL A   1      42.197  36.661  36.245  1.00  0.00     0.000 A 
ENDBRANCH  50  69
BRANCH  62  75
ATOM     75  C   UNL A   1      45.537  28.859  32.844  1.00  0.00    -0.014 A 
ATOM     76  C   UNL A   1      45.659  27.983  33.934  1.00  0.00     0.009 A 
ATOM     77  C   UNL A   1      46.691  29.244  32.145  1.00  0.00     0.009 A 
ATOM     78  C   UNL A   1      46.918  27.530  34.335  1.00  0.00     0.001 A 
ATOM     79  C   UNL A   1      47.944  28.766  32.530  1.00  0.00     0.001 A 
ATOM     80  C   UNL A   1      48.057  27.918  33.630  1.00  0.00     0.000 A 
ENDBRANCH  62  75
ENDBRANCH  36  37
ENDBRANCH  28  31
ENDBRANCH  26  27
ENDBRANCH  25  26
ENDBRANCH   1  25
TORSDOF 13
ENDMDL
