MODEL 1
REMARK VINA RESULT:     -12.1      0.000      0.000
REMARK SMILES COc1cc([C@H]2[NH2+]CCC3=c4ccccc4=N[C@H]32)ccc1OCC(=O)NCCCNC(=O)c1ccc(-c2c3nc(c(-c4ccccc4)c4ccc([nH]4)c(-c4ccccc4)c4nc(c(-c5ccccc5)c5ccc2[nH]5)C=C4)C=C3)cc1
REMARK SMILES IDX 27 1 26 2 24 3 25 4 23 6 22 7 21 8 3 9 4 10 5 11 20 12 19 13
REMARK SMILES IDX 2 14 1 15 6 16 7 17 18 18 8 19 10 22 17 23 9 24 11 25 16 26
REMARK SMILES IDX 12 27 15 28 13 29 14 30 28 31 29 32 30 33 31 34 32 36 33 37
REMARK SMILES IDX 34 38 80 39 35 40 79 41 36 42 37 43 38 44 73 45 39 46 78 47
REMARK SMILES IDX 72 48 74 49 40 50 77 51 71 52 70 53 41 55 63 56 48 57 62 58
REMARK SMILES IDX 49 59 52 60 61 61 75 62 50 63 51 64 60 66 76 67 53 68 42 69
REMARK SMILES IDX 43 70 47 71 44 72 46 73 45 74 64 75 65 76 69 77 66 78 68 79
REMARK SMILES IDX 67 80 54 81 55 82 59 83 56 84 58 85 57 86
REMARK H PARENT 26 5 7 20 7 21 30 35 74 54 52 65
REMARK Flexibility Score: inf
ROOT
ATOM      1  C   UNL A   1      33.205  33.983  28.801  1.00  0.00     0.117 C 
ENDROOT
BRANCH   1   2
ATOM      2  N   UNL A   1      34.465  33.294  28.582  1.00  0.00    -0.353 N 
ATOM      3  C   UNL A   1      34.718  32.081  28.014  1.00  0.00     0.257 C 
ATOM      4  O   UNL A   1      35.897  31.809  27.767  1.00  0.00    -0.271 OA
ATOM      5  H   UNL A   1      35.262  33.782  28.892  1.00  0.00     0.163 HD
BRANCH   3   6
ATOM      6  C   UNL A   1      33.583  31.128  27.630  1.00  0.00     0.329 C 
BRANCH   6   7
ATOM      7  O   UNL A   1      33.749  30.381  26.448  1.00  0.00    -0.480 OA
BRANCH   7   8
ATOM      8  C   UNL A   1      33.090  29.210  26.241  1.00  0.00     0.161 A 
ATOM      9  C   UNL A   1      33.183  28.272  25.215  1.00  0.00     0.161 A 
ATOM     10  C   UNL A   1      32.272  27.188  25.149  1.00  0.00     0.060 A 
ATOM     11  C   UNL A   1      31.315  26.958  26.158  1.00  0.00     0.016 A 
ATOM     12  C   UNL A   1      32.165  28.973  27.247  1.00  0.00     0.051 A 
ATOM     13  C   UNL A   1      31.349  27.846  27.231  1.00  0.00     0.014 A 
BRANCH   9  14
ATOM     14  O   UNL A   1      34.086  28.421  24.196  1.00  0.00    -0.493 OA
ATOM     15  C   UNL A   1      33.411  28.676  22.962  1.00  0.00     0.278 C 
ENDBRANCH   9  14
BRANCH  11  16
ATOM     16  C   UNL A   1      30.264  25.833  26.017  1.00  0.00     0.243 C 
ATOM     17  N   UNL A   1      29.433  26.028  24.789  1.00  0.00    -0.338 N 
ATOM     18  C   UNL A   1      30.678  24.299  26.121  1.00  0.00     0.196 C 
ATOM     19  C   UNL A   1      30.114  25.587  23.561  1.00  0.00     0.265 C 
ATOM     20  H   UNL A   1      29.212  27.020  24.700  1.00  0.00     0.346 HD
ATOM     21  H   UNL A   1      28.592  25.461  24.894  1.00  0.00     0.346 HD
ATOM     22  C   UNL A   1      31.306  23.838  24.835  1.00  0.00    -0.025 C 
ATOM     23  N   UNL A   1      31.686  23.997  27.181  1.00  0.00    -0.270 NA
ATOM     24  C   UNL A   1      30.538  24.109  23.591  1.00  0.00     0.095 C 
ATOM     25  C   UNL A   1      32.553  23.428  25.033  1.00  0.00     0.001 A 
ATOM     26  C   UNL A   1      32.698  23.541  26.499  1.00  0.00     0.066 A 
ATOM     27  C   UNL A   1      33.663  23.161  24.178  1.00  0.00     0.010 A 
ATOM     28  C   UNL A   1      34.051  23.281  27.041  1.00  0.00     0.028 A 
ATOM     29  C   UNL A   1      34.880  23.040  24.734  1.00  0.00     0.001 A 
ATOM     30  C   UNL A   1      35.066  23.095  26.177  1.00  0.00     0.002 A 
ENDBRANCH  11  16
ENDBRANCH   7   8
ENDBRANCH   6   7
ENDBRANCH   3   6
ENDBRANCH   1   2
BRANCH   1  31
ATOM     31  C   UNL A   1      33.265  35.477  28.487  1.00  0.00     0.042 C 
BRANCH  31  32
ATOM     32  C   UNL A   1      33.526  36.392  29.681  1.00  0.00     0.118 C 
BRANCH  32  33
ATOM     33  N   UNL A   1      32.536  36.264  30.739  1.00  0.00    -0.352 N 
ATOM     34  C   UNL A   1      32.563  35.591  31.935  1.00  0.00     0.251 C 
ATOM     35  H   UNL A   1      31.695  36.748  30.566  1.00  0.00     0.163 HD
ATOM     36  O   UNL A   1      31.539  35.518  32.606  1.00  0.00    -0.269 OA
BRANCH  34  37
ATOM     37  C   UNL A   1      33.795  34.923  32.412  1.00  0.00     0.039 A 
ATOM     38  C   UNL A   1      33.691  33.621  32.914  1.00  0.00     0.014 A 
ATOM     39  C   UNL A   1      35.032  35.567  32.408  1.00  0.00     0.014 A 
ATOM     40  C   UNL A   1      34.837  32.937  33.327  1.00  0.00     0.010 A 
ATOM     41  C   UNL A   1      36.186  34.861  32.749  1.00  0.00     0.010 A 
ATOM     42  C   UNL A   1      36.102  33.535  33.200  1.00  0.00    -0.014 A 
BRANCH  42  43
ATOM     43  C   UNL A   1      37.344  32.774  33.497  1.00  0.00     0.031 A 
ATOM     44  C   UNL A   1      38.107  33.019  34.769  1.00  0.00     0.074 A 
ATOM     45  C   UNL A   1      37.825  31.910  32.582  1.00  0.00     0.049 A 
ATOM     46  N   UNL A   1      39.245  32.501  35.160  1.00  0.00    -0.248 NA
ATOM     47  C   UNL A   1      37.530  33.986  35.715  1.00  0.00     0.031 C 
ATOM     48  C   UNL A   1      37.195  31.600  31.296  1.00  0.00     0.029 A 
ATOM     49  N   UNL A   1      38.958  31.136  32.591  1.00  0.00    -0.354 N 
ATOM     50  C   UNL A   1      39.525  33.087  36.388  1.00  0.00     0.074 A 
ATOM     51  C   UNL A   1      38.465  34.036  36.654  1.00  0.00     0.031 C 
ATOM     52  C   UNL A   1      37.935  30.681  30.655  1.00  0.00     0.029 A 
ATOM     53  C   UNL A   1      39.113  30.373  31.459  1.00  0.00     0.049 A 
ATOM     54  H   UNL A   1      39.599  31.128  33.338  1.00  0.00     0.167 HD
ATOM     55  C   UNL A   1      40.562  32.848  37.228  1.00  0.00     0.031 A 
ATOM     56  C   UNL A   1      40.098  29.529  31.100  1.00  0.00     0.031 A 
ATOM     57  C   UNL A   1      41.620  31.907  36.965  1.00  0.00     0.049 A 
ATOM     58  C   UNL A   1      41.260  29.313  32.028  1.00  0.00     0.074 A 
ATOM     59  C   UNL A   1      42.686  31.559  37.776  1.00  0.00     0.029 A 
ATOM     60  N   UNL A   1      41.749  31.169  35.799  1.00  0.00    -0.354 N 
ATOM     61  N   UNL A   1      41.477  29.830  33.213  1.00  0.00    -0.248 NA
ATOM     62  C   UNL A   1      42.311  28.394  31.569  1.00  0.00     0.031 C 
ATOM     63  C   UNL A   1      43.494  30.657  37.075  1.00  0.00     0.029 A 
ATOM     64  C   UNL A   1      42.897  30.395  35.853  1.00  0.00     0.049 A 
ATOM     65  H   UNL A   1      41.118  31.191  35.043  1.00  0.00     0.167 HD
ATOM     66  C   UNL A   1      42.676  29.282  33.651  1.00  0.00     0.074 A 
ATOM     67  C   UNL A   1      43.128  28.378  32.613  1.00  0.00     0.031 C 
ATOM     68  C   UNL A   1      43.343  29.508  34.809  1.00  0.00     0.031 A 
BRANCH  55  69
ATOM     69  C   UNL A   1      40.609  33.635  38.509  1.00  0.00    -0.014 A 
ATOM     70  C   UNL A   1      40.009  33.155  39.684  1.00  0.00     0.009 A 
ATOM     71  C   UNL A   1      41.291  34.863  38.551  1.00  0.00     0.009 A 
ATOM     72  C   UNL A   1      40.051  33.907  40.860  1.00  0.00     0.001 A 
ATOM     73  C   UNL A   1      41.359  35.597  39.736  1.00  0.00     0.001 A 
ATOM     74  C   UNL A   1      40.730  35.125  40.887  1.00  0.00     0.000 A 
ENDBRANCH  55  69
BRANCH  56  75
ATOM     75  C   UNL A   1      40.027  28.815  29.797  1.00  0.00    -0.014 A 
ATOM     76  C   UNL A   1      39.492  27.520  29.723  1.00  0.00     0.009 A 
ATOM     77  C   UNL A   1      40.499  29.422  28.622  1.00  0.00     0.009 A 
ATOM     78  C   UNL A   1      39.453  26.838  28.506  1.00  0.00     0.001 A 
ATOM     79  C   UNL A   1      40.430  28.750  27.400  1.00  0.00     0.001 A 
ATOM     80  C   UNL A   1      39.917  27.455  27.344  1.00  0.00     0.000 A 
ENDBRANCH  56  75
BRANCH  68  81
ATOM     81  C   UNL A   1      44.623  28.750  35.024  1.00  0.00    -0.014 A 
ATOM     82  C   UNL A   1      45.847  29.235  34.537  1.00  0.00     0.009 A 
ATOM     83  C   UNL A   1      44.610  27.553  35.756  1.00  0.00     0.009 A 
ATOM     84  C   UNL A   1      47.027  28.518  34.751  1.00  0.00     0.001 A 
ATOM     85  C   UNL A   1      45.795  26.854  35.996  1.00  0.00     0.001 A 
ATOM     86  C   UNL A   1      47.000  27.332  35.485  1.00  0.00     0.000 A 
ENDBRANCH  68  81
ENDBRANCH  42  43
ENDBRANCH  34  37
ENDBRANCH  32  33
ENDBRANCH  31  32
ENDBRANCH   1  31
TORSDOF 14
ENDMDL
MODEL 2
REMARK VINA RESULT:     -12.0      6.569     11.768
REMARK SMILES COc1cc([C@H]2[NH2+]CCC3=c4ccccc4=N[C@H]32)ccc1OCC(=O)NCCCNC(=O)c1ccc(-c2c3nc(c(-c4ccccc4)c4ccc([nH]4)c(-c4ccccc4)c4nc(c(-c5ccccc5)c5ccc2[nH]5)C=C4)C=C3)cc1
REMARK SMILES IDX 27 1 26 2 24 3 25 4 23 6 22 7 21 8 3 9 4 10 5 11 20 12 19 13
REMARK SMILES IDX 2 14 1 15 6 16 7 17 18 18 8 19 10 22 17 23 9 24 11 25 16 26
REMARK SMILES IDX 12 27 15 28 13 29 14 30 28 31 29 32 30 33 31 34 32 36 33 37
REMARK SMILES IDX 34 38 80 39 35 40 79 41 36 42 37 43 38 44 73 45 39 46 78 47
REMARK SMILES IDX 72 48 74 49 40 50 77 51 71 52 70 53 41 55 63 56 48 57 62 58
REMARK SMILES IDX 49 59 52 60 61 61 75 62 50 63 51 64 60 66 76 67 53 68 42 69
REMARK SMILES IDX 43 70 47 71 44 72 46 73 45 74 64 75 65 76 69 77 66 78 68 79
REMARK SMILES IDX 67 80 54 81 55 82 59 83 56 84 58 85 57 86
REMARK H PARENT 26 5 7 20 7 21 30 35 74 54 52 65
REMARK Flexibility Score: inf
ROOT
ATOM      1  C   UNL A   1      40.904  20.139  27.119  1.00  0.00     0.117 C 
ENDROOT
BRANCH   1   2
ATOM      2  N   UNL A   1      40.681  21.573  27.167  1.00  0.00    -0.353 N 
ATOM      3  C   UNL A   1      39.688  22.329  26.617  1.00  0.00     0.257 C 
ATOM      4  O   UNL A   1      39.618  23.510  26.970  1.00  0.00    -0.271 OA
ATOM      5  H   UNL A   1      41.354  22.080  27.678  1.00  0.00     0.163 HD
BRANCH   3   6
ATOM      6  C   UNL A   1      38.661  21.720  25.659  1.00  0.00     0.329 C 
BRANCH   6   7
ATOM      7  O   UNL A   1      37.320  21.698  26.092  1.00  0.00    -0.480 OA
BRANCH   7   8
ATOM      8  C   UNL A   1      36.333  22.325  25.400  1.00  0.00     0.161 A 
ATOM      9  C   UNL A   1      35.060  22.738  25.787  1.00  0.00     0.161 A 
ATOM     10  C   UNL A   1      34.149  23.247  24.828  1.00  0.00     0.060 A 
ATOM     11  C   UNL A   1      34.520  23.450  23.482  1.00  0.00     0.016 A 
ATOM     12  C   UNL A   1      36.709  22.546  24.083  1.00  0.00     0.051 A 
ATOM     13  C   UNL A   1      35.844  23.147  23.174  1.00  0.00     0.014 A 
BRANCH   9  14
ATOM     14  O   UNL A   1      34.621  22.576  27.074  1.00  0.00    -0.493 OA
ATOM     15  C   UNL A   1      33.759  21.439  27.169  1.00  0.00     0.278 C 
ENDBRANCH   9  14
BRANCH  11  16
ATOM     16  C   UNL A   1      33.484  23.908  22.430  1.00  0.00     0.243 C 
ATOM     17  N   UNL A   1      32.460  22.845  22.189  1.00  0.00    -0.338 N 
ATOM     18  C   UNL A   1      32.747  25.314  22.555  1.00  0.00     0.196 C 
ATOM     19  C   UNL A   1      31.425  22.800  23.234  1.00  0.00     0.265 C 
ATOM     20  H   UNL A   1      32.931  21.940  22.160  1.00  0.00     0.346 HD
ATOM     21  H   UNL A   1      31.997  23.059  21.307  1.00  0.00     0.346 HD
ATOM     22  C   UNL A   1      31.642  25.238  23.573  1.00  0.00    -0.025 C 
ATOM     23  N   UNL A   1      33.621  26.437  23.010  1.00  0.00    -0.270 NA
ATOM     24  C   UNL A   1      30.668  24.127  23.406  1.00  0.00     0.095 C 
ATOM     25  C   UNL A   1      31.852  26.088  24.571  1.00  0.00     0.001 A 
ATOM     26  C   UNL A   1      33.074  26.795  24.136  1.00  0.00     0.066 A 
ATOM     27  C   UNL A   1      31.310  26.242  25.881  1.00  0.00     0.010 A 
ATOM     28  C   UNL A   1      33.662  27.739  25.115  1.00  0.00     0.028 A 
ATOM     29  C   UNL A   1      31.958  27.036  26.749  1.00  0.00     0.001 A 
ATOM     30  C   UNL A   1      33.138  27.791  26.353  1.00  0.00     0.002 A 
ENDBRANCH  11  16
ENDBRANCH   7   8
ENDBRANCH   6   7
ENDBRANCH   3   6
ENDBRANCH   1   2
BRANCH   1  31
ATOM     31  C   UNL A   1      41.704  19.688  25.897  1.00  0.00     0.042 C 
BRANCH  31  32
ATOM     32  C   UNL A   1      43.041  19.013  26.198  1.00  0.00     0.118 C 
BRANCH  32  33
ATOM     33  N   UNL A   1      43.833  18.738  25.009  1.00  0.00    -0.352 N 
ATOM     34  C   UNL A   1      44.647  19.542  24.250  1.00  0.00     0.251 C 
ATOM     35  H   UNL A   1      43.777  17.806  24.692  1.00  0.00     0.163 HD
ATOM     36  O   UNL A   1      45.106  19.109  23.198  1.00  0.00    -0.269 OA
BRANCH  34  37
ATOM     37  C   UNL A   1      44.950  20.933  24.659  1.00  0.00     0.039 A 
ATOM     38  C   UNL A   1      44.567  21.973  23.805  1.00  0.00     0.014 A 
ATOM     39  C   UNL A   1      45.632  21.221  25.841  1.00  0.00     0.014 A 
ATOM     40  C   UNL A   1      44.789  23.301  24.178  1.00  0.00     0.010 A 
ATOM     41  C   UNL A   1      45.788  22.546  26.248  1.00  0.00     0.010 A 
ATOM     42  C   UNL A   1      45.357  23.599  25.427  1.00  0.00    -0.014 A 
BRANCH  42  43
ATOM     43  C   UNL A   1      45.470  25.003  25.904  1.00  0.00     0.031 A 
ATOM     44  C   UNL A   1      46.793  25.716  25.883  1.00  0.00     0.074 A 
ATOM     45  C   UNL A   1      44.387  25.613  26.426  1.00  0.00     0.049 A 
ATOM     46  N   UNL A   1      47.091  26.913  26.324  1.00  0.00    -0.248 NA
ATOM     47  C   UNL A   1      47.933  24.984  25.311  1.00  0.00     0.031 C 
ATOM     48  C   UNL A   1      43.050  25.023  26.531  1.00  0.00     0.029 A 
ATOM     49  N   UNL A   1      44.242  26.864  26.972  1.00  0.00    -0.354 N 
ATOM     50  C   UNL A   1      48.453  27.071  26.096  1.00  0.00     0.074 A 
ATOM     51  C   UNL A   1      48.931  25.831  25.523  1.00  0.00     0.031 C 
ATOM     52  C   UNL A   1      42.216  25.922  27.077  1.00  0.00     0.029 A 
ATOM     53  C   UNL A   1      42.965  27.130  27.406  1.00  0.00     0.049 A 
ATOM     54  H   UNL A   1      44.981  27.509  27.045  1.00  0.00     0.167 HD
ATOM     55  C   UNL A   1      49.233  28.155  26.326  1.00  0.00     0.031 A 
ATOM     56  C   UNL A   1      42.455  28.217  28.013  1.00  0.00     0.031 A 
ATOM     57  C   UNL A   1      48.761  29.390  26.898  1.00  0.00     0.049 A 
ATOM     58  C   UNL A   1      43.351  29.390  28.298  1.00  0.00     0.074 A 
ATOM     59  C   UNL A   1      49.464  30.560  27.124  1.00  0.00     0.029 A 
ATOM     60  N   UNL A   1      47.466  29.611  27.341  1.00  0.00    -0.354 N 
ATOM     61  N   UNL A   1      44.622  29.546  28.020  1.00  0.00    -0.248 NA
ATOM     62  C   UNL A   1      42.738  30.540  28.979  1.00  0.00     0.031 C 
ATOM     63  C   UNL A   1      48.611  31.468  27.761  1.00  0.00     0.029 A 
ATOM     64  C   UNL A   1      47.358  30.885  27.873  1.00  0.00     0.049 A 
ATOM     65  H   UNL A   1      46.731  28.958  27.285  1.00  0.00     0.167 HD
ATOM     66  C   UNL A   1      44.955  30.817  28.469  1.00  0.00     0.074 A 
ATOM     67  C   UNL A   1      43.747  31.397  29.020  1.00  0.00     0.031 C 
ATOM     68  C   UNL A   1      46.155  31.447  28.430  1.00  0.00     0.031 A 
BRANCH  55  69
ATOM     69  C   UNL A   1      50.691  28.045  25.972  1.00  0.00    -0.014 A 
ATOM     70  C   UNL A   1      51.160  28.381  24.692  1.00  0.00     0.009 A 
ATOM     71  C   UNL A   1      51.617  27.627  26.943  1.00  0.00     0.009 A 
ATOM     72  C   UNL A   1      52.515  28.259  24.378  1.00  0.00     0.001 A 
ATOM     73  C   UNL A   1      52.976  27.536  26.635  1.00  0.00     0.001 A 
ATOM     74  C   UNL A   1      53.422  27.840  25.351  1.00  0.00     0.000 A 
ENDBRANCH  55  69
BRANCH  56  75
ATOM     75  C   UNL A   1      41.017  28.254  28.389  1.00  0.00    -0.014 A 
ATOM     76  C   UNL A   1      40.069  28.816  27.522  1.00  0.00     0.009 A 
ATOM     77  C   UNL A   1      40.586  27.731  29.619  1.00  0.00     0.009 A 
ATOM     78  C   UNL A   1      38.723  28.877  27.887  1.00  0.00     0.001 A 
ATOM     79  C   UNL A   1      39.234  27.765  29.969  1.00  0.00     0.001 A 
ATOM     80  C   UNL A   1      38.306  28.347  29.108  1.00  0.00     0.000 A 
ENDBRANCH  56  75
BRANCH  68  81
ATOM     81  C   UNL A   1      46.215  32.845  28.980  1.00  0.00    -0.014 A 
ATOM     82  C   UNL A   1      45.944  33.959  28.170  1.00  0.00     0.009 A 
ATOM     83  C   UNL A   1      46.512  33.048  30.337  1.00  0.00     0.009 A 
ATOM     84  C   UNL A   1      46.001  35.249  28.701  1.00  0.00     0.001 A 
ATOM     85  C   UNL A   1      46.537  34.337  30.873  1.00  0.00     0.001 A 
ATOM     86  C   UNL A   1      46.292  35.436  30.052  1.00  0.00     0.000 A 
ENDBRANCH  68  81
ENDBRANCH  42  43
ENDBRANCH  34  37
ENDBRANCH  32  33
ENDBRANCH  31  32
ENDBRANCH   1  31
TORSDOF 14
ENDMDL
MODEL 3
REMARK VINA RESULT:     -11.8      0.266      5.742
REMARK SMILES COc1cc([C@H]2[NH2+]CCC3=c4ccccc4=N[C@H]32)ccc1OCC(=O)NCCCNC(=O)c1ccc(-c2c3nc(c(-c4ccccc4)c4ccc([nH]4)c(-c4ccccc4)c4nc(c(-c5ccccc5)c5ccc2[nH]5)C=C4)C=C3)cc1
REMARK SMILES IDX 27 1 26 2 24 3 25 4 23 6 22 7 21 8 3 9 4 10 5 11 20 12 19 13
REMARK SMILES IDX 2 14 1 15 6 16 7 17 18 18 8 19 10 22 17 23 9 24 11 25 16 26
REMARK SMILES IDX 12 27 15 28 13 29 14 30 28 31 29 32 30 33 31 34 32 36 33 37
REMARK SMILES IDX 34 38 80 39 35 40 79 41 36 42 37 43 38 44 73 45 39 46 78 47
REMARK SMILES IDX 72 48 74 49 40 50 77 51 71 52 70 53 41 55 63 56 48 57 62 58
REMARK SMILES IDX 49 59 52 60 61 61 75 62 50 63 51 64 60 66 76 67 53 68 42 69
REMARK SMILES IDX 43 70 47 71 44 72 46 73 45 74 64 75 65 76 69 77 66 78 68 79
REMARK SMILES IDX 67 80 54 81 55 82 59 83 56 84 58 85 57 86
REMARK H PARENT 26 5 7 20 7 21 30 35 74 54 52 65
REMARK Flexibility Score: inf
ROOT
ATOM      1  C   UNL A   1      33.198  33.902  28.729  1.00  0.00     0.117 C 
ENDROOT
BRANCH   1   2
ATOM      2  N   UNL A   1      34.458  33.193  28.590  1.00  0.00    -0.353 N 
ATOM      3  C   UNL A   1      34.732  31.989  28.012  1.00  0.00     0.257 C 
ATOM      4  O   UNL A   1      35.921  31.699  27.850  1.00  0.00    -0.271 OA
ATOM      5  H   UNL A   1      35.238  33.656  28.973  1.00  0.00     0.163 HD
BRANCH   3   6
ATOM      6  C   UNL A   1      33.612  31.069  27.518  1.00  0.00     0.329 C 
BRANCH   6   7
ATOM      7  O   UNL A   1      33.924  30.198  26.456  1.00  0.00    -0.480 OA
BRANCH   7   8
ATOM      8  C   UNL A   1      33.226  29.052  26.240  1.00  0.00     0.161 A 
ATOM      9  C   UNL A   1      33.254  28.145  25.183  1.00  0.00     0.161 A 
ATOM     10  C   UNL A   1      32.312  27.088  25.120  1.00  0.00     0.060 A 
ATOM     11  C   UNL A   1      31.388  26.851  26.159  1.00  0.00     0.016 A 
ATOM     12  C   UNL A   1      32.335  28.808  27.274  1.00  0.00     0.051 A 
ATOM     13  C   UNL A   1      31.488  27.704  27.256  1.00  0.00     0.014 A 
BRANCH   9  14
ATOM     14  O   UNL A   1      34.120  28.302  24.135  1.00  0.00    -0.493 OA
ATOM     15  C   UNL A   1      33.475  28.971  23.048  1.00  0.00     0.278 C 
ENDBRANCH   9  14
BRANCH  11  16
ATOM     16  C   UNL A   1      30.302  25.759  26.026  1.00  0.00     0.243 C 
ATOM     17  N   UNL A   1      29.493  25.957  24.783  1.00  0.00    -0.338 N 
ATOM     18  C   UNL A   1      30.663  24.214  26.165  1.00  0.00     0.196 C 
ATOM     19  C   UNL A   1      30.175  25.469  23.574  1.00  0.00     0.265 C 
ATOM     20  H   UNL A   1      29.307  26.954  24.672  1.00  0.00     0.346 HD
ATOM     21  H   UNL A   1      28.633  25.420  24.888  1.00  0.00     0.346 HD
ATOM     22  C   UNL A   1      31.292  23.707  24.897  1.00  0.00    -0.025 C 
ATOM     23  N   UNL A   1      31.647  23.900  27.244  1.00  0.00    -0.270 NA
ATOM     24  C   UNL A   1      30.550  23.980  23.638  1.00  0.00     0.095 C 
ATOM     25  C   UNL A   1      32.522  23.260  25.120  1.00  0.00     0.001 A 
ATOM     26  C   UNL A   1      32.651  23.398  26.585  1.00  0.00     0.066 A 
ATOM     27  C   UNL A   1      33.633  22.939  24.285  1.00  0.00     0.010 A 
ATOM     28  C   UNL A   1      33.988  23.103  27.150  1.00  0.00     0.028 A 
ATOM     29  C   UNL A   1      34.838  22.790  24.860  1.00  0.00     0.001 A 
ATOM     30  C   UNL A   1      35.007  22.867  26.304  1.00  0.00     0.002 A 
ENDBRANCH  11  16
ENDBRANCH   7   8
ENDBRANCH   6   7
ENDBRANCH   3   6
ENDBRANCH   1   2
BRANCH   1  31
ATOM     31  C   UNL A   1      33.317  35.407  28.492  1.00  0.00     0.042 C 
BRANCH  31  32
ATOM     32  C   UNL A   1      33.549  36.255  29.741  1.00  0.00     0.118 C 
BRANCH  32  33
ATOM     33  N   UNL A   1      32.566  36.028  30.788  1.00  0.00    -0.352 N 
ATOM     34  C   UNL A   1      32.642  35.342  31.975  1.00  0.00     0.251 C 
ATOM     35  H   UNL A   1      31.688  36.442  30.616  1.00  0.00     0.163 HD
ATOM     36  O   UNL A   1      31.622  35.173  32.636  1.00  0.00    -0.269 OA
BRANCH  34  37
ATOM     37  C   UNL A   1      33.921  34.772  32.453  1.00  0.00     0.039 A 
ATOM     38  C   UNL A   1      33.912  33.484  32.997  1.00  0.00     0.014 A 
ATOM     39  C   UNL A   1      35.113  35.497  32.408  1.00  0.00     0.014 A 
ATOM     40  C   UNL A   1      35.107  32.891  33.412  1.00  0.00     0.010 A 
ATOM     41  C   UNL A   1      36.316  34.880  32.753  1.00  0.00     0.010 A 
ATOM     42  C   UNL A   1      36.327  33.567  33.246  1.00  0.00    -0.014 A 
BRANCH  42  43
ATOM     43  C   UNL A   1      37.621  32.900  33.547  1.00  0.00     0.031 A 
ATOM     44  C   UNL A   1      38.205  31.894  32.595  1.00  0.00     0.074 A 
ATOM     45  C   UNL A   1      38.238  33.152  34.718  1.00  0.00     0.049 A 
ATOM     46  N   UNL A   1      39.284  31.164  32.727  1.00  0.00    -0.248 NA
ATOM     47  C   UNL A   1      37.470  31.660  31.342  1.00  0.00     0.031 C 
ATOM     48  C   UNL A   1      37.764  34.087  35.743  1.00  0.00     0.029 A 
ATOM     49  N   UNL A   1      39.395  32.638  35.248  1.00  0.00    -0.354 N 
ATOM     50  C   UNL A   1      39.351  30.377  31.584  1.00  0.00     0.074 A 
ATOM     51  C   UNL A   1      38.178  30.683  30.793  1.00  0.00     0.031 C 
ATOM     52  C   UNL A   1      38.639  34.101  36.761  1.00  0.00     0.029 A 
ATOM     53  C   UNL A   1      39.705  33.144  36.488  1.00  0.00     0.049 A 
ATOM     54  H   UNL A   1      39.951  31.971  34.785  1.00  0.00     0.167 HD
ATOM     55  C   UNL A   1      40.309  29.492  31.216  1.00  0.00     0.031 A 
ATOM     56  C   UNL A   1      40.726  32.863  37.319  1.00  0.00     0.031 A 
ATOM     57  C   UNL A   1      41.476  29.184  32.001  1.00  0.00     0.049 A 
ATOM     58  C   UNL A   1      41.752  31.845  36.907  1.00  0.00     0.074 A 
ATOM     59  C   UNL A   1      42.527  28.338  31.690  1.00  0.00     0.029 A 
ATOM     60  N   UNL A   1      41.742  29.704  33.258  1.00  0.00    -0.354 N 
ATOM     61  N   UNL A   1      41.832  31.156  35.796  1.00  0.00    -0.248 NA
ATOM     62  C   UNL A   1      42.831  31.569  37.867  1.00  0.00     0.031 C 
ATOM     63  C   UNL A   1      43.397  28.299  32.785  1.00  0.00     0.029 A 
ATOM     64  C   UNL A   1      42.921  29.171  33.752  1.00  0.00     0.049 A 
ATOM     65  H   UNL A   1      41.176  30.358  33.731  1.00  0.00     0.167 HD
ATOM     66  C   UNL A   1      42.981  30.383  35.911  1.00  0.00     0.074 A 
ATOM     67  C   UNL A   1      43.575  30.704  37.193  1.00  0.00     0.031 C 
ATOM     68  C   UNL A   1      43.496  29.487  35.034  1.00  0.00     0.031 A 
BRANCH  55  69
ATOM     69  C   UNL A   1      40.122  28.778  29.905  1.00  0.00    -0.014 A 
ATOM     70  C   UNL A   1      40.545  29.350  28.694  1.00  0.00     0.009 A 
ATOM     71  C   UNL A   1      39.543  27.498  29.882  1.00  0.00     0.009 A 
ATOM     72  C   UNL A   1      40.351  28.678  27.485  1.00  0.00     0.001 A 
ATOM     73  C   UNL A   1      39.378  26.815  28.675  1.00  0.00     0.001 A 
ATOM     74  C   UNL A   1      39.772  27.409  27.478  1.00  0.00     0.000 A 
ENDBRANCH  55  69
BRANCH  56  75
ATOM     75  C   UNL A   1      40.834  33.561  38.627  1.00  0.00    -0.014 A 
ATOM     76  C   UNL A   1      40.212  33.033  39.769  1.00  0.00     0.009 A 
ATOM     77  C   UNL A   1      41.556  34.760  38.741  1.00  0.00     0.009 A 
ATOM     78  C   UNL A   1      40.289  33.704  40.991  1.00  0.00     0.001 A 
ATOM     79  C   UNL A   1      41.657  35.412  39.972  1.00  0.00     0.001 A 
ATOM     80  C   UNL A   1      41.015  34.889  41.093  1.00  0.00     0.000 A 
ENDBRANCH  56  75
BRANCH  68  81
ATOM     81  C   UNL A   1      44.778  28.805  35.422  1.00  0.00    -0.014 A 
ATOM     82  C   UNL A   1      44.772  27.579  36.106  1.00  0.00     0.009 A 
ATOM     83  C   UNL A   1      46.009  29.378  35.067  1.00  0.00     0.009 A 
ATOM     84  C   UNL A   1      45.974  26.958  36.454  1.00  0.00     0.001 A 
ATOM     85  C   UNL A   1      47.208  28.740  35.388  1.00  0.00     0.001 A 
ATOM     86  C   UNL A   1      47.189  27.536  36.090  1.00  0.00     0.000 A 
ENDBRANCH  68  81
ENDBRANCH  42  43
ENDBRANCH  34  37
ENDBRANCH  32  33
ENDBRANCH  31  32
ENDBRANCH   1  31
TORSDOF 14
ENDMDL
