MODEL 1
REMARK VINA RESULT:     -11.1      0.000      0.000
REMARK SMILES CCc1ccc(C[NH+]2CCC(Oc3ccccc3OC)(C(=O)NCCCNC(=O)c3ccc(-c4c5nc(c(-c6ccccc6)c6ccc([nH]6)c(-c6ccccc6)c6nc(c(-c7ccccc7)c7ccc4[nH]7)C=C6)C=C5)cc3)CC2)nc1
REMARK SMILES IDX 24 1 23 2 21 3 22 4 11 6 8 7 9 8 79 9 10 11 78 12 7 13 6 14
REMARK SMILES IDX 3 15 4 16 81 17 5 18 80 19 2 20 1 21 12 22 13 23 14 24 18 25
REMARK SMILES IDX 15 26 17 27 16 28 19 29 20 30 25 31 26 32 27 33 28 34 29 36
REMARK SMILES IDX 30 37 31 38 77 39 32 40 76 41 33 42 34 43 35 44 70 45 36 46
REMARK SMILES IDX 75 47 69 48 71 49 37 50 74 51 68 52 67 53 38 55 60 56 45 57
REMARK SMILES IDX 59 58 46 59 49 60 58 61 72 62 47 63 48 64 57 66 73 67 50 68
REMARK SMILES IDX 39 69 40 70 44 71 41 72 43 73 42 74 61 75 62 76 66 77 63 78
REMARK SMILES IDX 65 79 64 80 51 81 52 82 56 83 53 84 55 85 54 86
REMARK H PARENT 23 5 8 10 27 35 71 54 49 65
REMARK Flexibility Score: inf
ROOT
ATOM      1  C   UNL A   1      34.023  29.244  25.078  1.00  0.00     0.118 C 
ENDROOT
BRANCH   1   2
ATOM      2  N   UNL A   1      34.385  28.668  23.796  1.00  0.00    -0.353 N 
ATOM      3  C   UNL A   1      33.637  28.039  22.837  1.00  0.00     0.264 C 
ATOM      4  O   UNL A   1      34.191  27.962  21.735  1.00  0.00    -0.270 OA
ATOM      5  H   UNL A   1      35.341  28.744  23.575  1.00  0.00     0.163 HD
BRANCH   3   6
ATOM      6  C   UNL A   1      32.218  27.425  23.108  1.00  0.00     0.197 C 
ATOM      7  N   UNL A   1      32.453  24.543  22.505  1.00  0.00    -0.330 N 
ATOM      8  C   UNL A   1      33.085  25.114  23.697  1.00  0.00     0.267 C 
ATOM      9  C   UNL A   1      32.421  25.512  21.400  1.00  0.00     0.267 C 
ATOM     10  H   UNL A   1      31.487  24.328  22.754  1.00  0.00     0.348 HD
ATOM     11  C   UNL A   1      32.308  26.330  24.178  1.00  0.00     0.120 C 
ATOM     12  C   UNL A   1      31.678  26.798  21.800  1.00  0.00     0.120 C 
BRANCH   7  13
ATOM     13  C   UNL A   1      33.080  23.260  22.095  1.00  0.00     0.319 C 
BRANCH  13  14
ATOM     14  C   UNL A   1      34.257  22.790  22.937  1.00  0.00     0.095 A 
ATOM     15  C   UNL A   1      36.334  22.342  24.702  1.00  0.00    -0.030 A 
ATOM     16  C   UNL A   1      35.087  21.762  24.940  1.00  0.00     0.007 A 
ATOM     17  C   UNL A   1      36.480  23.058  23.518  1.00  0.00     0.115 A 
ATOM     18  C   UNL A   1      34.037  21.988  24.054  1.00  0.00     0.030 A 
ATOM     19  N   UNL A   1      35.481  23.288  22.638  1.00  0.00    -0.255 NA
BRANCH  15  20
ATOM     20  C   UNL A   1      37.461  22.166  25.684  1.00  0.00     0.034 C 
ATOM     21  C   UNL A   1      38.114  23.474  26.121  1.00  0.00     0.009 C 
ENDBRANCH  15  20
ENDBRANCH  13  14
ENDBRANCH   7  13
BRANCH   6  22
ATOM     22  O   UNL A   1      31.459  28.558  23.588  1.00  0.00    -0.473 OA
BRANCH  22  23
ATOM     23  C   UNL A   1      30.262  28.867  23.021  1.00  0.00     0.162 A 
ATOM     24  C   UNL A   1      30.256  29.934  22.118  1.00  0.00     0.050 A 
ATOM     25  C   UNL A   1      29.048  28.300  23.424  1.00  0.00     0.160 A 
ATOM     26  C   UNL A   1      29.056  30.387  21.567  1.00  0.00     0.004 A 
ATOM     27  C   UNL A   1      27.852  28.737  22.850  1.00  0.00     0.050 A 
ATOM     28  C   UNL A   1      27.854  29.784  21.929  1.00  0.00     0.004 A 
BRANCH  25  29
ATOM     29  O   UNL A   1      28.936  27.278  24.328  1.00  0.00    -0.493 OA
ATOM     30  C   UNL A   1      28.068  26.248  23.869  1.00  0.00     0.278 C 
ENDBRANCH  25  29
ENDBRANCH  22  23
ENDBRANCH   6  22
ENDBRANCH   3   6
ENDBRANCH   1   2
BRANCH   1  31
ATOM     31  C   UNL A   1      34.241  28.294  26.249  1.00  0.00     0.042 C 
BRANCH  31  32
ATOM     32  C   UNL A   1      33.486  28.685  27.513  1.00  0.00     0.118 C 
BRANCH  32  33
ATOM     33  N   UNL A   1      33.533  30.116  27.769  1.00  0.00    -0.352 N 
ATOM     34  C   UNL A   1      34.520  30.899  28.313  1.00  0.00     0.251 C 
ATOM     35  H   UNL A   1      32.720  30.607  27.506  1.00  0.00     0.163 HD
ATOM     36  O   UNL A   1      34.264  32.064  28.609  1.00  0.00    -0.269 OA
BRANCH  34  37
ATOM     37  C   UNL A   1      35.881  30.368  28.563  1.00  0.00     0.039 A 
ATOM     38  C   UNL A   1      36.843  30.506  27.556  1.00  0.00     0.014 A 
ATOM     39  C   UNL A   1      36.205  29.688  29.739  1.00  0.00     0.014 A 
ATOM     40  C   UNL A   1      38.136  30.012  27.750  1.00  0.00     0.010 A 
ATOM     41  C   UNL A   1      37.515  29.261  29.963  1.00  0.00     0.010 A 
ATOM     42  C   UNL A   1      38.491  29.410  28.968  1.00  0.00    -0.014 A 
BRANCH  42  43
ATOM     43  C   UNL A   1      39.878  28.940  29.207  1.00  0.00     0.031 A 
ATOM     44  C   UNL A   1      40.892  29.837  29.862  1.00  0.00     0.074 A 
ATOM     45  C   UNL A   1      40.243  27.713  28.789  1.00  0.00     0.049 A 
ATOM     46  N   UNL A   1      42.149  29.597  30.141  1.00  0.00    -0.248 NA
ATOM     47  C   UNL A   1      40.443  31.189  30.231  1.00  0.00     0.031 C 
ATOM     48  C   UNL A   1      39.372  26.760  28.096  1.00  0.00     0.029 A 
ATOM     49  N   UNL A   1      41.444  27.056  28.886  1.00  0.00    -0.354 N 
ATOM     50  C   UNL A   1      42.645  30.769  30.699  1.00  0.00     0.074 A 
ATOM     51  C   UNL A   1      41.566  31.733  30.680  1.00  0.00     0.031 C 
ATOM     52  C   UNL A   1      40.058  25.631  27.859  1.00  0.00     0.029 A 
ATOM     53  C   UNL A   1      41.422  25.790  28.355  1.00  0.00     0.049 A 
ATOM     54  H   UNL A   1      42.244  27.454  29.298  1.00  0.00     0.167 HD
ATOM     55  C   UNL A   1      43.879  31.016  31.198  1.00  0.00     0.031 A 
ATOM     56  C   UNL A   1      42.388  24.856  28.279  1.00  0.00     0.031 A 
ATOM     57  C   UNL A   1      44.949  30.056  31.233  1.00  0.00     0.049 A 
ATOM     58  C   UNL A   1      43.742  25.145  28.859  1.00  0.00     0.074 A 
ATOM     59  C   UNL A   1      46.215  30.194  31.778  1.00  0.00     0.029 A 
ATOM     60  N   UNL A   1      44.881  28.779  30.701  1.00  0.00    -0.354 N 
ATOM     61  N   UNL A   1      44.171  26.234  29.448  1.00  0.00    -0.248 NA
ATOM     62  C   UNL A   1      44.740  24.069  28.775  1.00  0.00     0.031 C 
ATOM     63  C   UNL A   1      46.926  29.012  31.538  1.00  0.00     0.029 A 
ATOM     64  C   UNL A   1      46.087  28.124  30.886  1.00  0.00     0.049 A 
ATOM     65  H   UNL A   1      44.091  28.393  30.257  1.00  0.00     0.167 HD
ATOM     66  C   UNL A   1      45.481  25.968  29.826  1.00  0.00     0.074 A 
ATOM     67  C   UNL A   1      45.770  24.610  29.412  1.00  0.00     0.031 C 
ATOM     68  C   UNL A   1      46.363  26.776  30.461  1.00  0.00     0.031 A 
BRANCH  55  69
ATOM     69  C   UNL A   1      44.137  32.394  31.741  1.00  0.00    -0.014 A 
ATOM     70  C   UNL A   1      43.895  32.701  33.091  1.00  0.00     0.009 A 
ATOM     71  C   UNL A   1      44.651  33.392  30.900  1.00  0.00     0.009 A 
ATOM     72  C   UNL A   1      44.126  33.990  33.575  1.00  0.00     0.001 A 
ATOM     73  C   UNL A   1      44.906  34.673  31.393  1.00  0.00     0.001 A 
ATOM     74  C   UNL A   1      44.633  34.974  32.727  1.00  0.00     0.000 A 
ENDBRANCH  55  69
BRANCH  56  75
ATOM     75  C   UNL A   1      42.091  23.541  27.658  1.00  0.00    -0.014 A 
ATOM     76  C   UNL A   1      42.351  23.325  26.295  1.00  0.00     0.009 A 
ATOM     77  C   UNL A   1      41.566  22.491  28.426  1.00  0.00     0.009 A 
ATOM     78  C   UNL A   1      42.072  22.089  25.711  1.00  0.00     0.001 A 
ATOM     79  C   UNL A   1      41.310  21.249  27.843  1.00  0.00     0.001 A 
ATOM     80  C   UNL A   1      41.557  21.050  26.485  1.00  0.00     0.000 A 
ENDBRANCH  56  75
BRANCH  68  81
ATOM     81  C   UNL A   1      47.716  26.202  30.768  1.00  0.00    -0.014 A 
ATOM     82  C   UNL A   1      48.726  26.162  29.794  1.00  0.00     0.009 A 
ATOM     83  C   UNL A   1      47.991  25.719  32.057  1.00  0.00     0.009 A 
ATOM     84  C   UNL A   1      49.976  25.617  30.097  1.00  0.00     0.001 A 
ATOM     85  C   UNL A   1      49.249  25.198  32.363  1.00  0.00     0.001 A 
ATOM     86  C   UNL A   1      50.237  25.139  31.382  1.00  0.00     0.000 A 
ENDBRANCH  68  81
ENDBRANCH  42  43
ENDBRANCH  34  37
ENDBRANCH  32  33
ENDBRANCH  31  32
ENDBRANCH   1  31
TORSDOF 16
ENDMDL
MODEL 2
REMARK VINA RESULT:     -11.0      0.718      5.832
REMARK SMILES CCc1ccc(C[NH+]2CCC(Oc3ccccc3OC)(C(=O)NCCCNC(=O)c3ccc(-c4c5nc(c(-c6ccccc6)c6ccc([nH]6)c(-c6ccccc6)c6nc(c(-c7ccccc7)c7ccc4[nH]7)C=C6)C=C5)cc3)CC2)nc1
REMARK SMILES IDX 24 1 23 2 21 3 22 4 11 6 8 7 9 8 79 9 10 11 78 12 7 13 6 14
REMARK SMILES IDX 3 15 4 16 81 17 5 18 80 19 2 20 1 21 12 22 13 23 14 24 18 25
REMARK SMILES IDX 15 26 17 27 16 28 19 29 20 30 25 31 26 32 27 33 28 34 29 36
REMARK SMILES IDX 30 37 31 38 77 39 32 40 76 41 33 42 34 43 35 44 70 45 36 46
REMARK SMILES IDX 75 47 69 48 71 49 37 50 74 51 68 52 67 53 38 55 60 56 45 57
REMARK SMILES IDX 59 58 46 59 49 60 58 61 72 62 47 63 48 64 57 66 73 67 50 68
REMARK SMILES IDX 39 69 40 70 44 71 41 72 43 73 42 74 61 75 62 76 66 77 63 78
REMARK SMILES IDX 65 79 64 80 51 81 52 82 56 83 53 84 55 85 54 86
REMARK H PARENT 23 5 8 10 27 35 71 54 49 65
REMARK Flexibility Score: inf
ROOT
ATOM      1  C   UNL A   1      33.817  29.045  25.043  1.00  0.00     0.118 C 
ENDROOT
BRANCH   1   2
ATOM      2  N   UNL A   1      34.210  28.533  23.744  1.00  0.00    -0.353 N 
ATOM      3  C   UNL A   1      33.484  27.976  22.727  1.00  0.00     0.264 C 
ATOM      4  O   UNL A   1      34.075  27.948  21.640  1.00  0.00    -0.270 OA
ATOM      5  H   UNL A   1      35.175  28.599  23.560  1.00  0.00     0.163 HD
BRANCH   3   6
ATOM      6  C   UNL A   1      32.044  27.380  22.914  1.00  0.00     0.197 C 
ATOM      7  N   UNL A   1      32.316  24.464  22.536  1.00  0.00    -0.330 N 
ATOM      8  C   UNL A   1      32.844  25.117  23.736  1.00  0.00     0.267 C 
ATOM      9  C   UNL A   1      32.386  25.353  21.367  1.00  0.00     0.267 C 
ATOM     10  H   UNL A   1      31.331  24.266  22.714  1.00  0.00     0.348 HD
ATOM     11  C   UNL A   1      32.034  26.363  24.061  1.00  0.00     0.120 C 
ATOM     12  C   UNL A   1      31.617  26.663  21.611  1.00  0.00     0.120 C 
BRANCH   7  13
ATOM     13  C   UNL A   1      32.970  23.156  22.272  1.00  0.00     0.319 C 
BRANCH  13  14
ATOM     14  C   UNL A   1      34.191  22.833  23.123  1.00  0.00     0.095 A 
ATOM     15  C   UNL A   1      36.448  21.867  24.389  1.00  0.00    -0.030 A 
ATOM     16  C   UNL A   1      36.572  22.861  23.416  1.00  0.00     0.007 A 
ATOM     17  C   UNL A   1      35.156  21.477  24.727  1.00  0.00     0.115 A 
ATOM     18  C   UNL A   1      35.438  23.348  22.774  1.00  0.00     0.030 A 
ATOM     19  N   UNL A   1      34.038  21.936  24.125  1.00  0.00    -0.255 NA
BRANCH  15  20
ATOM     20  C   UNL A   1      37.669  21.280  25.044  1.00  0.00     0.034 C 
ATOM     21  C   UNL A   1      37.789  19.767  24.889  1.00  0.00     0.009 C 
ENDBRANCH  15  20
ENDBRANCH  13  14
ENDBRANCH   7  13
BRANCH   6  22
ATOM     22  O   UNL A   1      31.251  28.543  23.246  1.00  0.00    -0.473 OA
BRANCH  22  23
ATOM     23  C   UNL A   1      29.895  28.451  23.302  1.00  0.00     0.162 A 
ATOM     24  C   UNL A   1      29.372  27.263  23.821  1.00  0.00     0.050 A 
ATOM     25  C   UNL A   1      29.033  29.386  22.719  1.00  0.00     0.160 A 
ATOM     26  C   UNL A   1      27.994  27.039  23.822  1.00  0.00     0.004 A 
ATOM     27  C   UNL A   1      27.653  29.172  22.746  1.00  0.00     0.050 A 
ATOM     28  C   UNL A   1      27.134  27.997  23.289  1.00  0.00     0.004 A 
BRANCH  25  29
ATOM     29  O   UNL A   1      29.442  30.562  22.150  1.00  0.00    -0.493 OA
ATOM     30  C   UNL A   1      28.485  31.076  21.231  1.00  0.00     0.278 C 
ENDBRANCH  25  29
ENDBRANCH  22  23
ENDBRANCH   6  22
ENDBRANCH   3   6
ENDBRANCH   1   2
BRANCH   1  31
ATOM     31  C   UNL A   1      34.098  28.074  26.184  1.00  0.00     0.042 C 
BRANCH  31  32
ATOM     32  C   UNL A   1      33.502  28.498  27.521  1.00  0.00     0.118 C 
BRANCH  32  33
ATOM     33  N   UNL A   1      33.539  29.940  27.713  1.00  0.00    -0.352 N 
ATOM     34  C   UNL A   1      34.523  30.753  28.219  1.00  0.00     0.251 C 
ATOM     35  H   UNL A   1      32.722  30.412  27.433  1.00  0.00     0.163 HD
ATOM     36  O   UNL A   1      34.258  31.927  28.465  1.00  0.00    -0.269 OA
BRANCH  34  37
ATOM     37  C   UNL A   1      35.888  30.243  28.488  1.00  0.00     0.039 A 
ATOM     38  C   UNL A   1      36.816  30.247  27.440  1.00  0.00     0.014 A 
ATOM     39  C   UNL A   1      36.249  29.709  29.727  1.00  0.00     0.014 A 
ATOM     40  C   UNL A   1      38.111  29.767  27.650  1.00  0.00     0.010 A 
ATOM     41  C   UNL A   1      37.563  29.299  29.958  1.00  0.00     0.010 A 
ATOM     42  C   UNL A   1      38.504  29.316  28.919  1.00  0.00    -0.014 A 
BRANCH  42  43
ATOM     43  C   UNL A   1      39.897  28.865  29.169  1.00  0.00     0.031 A 
ATOM     44  C   UNL A   1      40.351  27.499  28.736  1.00  0.00     0.074 A 
ATOM     45  C   UNL A   1      40.745  29.673  29.833  1.00  0.00     0.049 A 
ATOM     46  N   UNL A   1      41.525  26.935  28.879  1.00  0.00    -0.248 NA
ATOM     47  C   UNL A   1      39.351  26.643  28.078  1.00  0.00     0.031 C 
ATOM     48  C   UNL A   1      40.419  31.003  30.351  1.00  0.00     0.029 A 
ATOM     49  N   UNL A   1      42.060  29.492  30.184  1.00  0.00    -0.354 N 
ATOM     50  C   UNL A   1      41.400  25.658  28.347  1.00  0.00     0.074 A 
ATOM     51  C   UNL A   1      40.026  25.513  27.917  1.00  0.00     0.031 C 
ATOM     52  C   UNL A   1      41.511  31.530  30.927  1.00  0.00     0.029 A 
ATOM     53  C   UNL A   1      42.604  30.566  30.844  1.00  0.00     0.049 A 
ATOM     54  H   UNL A   1      42.564  28.672  29.983  1.00  0.00     0.167 HD
ATOM     55  C   UNL A   1      42.346  24.698  28.212  1.00  0.00     0.031 A 
ATOM     56  C   UNL A   1      43.846  30.760  31.326  1.00  0.00     0.031 A 
ATOM     57  C   UNL A   1      43.716  24.843  28.623  1.00  0.00     0.049 A 
ATOM     58  C   UNL A   1      44.883  29.690  31.145  1.00  0.00     0.074 A 
ATOM     59  C   UNL A   1      44.764  23.949  28.468  1.00  0.00     0.029 A 
ATOM     60  N   UNL A   1      44.232  25.953  29.272  1.00  0.00    -0.354 N 
ATOM     61  N   UNL A   1      44.766  28.515  30.575  1.00  0.00    -0.248 NA
ATOM     62  C   UNL A   1      46.228  29.980  31.662  1.00  0.00     0.031 C 
ATOM     63  C   UNL A   1      45.904  24.504  29.061  1.00  0.00     0.029 A 
ATOM     64  C   UNL A   1      45.577  25.761  29.543  1.00  0.00     0.049 A 
ATOM     65  H   UNL A   1      43.718  26.761  29.505  1.00  0.00     0.167 HD
ATOM     66  C   UNL A   1      46.026  27.935  30.643  1.00  0.00     0.074 A 
ATOM     67  C   UNL A   1      46.894  28.893  31.297  1.00  0.00     0.031 C 
ATOM     68  C   UNL A   1      46.426  26.719  30.201  1.00  0.00     0.031 A 
BRANCH  55  69
ATOM     69  C   UNL A   1      41.919  23.395  27.596  1.00  0.00    -0.014 A 
ATOM     70  C   UNL A   1      41.268  22.409  28.356  1.00  0.00     0.009 A 
ATOM     71  C   UNL A   1      42.149  23.159  26.232  1.00  0.00     0.009 A 
ATOM     72  C   UNL A   1      40.892  21.198  27.771  1.00  0.00     0.001 A 
ATOM     73  C   UNL A   1      41.748  21.957  25.644  1.00  0.00     0.001 A 
ATOM     74  C   UNL A   1      41.130  20.974  26.416  1.00  0.00     0.000 A 
ENDBRANCH  55  69
BRANCH  56  75
ATOM     75  C   UNL A   1      44.183  32.041  31.995  1.00  0.00    -0.014 A 
ATOM     76  C   UNL A   1      44.029  32.178  33.384  1.00  0.00     0.009 A 
ATOM     77  C   UNL A   1      44.676  33.125  31.254  1.00  0.00     0.009 A 
ATOM     78  C   UNL A   1      44.346  33.382  34.014  1.00  0.00     0.001 A 
ATOM     79  C   UNL A   1      45.014  34.321  31.891  1.00  0.00     0.001 A 
ATOM     80  C   UNL A   1      44.843  34.451  33.269  1.00  0.00     0.000 A 
ENDBRANCH  56  75
BRANCH  68  81
ATOM     81  C   UNL A   1      47.874  26.367  30.390  1.00  0.00    -0.014 A 
ATOM     82  C   UNL A   1      48.329  25.780  31.582  1.00  0.00     0.009 A 
ATOM     83  C   UNL A   1      48.788  26.601  29.351  1.00  0.00     0.009 A 
ATOM     84  C   UNL A   1      49.681  25.467  31.740  1.00  0.00     0.001 A 
ATOM     85  C   UNL A   1      50.134  26.264  29.504  1.00  0.00     0.001 A 
ATOM     86  C   UNL A   1      50.581  25.706  30.701  1.00  0.00     0.000 A 
ENDBRANCH  68  81
ENDBRANCH  42  43
ENDBRANCH  34  37
ENDBRANCH  32  33
ENDBRANCH  31  32
ENDBRANCH   1  31
TORSDOF 16
ENDMDL
MODEL 3
REMARK VINA RESULT:     -10.9      2.861      8.175
REMARK SMILES CCc1ccc(C[NH+]2CCC(Oc3ccccc3OC)(C(=O)NCCCNC(=O)c3ccc(-c4c5nc(c(-c6ccccc6)c6ccc([nH]6)c(-c6ccccc6)c6nc(c(-c7ccccc7)c7ccc4[nH]7)C=C6)C=C5)cc3)CC2)nc1
REMARK SMILES IDX 24 1 23 2 21 3 22 4 11 6 8 7 9 8 79 9 10 11 78 12 7 13 6 14
REMARK SMILES IDX 3 15 4 16 81 17 5 18 80 19 2 20 1 21 12 22 13 23 14 24 18 25
REMARK SMILES IDX 15 26 17 27 16 28 19 29 20 30 25 31 26 32 27 33 28 34 29 36
REMARK SMILES IDX 30 37 31 38 77 39 32 40 76 41 33 42 34 43 35 44 70 45 36 46
REMARK SMILES IDX 75 47 69 48 71 49 37 50 74 51 68 52 67 53 38 55 60 56 45 57
REMARK SMILES IDX 59 58 46 59 49 60 58 61 72 62 47 63 48 64 57 66 73 67 50 68
REMARK SMILES IDX 39 69 40 70 44 71 41 72 43 73 42 74 61 75 62 76 66 77 63 78
REMARK SMILES IDX 65 79 64 80 51 81 52 82 56 83 53 84 55 85 54 86
REMARK H PARENT 23 5 8 10 27 35 71 54 49 65
REMARK Flexibility Score: inf
ROOT
ATOM      1  C   UNL A   1      35.933  20.541  24.861  1.00  0.00     0.118 C 
ENDROOT
BRANCH   1   2
ATOM      2  N   UNL A   1      35.473  21.061  26.135  1.00  0.00    -0.353 N 
ATOM      3  C   UNL A   1      34.232  21.444  26.567  1.00  0.00     0.264 C 
ATOM      4  O   UNL A   1      34.130  21.530  27.797  1.00  0.00    -0.270 OA
ATOM      5  H   UNL A   1      36.182  21.156  26.811  1.00  0.00     0.163 HD
BRANCH   3   6
ATOM      6  C   UNL A   1      33.044  21.788  25.600  1.00  0.00     0.197 C 
ATOM      7  N   UNL A   1      33.443  24.602  24.796  1.00  0.00    -0.330 N 
ATOM      8  C   UNL A   1      34.325  23.546  24.293  1.00  0.00     0.267 C 
ATOM      9  C   UNL A   1      32.965  24.300  26.153  1.00  0.00     0.267 C 
ATOM     10  H   UNL A   1      32.629  24.627  24.181  1.00  0.00     0.348 HD
ATOM     11  C   UNL A   1      33.582  22.220  24.231  1.00  0.00     0.120 C 
ATOM     12  C   UNL A   1      32.222  22.953  26.201  1.00  0.00     0.120 C 
BRANCH   7  13
ATOM     13  C   UNL A   1      34.073  25.945  24.720  1.00  0.00     0.319 C 
BRANCH  13  14
ATOM     14  C   UNL A   1      33.133  27.112  24.453  1.00  0.00     0.095 A 
ATOM     15  C   UNL A   1      31.092  28.899  23.930  1.00  0.00    -0.030 A 
ATOM     16  C   UNL A   1      31.482  28.661  25.249  1.00  0.00     0.007 A 
ATOM     17  C   UNL A   1      31.830  28.269  22.933  1.00  0.00     0.115 A 
ATOM     18  C   UNL A   1      32.508  27.760  25.517  1.00  0.00     0.030 A 
ATOM     19  N   UNL A   1      32.833  27.394  23.163  1.00  0.00    -0.255 NA
BRANCH  15  20
ATOM     20  C   UNL A   1      29.940  29.817  23.626  1.00  0.00     0.034 C 
ATOM     21  C   UNL A   1      29.476  29.772  22.173  1.00  0.00     0.009 C 
ENDBRANCH  15  20
ENDBRANCH  13  14
ENDBRANCH   7  13
BRANCH   6  22
ATOM     22  O   UNL A   1      32.328  20.536  25.505  1.00  0.00    -0.473 OA
BRANCH  22  23
ATOM     23  C   UNL A   1      32.513  19.724  24.430  1.00  0.00     0.162 A 
ATOM     24  C   UNL A   1      32.120  20.235  23.188  1.00  0.00     0.050 A 
ATOM     25  C   UNL A   1      32.896  18.382  24.531  1.00  0.00     0.160 A 
ATOM     26  C   UNL A   1      32.176  19.436  22.046  1.00  0.00     0.004 A 
ATOM     27  C   UNL A   1      32.978  17.593  23.382  1.00  0.00     0.050 A 
ATOM     28  C   UNL A   1      32.611  18.115  22.142  1.00  0.00     0.004 A 
BRANCH  25  29
ATOM     29  O   UNL A   1      33.264  17.772  25.700  1.00  0.00    -0.493 OA
ATOM     30  C   UNL A   1      33.109  16.359  25.639  1.00  0.00     0.278 C 
ENDBRANCH  25  29
ENDBRANCH  22  23
ENDBRANCH   6  22
ENDBRANCH   3   6
ENDBRANCH   1   2
BRANCH   1  31
ATOM     31  C   UNL A   1      37.146  19.626  24.985  1.00  0.00     0.042 C 
BRANCH  31  32
ATOM     32  C   UNL A   1      38.434  20.351  25.357  1.00  0.00     0.118 C 
BRANCH  32  33
ATOM     33  N   UNL A   1      39.553  19.439  25.536  1.00  0.00    -0.352 N 
ATOM     34  C   UNL A   1      40.835  19.665  25.970  1.00  0.00     0.251 C 
ATOM     35  H   UNL A   1      39.357  18.500  25.309  1.00  0.00     0.163 HD
ATOM     36  O   UNL A   1      41.669  18.769  25.860  1.00  0.00    -0.269 OA
BRANCH  34  37
ATOM     37  C   UNL A   1      41.238  20.965  26.554  1.00  0.00     0.039 A 
ATOM     38  C   UNL A   1      41.745  21.949  25.696  1.00  0.00     0.014 A 
ATOM     39  C   UNL A   1      41.184  21.210  27.928  1.00  0.00     0.014 A 
ATOM     40  C   UNL A   1      42.144  23.187  26.208  1.00  0.00     0.010 A 
ATOM     41  C   UNL A   1      41.511  22.471  28.429  1.00  0.00     0.010 A 
ATOM     42  C   UNL A   1      42.003  23.468  27.576  1.00  0.00    -0.014 A 
BRANCH  42  43
ATOM     43  C   UNL A   1      42.364  24.802  28.119  1.00  0.00     0.031 A 
ATOM     44  C   UNL A   1      43.781  25.116  28.509  1.00  0.00     0.074 A 
ATOM     45  C   UNL A   1      41.399  25.723  28.307  1.00  0.00     0.049 A 
ATOM     46  N   UNL A   1      44.275  26.222  29.007  1.00  0.00    -0.248 NA
ATOM     47  C   UNL A   1      44.771  24.040  28.341  1.00  0.00     0.031 C 
ATOM     48  C   UNL A   1      39.976  25.532  28.017  1.00  0.00     0.029 A 
ATOM     49  N   UNL A   1      41.471  27.007  28.788  1.00  0.00    -0.354 N 
ATOM     50  C   UNL A   1      45.623  25.970  29.228  1.00  0.00     0.074 A 
ATOM     51  C   UNL A   1      45.862  24.594  28.850  1.00  0.00     0.031 C 
ATOM     52  C   UNL A   1      39.315  26.666  28.297  1.00  0.00     0.029 A 
ATOM     53  C   UNL A   1      40.260  27.652  28.811  1.00  0.00     0.049 A 
ATOM     54  H   UNL A   1      42.310  27.424  29.087  1.00  0.00     0.167 HD
ATOM     55  C   UNL A   1      46.581  26.811  29.687  1.00  0.00     0.031 A 
ATOM     56  C   UNL A   1      39.941  28.902  29.199  1.00  0.00     0.031 A 
ATOM     57  C   UNL A   1      46.352  28.184  30.048  1.00  0.00     0.049 A 
ATOM     58  C   UNL A   1      41.023  29.822  29.683  1.00  0.00     0.074 A 
ATOM     59  C   UNL A   1      47.272  29.133  30.462  1.00  0.00     0.029 A 
ATOM     60  N   UNL A   1      45.113  28.805  30.041  1.00  0.00    -0.354 N 
ATOM     61  N   UNL A   1      42.306  29.590  29.817  1.00  0.00    -0.248 NA
ATOM     62  C   UNL A   1      40.613  31.185  30.055  1.00  0.00     0.031 C 
ATOM     63  C   UNL A   1      46.582  30.318  30.744  1.00  0.00     0.029 A 
ATOM     64  C   UNL A   1      45.241  30.119  30.461  1.00  0.00     0.049 A 
ATOM     65  H   UNL A   1      44.267  28.377  29.775  1.00  0.00     0.167 HD
ATOM     66  C   UNL A   1      42.861  30.781  30.266  1.00  0.00     0.074 A 
ATOM     67  C   UNL A   1      41.777  31.737  30.369  1.00  0.00     0.031 C 
ATOM     68  C   UNL A   1      44.153  31.056  30.566  1.00  0.00     0.031 A 
BRANCH  55  69
ATOM     69  C   UNL A   1      47.971  26.257  29.830  1.00  0.00    -0.014 A 
ATOM     70  C   UNL A   1      48.853  26.211  28.738  1.00  0.00     0.009 A 
ATOM     71  C   UNL A   1      48.414  25.797  31.080  1.00  0.00     0.009 A 
ATOM     72  C   UNL A   1      50.135  25.679  28.886  1.00  0.00     0.001 A 
ATOM     73  C   UNL A   1      49.706  25.289  31.230  1.00  0.00     0.001 A 
ATOM     74  C   UNL A   1      50.562  25.221  30.131  1.00  0.00     0.000 A 
ENDBRANCH  55  69
BRANCH  56  75
ATOM     75  C   UNL A   1      38.534  29.364  29.106  1.00  0.00    -0.014 A 
ATOM     76  C   UNL A   1      38.039  29.894  27.904  1.00  0.00     0.009 A 
ATOM     77  C   UNL A   1      37.674  29.261  30.210  1.00  0.00     0.009 A 
ATOM     78  C   UNL A   1      36.716  30.329  27.816  1.00  0.00     0.001 A 
ATOM     79  C   UNL A   1      36.345  29.675  30.111  1.00  0.00     0.001 A 
ATOM     80  C   UNL A   1      35.868  30.214  28.917  1.00  0.00     0.000 A 
ENDBRANCH  56  75
BRANCH  68  81
ATOM     81  C   UNL A   1      44.467  32.457  31.009  1.00  0.00    -0.014 A 
ATOM     82  C   UNL A   1      44.786  33.459  30.079  1.00  0.00     0.009 A 
ATOM     83  C   UNL A   1      44.415  32.782  32.374  1.00  0.00     0.009 A 
ATOM     84  C   UNL A   1      45.081  34.753  30.513  1.00  0.00     0.001 A 
ATOM     85  C   UNL A   1      44.687  34.083  32.800  1.00  0.00     0.001 A 
ATOM     86  C   UNL A   1      45.028  35.064  31.872  1.00  0.00     0.000 A 
ENDBRANCH  68  81
ENDBRANCH  42  43
ENDBRANCH  34  37
ENDBRANCH  32  33
ENDBRANCH  31  32
ENDBRANCH   1  31
TORSDOF 16
ENDMDL
