MODEL 1
REMARK VINA RESULT:     -10.4      0.000      0.000
REMARK SMILES O=C(NCCCNC(=O)[C@H](CO)NC(=O)[C@H](CS)NC(=O)c1ccc(F)cc1)c1ccc(-c2c3nc(c(-c4ccccc4)c4ccc([nH]4)c(-c4ccccc4)c4nc(c(-c5ccccc5)c5ccc2[nH]5)C=C4)C=C3)cc1
REMARK SMILES IDX 6 1 5 2 4 3 3 4 1 5 2 6 29 8 30 9 76 10 31 11 75 12 32 13
REMARK SMILES IDX 33 14 34 15 69 16 35 17 74 18 68 19 70 20 36 21 73 22 67 23
REMARK SMILES IDX 66 24 37 26 59 27 44 28 58 29 45 30 48 31 57 32 71 33 46 34
REMARK SMILES IDX 47 35 56 37 72 38 49 39 38 40 39 41 43 42 40 43 42 44 41 45
REMARK SMILES IDX 60 46 61 47 65 48 62 49 64 50 63 51 50 52 51 53 55 54 52 55
REMARK SMILES IDX 54 56 53 57 7 58 8 59 9 61 10 62 13 63 14 64 15 66 16 67
REMARK SMILES IDX 19 68 20 69 21 71 22 72 23 73 28 74 24 75 27 76 25 77 26 78
REMARK SMILES IDX 17 79 18 80 11 82 12 83
REMARK H PARENT 3 7 70 25 48 36 7 60 13 65 19 70 18 81 12 84
REMARK Flexibility Score: inf
ROOT
ATOM      1  C   UNL A   1      36.601  19.586  25.046  1.00  0.00     0.117 C 
ENDROOT
BRANCH   1   2
ATOM      2  C   UNL A   1      38.065  19.288  24.733  1.00  0.00     0.042 C 
BRANCH   2   3
ATOM      3  C   UNL A   1      39.049  19.804  25.776  1.00  0.00     0.118 C 
BRANCH   3   4
ATOM      4  N   UNL A   1      40.315  19.093  25.755  1.00  0.00    -0.352 N 
ATOM      5  O   UNL A   1      42.546  18.815  25.751  1.00  0.00    -0.269 OA
ATOM      6  C   UNL A   1      41.589  19.541  26.012  1.00  0.00     0.251 C 
ATOM      7  H   UNL A   1      40.251  18.139  25.522  1.00  0.00     0.163 HD
BRANCH   6   8
ATOM      8  C   UNL A   1      41.827  20.895  26.566  1.00  0.00     0.039 A 
ATOM      9  C   UNL A   1      42.078  21.988  25.735  1.00  0.00     0.014 A 
ATOM     10  C   UNL A   1      41.756  21.083  27.951  1.00  0.00     0.014 A 
ATOM     11  C   UNL A   1      42.416  23.220  26.289  1.00  0.00     0.010 A 
ATOM     12  C   UNL A   1      42.004  22.345  28.503  1.00  0.00     0.010 A 
ATOM     13  C   UNL A   1      42.377  23.417  27.679  1.00  0.00    -0.014 A 
BRANCH  13  14
ATOM     14  C   UNL A   1      42.692  24.761  28.234  1.00  0.00     0.031 A 
ATOM     15  C   UNL A   1      44.110  25.171  28.527  1.00  0.00     0.074 A 
ATOM     16  C   UNL A   1      41.688  25.638  28.432  1.00  0.00     0.049 A 
ATOM     17  N   UNL A   1      44.561  26.330  28.943  1.00  0.00    -0.248 NA
ATOM     18  C   UNL A   1      45.157  24.155  28.341  1.00  0.00     0.031 C 
ATOM     19  C   UNL A   1      40.268  25.361  28.200  1.00  0.00     0.029 A 
ATOM     20  N   UNL A   1      41.708  26.947  28.841  1.00  0.00    -0.354 N 
ATOM     21  C   UNL A   1      45.933  26.175  29.092  1.00  0.00     0.074 A 
ATOM     22  C   UNL A   1      46.242  24.804  28.742  1.00  0.00     0.031 C 
ATOM     23  C   UNL A   1      39.562  26.484  28.405  1.00  0.00     0.029 A 
ATOM     24  C   UNL A   1      40.470  27.541  28.836  1.00  0.00     0.049 A 
ATOM     25  H   UNL A   1      42.530  27.414  29.112  1.00  0.00     0.167 HD
ATOM     26  C   UNL A   1      46.856  27.088  29.479  1.00  0.00     0.031 A 
ATOM     27  C   UNL A   1      40.099  28.798  29.141  1.00  0.00     0.031 A 
ATOM     28  C   UNL A   1      46.560  28.457  29.814  1.00  0.00     0.049 A 
ATOM     29  C   UNL A   1      41.141  29.789  29.568  1.00  0.00     0.074 A 
ATOM     30  C   UNL A   1      47.435  29.466  30.177  1.00  0.00     0.029 A 
ATOM     31  N   UNL A   1      45.288  29.008  29.830  1.00  0.00    -0.354 N 
ATOM     32  N   UNL A   1      42.438  29.633  29.661  1.00  0.00    -0.248 NA
ATOM     33  C   UNL A   1      40.664  31.131  29.928  1.00  0.00     0.031 C 
ATOM     34  C   UNL A   1      46.689  30.617  30.453  1.00  0.00     0.029 A 
ATOM     35  C   UNL A   1      45.353  30.336  30.216  1.00  0.00     0.049 A 
ATOM     36  H   UNL A   1      44.460  28.526  29.600  1.00  0.00     0.167 HD
ATOM     37  C   UNL A   1      42.937  30.860  30.075  1.00  0.00     0.074 A 
ATOM     38  C   UNL A   1      41.803  31.756  30.193  1.00  0.00     0.031 C 
ATOM     39  C   UNL A   1      44.218  31.214  30.334  1.00  0.00     0.031 A 
BRANCH  26  40
ATOM     40  C   UNL A   1      48.284  26.629  29.589  1.00  0.00    -0.014 A 
ATOM     41  C   UNL A   1      49.170  26.731  28.505  1.00  0.00     0.009 A 
ATOM     42  C   UNL A   1      48.760  26.127  30.810  1.00  0.00     0.009 A 
ATOM     43  C   UNL A   1      50.495  26.308  28.634  1.00  0.00     0.001 A 
ATOM     44  C   UNL A   1      50.091  25.728  30.944  1.00  0.00     0.001 A 
ATOM     45  C   UNL A   1      50.955  25.811  29.853  1.00  0.00     0.000 A 
ENDBRANCH  26  40
BRANCH  27  46
ATOM     46  C   UNL A   1      38.671  29.192  29.040  1.00  0.00    -0.014 A 
ATOM     47  C   UNL A   1      37.825  29.092  30.155  1.00  0.00     0.009 A 
ATOM     48  C   UNL A   1      38.149  29.680  27.832  1.00  0.00     0.009 A 
ATOM     49  C   UNL A   1      36.480  29.455  30.057  1.00  0.00     0.001 A 
ATOM     50  C   UNL A   1      36.811  30.068  27.744  1.00  0.00     0.001 A 
ATOM     51  C   UNL A   1      35.977  29.948  28.854  1.00  0.00     0.000 A 
ENDBRANCH  27  46
BRANCH  39  52
ATOM     52  C   UNL A   1      44.461  32.638  30.742  1.00  0.00    -0.014 A 
ATOM     53  C   UNL A   1      44.694  33.639  29.787  1.00  0.00     0.009 A 
ATOM     54  C   UNL A   1      44.440  32.984  32.103  1.00  0.00     0.009 A 
ATOM     55  C   UNL A   1      44.938  34.954  30.189  1.00  0.00     0.001 A 
ATOM     56  C   UNL A   1      44.659  34.304  32.499  1.00  0.00     0.001 A 
ATOM     57  C   UNL A   1      44.918  35.285  31.543  1.00  0.00     0.000 A 
ENDBRANCH  39  52
ENDBRANCH  13  14
ENDBRANCH   6   8
ENDBRANCH   3   4
ENDBRANCH   2   3
ENDBRANCH   1   2
BRANCH   1  58
ATOM     58  N   UNL A   1      35.725  18.511  24.620  1.00  0.00    -0.354 N 
ATOM     59  C   UNL A   1      34.368  18.457  24.504  1.00  0.00     0.244 C 
ATOM     60  H   UNL A   1      36.188  17.678  24.373  1.00  0.00     0.163 HD
ATOM     61  O   UNL A   1      33.884  17.375  24.163  1.00  0.00    -0.273 OA
BRANCH  59  62
ATOM     62  C   UNL A   1      33.490  19.691  24.805  1.00  0.00     0.197 C 
BRANCH  62  63
ATOM     63  N   UNL A   1      32.680  19.990  23.616  1.00  0.00    -0.340 N 
ATOM     64  C   UNL A   1      32.219  21.175  23.130  1.00  0.00     0.244 C 
ATOM     65  H   UNL A   1      32.431  19.202  23.081  1.00  0.00     0.164 HD
ATOM     66  O   UNL A   1      31.633  21.178  22.046  1.00  0.00    -0.273 OA
BRANCH  64  67
ATOM     67  C   UNL A   1      32.395  22.456  23.963  1.00  0.00     0.181 C 
BRANCH  67  68
ATOM     68  N   UNL A   1      32.705  23.578  23.074  1.00  0.00    -0.339 N 
ATOM     69  C   UNL A   1      33.859  24.303  22.951  1.00  0.00     0.251 C 
ATOM     70  H   UNL A   1      31.973  23.852  22.474  1.00  0.00     0.164 HD
ATOM     71  O   UNL A   1      33.930  25.259  22.187  1.00  0.00    -0.269 OA
BRANCH  69  72
ATOM     72  C   UNL A   1      35.018  23.962  23.797  1.00  0.00     0.040 A 
ATOM     73  C   UNL A   1      35.117  24.449  25.108  1.00  0.00     0.017 A 
ATOM     74  C   UNL A   1      36.012  23.131  23.267  1.00  0.00     0.017 A 
ATOM     75  C   UNL A   1      36.250  24.151  25.866  1.00  0.00     0.040 A 
ATOM     76  C   UNL A   1      37.138  22.833  24.033  1.00  0.00     0.040 A 
ATOM     77  C   UNL A   1      37.252  23.354  25.320  1.00  0.00     0.123 A 
ATOM     78  F   UNL A   1      38.346  23.087  26.044  1.00  0.00    -0.207 F 
ENDBRANCH  69  72
ENDBRANCH  67  68
BRANCH  67  79
ATOM     79  C   UNL A   1      31.178  22.716  24.863  1.00  0.00     0.101 C 
BRANCH  79  80
ATOM     80  S   UNL A   1      31.562  23.177  26.582  1.00  0.00    -0.177 SA
ATOM     81  H   UNL A   1      30.691  22.556  27.423  1.00  0.00     0.102 HD
ENDBRANCH  79  80
ENDBRANCH  67  79
ENDBRANCH  64  67
ENDBRANCH  62  63
BRANCH  62  82
ATOM     82  C   UNL A   1      32.558  19.484  26.004  1.00  0.00     0.191 C 
BRANCH  82  83
ATOM     83  O   UNL A   1      32.606  18.161  26.527  1.00  0.00    -0.394 OA
ATOM     84  H   UNL A   1      32.785  17.535  25.807  1.00  0.00     0.210 HD
ENDBRANCH  82  83
ENDBRANCH  62  82
ENDBRANCH  59  62
ENDBRANCH   1  58
TORSDOF 18
ENDMDL
MODEL 2
REMARK VINA RESULT:     -10.2      0.589      5.963
REMARK SMILES O=C(NCCCNC(=O)[C@H](CO)NC(=O)[C@H](CS)NC(=O)c1ccc(F)cc1)c1ccc(-c2c3nc(c(-c4ccccc4)c4ccc([nH]4)c(-c4ccccc4)c4nc(c(-c5ccccc5)c5ccc2[nH]5)C=C4)C=C3)cc1
REMARK SMILES IDX 6 1 5 2 4 3 3 4 1 5 2 6 29 8 30 9 76 10 31 11 75 12 32 13
REMARK SMILES IDX 33 14 34 15 69 16 35 17 74 18 68 19 70 20 36 21 73 22 67 23
REMARK SMILES IDX 66 24 37 26 59 27 44 28 58 29 45 30 48 31 57 32 71 33 46 34
REMARK SMILES IDX 47 35 56 37 72 38 49 39 38 40 39 41 43 42 40 43 42 44 41 45
REMARK SMILES IDX 60 46 61 47 65 48 62 49 64 50 63 51 50 52 51 53 55 54 52 55
REMARK SMILES IDX 54 56 53 57 7 58 8 59 9 61 10 62 13 63 14 64 15 66 16 67
REMARK SMILES IDX 19 68 20 69 21 71 22 72 23 73 28 74 24 75 27 76 25 77 26 78
REMARK SMILES IDX 17 79 18 80 11 82 12 83
REMARK H PARENT 3 7 70 25 48 36 7 60 13 65 19 70 18 81 12 84
REMARK Flexibility Score: inf
ROOT
ATOM      1  C   UNL A   1      36.440  19.606  25.016  1.00  0.00     0.117 C 
ENDROOT
BRANCH   1   2
ATOM      2  C   UNL A   1      37.899  19.837  24.631  1.00  0.00     0.042 C 
BRANCH   2   3
ATOM      3  C   UNL A   1      38.820  20.137  25.807  1.00  0.00     0.118 C 
BRANCH   3   4
ATOM      4  N   UNL A   1      39.970  19.252  25.862  1.00  0.00    -0.352 N 
ATOM      5  O   UNL A   1      42.137  18.659  25.941  1.00  0.00    -0.269 OA
ATOM      6  C   UNL A   1      41.290  19.528  26.134  1.00  0.00     0.251 C 
ATOM      7  H   UNL A   1      39.774  18.306  25.676  1.00  0.00     0.163 HD
BRANCH   6   8
ATOM      8  C   UNL A   1      41.708  20.862  26.625  1.00  0.00     0.039 A 
ATOM      9  C   UNL A   1      41.699  21.172  27.986  1.00  0.00     0.014 A 
ATOM     10  C   UNL A   1      42.161  21.812  25.703  1.00  0.00     0.014 A 
ATOM     11  C   UNL A   1      41.981  22.469  28.406  1.00  0.00     0.010 A 
ATOM     12  C   UNL A   1      42.537  23.089  26.138  1.00  0.00     0.010 A 
ATOM     13  C   UNL A   1      42.411  23.443  27.489  1.00  0.00    -0.014 A 
BRANCH  13  14
ATOM     14  C   UNL A   1      42.757  24.804  27.980  1.00  0.00     0.031 A 
ATOM     15  C   UNL A   1      41.691  25.835  28.235  1.00  0.00     0.074 A 
ATOM     16  C   UNL A   1      44.046  25.096  28.241  1.00  0.00     0.049 A 
ATOM     17  N   UNL A   1      41.817  27.042  28.732  1.00  0.00    -0.248 NA
ATOM     18  C   UNL A   1      40.309  25.477  27.881  1.00  0.00     0.031 C 
ATOM     19  C   UNL A   1      45.177  24.190  28.025  1.00  0.00     0.029 A 
ATOM     20  N   UNL A   1      44.620  26.221  28.775  1.00  0.00    -0.354 N 
ATOM     21  C   UNL A   1      40.542  27.593  28.726  1.00  0.00     0.074 A 
ATOM     22  C   UNL A   1      39.657  26.598  28.158  1.00  0.00     0.031 C 
ATOM     23  C   UNL A   1      46.297  24.769  28.484  1.00  0.00     0.029 A 
ATOM     24  C   UNL A   1      45.974  26.104  28.974  1.00  0.00     0.049 A 
ATOM     25  H   UNL A   1      44.110  27.034  28.994  1.00  0.00     0.167 HD
ATOM     26  C   UNL A   1      40.140  28.812  29.159  1.00  0.00     0.031 A 
ATOM     27  C   UNL A   1      46.862  26.970  29.494  1.00  0.00     0.031 A 
ATOM     28  C   UNL A   1      41.011  29.801  29.739  1.00  0.00     0.049 A 
ATOM     29  C   UNL A   1      46.390  28.314  29.964  1.00  0.00     0.074 A 
ATOM     30  C   UNL A   1      40.686  31.048  30.244  1.00  0.00     0.029 A 
ATOM     31  N   UNL A   1      42.381  29.655  29.889  1.00  0.00    -0.354 N 
ATOM     32  N   UNL A   1      45.173  28.799  29.988  1.00  0.00    -0.248 NA
ATOM     33  C   UNL A   1      47.417  29.228  30.481  1.00  0.00     0.031 C 
ATOM     34  C   UNL A   1      41.865  31.674  30.662  1.00  0.00     0.029 A 
ATOM     35  C   UNL A   1      42.919  30.796  30.460  1.00  0.00     0.049 A 
ATOM     36  H   UNL A   1      42.896  28.856  29.629  1.00  0.00     0.167 HD
ATOM     37  C   UNL A   1      45.284  30.068  30.539  1.00  0.00     0.074 A 
ATOM     38  C   UNL A   1      46.685  30.269  30.853  1.00  0.00     0.031 C 
ATOM     39  C   UNL A   1      44.313  30.986  30.763  1.00  0.00     0.031 A 
BRANCH  26  40
ATOM     40  C   UNL A   1      38.686  29.162  28.996  1.00  0.00    -0.014 A 
ATOM     41  C   UNL A   1      37.774  29.005  30.052  1.00  0.00     0.009 A 
ATOM     42  C   UNL A   1      38.232  29.697  27.781  1.00  0.00     0.009 A 
ATOM     43  C   UNL A   1      36.430  29.347  29.881  1.00  0.00     0.001 A 
ATOM     44  C   UNL A   1      36.895  30.062  27.621  1.00  0.00     0.001 A 
ATOM     45  C   UNL A   1      35.993  29.878  28.668  1.00  0.00     0.000 A 
ENDBRANCH  26  40
BRANCH  27  46
ATOM     46  C   UNL A   1      48.292  26.584  29.608  1.00  0.00    -0.014 A 
ATOM     47  C   UNL A   1      49.198  26.905  28.586  1.00  0.00     0.009 A 
ATOM     48  C   UNL A   1      48.758  25.902  30.742  1.00  0.00     0.009 A 
ATOM     49  C   UNL A   1      50.540  26.533  28.691  1.00  0.00     0.001 A 
ATOM     50  C   UNL A   1      50.105  25.556  30.856  1.00  0.00     0.001 A 
ATOM     51  C   UNL A   1      50.993  25.865  29.827  1.00  0.00     0.000 A 
ENDBRANCH  27  46
BRANCH  39  52
ATOM     52  C   UNL A   1      44.732  32.276  31.404  1.00  0.00    -0.014 A 
ATOM     53  C   UNL A   1      45.115  33.382  30.631  1.00  0.00     0.009 A 
ATOM     54  C   UNL A   1      44.728  32.389  32.804  1.00  0.00     0.009 A 
ATOM     55  C   UNL A   1      45.521  34.567  31.248  1.00  0.00     0.001 A 
ATOM     56  C   UNL A   1      45.112  33.583  33.417  1.00  0.00     0.001 A 
ATOM     57  C   UNL A   1      45.517  34.667  32.640  1.00  0.00     0.000 A 
ENDBRANCH  39  52
ENDBRANCH  13  14
ENDBRANCH   6   8
ENDBRANCH   3   4
ENDBRANCH   2   3
ENDBRANCH   1   2
BRANCH   1  58
ATOM     58  N   UNL A   1      35.933  18.350  24.495  1.00  0.00    -0.354 N 
ATOM     59  C   UNL A   1      34.659  17.875  24.391  1.00  0.00     0.244 C 
ATOM     60  H   UNL A   1      36.626  17.736  24.161  1.00  0.00     0.163 HD
ATOM     61  O   UNL A   1      34.530  16.731  23.950  1.00  0.00    -0.273 OA
BRANCH  59  62
ATOM     62  C   UNL A   1      33.449  18.731  24.823  1.00  0.00     0.197 C 
BRANCH  62  63
ATOM     63  N   UNL A   1      32.706  19.132  23.621  1.00  0.00    -0.340 N 
ATOM     64  C   UNL A   1      32.357  20.365  23.161  1.00  0.00     0.244 C 
ATOM     65  H   UNL A   1      32.411  18.383  23.053  1.00  0.00     0.164 HD
ATOM     66  O   UNL A   1      31.810  20.448  22.061  1.00  0.00    -0.273 OA
BRANCH  64  67
ATOM     67  C   UNL A   1      32.608  21.600  24.042  1.00  0.00     0.181 C 
BRANCH  67  68
ATOM     68  N   UNL A   1      32.548  22.808  23.217  1.00  0.00    -0.339 N 
ATOM     69  C   UNL A   1      33.466  23.813  23.070  1.00  0.00     0.251 C 
ATOM     70  H   UNL A   1      31.725  22.914  22.688  1.00  0.00     0.164 HD
ATOM     71  O   UNL A   1      33.229  24.793  22.372  1.00  0.00    -0.269 OA
BRANCH  69  72
ATOM     72  C   UNL A   1      34.740  23.740  23.811  1.00  0.00     0.040 A 
ATOM     73  C   UNL A   1      35.880  23.179  23.221  1.00  0.00     0.017 A 
ATOM     74  C   UNL A   1      34.787  24.255  25.111  1.00  0.00     0.017 A 
ATOM     75  C   UNL A   1      37.057  23.079  23.965  1.00  0.00     0.040 A 
ATOM     76  C   UNL A   1      35.968  24.156  25.846  1.00  0.00     0.040 A 
ATOM     77  C   UNL A   1      37.087  23.560  25.271  1.00  0.00     0.123 A 
ATOM     78  F   UNL A   1      38.212  23.443  25.987  1.00  0.00    -0.207 F 
ENDBRANCH  69  72
ENDBRANCH  67  68
BRANCH  67  79
ATOM     79  C   UNL A   1      31.652  21.641  25.243  1.00  0.00     0.101 C 
BRANCH  79  80
ATOM     80  S   UNL A   1      31.053  23.296  25.707  1.00  0.00    -0.177 SA
ATOM     81  H   UNL A   1      29.944  23.174  26.487  1.00  0.00     0.102 HD
ENDBRANCH  79  80
ENDBRANCH  67  79
ENDBRANCH  64  67
ENDBRANCH  62  63
BRANCH  62  82
ATOM     82  C   UNL A   1      32.501  17.989  25.772  1.00  0.00     0.191 C 
BRANCH  82  83
ATOM     83  O   UNL A   1      31.743  16.973  25.124  1.00  0.00    -0.394 OA
ATOM     84  H   UNL A   1      30.839  16.970  25.476  1.00  0.00     0.210 HD
ENDBRANCH  82  83
ENDBRANCH  62  82
ENDBRANCH  59  62
ENDBRANCH   1  58
TORSDOF 18
ENDMDL
MODEL 3
REMARK VINA RESULT:     -10.1      5.033      9.782
REMARK SMILES O=C(NCCCNC(=O)[C@H](CO)NC(=O)[C@H](CS)NC(=O)c1ccc(F)cc1)c1ccc(-c2c3nc(c(-c4ccccc4)c4ccc([nH]4)c(-c4ccccc4)c4nc(c(-c5ccccc5)c5ccc2[nH]5)C=C4)C=C3)cc1
REMARK SMILES IDX 6 1 5 2 4 3 3 4 1 5 2 6 29 8 30 9 76 10 31 11 75 12 32 13
REMARK SMILES IDX 33 14 34 15 69 16 35 17 74 18 68 19 70 20 36 21 73 22 67 23
REMARK SMILES IDX 66 24 37 26 59 27 44 28 58 29 45 30 48 31 57 32 71 33 46 34
REMARK SMILES IDX 47 35 56 37 72 38 49 39 38 40 39 41 43 42 40 43 42 44 41 45
REMARK SMILES IDX 60 46 61 47 65 48 62 49 64 50 63 51 50 52 51 53 55 54 52 55
REMARK SMILES IDX 54 56 53 57 7 58 8 59 9 61 10 62 13 63 14 64 15 66 16 67
REMARK SMILES IDX 19 68 20 69 21 71 22 72 23 73 28 74 24 75 27 76 25 77 26 78
REMARK SMILES IDX 17 79 18 80 11 82 12 83
REMARK H PARENT 3 7 70 25 48 36 7 60 13 65 19 70 18 81 12 84
REMARK Flexibility Score: inf
ROOT
ATOM      1  C   UNL A   1      31.084  31.229  25.438  1.00  0.00     0.117 C 
ENDROOT
BRANCH   1   2
ATOM      2  C   UNL A   1      31.030  32.312  26.511  1.00  0.00     0.042 C 
BRANCH   2   3
ATOM      3  C   UNL A   1      32.395  32.809  26.973  1.00  0.00     0.118 C 
BRANCH   3   4
ATOM      4  N   UNL A   1      32.335  34.119  27.598  1.00  0.00    -0.352 N 
ATOM      5  O   UNL A   1      32.753  35.718  29.122  1.00  0.00    -0.269 OA
ATOM      6  C   UNL A   1      33.095  34.654  28.611  1.00  0.00     0.251 C 
ATOM      7  H   UNL A   1      31.642  34.718  27.240  1.00  0.00     0.163 HD
BRANCH   6   8
ATOM      8  C   UNL A   1      34.300  33.954  29.116  1.00  0.00     0.039 A 
ATOM      9  C   UNL A   1      34.202  32.907  30.035  1.00  0.00     0.014 A 
ATOM     10  C   UNL A   1      35.557  34.327  28.626  1.00  0.00     0.014 A 
ATOM     11  C   UNL A   1      35.356  32.350  30.581  1.00  0.00     0.010 A 
ATOM     12  C   UNL A   1      36.712  33.700  29.107  1.00  0.00     0.010 A 
ATOM     13  C   UNL A   1      36.626  32.734  30.119  1.00  0.00    -0.014 A 
BRANCH  13  14
ATOM     14  C   UNL A   1      37.835  32.080  30.687  1.00  0.00     0.031 A 
ATOM     15  C   UNL A   1      38.328  32.415  32.068  1.00  0.00     0.074 A 
ATOM     16  C   UNL A   1      38.470  31.138  29.961  1.00  0.00     0.049 A 
ATOM     17  N   UNL A   1      39.321  31.883  32.739  1.00  0.00    -0.248 NA
ATOM     18  C   UNL A   1      37.627  33.487  32.792  1.00  0.00     0.031 C 
ATOM     19  C   UNL A   1      38.103  30.730  28.602  1.00  0.00     0.029 A 
ATOM     20  N   UNL A   1      39.534  30.332  30.272  1.00  0.00    -0.354 N 
ATOM     21  C   UNL A   1      39.380  32.570  33.944  1.00  0.00     0.074 A 
ATOM     22  C   UNL A   1      38.336  33.572  33.909  1.00  0.00     0.031 C 
ATOM     23  C   UNL A   1      38.883  29.706  28.225  1.00  0.00     0.029 A 
ATOM     24  C   UNL A   1      39.840  29.424  29.289  1.00  0.00     0.049 A 
ATOM     25  H   UNL A   1      40.031  30.398  31.120  1.00  0.00     0.167 HD
ATOM     26  C   UNL A   1      40.222  32.383  34.990  1.00  0.00     0.031 A 
ATOM     27  C   UNL A   1      40.783  28.465  29.243  1.00  0.00     0.031 A 
ATOM     28  C   UNL A   1      41.253  31.379  35.039  1.00  0.00     0.049 A 
ATOM     29  C   UNL A   1      41.702  28.281  30.414  1.00  0.00     0.074 A 
ATOM     30  C   UNL A   1      42.126  31.088  36.073  1.00  0.00     0.029 A 
ATOM     31  N   UNL A   1      41.551  30.503  34.007  1.00  0.00    -0.354 N 
ATOM     32  N   UNL A   1      41.713  28.913  31.561  1.00  0.00    -0.248 NA
ATOM     33  C   UNL A   1      42.737  27.246  30.281  1.00  0.00     0.031 C 
ATOM     34  C   UNL A   1      42.981  30.064  35.651  1.00  0.00     0.029 A 
ATOM     35  C   UNL A   1      42.608  29.685  34.371  1.00  0.00     0.049 A 
ATOM     36  H   UNL A   1      41.081  30.467  33.142  1.00  0.00     0.167 HD
ATOM     37  C   UNL A   1      42.744  28.342  32.295  1.00  0.00     0.074 A 
ATOM     38  C   UNL A   1      43.321  27.299  31.470  1.00  0.00     0.031 C 
ATOM     39  C   UNL A   1      43.175  28.656  33.541  1.00  0.00     0.031 A 
BRANCH  26  40
ATOM     40  C   UNL A   1      40.081  33.307  36.168  1.00  0.00    -0.014 A 
ATOM     41  C   UNL A   1      40.802  34.510  36.244  1.00  0.00     0.009 A 
ATOM     42  C   UNL A   1      39.180  32.989  37.196  1.00  0.00     0.009 A 
ATOM     43  C   UNL A   1      40.646  35.358  37.343  1.00  0.00     0.001 A 
ATOM     44  C   UNL A   1      39.008  33.850  38.281  1.00  0.00     0.001 A 
ATOM     45  C   UNL A   1      39.747  35.029  38.358  1.00  0.00     0.000 A 
ENDBRANCH  26  40
BRANCH  27  46
ATOM     46  C   UNL A   1      40.896  27.596  28.043  1.00  0.00    -0.014 A 
ATOM     47  C   UNL A   1      40.204  26.376  27.982  1.00  0.00     0.009 A 
ATOM     48  C   UNL A   1      41.686  27.986  26.952  1.00  0.00     0.009 A 
ATOM     49  C   UNL A   1      40.318  25.556  26.857  1.00  0.00     0.001 A 
ATOM     50  C   UNL A   1      41.777  27.177  25.818  1.00  0.00     0.001 A 
ATOM     51  C   UNL A   1      41.099  25.961  25.775  1.00  0.00     0.000 A 
ENDBRANCH  27  46
BRANCH  39  52
ATOM     52  C   UNL A   1      44.305  27.838  34.094  1.00  0.00    -0.014 A 
ATOM     53  C   UNL A   1      45.642  28.205  33.878  1.00  0.00     0.009 A 
ATOM     54  C   UNL A   1      44.026  26.692  34.856  1.00  0.00     0.009 A 
ATOM     55  C   UNL A   1      46.680  27.419  34.385  1.00  0.00     0.001 A 
ATOM     56  C   UNL A   1      45.065  25.923  35.381  1.00  0.00     0.001 A 
ATOM     57  C   UNL A   1      46.390  26.281  35.137  1.00  0.00     0.000 A 
ENDBRANCH  39  52
ENDBRANCH  13  14
ENDBRANCH   6   8
ENDBRANCH   3   4
ENDBRANCH   2   3
ENDBRANCH   1   2
BRANCH   1  58
ATOM     58  N   UNL A   1      29.943  31.294  24.543  1.00  0.00    -0.354 N 
ATOM     59  C   UNL A   1      29.489  30.411  23.609  1.00  0.00     0.244 C 
ATOM     60  H   UNL A   1      29.406  32.116  24.622  1.00  0.00     0.163 HD
ATOM     61  O   UNL A   1      28.509  30.761  22.947  1.00  0.00    -0.273 OA
BRANCH  59  62
ATOM     62  C   UNL A   1      30.184  29.050  23.390  1.00  0.00     0.197 C 
BRANCH  62  63
ATOM     63  N   UNL A   1      29.170  27.989  23.462  1.00  0.00    -0.340 N 
ATOM     64  C   UNL A   1      29.286  26.667  23.768  1.00  0.00     0.244 C 
ATOM     65  H   UNL A   1      28.254  28.283  23.252  1.00  0.00     0.164 HD
ATOM     66  O   UNL A   1      28.260  25.993  23.856  1.00  0.00    -0.273 OA
BRANCH  64  67
ATOM     67  C   UNL A   1      30.684  26.051  23.945  1.00  0.00     0.181 C 
BRANCH  67  68
ATOM     68  N   UNL A   1      30.700  25.215  25.148  1.00  0.00    -0.339 N 
ATOM     69  C   UNL A   1      31.318  25.426  26.350  1.00  0.00     0.251 C 
ATOM     70  H   UNL A   1      30.189  24.376  25.082  1.00  0.00     0.164 HD
ATOM     71  O   UNL A   1      31.276  24.586  27.242  1.00  0.00    -0.269 OA
BRANCH  69  72
ATOM     72  C   UNL A   1      32.099  26.662  26.553  1.00  0.00     0.040 A 
ATOM     73  C   UNL A   1      33.328  26.846  25.906  1.00  0.00     0.017 A 
ATOM     74  C   UNL A   1      31.579  27.650  27.396  1.00  0.00     0.017 A 
ATOM     75  C   UNL A   1      34.067  28.003  26.158  1.00  0.00     0.040 A 
ATOM     76  C   UNL A   1      32.320  28.806  27.638  1.00  0.00     0.040 A 
ATOM     77  C   UNL A   1      33.562  28.967  27.026  1.00  0.00     0.123 A 
ATOM     78  F   UNL A   1      34.283  30.065  27.279  1.00  0.00    -0.207 F 
ENDBRANCH  69  72
ENDBRANCH  67  68
BRANCH  67  79
ATOM     79  C   UNL A   1      31.133  25.301  22.682  1.00  0.00     0.101 C 
BRANCH  79  80
ATOM     80  S   UNL A   1      32.918  25.372  22.327  1.00  0.00    -0.177 SA
ATOM     81  H   UNL A   1      33.380  24.117  22.078  1.00  0.00     0.102 HD
ENDBRANCH  79  80
ENDBRANCH  67  79
ENDBRANCH  64  67
ENDBRANCH  62  63
BRANCH  62  82
ATOM     82  C   UNL A   1      30.909  28.959  22.043  1.00  0.00     0.191 C 
BRANCH  82  83
ATOM     83  O   UNL A   1      30.771  30.135  21.254  1.00  0.00    -0.394 OA
ATOM     84  H   UNL A   1      31.015  29.939  20.335  1.00  0.00     0.210 HD
ENDBRANCH  82  83
ENDBRANCH  62  82
ENDBRANCH  59  62
ENDBRANCH   1  58
TORSDOF 18
ENDMDL
