MODEL 1
REMARK VINA RESULT:     -12.8      0.000      0.000
REMARK SMILES C[C@H]1N=c2ccc(OC(F)(F)F)cc2=C1CCN1C(=O)c2ccc(C(=O)NCCCNC(=O)c3ccc(-c4c5nc(c(-c6ccccc6)c6ccc([nH]6)c(-c6ccccc6)c6nc(c(-c7ccccc7)c7ccc4[nH]7)C=C6)C=C5)cc3)cc2C1=O
REMARK SMILES IDX 25 1 26 2 27 3 24 5 18 6 19 7 84 8 20 9 21 10 83 11 85 12
REMARK SMILES IDX 22 13 82 14 23 15 17 16 16 17 15 18 1 19 2 20 3 21 4 22
REMARK SMILES IDX 14 23 5 24 13 25 6 26 7 27 8 28 9 29 10 30 11 31 12 32 28 33
REMARK SMILES IDX 29 34 30 35 31 36 32 37 33 39 34 40 35 41 81 42 36 43 80 44
REMARK SMILES IDX 37 45 38 46 39 47 74 48 40 49 79 50 73 51 75 52 41 53 78 54
REMARK SMILES IDX 72 55 71 56 42 58 64 59 49 60 63 61 50 62 53 63 62 64 76 65
REMARK SMILES IDX 51 66 52 67 61 69 77 70 54 71 43 72 44 73 48 74 45 75 47 76
REMARK SMILES IDX 46 77 65 78 66 79 70 80 67 81 69 82 68 83 55 84 56 85 60 86
REMARK SMILES IDX 57 87 59 88 58 89
REMARK H PARENT 27 4 31 38 75 57 53 68
REMARK Flexibility Score: inf
ROOT
ATOM      1  C   UNL A   1      34.286  35.578  28.716  1.00  0.00     0.251 C 
ATOM      2  O   UNL A   1      34.381  36.420  27.828  1.00  0.00    -0.269 OA
ATOM      3  N   UNL A   1      33.818  35.939  29.951  1.00  0.00    -0.352 N 
ATOM      4  H   UNL A   1      33.717  36.909  30.080  1.00  0.00     0.163 HD
ENDROOT
BRANCH   1   5
ATOM      5  C   UNL A   1      34.639  34.181  28.402  1.00  0.00     0.040 A 
ATOM      6  N   UNL A   1      34.329  29.821  27.040  1.00  0.00    -0.274 N 
ATOM      7  C   UNL A   1      35.568  30.204  27.491  1.00  0.00     0.261 C 
ATOM      8  C   UNL A   1      33.387  30.779  27.296  1.00  0.00     0.261 C 
ATOM      9  O   UNL A   1      36.606  29.580  27.516  1.00  0.00    -0.269 OA
ATOM     10  C   UNL A   1      35.434  31.589  27.939  1.00  0.00     0.053 A 
ATOM     11  C   UNL A   1      34.103  31.951  27.804  1.00  0.00     0.054 A 
ATOM     12  O   UNL A   1      32.183  30.751  27.118  1.00  0.00    -0.269 OA
ATOM     13  C   UNL A   1      36.404  32.485  28.343  1.00  0.00     0.015 A 
ATOM     14  C   UNL A   1      33.666  33.247  28.025  1.00  0.00     0.028 A 
ATOM     15  C   UNL A   1      35.991  33.798  28.586  1.00  0.00     0.015 A 
BRANCH   6  16
ATOM     16  C   UNL A   1      34.084  28.516  26.449  1.00  0.00     0.134 C 
BRANCH  16  17
ATOM     17  C   UNL A   1      32.772  27.815  26.848  1.00  0.00     0.056 C 
BRANCH  17  18
ATOM     18  C   UNL A   1      31.898  27.204  25.779  1.00  0.00    -0.035 C 
ATOM     19  C   UNL A   1      31.212  24.774  26.272  1.00  0.00     0.038 C 
ATOM     20  C   UNL A   1      31.998  25.743  25.386  1.00  0.00     0.129 C 
ATOM     21  N   UNL A   1      31.345  25.651  24.056  1.00  0.00    -0.277 NA
ATOM     22  C   UNL A   1      30.817  26.821  23.903  1.00  0.00     0.066 A 
ATOM     23  C   UNL A   1      31.120  27.854  24.906  1.00  0.00     0.005 A 
ATOM     24  C   UNL A   1      29.949  27.209  22.782  1.00  0.00     0.032 A 
ATOM     25  C   UNL A   1      30.694  29.208  24.704  1.00  0.00     0.057 A 
ATOM     26  C   UNL A   1      29.523  28.478  22.694  1.00  0.00     0.049 A 
ATOM     27  C   UNL A   1      29.927  29.518  23.638  1.00  0.00     0.130 A 
BRANCH  27  28
ATOM     28  O   UNL A   1      29.532  30.829  23.469  1.00  0.00    -0.406 OA
BRANCH  28  29
ATOM     29  C   UNL A   1      28.190  31.123  23.113  1.00  0.00     0.573 C 
ATOM     30  F   UNL A   1      27.326  30.263  23.692  1.00  0.00    -0.132 F 
ATOM     31  F   UNL A   1      27.871  32.387  23.463  1.00  0.00    -0.132 F 
ATOM     32  F   UNL A   1      28.060  31.013  21.772  1.00  0.00    -0.132 F 
ENDBRANCH  28  29
ENDBRANCH  27  28
ENDBRANCH  17  18
ENDBRANCH  16  17
ENDBRANCH   6  16
ENDBRANCH   1   5
BRANCH   3  33
ATOM     33  C   UNL A   1      33.444  35.134  31.104  1.00  0.00     0.118 C 
BRANCH  33  34
ATOM     34  C   UNL A   1      34.621  34.884  32.042  1.00  0.00     0.042 C 
BRANCH  34  35
ATOM     35  C   UNL A   1      34.825  33.429  32.468  1.00  0.00     0.118 C 
BRANCH  35  36
ATOM     36  N   UNL A   1      35.491  33.263  33.754  1.00  0.00    -0.352 N 
ATOM     37  C   UNL A   1      36.667  32.613  34.062  1.00  0.00     0.251 C 
ATOM     38  H   UNL A   1      35.030  33.678  34.518  1.00  0.00     0.163 HD
ATOM     39  O   UNL A   1      37.024  32.527  35.235  1.00  0.00    -0.269 OA
BRANCH  37  40
ATOM     40  C   UNL A   1      37.480  31.967  33.003  1.00  0.00     0.039 A 
ATOM     41  C   UNL A   1      38.257  30.838  33.266  1.00  0.00     0.014 A 
ATOM     42  C   UNL A   1      37.481  32.521  31.718  1.00  0.00     0.014 A 
ATOM     43  C   UNL A   1      39.178  30.396  32.318  1.00  0.00     0.010 A 
ATOM     44  C   UNL A   1      38.347  32.020  30.737  1.00  0.00     0.010 A 
ATOM     45  C   UNL A   1      39.255  30.999  31.051  1.00  0.00    -0.014 A 
BRANCH  45  46
ATOM     46  C   UNL A   1      40.319  30.574  30.099  1.00  0.00     0.031 A 
ATOM     47  C   UNL A   1      41.534  31.439  29.866  1.00  0.00     0.074 A 
ATOM     48  C   UNL A   1      40.241  29.369  29.501  1.00  0.00     0.049 A 
ATOM     49  N   UNL A   1      42.601  31.182  29.148  1.00  0.00    -0.248 NA
ATOM     50  C   UNL A   1      41.559  32.758  30.517  1.00  0.00     0.031 C 
ATOM     51  C   UNL A   1      39.129  28.429  29.646  1.00  0.00     0.029 A 
ATOM     52  N   UNL A   1      41.128  28.713  28.683  1.00  0.00    -0.354 N 
ATOM     53  C   UNL A   1      43.411  32.307  29.253  1.00  0.00     0.074 A 
ATOM     54  C   UNL A   1      42.701  33.263  30.073  1.00  0.00     0.031 C 
ATOM     55  C   UNL A   1      39.427  27.295  28.995  1.00  0.00     0.029 A 
ATOM     56  C   UNL A   1      40.725  27.444  28.343  1.00  0.00     0.049 A 
ATOM     57  H   UNL A   1      41.970  29.114  28.370  1.00  0.00     0.167 HD
ATOM     58  C   UNL A   1      44.641  32.521  28.729  1.00  0.00     0.031 A 
ATOM     59  C   UNL A   1      41.328  26.499  27.595  1.00  0.00     0.031 A 
ATOM     60  C   UNL A   1      45.362  31.571  27.924  1.00  0.00     0.049 A 
ATOM     61  C   UNL A   1      42.680  26.772  27.000  1.00  0.00     0.074 A 
ATOM     62  C   UNL A   1      46.626  31.699  27.373  1.00  0.00     0.029 A 
ATOM     63  N   UNL A   1      44.889  30.323  27.556  1.00  0.00    -0.354 N 
ATOM     64  N   UNL A   1      43.438  27.832  27.131  1.00  0.00    -0.248 NA
ATOM     65  C   UNL A   1      43.262  25.716  26.158  1.00  0.00     0.031 C 
ATOM     66  C   UNL A   1      46.896  30.549  26.627  1.00  0.00     0.029 A 
ATOM     67  C   UNL A   1      45.827  29.679  26.766  1.00  0.00     0.049 A 
ATOM     68  H   UNL A   1      44.017  29.949  27.818  1.00  0.00     0.167 HD
ATOM     69  C   UNL A   1      44.591  27.567  26.403  1.00  0.00     0.074 A 
ATOM     70  C   UNL A   1      44.441  26.238  25.848  1.00  0.00     0.031 C 
ATOM     71  C   UNL A   1      45.672  28.359  26.212  1.00  0.00     0.031 A 
BRANCH  58  72
ATOM     72  C   UNL A   1      45.305  33.844  29.002  1.00  0.00    -0.014 A 
ATOM     73  C   UNL A   1      45.070  34.930  28.144  1.00  0.00     0.009 A 
ATOM     74  C   UNL A   1      46.231  33.989  30.046  1.00  0.00     0.009 A 
ATOM     75  C   UNL A   1      45.757  36.133  28.320  1.00  0.00     0.001 A 
ATOM     76  C   UNL A   1      46.897  35.202  30.235  1.00  0.00     0.001 A 
ATOM     77  C   UNL A   1      46.667  36.270  29.366  1.00  0.00     0.000 A 
ENDBRANCH  58  72
BRANCH  59  78
ATOM     78  C   UNL A   1      40.651  25.192  27.392  1.00  0.00    -0.014 A 
ATOM     79  C   UNL A   1      41.176  24.022  27.962  1.00  0.00     0.009 A 
ATOM     80  C   UNL A   1      39.504  25.099  26.589  1.00  0.00     0.009 A 
ATOM     81  C   UNL A   1      40.585  22.782  27.711  1.00  0.00     0.001 A 
ATOM     82  C   UNL A   1      38.897  23.861  26.364  1.00  0.00     0.001 A 
ATOM     83  C   UNL A   1      39.443  22.703  26.916  1.00  0.00     0.000 A 
ENDBRANCH  59  78
BRANCH  71  84
ATOM     84  C   UNL A   1      46.801  27.822  25.378  1.00  0.00    -0.014 A 
ATOM     85  C   UNL A   1      46.801  28.028  23.988  1.00  0.00     0.009 A 
ATOM     86  C   UNL A   1      47.809  27.029  25.948  1.00  0.00     0.009 A 
ATOM     87  C   UNL A   1      47.780  27.442  23.185  1.00  0.00     0.001 A 
ATOM     88  C   UNL A   1      48.802  26.465  25.144  1.00  0.00     0.001 A 
ATOM     89  C   UNL A   1      48.782  26.664  23.764  1.00  0.00     0.000 A 
ENDBRANCH  71  84
ENDBRANCH  45  46
ENDBRANCH  37  40
ENDBRANCH  35  36
ENDBRANCH  34  35
ENDBRANCH  33  34
ENDBRANCH   3  33
TORSDOF 15
ENDMDL
MODEL 2
REMARK VINA RESULT:     -12.8      2.492      3.252
REMARK SMILES C[C@H]1N=c2ccc(OC(F)(F)F)cc2=C1CCN1C(=O)c2ccc(C(=O)NCCCNC(=O)c3ccc(-c4c5nc(c(-c6ccccc6)c6ccc([nH]6)c(-c6ccccc6)c6nc(c(-c7ccccc7)c7ccc4[nH]7)C=C6)C=C5)cc3)cc2C1=O
REMARK SMILES IDX 25 1 26 2 27 3 24 5 18 6 19 7 84 8 20 9 21 10 83 11 85 12
REMARK SMILES IDX 22 13 82 14 23 15 17 16 16 17 15 18 1 19 2 20 3 21 4 22
REMARK SMILES IDX 14 23 5 24 13 25 6 26 7 27 8 28 9 29 10 30 11 31 12 32 28 33
REMARK SMILES IDX 29 34 30 35 31 36 32 37 33 39 34 40 35 41 81 42 36 43 80 44
REMARK SMILES IDX 37 45 38 46 39 47 74 48 40 49 79 50 73 51 75 52 41 53 78 54
REMARK SMILES IDX 72 55 71 56 42 58 64 59 49 60 63 61 50 62 53 63 62 64 76 65
REMARK SMILES IDX 51 66 52 67 61 69 77 70 54 71 43 72 44 73 48 74 45 75 47 76
REMARK SMILES IDX 46 77 65 78 66 79 70 80 67 81 69 82 68 83 55 84 56 85 60 86
REMARK SMILES IDX 57 87 59 88 58 89
REMARK H PARENT 27 4 31 38 75 57 53 68
REMARK Flexibility Score: inf
ROOT
ATOM      1  C   UNL A   1      34.293  35.370  28.873  1.00  0.00     0.251 C 
ATOM      2  O   UNL A   1      34.311  36.213  27.982  1.00  0.00    -0.269 OA
ATOM      3  N   UNL A   1      33.925  35.727  30.142  1.00  0.00    -0.352 N 
ATOM      4  H   UNL A   1      33.831  36.697  30.281  1.00  0.00     0.163 HD
ENDROOT
BRANCH   1   5
ATOM      5  C   UNL A   1      34.626  33.975  28.530  1.00  0.00     0.040 A 
ATOM      6  N   UNL A   1      34.273  29.671  27.010  1.00  0.00    -0.274 N 
ATOM      7  C   UNL A   1      35.498  30.006  27.532  1.00  0.00     0.261 C 
ATOM      8  C   UNL A   1      33.344  30.645  27.253  1.00  0.00     0.261 C 
ATOM      9  O   UNL A   1      36.517  29.355  27.585  1.00  0.00    -0.269 OA
ATOM     10  C   UNL A   1      35.377  31.379  28.019  1.00  0.00     0.053 A 
ATOM     11  C   UNL A   1      34.064  31.780  27.834  1.00  0.00     0.054 A 
ATOM     12  O   UNL A   1      32.149  30.654  27.018  1.00  0.00    -0.269 OA
ATOM     13  C   UNL A   1      36.349  32.235  28.498  1.00  0.00     0.015 A 
ATOM     14  C   UNL A   1      33.649  33.079  28.076  1.00  0.00     0.028 A 
ATOM     15  C   UNL A   1      35.957  33.550  28.765  1.00  0.00     0.015 A 
BRANCH   6  16
ATOM     16  C   UNL A   1      34.025  28.392  26.365  1.00  0.00     0.134 C 
BRANCH  16  17
ATOM     17  C   UNL A   1      32.776  27.618  26.829  1.00  0.00     0.056 C 
BRANCH  17  18
ATOM     18  C   UNL A   1      32.048  26.724  25.855  1.00  0.00    -0.035 C 
ATOM     19  C   UNL A   1      30.875  28.005  23.957  1.00  0.00     0.038 C 
ATOM     20  C   UNL A   1      30.739  27.128  25.204  1.00  0.00     0.129 C 
ATOM     21  N   UNL A   1      30.141  25.862  24.711  1.00  0.00    -0.277 NA
ATOM     22  C   UNL A   1      31.086  24.999  24.890  1.00  0.00     0.066 A 
ATOM     23  C   UNL A   1      32.295  25.432  25.608  1.00  0.00     0.005 A 
ATOM     24  C   UNL A   1      31.034  23.597  24.450  1.00  0.00     0.032 A 
ATOM     25  C   UNL A   1      33.301  24.480  25.975  1.00  0.00     0.057 A 
ATOM     26  C   UNL A   1      32.048  22.776  24.762  1.00  0.00     0.049 A 
ATOM     27  C   UNL A   1      33.188  23.197  25.575  1.00  0.00     0.130 A 
BRANCH  27  28
ATOM     28  O   UNL A   1      34.173  22.302  25.943  1.00  0.00    -0.406 OA
BRANCH  28  29
ATOM     29  C   UNL A   1      35.472  22.409  25.380  1.00  0.00     0.573 C 
ATOM     30  F   UNL A   1      35.503  21.934  24.117  1.00  0.00    -0.132 F 
ATOM     31  F   UNL A   1      35.890  23.692  25.390  1.00  0.00    -0.132 F 
ATOM     32  F   UNL A   1      36.332  21.680  26.125  1.00  0.00    -0.132 F 
ENDBRANCH  28  29
ENDBRANCH  27  28
ENDBRANCH  17  18
ENDBRANCH  16  17
ENDBRANCH   6  16
ENDBRANCH   1   5
BRANCH   3  33
ATOM     33  C   UNL A   1      33.652  34.920  31.321  1.00  0.00     0.118 C 
BRANCH  33  34
ATOM     34  C   UNL A   1      34.909  34.645  32.141  1.00  0.00     0.042 C 
BRANCH  34  35
ATOM     35  C   UNL A   1      35.112  33.189  32.564  1.00  0.00     0.118 C 
BRANCH  35  36
ATOM     36  N   UNL A   1      35.781  33.020  33.848  1.00  0.00    -0.352 N 
ATOM     37  C   UNL A   1      36.947  32.353  34.157  1.00  0.00     0.251 C 
ATOM     38  H   UNL A   1      35.330  33.448  34.611  1.00  0.00     0.163 HD
ATOM     39  O   UNL A   1      37.307  32.268  35.328  1.00  0.00    -0.269 OA
BRANCH  37  40
ATOM     40  C   UNL A   1      37.745  31.686  33.098  1.00  0.00     0.039 A 
ATOM     41  C   UNL A   1      38.616  30.637  33.393  1.00  0.00     0.014 A 
ATOM     42  C   UNL A   1      37.632  32.139  31.779  1.00  0.00     0.014 A 
ATOM     43  C   UNL A   1      39.512  30.189  32.425  1.00  0.00     0.010 A 
ATOM     44  C   UNL A   1      38.475  31.626  30.785  1.00  0.00     0.010 A 
ATOM     45  C   UNL A   1      39.473  30.697  31.115  1.00  0.00    -0.014 A 
BRANCH  45  46
ATOM     46  C   UNL A   1      40.511  30.276  30.132  1.00  0.00     0.031 A 
ATOM     47  C   UNL A   1      41.726  31.135  29.880  1.00  0.00     0.074 A 
ATOM     48  C   UNL A   1      40.409  29.079  29.523  1.00  0.00     0.049 A 
ATOM     49  N   UNL A   1      42.773  30.879  29.133  1.00  0.00    -0.248 NA
ATOM     50  C   UNL A   1      41.776  32.445  30.546  1.00  0.00     0.031 C 
ATOM     51  C   UNL A   1      39.293  28.145  29.684  1.00  0.00     0.029 A 
ATOM     52  N   UNL A   1      41.270  28.426  28.675  1.00  0.00    -0.354 N 
ATOM     53  C   UNL A   1      43.594  31.996  29.232  1.00  0.00     0.074 A 
ATOM     54  C   UNL A   1      42.912  32.947  30.080  1.00  0.00     0.031 C 
ATOM     55  C   UNL A   1      39.566  27.018  29.011  1.00  0.00     0.029 A 
ATOM     56  C   UNL A   1      40.849  27.165  28.330  1.00  0.00     0.049 A 
ATOM     57  H   UNL A   1      42.107  28.825  28.346  1.00  0.00     0.167 HD
ATOM     58  C   UNL A   1      44.812  32.208  28.680  1.00  0.00     0.031 A 
ATOM     59  C   UNL A   1      41.426  26.225  27.556  1.00  0.00     0.031 A 
ATOM     60  C   UNL A   1      45.506  31.262  27.847  1.00  0.00     0.049 A 
ATOM     61  C   UNL A   1      42.765  26.494  26.931  1.00  0.00     0.074 A 
ATOM     62  C   UNL A   1      46.757  31.387  27.266  1.00  0.00     0.029 A 
ATOM     63  N   UNL A   1      45.015  30.022  27.476  1.00  0.00    -0.354 N 
ATOM     64  N   UNL A   1      43.534  27.548  27.056  1.00  0.00    -0.248 NA
ATOM     65  C   UNL A   1      43.319  25.444  26.063  1.00  0.00     0.031 C 
ATOM     66  C   UNL A   1      47.000  30.245  26.500  1.00  0.00     0.029 A 
ATOM     67  C   UNL A   1      45.928  29.381  26.654  1.00  0.00     0.049 A 
ATOM     68  H   UNL A   1      44.146  29.651  27.753  1.00  0.00     0.167 HD
ATOM     69  C   UNL A   1      44.667  27.283  26.296  1.00  0.00     0.074 A 
ATOM     70  C   UNL A   1      44.494  25.962  25.730  1.00  0.00     0.031 C 
ATOM     71  C   UNL A   1      45.750  28.069  26.089  1.00  0.00     0.031 A 
BRANCH  58  72
ATOM     72  C   UNL A   1      45.493  33.522  28.952  1.00  0.00    -0.014 A 
ATOM     73  C   UNL A   1      45.329  34.590  28.055  1.00  0.00     0.009 A 
ATOM     74  C   UNL A   1      46.367  33.675  30.039  1.00  0.00     0.009 A 
ATOM     75  C   UNL A   1      46.034  35.781  28.235  1.00  0.00     0.001 A 
ATOM     76  C   UNL A   1      47.052  34.877  30.230  1.00  0.00     0.001 A 
ATOM     77  C   UNL A   1      46.892  35.926  29.323  1.00  0.00     0.000 A 
ENDBRANCH  58  72
BRANCH  59  78
ATOM     78  C   UNL A   1      40.734  24.925  27.354  1.00  0.00    -0.014 A 
ATOM     79  C   UNL A   1      41.227  23.755  27.954  1.00  0.00     0.009 A 
ATOM     80  C   UNL A   1      39.607  24.838  26.523  1.00  0.00     0.009 A 
ATOM     81  C   UNL A   1      40.623  22.521  27.705  1.00  0.00     0.001 A 
ATOM     82  C   UNL A   1      38.986  23.606  26.300  1.00  0.00     0.001 A 
ATOM     83  C   UNL A   1      39.500  22.448  26.883  1.00  0.00     0.000 A 
ENDBRANCH  59  78
BRANCH  71  84
ATOM     84  C   UNL A   1      46.853  27.533  25.221  1.00  0.00    -0.014 A 
ATOM     85  C   UNL A   1      47.876  26.758  25.792  1.00  0.00     0.009 A 
ATOM     86  C   UNL A   1      46.938  27.877  23.863  1.00  0.00     0.009 A 
ATOM     87  C   UNL A   1      48.967  26.347  25.025  1.00  0.00     0.001 A 
ATOM     88  C   UNL A   1      48.018  27.441  23.092  1.00  0.00     0.001 A 
ATOM     89  C   UNL A   1      49.035  26.685  23.674  1.00  0.00     0.000 A 
ENDBRANCH  71  84
ENDBRANCH  45  46
ENDBRANCH  37  40
ENDBRANCH  35  36
ENDBRANCH  34  35
ENDBRANCH  33  34
ENDBRANCH   3  33
TORSDOF 15
ENDMDL
MODEL 3
REMARK VINA RESULT:     -12.3      4.272     10.333
REMARK SMILES C[C@H]1N=c2ccc(OC(F)(F)F)cc2=C1CCN1C(=O)c2ccc(C(=O)NCCCNC(=O)c3ccc(-c4c5nc(c(-c6ccccc6)c6ccc([nH]6)c(-c6ccccc6)c6nc(c(-c7ccccc7)c7ccc4[nH]7)C=C6)C=C5)cc3)cc2C1=O
REMARK SMILES IDX 25 1 26 2 27 3 24 5 18 6 19 7 84 8 20 9 21 10 83 11 85 12
REMARK SMILES IDX 22 13 82 14 23 15 17 16 16 17 15 18 1 19 2 20 3 21 4 22
REMARK SMILES IDX 14 23 5 24 13 25 6 26 7 27 8 28 9 29 10 30 11 31 12 32 28 33
REMARK SMILES IDX 29 34 30 35 31 36 32 37 33 39 34 40 35 41 81 42 36 43 80 44
REMARK SMILES IDX 37 45 38 46 39 47 74 48 40 49 79 50 73 51 75 52 41 53 78 54
REMARK SMILES IDX 72 55 71 56 42 58 64 59 49 60 63 61 50 62 53 63 62 64 76 65
REMARK SMILES IDX 51 66 52 67 61 69 77 70 54 71 43 72 44 73 48 74 45 75 47 76
REMARK SMILES IDX 46 77 65 78 66 79 70 80 67 81 69 82 68 83 55 84 56 85 60 86
REMARK SMILES IDX 57 87 59 88 58 89
REMARK H PARENT 27 4 31 38 75 57 53 68
REMARK Flexibility Score: inf
ROOT
ATOM      1  C   UNL A   1      43.713  22.732  28.233  1.00  0.00     0.251 C 
ATOM      2  O   UNL A   1      43.780  22.833  29.455  1.00  0.00    -0.269 OA
ATOM      3  N   UNL A   1      44.853  22.804  27.480  1.00  0.00    -0.352 N 
ATOM      4  H   UNL A   1      45.655  23.079  27.979  1.00  0.00     0.163 HD
ENDROOT
BRANCH   1   5
ATOM      5  C   UNL A   1      42.395  22.483  27.619  1.00  0.00     0.040 A 
ATOM      6  N   UNL A   1      38.179  23.142  25.960  1.00  0.00    -0.274 N 
ATOM      7  C   UNL A   1      38.639  21.851  25.888  1.00  0.00     0.261 C 
ATOM      8  C   UNL A   1      39.009  23.926  26.716  1.00  0.00     0.261 C 
ATOM      9  O   UNL A   1      38.123  20.876  25.387  1.00  0.00    -0.269 OA
ATOM     10  C   UNL A   1      39.953  21.844  26.528  1.00  0.00     0.053 A 
ATOM     11  C   UNL A   1      40.192  23.117  27.020  1.00  0.00     0.054 A 
ATOM     12  O   UNL A   1      38.878  25.084  27.065  1.00  0.00    -0.269 OA
ATOM     13  C   UNL A   1      40.898  20.839  26.595  1.00  0.00     0.015 A 
ATOM     14  C   UNL A   1      41.410  23.477  27.572  1.00  0.00     0.028 A 
ATOM     15  C   UNL A   1      42.133  21.169  27.160  1.00  0.00     0.015 A 
BRANCH   6  16
ATOM     16  C   UNL A   1      36.920  23.556  25.364  1.00  0.00     0.134 C 
BRANCH  16  17
ATOM     17  C   UNL A   1      35.645  23.270  26.180  1.00  0.00     0.056 C 
BRANCH  17  18
ATOM     18  C   UNL A   1      34.346  22.995  25.462  1.00  0.00    -0.035 C 
ATOM     19  C   UNL A   1      34.092  20.557  24.684  1.00  0.00     0.038 C 
ATOM     20  C   UNL A   1      34.250  22.029  24.298  1.00  0.00     0.129 C 
ATOM     21  N   UNL A   1      32.983  22.375  23.605  1.00  0.00    -0.277 NA
ATOM     22  C   UNL A   1      32.430  23.224  24.408  1.00  0.00     0.066 A 
ATOM     23  C   UNL A   1      33.204  23.685  25.571  1.00  0.00     0.005 A 
ATOM     24  C   UNL A   1      31.084  23.789  24.232  1.00  0.00     0.032 A 
ATOM     25  C   UNL A   1      32.706  24.742  26.402  1.00  0.00     0.057 A 
ATOM     26  C   UNL A   1      30.649  24.722  25.092  1.00  0.00     0.049 A 
ATOM     27  C   UNL A   1      31.477  25.250  26.175  1.00  0.00     0.130 A 
BRANCH  27  28
ATOM     28  O   UNL A   1      31.023  26.266  26.991  1.00  0.00    -0.406 OA
BRANCH  28  29
ATOM     29  C   UNL A   1      31.508  27.588  26.810  1.00  0.00     0.573 C 
ATOM     30  F   UNL A   1      31.052  28.418  27.773  1.00  0.00    -0.132 F 
ATOM     31  F   UNL A   1      32.857  27.604  26.802  1.00  0.00    -0.132 F 
ATOM     32  F   UNL A   1      31.075  28.052  25.616  1.00  0.00    -0.132 F 
ENDBRANCH  28  29
ENDBRANCH  27  28
ENDBRANCH  17  18
ENDBRANCH  16  17
ENDBRANCH   6  16
ENDBRANCH   1   5
BRANCH   3  33
ATOM     33  C   UNL A   1      45.082  22.545  26.066  1.00  0.00     0.118 C 
BRANCH  33  34
ATOM     34  C   UNL A   1      45.086  23.825  25.235  1.00  0.00     0.042 C 
BRANCH  34  35
ATOM     35  C   UNL A   1      44.485  25.055  25.919  1.00  0.00     0.118 C 
BRANCH  35  36
ATOM     36  N   UNL A   1      43.864  26.009  25.009  1.00  0.00    -0.352 N 
ATOM     37  C   UNL A   1      43.142  27.151  25.284  1.00  0.00     0.251 C 
ATOM     38  H   UNL A   1      43.975  25.806  24.053  1.00  0.00     0.163 HD
ATOM     39  O   UNL A   1      42.636  27.787  24.362  1.00  0.00    -0.269 OA
BRANCH  37  40
ATOM     40  C   UNL A   1      42.920  27.592  26.683  1.00  0.00     0.039 A 
ATOM     41  C   UNL A   1      42.093  26.878  27.550  1.00  0.00     0.014 A 
ATOM     42  C   UNL A   1      43.540  28.765  27.129  1.00  0.00     0.014 A 
ATOM     43  C   UNL A   1      41.726  27.437  28.773  1.00  0.00     0.010 A 
ATOM     44  C   UNL A   1      43.237  29.282  28.396  1.00  0.00     0.010 A 
ATOM     45  C   UNL A   1      42.271  28.659  29.200  1.00  0.00    -0.014 A 
BRANCH  45  46
ATOM     46  C   UNL A   1      41.780  29.282  30.462  1.00  0.00     0.031 A 
ATOM     47  C   UNL A   1      42.615  29.238  31.718  1.00  0.00     0.074 A 
ATOM     48  C   UNL A   1      40.618  29.963  30.464  1.00  0.00     0.049 A 
ATOM     49  N   UNL A   1      42.389  29.808  32.877  1.00  0.00    -0.248 NA
ATOM     50  C   UNL A   1      43.861  28.457  31.673  1.00  0.00     0.031 C 
ATOM     51  C   UNL A   1      39.717  30.094  29.318  1.00  0.00     0.029 A 
ATOM     52  N   UNL A   1      40.012  30.703  31.450  1.00  0.00    -0.354 N 
ATOM     53  C   UNL A   1      43.452  29.446  33.695  1.00  0.00     0.074 A 
ATOM     54  C   UNL A   1      44.308  28.579  32.916  1.00  0.00     0.031 C 
ATOM     55  C   UNL A   1      38.710  30.916  29.645  1.00  0.00     0.029 A 
ATOM     56  C   UNL A   1      38.862  31.330  31.037  1.00  0.00     0.049 A 
ATOM     57  H   UNL A   1      40.368  30.776  32.365  1.00  0.00     0.167 HD
ATOM     58  C   UNL A   1      43.705  29.813  34.974  1.00  0.00     0.031 A 
ATOM     59  C   UNL A   1      38.021  32.151  31.696  1.00  0.00     0.031 A 
ATOM     60  C   UNL A   1      42.869  30.687  35.753  1.00  0.00     0.049 A 
ATOM     61  C   UNL A   1      38.307  32.520  33.123  1.00  0.00     0.074 A 
ATOM     62  C   UNL A   1      43.065  31.129  37.051  1.00  0.00     0.029 A 
ATOM     63  N   UNL A   1      41.683  31.250  35.312  1.00  0.00    -0.354 N 
ATOM     64  N   UNL A   1      39.331  32.185  33.871  1.00  0.00    -0.248 NA
ATOM     65  C   UNL A   1      37.327  33.384  33.798  1.00  0.00     0.031 C 
ATOM     66  C   UNL A   1      41.971  31.918  37.413  1.00  0.00     0.029 A 
ATOM     67  C   UNL A   1      41.125  32.018  36.321  1.00  0.00     0.049 A 
ATOM     68  H   UNL A   1      41.295  31.124  34.416  1.00  0.00     0.167 HD
ATOM     69  C   UNL A   1      39.126  32.808  35.096  1.00  0.00     0.074 A 
ATOM     70  C   UNL A   1      37.891  33.556  34.986  1.00  0.00     0.031 C 
ATOM     71  C   UNL A   1      39.895  32.757  36.209  1.00  0.00     0.031 A 
BRANCH  58  72
ATOM     72  C   UNL A   1      44.945  29.270  35.632  1.00  0.00    -0.014 A 
ATOM     73  C   UNL A   1      44.857  28.134  36.453  1.00  0.00     0.009 A 
ATOM     74  C   UNL A   1      46.176  29.933  35.518  1.00  0.00     0.009 A 
ATOM     75  C   UNL A   1      45.974  27.679  37.156  1.00  0.00     0.001 A 
ATOM     76  C   UNL A   1      47.299  29.459  36.201  1.00  0.00     0.001 A 
ATOM     77  C   UNL A   1      47.195  28.339  37.027  1.00  0.00     0.000 A 
ENDBRANCH  58  72
BRANCH  59  78
ATOM     78  C   UNL A   1      36.834  32.697  30.987  1.00  0.00    -0.014 A 
ATOM     79  C   UNL A   1      36.961  33.804  30.134  1.00  0.00     0.009 A 
ATOM     80  C   UNL A   1      35.561  32.145  31.197  1.00  0.00     0.009 A 
ATOM     81  C   UNL A   1      35.836  34.365  29.526  1.00  0.00     0.001 A 
ATOM     82  C   UNL A   1      34.441  32.689  30.563  1.00  0.00     0.001 A 
ATOM     83  C   UNL A   1      34.578  33.804  29.737  1.00  0.00     0.000 A 
ENDBRANCH  59  78
BRANCH  71  84
ATOM     84  C   UNL A   1      39.445  33.539  37.412  1.00  0.00    -0.014 A 
ATOM     85  C   UNL A   1      39.816  34.887  37.545  1.00  0.00     0.009 A 
ATOM     86  C   UNL A   1      38.744  32.919  38.457  1.00  0.00     0.009 A 
ATOM     87  C   UNL A   1      39.503  35.597  38.706  1.00  0.00     0.001 A 
ATOM     88  C   UNL A   1      38.410  33.640  39.606  1.00  0.00     0.001 A 
ATOM     89  C   UNL A   1      38.797  34.973  39.734  1.00  0.00     0.000 A 
ENDBRANCH  71  84
ENDBRANCH  45  46
ENDBRANCH  37  40
ENDBRANCH  35  36
ENDBRANCH  34  35
ENDBRANCH  33  34
ENDBRANCH   3  33
TORSDOF 15
ENDMDL
