MODEL 1
REMARK VINA RESULT:     -10.7      0.000      0.000
REMARK SMILES CCSc1nc(CC(=O)N[C@@H](C(=O)NCCCNC(=O)c2ccc(-c3c4nc(c(-c5ccccc5)c5ccc([nH]5)c(-c5ccccc5)c5nc(c(-c6ccccc6)c6ccc3[nH]6)C=C5)C=C4)cc2)C2=C(C)N=N[C@@H]2C)cs1
REMARK SMILES IDX 12 1 13 2 14 3 11 5 10 6 8 7 9 8 7 10 6 11 4 12 5 13 77 14
REMARK SMILES IDX 76 15 3 16 2 17 1 18 69 19 70 20 74 21 71 22 72 23 73 24
REMARK SMILES IDX 75 25 15 26 16 27 17 28 18 29 19 30 20 32 21 33 22 34 68 35
REMARK SMILES IDX 23 36 67 37 24 38 25 39 26 40 61 41 27 42 66 43 60 44 62 45
REMARK SMILES IDX 28 46 65 47 59 48 58 49 29 51 51 52 36 53 50 54 37 55 40 56
REMARK SMILES IDX 49 57 63 58 38 59 39 60 48 62 64 63 41 64 30 65 31 66 35 67
REMARK SMILES IDX 32 68 34 69 33 70 52 71 53 72 57 73 54 74 56 75 55 76 42 77
REMARK SMILES IDX 43 78 47 79 44 80 46 81 45 82
REMARK H PARENT 14 4 10 9 18 31 62 50 40 61
REMARK Flexibility Score: inf
ROOT
ATOM      1  C   UNL A   1      33.186  25.846  24.899  1.00  0.00     0.247 C 
ATOM      2  O   UNL A   1      34.415  25.793  24.790  1.00  0.00    -0.272 OA
ATOM      3  N   UNL A   1      32.727  26.104  26.165  1.00  0.00    -0.354 N 
ATOM      4  H   UNL A   1      33.171  25.643  26.913  1.00  0.00     0.163 HD
ENDROOT
BRANCH   1   5
ATOM      5  C   UNL A   1      32.214  25.692  23.654  1.00  0.00     0.202 C 
BRANCH   5   6
ATOM      6  N   UNL A   1      32.851  25.076  22.485  1.00  0.00    -0.340 N 
ATOM      7  C   UNL A   1      32.885  23.768  22.086  1.00  0.00     0.226 C 
ATOM      8  O   UNL A   1      33.681  23.469  21.190  1.00  0.00    -0.275 OA
ATOM      9  H   UNL A   1      33.331  25.702  21.896  1.00  0.00     0.164 HD
BRANCH   7  10
ATOM     10  C   UNL A   1      31.989  22.707  22.710  1.00  0.00     0.157 C 
BRANCH  10  11
ATOM     11  C   UNL A   1      32.699  21.788  23.651  1.00  0.00     0.062 A 
ATOM     12  C   UNL A   1      34.308  21.351  25.122  1.00  0.00     0.150 A 
ATOM     13  N   UNL A   1      33.838  22.262  24.298  1.00  0.00    -0.234 NA
ATOM     14  S   UNL A   1      33.469  19.858  25.125  1.00  0.00    -0.116 S 
ATOM     15  C   UNL A   1      32.368  20.483  23.966  1.00  0.00     0.092 A 
BRANCH  12  16
ATOM     16  S   UNL A   1      35.650  21.706  26.181  1.00  0.00    -0.096 SA
BRANCH  16  17
ATOM     17  C   UNL A   1      37.076  21.257  25.152  1.00  0.00     0.074 C 
ATOM     18  C   UNL A   1      38.361  21.886  25.664  1.00  0.00     0.016 C 
ENDBRANCH  16  17
ENDBRANCH  12  16
ENDBRANCH  10  11
ENDBRANCH   7  10
ENDBRANCH   5   6
BRANCH   5  19
ATOM     19  C   UNL A   1      31.674  27.028  23.203  1.00  0.00     0.011 C 
ATOM     20  C   UNL A   1      32.283  28.216  23.075  1.00  0.00     0.064 C 
ATOM     21  C   UNL A   1      30.287  27.270  22.684  1.00  0.00     0.156 C 
ATOM     22  C   UNL A   1      33.678  28.620  23.394  1.00  0.00     0.069 C 
ATOM     23  N   UNL A   1      31.460  29.184  22.554  1.00  0.00    -0.160 NA
ATOM     24  N   UNL A   1      30.323  28.708  22.305  1.00  0.00    -0.181 NA
ATOM     25  C   UNL A   1      29.168  27.090  23.702  1.00  0.00     0.040 C 
ENDBRANCH   5  19
ENDBRANCH   1   5
BRANCH   3  26
ATOM     26  C   UNL A   1      31.645  26.998  26.480  1.00  0.00     0.117 C 
BRANCH  26  27
ATOM     27  C   UNL A   1      31.990  28.113  27.441  1.00  0.00     0.042 C 
BRANCH  27  28
ATOM     28  C   UNL A   1      33.354  28.721  27.170  1.00  0.00     0.118 C 
BRANCH  28  29
ATOM     29  N   UNL A   1      33.444  30.121  27.578  1.00  0.00    -0.352 N 
ATOM     30  C   UNL A   1      34.461  30.814  28.193  1.00  0.00     0.251 C 
ATOM     31  H   UNL A   1      32.644  30.658  27.381  1.00  0.00     0.163 HD
ATOM     32  O   UNL A   1      34.272  31.958  28.577  1.00  0.00    -0.269 OA
BRANCH  30  33
ATOM     33  C   UNL A   1      35.767  30.160  28.410  1.00  0.00     0.039 A 
ATOM     34  C   UNL A   1      36.713  30.174  27.381  1.00  0.00     0.014 A 
ATOM     35  C   UNL A   1      36.064  29.554  29.631  1.00  0.00     0.014 A 
ATOM     36  C   UNL A   1      37.989  29.659  27.612  1.00  0.00     0.010 A 
ATOM     37  C   UNL A   1      37.361  29.143  29.894  1.00  0.00     0.010 A 
ATOM     38  C   UNL A   1      38.337  29.184  28.887  1.00  0.00    -0.014 A 
BRANCH  38  39
ATOM     39  C   UNL A   1      39.702  28.700  29.200  1.00  0.00     0.031 A 
ATOM     40  C   UNL A   1      40.666  29.611  29.912  1.00  0.00     0.074 A 
ATOM     41  C   UNL A   1      40.100  27.487  28.772  1.00  0.00     0.049 A 
ATOM     42  N   UNL A   1      41.939  29.439  30.155  1.00  0.00    -0.248 NA
ATOM     43  C   UNL A   1      40.134  30.903  30.379  1.00  0.00     0.031 C 
ATOM     44  C   UNL A   1      39.272  26.525  28.040  1.00  0.00     0.029 A 
ATOM     45  N   UNL A   1      41.314  26.858  28.885  1.00  0.00    -0.354 N 
ATOM     46  C   UNL A   1      42.363  30.607  30.776  1.00  0.00     0.074 A 
ATOM     47  C   UNL A   1      41.229  31.503  30.820  1.00  0.00     0.031 C 
ATOM     48  C   UNL A   1      39.993  25.417  27.800  1.00  0.00     0.029 A 
ATOM     49  C   UNL A   1      41.343  25.608  28.316  1.00  0.00     0.049 A 
ATOM     50  H   UNL A   1      42.093  27.265  29.332  1.00  0.00     0.167 HD
ATOM     51  C   UNL A   1      43.581  30.899  31.290  1.00  0.00     0.031 A 
ATOM     52  C   UNL A   1      42.350  24.721  28.215  1.00  0.00     0.031 A 
ATOM     53  C   UNL A   1      44.698  29.997  31.272  1.00  0.00     0.049 A 
ATOM     54  C   UNL A   1      43.694  25.075  28.788  1.00  0.00     0.074 A 
ATOM     55  C   UNL A   1      45.963  30.181  31.801  1.00  0.00     0.029 A 
ATOM     56  N   UNL A   1      44.677  28.732  30.708  1.00  0.00    -0.354 N 
ATOM     57  N   UNL A   1      44.068  26.169  29.407  1.00  0.00    -0.248 NA
ATOM     58  C   UNL A   1      44.755  24.065  28.654  1.00  0.00     0.031 C 
ATOM     59  C   UNL A   1      46.719  29.037  31.528  1.00  0.00     0.029 A 
ATOM     60  C   UNL A   1      45.908  28.125  30.870  1.00  0.00     0.049 A 
ATOM     61  H   UNL A   1      43.901  28.326  30.257  1.00  0.00     0.167 HD
ATOM     62  C   UNL A   1      45.393  25.964  29.769  1.00  0.00     0.074 A 
ATOM     63  C   UNL A   1      45.754  24.639  29.310  1.00  0.00     0.031 C 
ATOM     64  C   UNL A   1      46.237  26.797  30.422  1.00  0.00     0.031 A 
BRANCH  51  65
ATOM     65  C   UNL A   1      43.754  32.248  31.928  1.00  0.00    -0.014 A 
ATOM     66  C   UNL A   1      43.483  32.442  33.291  1.00  0.00     0.009 A 
ATOM     67  C   UNL A   1      44.221  33.331  31.167  1.00  0.00     0.009 A 
ATOM     68  C   UNL A   1      43.642  33.701  33.874  1.00  0.00     0.001 A 
ATOM     69  C   UNL A   1      44.407  34.583  31.758  1.00  0.00     0.001 A 
ATOM     70  C   UNL A   1      44.109  34.769  33.107  1.00  0.00     0.000 A 
ENDBRANCH  51  65
BRANCH  52  71
ATOM     71  C   UNL A   1      42.132  23.401  27.566  1.00  0.00    -0.014 A 
ATOM     72  C   UNL A   1      41.602  22.330  28.302  1.00  0.00     0.009 A 
ATOM     73  C   UNL A   1      42.478  23.193  26.222  1.00  0.00     0.009 A 
ATOM     74  C   UNL A   1      41.459  21.070  27.718  1.00  0.00     0.001 A 
ATOM     75  C   UNL A   1      42.306  21.940  25.632  1.00  0.00     0.001 A 
ATOM     76  C   UNL A   1      41.809  20.876  26.384  1.00  0.00     0.000 A 
ENDBRANCH  52  71
BRANCH  64  77
ATOM     77  C   UNL A   1      47.612  26.279  30.730  1.00  0.00    -0.014 A 
ATOM     78  C   UNL A   1      48.646  26.348  29.785  1.00  0.00     0.009 A 
ATOM     79  C   UNL A   1      47.883  25.754  32.004  1.00  0.00     0.009 A 
ATOM     80  C   UNL A   1      49.919  25.873  30.101  1.00  0.00     0.001 A 
ATOM     81  C   UNL A   1      49.163  25.306  32.326  1.00  0.00     0.001 A 
ATOM     82  C   UNL A   1      50.179  25.358  31.372  1.00  0.00     0.000 A 
ENDBRANCH  64  77
ENDBRANCH  38  39
ENDBRANCH  30  33
ENDBRANCH  28  29
ENDBRANCH  27  28
ENDBRANCH  26  27
ENDBRANCH   3  26
TORSDOF 16
ENDMDL
MODEL 2
REMARK VINA RESULT:     -10.6      2.909      8.017
REMARK SMILES CCSc1nc(CC(=O)N[C@@H](C(=O)NCCCNC(=O)c2ccc(-c3c4nc(c(-c5ccccc5)c5ccc([nH]5)c(-c5ccccc5)c5nc(c(-c6ccccc6)c6ccc3[nH]6)C=C5)C=C4)cc2)C2=C(C)N=N[C@@H]2C)cs1
REMARK SMILES IDX 12 1 13 2 14 3 11 5 10 6 8 7 9 8 7 10 6 11 4 12 5 13 77 14
REMARK SMILES IDX 76 15 3 16 2 17 1 18 69 19 70 20 74 21 71 22 72 23 73 24
REMARK SMILES IDX 75 25 15 26 16 27 17 28 18 29 19 30 20 32 21 33 22 34 68 35
REMARK SMILES IDX 23 36 67 37 24 38 25 39 26 40 61 41 27 42 66 43 60 44 62 45
REMARK SMILES IDX 28 46 65 47 59 48 58 49 29 51 51 52 36 53 50 54 37 55 40 56
REMARK SMILES IDX 49 57 63 58 38 59 39 60 48 62 64 63 41 64 30 65 31 66 35 67
REMARK SMILES IDX 32 68 34 69 33 70 52 71 53 72 57 73 54 74 56 75 55 76 42 77
REMARK SMILES IDX 43 78 47 79 44 80 46 81 45 82
REMARK H PARENT 14 4 10 9 18 31 62 50 40 61
REMARK Flexibility Score: inf
ROOT
ATOM      1  C   UNL A   1      33.898  21.601  26.325  1.00  0.00     0.247 C 
ATOM      2  O   UNL A   1      33.653  20.952  27.346  1.00  0.00    -0.272 OA
ATOM      3  N   UNL A   1      35.223  21.655  25.977  1.00  0.00    -0.354 N 
ATOM      4  H   UNL A   1      35.879  21.791  26.698  1.00  0.00     0.163 HD
ENDROOT
BRANCH   1   5
ATOM      5  C   UNL A   1      32.757  22.266  25.445  1.00  0.00     0.202 C 
BRANCH   5   6
ATOM      6  N   UNL A   1      31.464  22.356  26.132  1.00  0.00    -0.340 N 
ATOM      7  C   UNL A   1      30.924  23.377  26.866  1.00  0.00     0.226 C 
ATOM      8  O   UNL A   1      29.917  23.123  27.535  1.00  0.00    -0.275 OA
ATOM      9  H   UNL A   1      30.896  21.556  26.053  1.00  0.00     0.164 HD
BRANCH   7  10
ATOM     10  C   UNL A   1      31.527  24.775  26.876  1.00  0.00     0.157 C 
BRANCH  10  11
ATOM     11  C   UNL A   1      31.105  25.626  25.722  1.00  0.00     0.062 A 
ATOM     12  C   UNL A   1      30.935  27.591  24.695  1.00  0.00     0.150 A 
ATOM     13  N   UNL A   1      31.315  27.000  25.807  1.00  0.00    -0.234 NA
ATOM     14  S   UNL A   1      30.244  26.561  23.514  1.00  0.00    -0.116 S 
ATOM     15  C   UNL A   1      30.503  25.214  24.547  1.00  0.00     0.092 A 
BRANCH  12  16
ATOM     16  S   UNL A   1      31.207  29.297  24.447  1.00  0.00    -0.096 SA
BRANCH  16  17
ATOM     17  C   UNL A   1      32.594  29.630  25.569  1.00  0.00     0.074 C 
ATOM     18  C   UNL A   1      32.159  30.444  26.777  1.00  0.00     0.016 C 
ENDBRANCH  16  17
ENDBRANCH  12  16
ENDBRANCH  10  11
ENDBRANCH   7  10
ENDBRANCH   5   6
BRANCH   5  19
ATOM     19  C   UNL A   1      32.521  21.496  24.169  1.00  0.00     0.011 C 
ATOM     20  C   UNL A   1      32.481  20.174  23.942  1.00  0.00     0.064 C 
ATOM     21  C   UNL A   1      32.162  22.105  22.844  1.00  0.00     0.156 C 
ATOM     22  C   UNL A   1      32.718  19.034  24.865  1.00  0.00     0.069 C 
ATOM     23  N   UNL A   1      32.156  19.865  22.644  1.00  0.00    -0.160 NA
ATOM     24  N   UNL A   1      31.956  20.913  21.978  1.00  0.00    -0.181 NA
ATOM     25  C   UNL A   1      33.248  22.958  22.202  1.00  0.00     0.040 C 
ENDBRANCH   5  19
ENDBRANCH   1   5
BRANCH   3  26
ATOM     26  C   UNL A   1      35.726  21.528  24.634  1.00  0.00     0.117 C 
BRANCH  26  27
ATOM     27  C   UNL A   1      36.447  22.745  24.099  1.00  0.00     0.042 C 
BRANCH  27  28
ATOM     28  C   UNL A   1      37.329  23.411  25.140  1.00  0.00     0.118 C 
BRANCH  28  29
ATOM     29  N   UNL A   1      38.510  22.620  25.474  1.00  0.00    -0.352 N 
ATOM     30  C   UNL A   1      39.657  22.960  26.154  1.00  0.00     0.251 C 
ATOM     31  H   UNL A   1      38.482  21.688  25.159  1.00  0.00     0.163 HD
ATOM     32  O   UNL A   1      40.592  22.176  26.199  1.00  0.00    -0.269 OA
BRANCH  30  33
ATOM     33  C   UNL A   1      39.759  24.283  26.802  1.00  0.00     0.039 A 
ATOM     34  C   UNL A   1      39.234  24.453  28.086  1.00  0.00     0.014 A 
ATOM     35  C   UNL A   1      40.388  25.344  26.152  1.00  0.00     0.014 A 
ATOM     36  C   UNL A   1      39.423  25.664  28.752  1.00  0.00     0.010 A 
ATOM     37  C   UNL A   1      40.670  26.507  26.854  1.00  0.00     0.010 A 
ATOM     38  C   UNL A   1      40.186  26.683  28.159  1.00  0.00    -0.014 A 
BRANCH  38  39
ATOM     39  C   UNL A   1      40.479  27.956  28.859  1.00  0.00     0.031 A 
ATOM     40  C   UNL A   1      41.793  28.122  29.574  1.00  0.00     0.074 A 
ATOM     41  C   UNL A   1      39.539  28.918  28.927  1.00  0.00     0.049 A 
ATOM     42  N   UNL A   1      42.189  29.091  30.359  1.00  0.00    -0.248 NA
ATOM     43  C   UNL A   1      42.777  27.037  29.414  1.00  0.00     0.031 C 
ATOM     44  C   UNL A   1      38.212  28.862  28.307  1.00  0.00     0.029 A 
ATOM     45  N   UNL A   1      39.556  30.134  29.561  1.00  0.00    -0.354 N 
ATOM     46  C   UNL A   1      43.452  28.718  30.804  1.00  0.00     0.074 A 
ATOM     47  C   UNL A   1      43.731  27.411  30.252  1.00  0.00     0.031 C 
ATOM     48  C   UNL A   1      37.558  30.006  28.564  1.00  0.00     0.029 A 
ATOM     49  C   UNL A   1      38.395  30.854  29.404  1.00  0.00     0.049 A 
ATOM     50  H   UNL A   1      40.327  30.462  30.079  1.00  0.00     0.167 HD
ATOM     51  C   UNL A   1      44.314  29.413  31.582  1.00  0.00     0.031 A 
ATOM     52  C   UNL A   1      38.046  32.059  29.892  1.00  0.00     0.031 A 
ATOM     53  C   UNL A   1      44.048  30.724  32.105  1.00  0.00     0.049 A 
ATOM     54  C   UNL A   1      39.021  32.805  30.759  1.00  0.00     0.074 A 
ATOM     55  C   UNL A   1      44.871  31.530  32.870  1.00  0.00     0.029 A 
ATOM     56  N   UNL A   1      42.871  31.425  31.902  1.00  0.00    -0.354 N 
ATOM     57  N   UNL A   1      40.227  32.456  31.139  1.00  0.00    -0.248 NA
ATOM     58  C   UNL A   1      38.588  34.118  31.259  1.00  0.00     0.031 C 
ATOM     59  C   UNL A   1      44.178  32.710  33.158  1.00  0.00     0.029 A 
ATOM     60  C   UNL A   1      42.942  32.654  32.532  1.00  0.00     0.049 A 
ATOM     61  H   UNL A   1      42.098  31.098  31.388  1.00  0.00     0.167 HD
ATOM     62  C   UNL A   1      40.709  33.520  31.890  1.00  0.00     0.074 A 
ATOM     63  C   UNL A   1      39.672  34.530  31.902  1.00  0.00     0.031 C 
ATOM     64  C   UNL A   1      41.904  33.651  32.513  1.00  0.00     0.031 A 
BRANCH  51  65
ATOM     65  C   UNL A   1      45.634  28.767  31.895  1.00  0.00    -0.014 A 
ATOM     66  C   UNL A   1      46.749  28.962  31.064  1.00  0.00     0.009 A 
ATOM     67  C   UNL A   1      45.775  27.979  33.047  1.00  0.00     0.009 A 
ATOM     68  C   UNL A   1      47.969  28.352  31.361  1.00  0.00     0.001 A 
ATOM     69  C   UNL A   1      47.004  27.393  33.358  1.00  0.00     0.001 A 
ATOM     70  C   UNL A   1      48.097  27.573  32.511  1.00  0.00     0.000 A 
ENDBRANCH  51  65
BRANCH  52  71
ATOM     71  C   UNL A   1      36.725  32.652  29.561  1.00  0.00    -0.014 A 
ATOM     72  C   UNL A   1      36.559  33.398  28.384  1.00  0.00     0.009 A 
ATOM     73  C   UNL A   1      35.632  32.507  30.430  1.00  0.00     0.009 A 
ATOM     74  C   UNL A   1      35.339  34.016  28.101  1.00  0.00     0.001 A 
ATOM     75  C   UNL A   1      34.404  33.102  30.130  1.00  0.00     0.001 A 
ATOM     76  C   UNL A   1      34.263  33.867  28.973  1.00  0.00     0.000 A 
ENDBRANCH  52  71
BRANCH  64  77
ATOM     77  C   UNL A   1      42.175  34.952  33.211  1.00  0.00    -0.014 A 
ATOM     78  C   UNL A   1      41.661  35.215  34.489  1.00  0.00     0.009 A 
ATOM     79  C   UNL A   1      42.996  35.909  32.593  1.00  0.00     0.009 A 
ATOM     80  C   UNL A   1      41.940  36.427  35.123  1.00  0.00     0.001 A 
ATOM     81  C   UNL A   1      43.296  37.107  33.241  1.00  0.00     0.001 A 
ATOM     82  C   UNL A   1      42.761  37.369  34.501  1.00  0.00     0.000 A 
ENDBRANCH  64  77
ENDBRANCH  38  39
ENDBRANCH  30  33
ENDBRANCH  28  29
ENDBRANCH  27  28
ENDBRANCH  26  27
ENDBRANCH   3  26
TORSDOF 16
ENDMDL
MODEL 3
REMARK VINA RESULT:     -10.6      2.546      4.176
REMARK SMILES CCSc1nc(CC(=O)N[C@@H](C(=O)NCCCNC(=O)c2ccc(-c3c4nc(c(-c5ccccc5)c5ccc([nH]5)c(-c5ccccc5)c5nc(c(-c6ccccc6)c6ccc3[nH]6)C=C5)C=C4)cc2)C2=C(C)N=N[C@@H]2C)cs1
REMARK SMILES IDX 12 1 13 2 14 3 11 5 10 6 8 7 9 8 7 10 6 11 4 12 5 13 77 14
REMARK SMILES IDX 76 15 3 16 2 17 1 18 69 19 70 20 74 21 71 22 72 23 73 24
REMARK SMILES IDX 75 25 15 26 16 27 17 28 18 29 19 30 20 32 21 33 22 34 68 35
REMARK SMILES IDX 23 36 67 37 24 38 25 39 26 40 61 41 27 42 66 43 60 44 62 45
REMARK SMILES IDX 28 46 65 47 59 48 58 49 29 51 51 52 36 53 50 54 37 55 40 56
REMARK SMILES IDX 49 57 63 58 38 59 39 60 48 62 64 63 41 64 30 65 31 66 35 67
REMARK SMILES IDX 32 68 34 69 33 70 52 71 53 72 57 73 54 74 56 75 55 76 42 77
REMARK SMILES IDX 43 78 47 79 44 80 46 81 45 82
REMARK H PARENT 14 4 10 9 18 31 62 50 40 61
REMARK Flexibility Score: inf
ROOT
ATOM      1  C   UNL A   1      30.717  29.249  23.898  1.00  0.00     0.247 C 
ATOM      2  O   UNL A   1      29.644  29.307  23.289  1.00  0.00    -0.272 OA
ATOM      3  N   UNL A   1      31.090  30.410  24.525  1.00  0.00    -0.354 N 
ATOM      4  H   UNL A   1      30.957  31.254  24.038  1.00  0.00     0.163 HD
ENDROOT
BRANCH   1   5
ATOM      5  C   UNL A   1      31.565  27.912  24.001  1.00  0.00     0.202 C 
BRANCH   5   6
ATOM      6  N   UNL A   1      31.604  27.145  22.752  1.00  0.00    -0.340 N 
ATOM      7  C   UNL A   1      32.638  26.468  22.164  1.00  0.00     0.226 C 
ATOM      8  O   UNL A   1      32.481  26.094  20.998  1.00  0.00    -0.275 OA
ATOM      9  H   UNL A   1      30.754  27.112  22.257  1.00  0.00     0.164 HD
BRANCH   7  10
ATOM     10  C   UNL A   1      33.940  26.181  22.900  1.00  0.00     0.157 C 
BRANCH  10  11
ATOM     11  C   UNL A   1      33.829  25.110  23.936  1.00  0.00     0.062 A 
ATOM     12  C   UNL A   1      32.841  23.317  24.802  1.00  0.00     0.150 A 
ATOM     13  N   UNL A   1      32.763  24.219  23.849  1.00  0.00    -0.234 NA
ATOM     14  S   UNL A   1      34.145  23.513  25.896  1.00  0.00    -0.116 S 
ATOM     15  C   UNL A   1      34.670  24.888  25.011  1.00  0.00     0.092 A 
BRANCH  12  16
ATOM     16  S   UNL A   1      31.721  21.979  24.867  1.00  0.00    -0.096 SA
BRANCH  16  17
ATOM     17  C   UNL A   1      32.515  20.763  23.779  1.00  0.00     0.074 C 
ATOM     18  C   UNL A   1      33.308  19.734  24.567  1.00  0.00     0.016 C 
ENDBRANCH  16  17
ENDBRANCH  12  16
ENDBRANCH  10  11
ENDBRANCH   7  10
ENDBRANCH   5   6
BRANCH   5  19
ATOM     19  C   UNL A   1      31.019  26.989  25.063  1.00  0.00     0.011 C 
ATOM     20  C   UNL A   1      29.903  26.245  25.082  1.00  0.00     0.064 C 
ATOM     21  C   UNL A   1      31.720  26.629  26.341  1.00  0.00     0.156 C 
ATOM     22  C   UNL A   1      28.805  26.134  24.086  1.00  0.00     0.069 C 
ATOM     23  N   UNL A   1      29.797  25.469  26.210  1.00  0.00    -0.160 NA
ATOM     24  N   UNL A   1      30.797  25.636  26.955  1.00  0.00    -0.181 NA
ATOM     25  C   UNL A   1      31.894  27.771  27.334  1.00  0.00     0.040 C 
ENDBRANCH   5  19
ENDBRANCH   1   5
BRANCH   3  26
ATOM     26  C   UNL A   1      31.662  30.483  25.844  1.00  0.00     0.117 C 
BRANCH  26  27
ATOM     27  C   UNL A   1      31.382  31.765  26.596  1.00  0.00     0.042 C 
BRANCH  27  28
ATOM     28  C   UNL A   1      32.631  32.375  27.205  1.00  0.00     0.118 C 
BRANCH  28  29
ATOM     29  N   UNL A   1      32.436  33.756  27.640  1.00  0.00    -0.352 N 
ATOM     30  C   UNL A   1      33.147  34.527  28.530  1.00  0.00     0.251 C 
ATOM     31  H   UNL A   1      31.667  34.211  27.227  1.00  0.00     0.163 HD
ATOM     32  O   UNL A   1      32.724  35.624  28.858  1.00  0.00    -0.269 OA
BRANCH  30  33
ATOM     33  C   UNL A   1      34.405  34.009  29.105  1.00  0.00     0.039 A 
ATOM     34  C   UNL A   1      34.358  33.281  30.297  1.00  0.00     0.014 A 
ATOM     35  C   UNL A   1      35.622  34.224  28.459  1.00  0.00     0.014 A 
ATOM     36  C   UNL A   1      35.523  32.692  30.791  1.00  0.00     0.010 A 
ATOM     37  C   UNL A   1      36.755  33.550  28.890  1.00  0.00     0.010 A 
ATOM     38  C   UNL A   1      36.720  32.782  30.064  1.00  0.00    -0.014 A 
BRANCH  38  39
ATOM     39  C   UNL A   1      37.963  32.107  30.508  1.00  0.00     0.031 A 
ATOM     40  C   UNL A   1      38.831  32.764  31.548  1.00  0.00     0.074 A 
ATOM     41  C   UNL A   1      38.352  30.960  29.921  1.00  0.00     0.049 A 
ATOM     42  N   UNL A   1      40.019  32.416  31.971  1.00  0.00    -0.248 NA
ATOM     43  C   UNL A   1      38.308  33.995  32.166  1.00  0.00     0.031 C 
ATOM     44  C   UNL A   1      37.617  30.243  28.875  1.00  0.00     0.029 A 
ATOM     45  N   UNL A   1      39.475  30.197  30.116  1.00  0.00    -0.354 N 
ATOM     46  C   UNL A   1      40.393  33.398  32.881  1.00  0.00     0.074 A 
ATOM     47  C   UNL A   1      39.336  34.384  32.905  1.00  0.00     0.031 C 
ATOM     48  C   UNL A   1      38.292  29.130  28.546  1.00  0.00     0.029 A 
ATOM     49  C   UNL A   1      39.528  29.079  29.319  1.00  0.00     0.049 A 
ATOM     50  H   UNL A   1      40.178  30.429  30.765  1.00  0.00     0.167 HD
ATOM     51  C   UNL A   1      41.506  33.460  33.649  1.00  0.00     0.031 A 
ATOM     52  C   UNL A   1      40.472  28.125  29.220  1.00  0.00     0.031 A 
ATOM     53  C   UNL A   1      42.541  32.464  33.646  1.00  0.00     0.049 A 
ATOM     54  C   UNL A   1      41.701  28.223  30.080  1.00  0.00     0.074 A 
ATOM     55  C   UNL A   1      43.689  32.412  34.415  1.00  0.00     0.029 A 
ATOM     56  N   UNL A   1      42.542  31.335  32.843  1.00  0.00    -0.354 N 
ATOM     57  N   UNL A   1      42.022  29.137  30.964  1.00  0.00    -0.248 NA
ATOM     58  C   UNL A   1      42.696  27.150  29.934  1.00  0.00     0.031 C 
ATOM     59  C   UNL A   1      44.403  31.266  34.054  1.00  0.00     0.029 A 
ATOM     60  C   UNL A   1      43.675  30.583  33.093  1.00  0.00     0.049 A 
ATOM     61  H   UNL A   1      41.842  31.104  32.190  1.00  0.00     0.167 HD
ATOM     62  C   UNL A   1      43.235  28.730  31.504  1.00  0.00     0.074 A 
ATOM     63  C   UNL A   1      43.587  27.483  30.858  1.00  0.00     0.031 C 
ATOM     64  C   UNL A   1      43.992  29.334  32.451  1.00  0.00     0.031 A 
BRANCH  51  65
ATOM     65  C   UNL A   1      41.644  34.640  34.567  1.00  0.00    -0.014 A 
ATOM     66  C   UNL A   1      41.143  34.599  35.878  1.00  0.00     0.009 A 
ATOM     67  C   UNL A   1      42.309  35.796  34.130  1.00  0.00     0.009 A 
ATOM     68  C   UNL A   1      41.272  35.704  36.721  1.00  0.00     0.001 A 
ATOM     69  C   UNL A   1      42.462  36.890  34.985  1.00  0.00     0.001 A 
ATOM     70  C   UNL A   1      41.937  36.847  36.275  1.00  0.00     0.000 A 
ENDBRANCH  51  65
BRANCH  52  71
ATOM     71  C   UNL A   1      40.293  26.980  28.290  1.00  0.00    -0.014 A 
ATOM     72  C   UNL A   1      40.785  27.051  26.978  1.00  0.00     0.009 A 
ATOM     73  C   UNL A   1      39.605  25.825  28.693  1.00  0.00     0.009 A 
ATOM     74  C   UNL A   1      40.560  26.007  26.077  1.00  0.00     0.001 A 
ATOM     75  C   UNL A   1      39.407  24.770  27.800  1.00  0.00     0.001 A 
ATOM     76  C   UNL A   1      39.872  24.867  26.490  1.00  0.00     0.000 A 
ENDBRANCH  52  71
BRANCH  64  77
ATOM     77  C   UNL A   1      45.242  28.626  32.885  1.00  0.00    -0.014 A 
ATOM     78  C   UNL A   1      46.477  28.885  32.272  1.00  0.00     0.009 A 
ATOM     79  C   UNL A   1      45.186  27.718  33.954  1.00  0.00     0.009 A 
ATOM     80  C   UNL A   1      47.628  28.224  32.704  1.00  0.00     0.001 A 
ATOM     81  C   UNL A   1      46.343  27.081  34.401  1.00  0.00     0.001 A 
ATOM     82  C   UNL A   1      47.562  27.328  33.771  1.00  0.00     0.000 A 
ENDBRANCH  64  77
ENDBRANCH  38  39
ENDBRANCH  30  33
ENDBRANCH  28  29
ENDBRANCH  27  28
ENDBRANCH  26  27
ENDBRANCH   3  26
TORSDOF 16
ENDMDL
