MODEL 1
REMARK VINA RESULT:     -12.8      0.000      0.000
REMARK SMILES Cc1ccc(-c2cc([C@@H](C)C(=O)NCCCNC(=O)c3ccc(-c4c5nc(c(-c6ccccc6)c6ccc([nH]6)c(-c6ccccc6)c6nc(c(-c7ccccc7)c7ccc4[nH]7)C=C6)C=C5)cc3)ccc2C[C@H]2CCCC2=O)cc1
REMARK SMILES IDX 14 1 13 2 11 3 12 4 9 6 10 7 8 8 6 9 7 10 70 11 69 12 68 13
REMARK SMILES IDX 5 14 1 15 2 16 3 17 79 18 4 19 78 20 71 21 72 22 73 23 76 24
REMARK SMILES IDX 74 25 75 26 77 27 15 28 16 29 17 30 18 31 19 33 20 34 21 35
REMARK SMILES IDX 67 36 22 37 66 38 23 39 24 40 25 41 60 42 26 43 65 44 59 45
REMARK SMILES IDX 61 46 27 47 64 48 58 49 57 50 28 52 50 53 35 54 49 55 36 56
REMARK SMILES IDX 39 57 48 58 62 59 37 60 38 61 47 63 63 64 40 65 29 66 30 67
REMARK SMILES IDX 34 68 31 69 33 70 32 71 51 72 52 73 56 74 53 75 55 76 54 77
REMARK SMILES IDX 41 78 42 79 46 80 43 81 45 82 44 83
REMARK H PARENT 13 5 17 32 61 51 39 62
REMARK Flexibility Score: inf
ROOT
ATOM      1  C   UNL A   1      38.108  21.601  25.725  1.00  0.00     0.117 C 
ENDROOT
BRANCH   1   2
ATOM      2  N   UNL A   1      37.832  22.146  24.406  1.00  0.00    -0.356 N 
ATOM      3  C   UNL A   1      36.674  22.501  23.780  1.00  0.00     0.227 C 
ATOM      4  O   UNL A   1      36.784  22.835  22.593  1.00  0.00    -0.274 OA
ATOM      5  H   UNL A   1      38.637  22.287  23.859  1.00  0.00     0.163 HD
BRANCH   3   6
ATOM      6  C   UNL A   1      35.282  22.506  24.442  1.00  0.00     0.105 C 
ATOM      7  C   UNL A   1      34.643  21.128  24.599  1.00  0.00     0.023 C 
BRANCH   6   8
ATOM      8  C   UNL A   1      34.362  23.597  23.913  1.00  0.00    -0.035 A 
ATOM      9  C   UNL A   1      33.611  25.945  23.955  1.00  0.00    -0.015 A 
ATOM     10  C   UNL A   1      34.395  24.888  24.468  1.00  0.00     0.013 A 
ATOM     11  C   UNL A   1      32.905  25.736  22.749  1.00  0.00    -0.039 A 
ATOM     12  C   UNL A   1      32.795  24.429  22.257  1.00  0.00     0.004 A 
ATOM     13  C   UNL A   1      33.461  23.371  22.875  1.00  0.00     0.005 A 
BRANCH   9  14
ATOM     14  C   UNL A   1      33.429  27.162  24.769  1.00  0.00    -0.018 A 
ATOM     15  C   UNL A   1      32.936  30.608  27.344  1.00  0.00     0.044 C 
ATOM     16  C   UNL A   1      33.122  29.424  26.443  1.00  0.00    -0.051 A 
ATOM     17  C   UNL A   1      32.998  28.137  26.970  1.00  0.00     0.004 A 
ATOM     18  C   UNL A   1      33.412  29.575  25.081  1.00  0.00     0.004 A 
ATOM     19  C   UNL A   1      33.162  27.026  26.145  1.00  0.00     0.009 A 
ATOM     20  C   UNL A   1      33.566  28.455  24.252  1.00  0.00     0.009 A 
ENDBRANCH   9  14
BRANCH  11  21
ATOM     21  C   UNL A   1      32.255  26.856  21.956  1.00  0.00     0.047 C 
BRANCH  21  22
ATOM     22  C   UNL A   1      30.752  27.075  22.186  1.00  0.00     0.060 C 
ATOM     23  C   UNL A   1      30.125  26.375  23.399  1.00  0.00     0.012 C 
ATOM     24  C   UNL A   1      30.379  28.521  22.425  1.00  0.00     0.136 C 
ATOM     25  C   UNL A   1      29.965  27.445  24.472  1.00  0.00     0.009 C 
ATOM     26  C   UNL A   1      29.620  28.714  23.710  1.00  0.00     0.076 C 
ATOM     27  O   UNL A   1      30.619  29.433  21.642  1.00  0.00    -0.299 OA
ENDBRANCH  21  22
ENDBRANCH  11  21
ENDBRANCH   6   8
ENDBRANCH   3   6
ENDBRANCH   1   2
BRANCH   1  28
ATOM     28  C   UNL A   1      39.277  22.310  26.401  1.00  0.00     0.042 C 
BRANCH  28  29
ATOM     29  C   UNL A   1      40.254  21.390  27.112  1.00  0.00     0.118 C 
BRANCH  29  30
ATOM     30  N   UNL A   1      41.072  20.601  26.188  1.00  0.00    -0.352 N 
ATOM     31  C   UNL A   1      42.438  20.667  25.959  1.00  0.00     0.251 C 
ATOM     32  H   UNL A   1      40.584  19.930  25.657  1.00  0.00     0.163 HD
ATOM     33  O   UNL A   1      42.994  19.868  25.227  1.00  0.00    -0.269 OA
BRANCH  31  34
ATOM     34  C   UNL A   1      43.224  21.642  26.747  1.00  0.00     0.039 A 
ATOM     35  C   UNL A   1      43.131  21.558  28.138  1.00  0.00     0.014 A 
ATOM     36  C   UNL A   1      43.740  22.777  26.129  1.00  0.00     0.014 A 
ATOM     37  C   UNL A   1      43.282  22.718  28.887  1.00  0.00     0.010 A 
ATOM     38  C   UNL A   1      43.770  23.952  26.854  1.00  0.00     0.010 A 
ATOM     39  C   UNL A   1      43.457  23.932  28.218  1.00  0.00    -0.014 A 
BRANCH  39  40
ATOM     40  C   UNL A   1      43.149  25.213  28.849  1.00  0.00     0.031 A 
ATOM     41  C   UNL A   1      41.936  25.961  28.471  1.00  0.00     0.074 A 
ATOM     42  C   UNL A   1      43.986  25.741  29.773  1.00  0.00     0.049 A 
ATOM     43  N   UNL A   1      41.869  27.252  28.444  1.00  0.00    -0.248 NA
ATOM     44  C   UNL A   1      40.706  25.304  28.045  1.00  0.00     0.031 C 
ATOM     45  C   UNL A   1      43.731  26.903  30.623  1.00  0.00     0.029 A 
ATOM     46  N   UNL A   1      45.343  25.473  29.973  1.00  0.00    -0.354 N 
ATOM     47  C   UNL A   1      40.543  27.581  28.300  1.00  0.00     0.074 A 
ATOM     48  C   UNL A   1      39.872  26.346  27.963  1.00  0.00     0.031 C 
ATOM     49  C   UNL A   1      44.909  27.430  30.993  1.00  0.00     0.029 A 
ATOM     50  C   UNL A   1      45.949  26.698  30.289  1.00  0.00     0.049 A 
ATOM     51  H   UNL A   1      45.786  24.597  29.905  1.00  0.00     0.167 HD
ATOM     52  C   UNL A   1      40.100  28.824  28.636  1.00  0.00     0.031 A 
ATOM     53  C   UNL A   1      46.972  27.257  29.580  1.00  0.00     0.031 A 
ATOM     54  C   UNL A   1      41.167  29.688  29.119  1.00  0.00     0.049 A 
ATOM     55  C   UNL A   1      46.677  28.664  29.107  1.00  0.00     0.074 A 
ATOM     56  C   UNL A   1      41.577  30.048  30.393  1.00  0.00     0.029 A 
ATOM     57  N   UNL A   1      42.170  30.093  28.251  1.00  0.00    -0.354 N 
ATOM     58  N   UNL A   1      45.482  29.177  29.067  1.00  0.00    -0.248 NA
ATOM     59  C   UNL A   1      47.687  29.564  28.554  1.00  0.00     0.031 C 
ATOM     60  C   UNL A   1      42.859  30.642  30.292  1.00  0.00     0.029 A 
ATOM     61  C   UNL A   1      43.217  30.654  28.957  1.00  0.00     0.049 A 
ATOM     62  H   UNL A   1      42.142  29.995  27.272  1.00  0.00     0.167 HD
ATOM     63  C   UNL A   1      45.532  30.415  28.480  1.00  0.00     0.074 A 
ATOM     64  C   UNL A   1      46.939  30.621  28.191  1.00  0.00     0.031 C 
ATOM     65  C   UNL A   1      44.398  31.141  28.261  1.00  0.00     0.031 A 
BRANCH  52  66
ATOM     66  C   UNL A   1      38.637  29.119  28.825  1.00  0.00    -0.014 A 
ATOM     67  C   UNL A   1      37.886  29.638  27.754  1.00  0.00     0.009 A 
ATOM     68  C   UNL A   1      37.959  28.953  30.044  1.00  0.00     0.009 A 
ATOM     69  C   UNL A   1      36.565  30.069  27.918  1.00  0.00     0.001 A 
ATOM     70  C   UNL A   1      36.650  29.419  30.225  1.00  0.00     0.001 A 
ATOM     71  C   UNL A   1      35.958  29.990  29.164  1.00  0.00     0.000 A 
ENDBRANCH  52  66
BRANCH  53  72
ATOM     72  C   UNL A   1      47.796  26.293  28.805  1.00  0.00    -0.014 A 
ATOM     73  C   UNL A   1      47.592  26.188  27.417  1.00  0.00     0.009 A 
ATOM     74  C   UNL A   1      48.969  25.760  29.357  1.00  0.00     0.009 A 
ATOM     75  C   UNL A   1      48.583  25.648  26.591  1.00  0.00     0.001 A 
ATOM     76  C   UNL A   1      49.955  25.216  28.527  1.00  0.00     0.001 A 
ATOM     77  C   UNL A   1      49.775  25.188  27.144  1.00  0.00     0.000 A 
ENDBRANCH  53  72
BRANCH  65  78
ATOM     78  C   UNL A   1      44.272  32.397  27.434  1.00  0.00    -0.014 A 
ATOM     79  C   UNL A   1      44.353  32.440  26.037  1.00  0.00     0.009 A 
ATOM     80  C   UNL A   1      43.915  33.603  28.082  1.00  0.00     0.009 A 
ATOM     81  C   UNL A   1      44.122  33.631  25.329  1.00  0.00     0.001 A 
ATOM     82  C   UNL A   1      43.641  34.779  27.380  1.00  0.00     0.001 A 
ATOM     83  C   UNL A   1      43.755  34.794  25.998  1.00  0.00     0.000 A 
ENDBRANCH  65  78
ENDBRANCH  39  40
ENDBRANCH  31  34
ENDBRANCH  29  30
ENDBRANCH  28  29
ENDBRANCH   1  28
TORSDOF 14
ENDMDL
MODEL 2
REMARK VINA RESULT:     -12.5      3.990      8.990
REMARK SMILES Cc1ccc(-c2cc([C@@H](C)C(=O)NCCCNC(=O)c3ccc(-c4c5nc(c(-c6ccccc6)c6ccc([nH]6)c(-c6ccccc6)c6nc(c(-c7ccccc7)c7ccc4[nH]7)C=C6)C=C5)cc3)ccc2C[C@H]2CCCC2=O)cc1
REMARK SMILES IDX 14 1 13 2 11 3 12 4 9 6 10 7 8 8 6 9 7 10 70 11 69 12 68 13
REMARK SMILES IDX 5 14 1 15 2 16 3 17 79 18 4 19 78 20 71 21 72 22 73 23 76 24
REMARK SMILES IDX 74 25 75 26 77 27 15 28 16 29 17 30 18 31 19 33 20 34 21 35
REMARK SMILES IDX 67 36 22 37 66 38 23 39 24 40 25 41 60 42 26 43 65 44 59 45
REMARK SMILES IDX 61 46 27 47 64 48 58 49 57 50 28 52 50 53 35 54 49 55 36 56
REMARK SMILES IDX 39 57 48 58 62 59 37 60 38 61 47 63 63 64 40 65 29 66 30 67
REMARK SMILES IDX 34 68 31 69 33 70 32 71 51 72 52 73 56 74 53 75 55 76 54 77
REMARK SMILES IDX 41 78 42 79 46 80 43 81 45 82 44 83
REMARK H PARENT 13 5 17 32 61 51 39 62
REMARK Flexibility Score: inf
ROOT
ATOM      1  C   UNL A   1      34.318  29.561  27.525  1.00  0.00     0.117 C 
ENDROOT
BRANCH   1   2
ATOM      2  N   UNL A   1      33.240  28.590  27.619  1.00  0.00    -0.356 N 
ATOM      3  C   UNL A   1      32.390  28.065  26.692  1.00  0.00     0.227 C 
ATOM      4  O   UNL A   1      31.499  27.328  27.135  1.00  0.00    -0.274 OA
ATOM      5  H   UNL A   1      33.097  28.245  28.529  1.00  0.00     0.163 HD
BRANCH   3   6
ATOM      6  C   UNL A   1      32.470  28.329  25.176  1.00  0.00     0.105 C 
ATOM      7  C   UNL A   1      31.396  29.268  24.632  1.00  0.00     0.023 C 
BRANCH   6   8
ATOM      8  C   UNL A   1      32.717  27.072  24.353  1.00  0.00    -0.035 A 
ATOM      9  C   UNL A   1      33.825  24.885  24.100  1.00  0.00    -0.015 A 
ATOM     10  C   UNL A   1      33.625  26.096  24.798  1.00  0.00     0.013 A 
ATOM     11  C   UNL A   1      32.966  24.579  23.022  1.00  0.00    -0.039 A 
ATOM     12  C   UNL A   1      32.135  25.590  22.522  1.00  0.00     0.004 A 
ATOM     13  C   UNL A   1      32.069  26.837  23.143  1.00  0.00     0.005 A 
BRANCH   9  14
ATOM     14  C   UNL A   1      35.011  24.065  24.415  1.00  0.00    -0.018 A 
ATOM     15  C   UNL A   1      38.416  21.644  25.553  1.00  0.00     0.044 C 
ATOM     16  C   UNL A   1      37.231  22.468  25.146  1.00  0.00    -0.051 A 
ATOM     17  C   UNL A   1      36.505  23.152  26.123  1.00  0.00     0.004 A 
ATOM     18  C   UNL A   1      36.836  22.575  23.806  1.00  0.00     0.004 A 
ATOM     19  C   UNL A   1      35.405  23.927  25.760  1.00  0.00     0.009 A 
ATOM     20  C   UNL A   1      35.735  23.364  23.444  1.00  0.00     0.009 A 
ENDBRANCH   9  14
BRANCH  11  21
ATOM     21  C   UNL A   1      32.896  23.209  22.371  1.00  0.00     0.047 C 
BRANCH  21  22
ATOM     22  C   UNL A   1      32.105  22.131  23.127  1.00  0.00     0.060 C 
ATOM     23  C   UNL A   1      32.893  20.913  23.628  1.00  0.00     0.012 C 
ATOM     24  C   UNL A   1      31.455  22.633  24.397  1.00  0.00     0.136 C 
ATOM     25  C   UNL A   1      33.110  21.132  25.120  1.00  0.00     0.009 C 
ATOM     26  C   UNL A   1      31.844  21.822  25.602  1.00  0.00     0.076 C 
ATOM     27  O   UNL A   1      30.659  23.564  24.441  1.00  0.00    -0.299 OA
ENDBRANCH  21  22
ENDBRANCH  11  21
ENDBRANCH   6   8
ENDBRANCH   3   6
ENDBRANCH   1   2
BRANCH   1  28
ATOM     28  C   UNL A   1      33.794  30.991  27.468  1.00  0.00     0.042 C 
BRANCH  28  29
ATOM     29  C   UNL A   1      34.564  31.986  28.318  1.00  0.00     0.118 C 
BRANCH  29  30
ATOM     30  N   UNL A   1      33.700  32.986  28.949  1.00  0.00    -0.352 N 
ATOM     31  C   UNL A   1      34.028  33.952  29.889  1.00  0.00     0.251 C 
ATOM     32  H   UNL A   1      32.757  32.972  28.665  1.00  0.00     0.163 HD
ATOM     33  O   UNL A   1      33.215  34.785  30.246  1.00  0.00    -0.269 OA
BRANCH  31  34
ATOM     34  C   UNL A   1      35.436  34.034  30.333  1.00  0.00     0.039 A 
ATOM     35  C   UNL A   1      36.371  34.496  29.404  1.00  0.00     0.014 A 
ATOM     36  C   UNL A   1      35.839  33.365  31.485  1.00  0.00     0.014 A 
ATOM     37  C   UNL A   1      37.677  34.032  29.487  1.00  0.00     0.010 A 
ATOM     38  C   UNL A   1      37.102  32.806  31.501  1.00  0.00     0.010 A 
ATOM     39  C   UNL A   1      37.991  33.074  30.454  1.00  0.00    -0.014 A 
BRANCH  39  40
ATOM     40  C   UNL A   1      39.151  32.196  30.323  1.00  0.00     0.031 A 
ATOM     41  C   UNL A   1      38.995  30.820  29.817  1.00  0.00     0.074 A 
ATOM     42  C   UNL A   1      40.382  32.626  30.688  1.00  0.00     0.049 A 
ATOM     43  N   UNL A   1      39.713  29.822  30.218  1.00  0.00    -0.248 NA
ATOM     44  C   UNL A   1      37.973  30.450  28.843  1.00  0.00     0.031 C 
ATOM     45  C   UNL A   1      41.654  31.947  30.446  1.00  0.00     0.029 A 
ATOM     46  N   UNL A   1      40.718  33.663  31.562  1.00  0.00    -0.354 N 
ATOM     47  C   UNL A   1      39.463  28.780  29.360  1.00  0.00     0.074 A 
ATOM     48  C   UNL A   1      38.312  29.183  28.584  1.00  0.00     0.031 C 
ATOM     49  C   UNL A   1      42.542  32.363  31.363  1.00  0.00     0.029 A 
ATOM     50  C   UNL A   1      41.831  33.222  32.295  1.00  0.00     0.049 A 
ATOM     51  H   UNL A   1      40.263  34.532  31.647  1.00  0.00     0.167 HD
ATOM     52  C   UNL A   1      40.339  27.742  29.262  1.00  0.00     0.031 A 
ATOM     53  C   UNL A   1      41.867  33.121  33.654  1.00  0.00     0.031 A 
ATOM     54  C   UNL A   1      41.484  27.888  30.148  1.00  0.00     0.049 A 
ATOM     55  C   UNL A   1      42.252  31.742  34.145  1.00  0.00     0.074 A 
ATOM     56  C   UNL A   1      42.780  28.334  29.939  1.00  0.00     0.029 A 
ATOM     57  N   UNL A   1      41.303  27.830  31.522  1.00  0.00    -0.354 N 
ATOM     58  N   UNL A   1      42.223  30.676  33.398  1.00  0.00    -0.248 NA
ATOM     59  C   UNL A   1      42.606  31.441  35.530  1.00  0.00     0.031 C 
ATOM     60  C   UNL A   1      43.370  28.580  31.202  1.00  0.00     0.029 A 
ATOM     61  C   UNL A   1      42.437  28.272  32.174  1.00  0.00     0.049 A 
ATOM     62  H   UNL A   1      40.483  27.518  31.968  1.00  0.00     0.167 HD
ATOM     63  C   UNL A   1      42.508  29.573  34.161  1.00  0.00     0.074 A 
ATOM     64  C   UNL A   1      42.757  30.105  35.488  1.00  0.00     0.031 C 
ATOM     65  C   UNL A   1      42.481  28.317  33.628  1.00  0.00     0.031 A 
BRANCH  52  66
ATOM     66  C   UNL A   1      40.292  26.771  28.113  1.00  0.00    -0.014 A 
ATOM     67  C   UNL A   1      39.623  25.542  28.264  1.00  0.00     0.009 A 
ATOM     68  C   UNL A   1      40.927  26.991  26.880  1.00  0.00     0.009 A 
ATOM     69  C   UNL A   1      39.677  24.545  27.284  1.00  0.00     0.001 A 
ATOM     70  C   UNL A   1      41.019  25.983  25.911  1.00  0.00     0.001 A 
ATOM     71  C   UNL A   1      40.404  24.754  26.120  1.00  0.00     0.000 A 
ENDBRANCH  52  66
BRANCH  53  72
ATOM     72  C   UNL A   1      40.911  34.003  34.373  1.00  0.00    -0.014 A 
ATOM     73  C   UNL A   1      39.595  33.550  34.583  1.00  0.00     0.009 A 
ATOM     74  C   UNL A   1      41.378  35.091  35.124  1.00  0.00     0.009 A 
ATOM     75  C   UNL A   1      38.801  34.112  35.587  1.00  0.00     0.001 A 
ATOM     76  C   UNL A   1      40.577  35.653  36.124  1.00  0.00     0.001 A 
ATOM     77  C   UNL A   1      39.303  35.144  36.376  1.00  0.00     0.000 A 
ENDBRANCH  53  72
BRANCH  65  78
ATOM     78  C   UNL A   1      42.547  27.011  34.381  1.00  0.00    -0.014 A 
ATOM     79  C   UNL A   1      41.529  26.517  35.206  1.00  0.00     0.009 A 
ATOM     80  C   UNL A   1      43.644  26.150  34.149  1.00  0.00     0.009 A 
ATOM     81  C   UNL A   1      41.619  25.244  35.793  1.00  0.00     0.001 A 
ATOM     82  C   UNL A   1      43.718  24.865  34.694  1.00  0.00     0.001 A 
ATOM     83  C   UNL A   1      42.704  24.416  35.527  1.00  0.00     0.000 A 
ENDBRANCH  65  78
ENDBRANCH  39  40
ENDBRANCH  31  34
ENDBRANCH  29  30
ENDBRANCH  28  29
ENDBRANCH   1  28
TORSDOF 14
ENDMDL
MODEL 3
REMARK VINA RESULT:     -12.4      3.106      8.095
REMARK SMILES Cc1ccc(-c2cc([C@@H](C)C(=O)NCCCNC(=O)c3ccc(-c4c5nc(c(-c6ccccc6)c6ccc([nH]6)c(-c6ccccc6)c6nc(c(-c7ccccc7)c7ccc4[nH]7)C=C6)C=C5)cc3)ccc2C[C@H]2CCCC2=O)cc1
REMARK SMILES IDX 14 1 13 2 11 3 12 4 9 6 10 7 8 8 6 9 7 10 70 11 69 12 68 13
REMARK SMILES IDX 5 14 1 15 2 16 3 17 79 18 4 19 78 20 71 21 72 22 73 23 76 24
REMARK SMILES IDX 74 25 75 26 77 27 15 28 16 29 17 30 18 31 19 33 20 34 21 35
REMARK SMILES IDX 67 36 22 37 66 38 23 39 24 40 25 41 60 42 26 43 65 44 59 45
REMARK SMILES IDX 61 46 27 47 64 48 58 49 57 50 28 52 50 53 35 54 49 55 36 56
REMARK SMILES IDX 39 57 48 58 62 59 37 60 38 61 47 63 63 64 40 65 29 66 30 67
REMARK SMILES IDX 34 68 31 69 33 70 32 71 51 72 52 73 56 74 53 75 55 76 54 77
REMARK SMILES IDX 41 78 42 79 46 80 43 81 45 82 44 83
REMARK H PARENT 13 5 17 32 61 51 39 62
REMARK Flexibility Score: inf
ROOT
ATOM      1  C   UNL A   1      34.479  29.613  26.795  1.00  0.00     0.117 C 
ENDROOT
BRANCH   1   2
ATOM      2  N   UNL A   1      33.262  28.821  26.846  1.00  0.00    -0.356 N 
ATOM      3  C   UNL A   1      32.449  28.319  25.874  1.00  0.00     0.227 C 
ATOM      4  O   UNL A   1      31.412  27.769  26.270  1.00  0.00    -0.274 OA
ATOM      5  H   UNL A   1      32.968  28.604  27.759  1.00  0.00     0.163 HD
BRANCH   3   6
ATOM      6  C   UNL A   1      32.734  28.396  24.361  1.00  0.00     0.105 C 
ATOM      7  C   UNL A   1      31.811  29.332  23.583  1.00  0.00     0.023 C 
BRANCH   6   8
ATOM      8  C   UNL A   1      32.981  27.038  23.720  1.00  0.00    -0.035 A 
ATOM      9  C   UNL A   1      34.001  24.796  23.822  1.00  0.00    -0.015 A 
ATOM     10  C   UNL A   1      33.808  26.093  24.349  1.00  0.00     0.013 A 
ATOM     11  C   UNL A   1      33.207  24.390  22.726  1.00  0.00    -0.039 A 
ATOM     12  C   UNL A   1      32.462  25.361  22.045  1.00  0.00     0.004 A 
ATOM     13  C   UNL A   1      32.410  26.677  22.502  1.00  0.00     0.005 A 
BRANCH   9  14
ATOM     14  C   UNL A   1      35.122  23.979  24.323  1.00  0.00    -0.018 A 
ATOM     15  C   UNL A   1      38.497  21.577  25.584  1.00  0.00     0.044 C 
ATOM     16  C   UNL A   1      37.335  22.424  25.160  1.00  0.00    -0.051 A 
ATOM     17  C   UNL A   1      36.978  22.470  23.811  1.00  0.00     0.004 A 
ATOM     18  C   UNL A   1      36.590  23.166  26.086  1.00  0.00     0.004 A 
ATOM     19  C   UNL A   1      35.896  23.247  23.402  1.00  0.00     0.009 A 
ATOM     20  C   UNL A   1      35.496  23.938  25.671  1.00  0.00     0.009 A 
ENDBRANCH   9  14
BRANCH  11  21
ATOM     21  C   UNL A   1      33.120  22.953  22.245  1.00  0.00     0.047 C 
BRANCH  21  22
ATOM     22  C   UNL A   1      32.222  22.010  23.060  1.00  0.00     0.060 C 
ATOM     23  C   UNL A   1      32.922  20.913  23.872  1.00  0.00     0.012 C 
ATOM     24  C   UNL A   1      31.403  22.716  24.117  1.00  0.00     0.136 C 
ATOM     25  C   UNL A   1      32.927  21.393  25.318  1.00  0.00     0.009 C 
ATOM     26  C   UNL A   1      31.612  22.134  25.489  1.00  0.00     0.076 C 
ATOM     27  O   UNL A   1      30.616  23.626  23.885  1.00  0.00    -0.299 OA
ENDBRANCH  21  22
ENDBRANCH  11  21
ENDBRANCH   6   8
ENDBRANCH   3   6
ENDBRANCH   1   2
BRANCH   1  28
ATOM     28  C   UNL A   1      34.301  30.975  27.458  1.00  0.00     0.042 C 
BRANCH  28  29
ATOM     29  C   UNL A   1      34.756  31.043  28.905  1.00  0.00     0.118 C 
BRANCH  29  30
ATOM     30  N   UNL A   1      35.908  31.925  29.101  1.00  0.00    -0.352 N 
ATOM     31  C   UNL A   1      37.259  31.626  29.014  1.00  0.00     0.251 C 
ATOM     32  H   UNL A   1      35.693  32.860  29.325  1.00  0.00     0.163 HD
ATOM     33  O   UNL A   1      38.105  32.498  29.104  1.00  0.00    -0.269 OA
BRANCH  31  34
ATOM     34  C   UNL A   1      37.640  30.242  28.657  1.00  0.00     0.039 A 
ATOM     35  C   UNL A   1      37.743  29.322  29.703  1.00  0.00     0.014 A 
ATOM     36  C   UNL A   1      38.193  29.975  27.409  1.00  0.00     0.014 A 
ATOM     37  C   UNL A   1      38.645  28.273  29.581  1.00  0.00     0.010 A 
ATOM     38  C   UNL A   1      39.178  29.009  27.330  1.00  0.00     0.010 A 
ATOM     39  C   UNL A   1      39.460  28.216  28.447  1.00  0.00    -0.014 A 
BRANCH  39  40
ATOM     40  C   UNL A   1      40.721  27.479  28.439  1.00  0.00     0.031 A 
ATOM     41  C   UNL A   1      40.729  26.010  28.309  1.00  0.00     0.074 A 
ATOM     42  C   UNL A   1      41.899  28.132  28.576  1.00  0.00     0.049 A 
ATOM     43  N   UNL A   1      41.598  25.243  28.881  1.00  0.00    -0.248 NA
ATOM     44  C   UNL A   1      39.717  25.281  27.552  1.00  0.00     0.031 C 
ATOM     45  C   UNL A   1      43.237  27.571  28.400  1.00  0.00     0.029 A 
ATOM     46  N   UNL A   1      42.136  29.393  29.130  1.00  0.00    -0.354 N 
ATOM     47  C   UNL A   1      41.449  23.992  28.336  1.00  0.00     0.074 A 
ATOM     48  C   UNL A   1      40.213  24.040  27.588  1.00  0.00     0.031 C 
ATOM     49  C   UNL A   1      44.108  28.313  29.103  1.00  0.00     0.029 A 
ATOM     50  C   UNL A   1      43.337  29.293  29.849  1.00  0.00     0.049 A 
ATOM     51  H   UNL A   1      41.571  30.193  29.035  1.00  0.00     0.167 HD
ATOM     52  C   UNL A   1      42.453  23.076  28.424  1.00  0.00     0.031 A 
ATOM     53  C   UNL A   1      43.460  29.553  31.183  1.00  0.00     0.031 A 
ATOM     54  C   UNL A   1      43.613  23.584  29.142  1.00  0.00     0.049 A 
ATOM     55  C   UNL A   1      44.057  28.404  31.966  1.00  0.00     0.074 A 
ATOM     56  C   UNL A   1      44.821  24.111  28.715  1.00  0.00     0.029 A 
ATOM     57  N   UNL A   1      43.516  23.861  30.497  1.00  0.00    -0.354 N 
ATOM     58  N   UNL A   1      44.135  27.186  31.515  1.00  0.00    -0.248 NA
ATOM     59  C   UNL A   1      44.523  28.517  33.347  1.00  0.00     0.031 C 
ATOM     60  C   UNL A   1      45.440  24.745  29.821  1.00  0.00     0.029 A 
ATOM     61  C   UNL A   1      44.612  24.590  30.917  1.00  0.00     0.049 A 
ATOM     62  H   UNL A   1      42.773  23.580  31.078  1.00  0.00     0.167 HD
ATOM     63  C   UNL A   1      44.611  26.360  32.501  1.00  0.00     0.074 A 
ATOM     64  C   UNL A   1      44.855  27.243  33.626  1.00  0.00     0.031 C 
ATOM     65  C   UNL A   1      44.728  25.015  32.303  1.00  0.00     0.031 A 
BRANCH  52  66
ATOM     66  C   UNL A   1      42.478  21.842  27.563  1.00  0.00    -0.014 A 
ATOM     67  C   UNL A   1      43.361  21.772  26.470  1.00  0.00     0.009 A 
ATOM     68  C   UNL A   1      41.623  20.744  27.751  1.00  0.00     0.009 A 
ATOM     69  C   UNL A   1      43.319  20.715  25.553  1.00  0.00     0.001 A 
ATOM     70  C   UNL A   1      41.549  19.703  26.815  1.00  0.00     0.001 A 
ATOM     71  C   UNL A   1      42.389  19.697  25.708  1.00  0.00     0.000 A 
ENDBRANCH  52  66
BRANCH  53  72
ATOM     72  C   UNL A   1      42.431  30.470  31.739  1.00  0.00    -0.014 A 
ATOM     73  C   UNL A   1      42.604  31.858  31.588  1.00  0.00     0.009 A 
ATOM     74  C   UNL A   1      41.165  29.982  32.092  1.00  0.00     0.009 A 
ATOM     75  C   UNL A   1      41.514  32.727  31.693  1.00  0.00     0.001 A 
ATOM     76  C   UNL A   1      40.078  30.857  32.201  1.00  0.00     0.001 A 
ATOM     77  C   UNL A   1      40.247  32.223  31.972  1.00  0.00     0.000 A 
ENDBRANCH  53  72
BRANCH  65  78
ATOM     78  C   UNL A   1      45.014  23.967  33.350  1.00  0.00    -0.014 A 
ATOM     79  C   UNL A   1      44.107  22.981  33.757  1.00  0.00     0.009 A 
ATOM     80  C   UNL A   1      46.325  23.871  33.872  1.00  0.00     0.009 A 
ATOM     81  C   UNL A   1      44.480  21.974  34.662  1.00  0.00     0.001 A 
ATOM     82  C   UNL A   1      46.714  22.846  34.739  1.00  0.00     0.001 A 
ATOM     83  C   UNL A   1      45.783  21.900  35.142  1.00  0.00     0.000 A 
ENDBRANCH  65  78
ENDBRANCH  39  40
ENDBRANCH  31  34
ENDBRANCH  29  30
ENDBRANCH  28  29
ENDBRANCH   1  28
TORSDOF 14
ENDMDL
