MODEL 1
REMARK VINA RESULT:     -10.4      0.000      0.000
REMARK SMILES Cc1n[nH]c(C(=O)N(C)CC(=O)NCCCNC(=O)c2ccc(-c3c4nc(c(-c5ccccc5)c5ccc([nH]5)c(-c5ccccc5)c5nc(c(-c6ccccc6)c6ccc3[nH]6)C=C5)C=C4)cc2)n1
REMARK SMILES IDX 14 1 13 2 11 3 12 4 10 6 8 7 9 8 6 9 7 10 5 11 1 12 2 13
REMARK SMILES IDX 3 14 68 15 4 16 15 18 16 19 17 20 18 21 19 23 20 24 21 25
REMARK SMILES IDX 67 26 22 27 66 28 23 29 24 30 25 31 60 32 26 33 65 34 59 35
REMARK SMILES IDX 61 36 27 37 64 38 58 39 57 40 28 42 50 43 35 44 49 45 36 46
REMARK SMILES IDX 39 47 48 48 62 49 37 50 38 51 47 53 63 54 40 55 29 56 30 57
REMARK SMILES IDX 34 58 31 59 33 60 32 61 51 62 52 63 56 64 53 65 55 66 54 67
REMARK SMILES IDX 41 68 42 69 46 70 43 71 45 72 44 73
REMARK H PARENT 13 5 4 17 17 22 61 41 39 52
REMARK Flexibility Score: inf
ROOT
ATOM      1  C   UNL A   1      35.736  33.275  33.974  1.00  0.00     0.117 C 
ENDROOT
BRANCH   1   2
ATOM      2  N   UNL A   1      35.723  34.681  33.625  1.00  0.00    -0.354 N 
ATOM      3  C   UNL A   1      34.721  35.420  33.062  1.00  0.00     0.239 C 
ATOM      4  O   UNL A   1      34.789  36.646  33.183  1.00  0.00    -0.273 OA
ATOM      5  H   UNL A   1      36.551  35.173  33.823  1.00  0.00     0.163 HD
BRANCH   3   6
ATOM      6  C   UNL A   1      33.471  34.738  32.479  1.00  0.00     0.219 C 
BRANCH   6   7
ATOM      7  N   UNL A   1      32.516  35.604  31.764  1.00  0.00    -0.330 N 
ATOM      8  C   UNL A   1      31.372  36.074  32.530  1.00  0.00     0.147 C 
BRANCH   7   9
ATOM      9  C   UNL A   1      32.984  36.138  30.546  1.00  0.00     0.291 C 
ATOM     10  O   UNL A   1      32.912  37.358  30.379  1.00  0.00    -0.265 OA
BRANCH   9  11
ATOM     11  C   UNL A   1      33.580  35.294  29.517  1.00  0.00     0.214 A 
ATOM     12  C   UNL A   1      34.028  32.174  27.889  1.00  0.00     0.092 C 
ATOM     13  C   UNL A   1      34.028  33.582  28.337  1.00  0.00     0.148 A 
ATOM     14  N   UNL A   1      34.583  34.577  27.636  1.00  0.00    -0.159 NA
ATOM     15  N   UNL A   1      33.415  33.981  29.489  1.00  0.00    -0.207 NA
ATOM     16  N   UNL A   1      34.267  35.643  28.391  1.00  0.00    -0.255 N 
ATOM     17  H   UNL A   1      34.506  36.569  28.159  1.00  0.00     0.192 HD
ENDBRANCH   9  11
ENDBRANCH   7   9
ENDBRANCH   6   7
ENDBRANCH   3   6
ENDBRANCH   1   2
BRANCH   1  18
ATOM     18  C   UNL A   1      36.787  32.471  33.209  1.00  0.00     0.042 C 
BRANCH  18  19
ATOM     19  C   UNL A   1      36.242  31.850  31.929  1.00  0.00     0.118 C 
BRANCH  19  20
ATOM     20  N   UNL A   1      36.304  32.762  30.790  1.00  0.00    -0.352 N 
ATOM     21  C   UNL A   1      37.309  32.920  29.859  1.00  0.00     0.251 C 
ATOM     22  H   UNL A   1      35.519  33.346  30.671  1.00  0.00     0.163 HD
ATOM     23  O   UNL A   1      37.367  33.938  29.187  1.00  0.00    -0.269 OA
BRANCH  21  24
ATOM     24  C   UNL A   1      38.324  31.860  29.691  1.00  0.00     0.039 A 
ATOM     25  C   UNL A   1      39.628  32.061  30.156  1.00  0.00     0.014 A 
ATOM     26  C   UNL A   1      37.975  30.665  29.067  1.00  0.00     0.014 A 
ATOM     27  C   UNL A   1      40.546  31.017  30.070  1.00  0.00     0.010 A 
ATOM     28  C   UNL A   1      38.841  29.595  29.088  1.00  0.00     0.010 A 
ATOM     29  C   UNL A   1      40.138  29.772  29.562  1.00  0.00    -0.014 A 
BRANCH  29  30
ATOM     30  C   UNL A   1      41.020  28.612  29.679  1.00  0.00     0.031 A 
ATOM     31  C   UNL A   1      41.477  28.336  31.069  1.00  0.00     0.074 A 
ATOM     32  C   UNL A   1      41.239  27.719  28.691  1.00  0.00     0.049 A 
ATOM     33  N   UNL A   1      42.677  28.428  31.538  1.00  0.00    -0.248 NA
ATOM     34  C   UNL A   1      40.455  28.050  32.092  1.00  0.00     0.031 C 
ATOM     35  C   UNL A   1      40.603  27.662  27.371  1.00  0.00     0.029 A 
ATOM     36  N   UNL A   1      41.995  26.584  28.709  1.00  0.00    -0.354 N 
ATOM     37  C   UNL A   1      42.603  28.010  32.865  1.00  0.00     0.074 A 
ATOM     38  C   UNL A   1      41.200  27.975  33.196  1.00  0.00     0.031 C 
ATOM     39  C   UNL A   1      40.808  26.444  26.823  1.00  0.00     0.029 A 
ATOM     40  C   UNL A   1      41.722  25.699  27.670  1.00  0.00     0.049 A 
ATOM     41  H   UNL A   1      42.676  26.406  29.397  1.00  0.00     0.167 HD
ATOM     42  C   UNL A   1      43.682  27.461  33.490  1.00  0.00     0.031 A 
ATOM     43  C   UNL A   1      42.188  24.434  27.528  1.00  0.00     0.031 A 
ATOM     44  C   UNL A   1      44.900  27.718  32.761  1.00  0.00     0.049 A 
ATOM     45  C   UNL A   1      43.375  24.295  28.398  1.00  0.00     0.074 A 
ATOM     46  C   UNL A   1      45.570  28.847  32.332  1.00  0.00     0.029 A 
ATOM     47  N   UNL A   1      45.406  26.674  32.024  1.00  0.00    -0.354 N 
ATOM     48  N   UNL A   1      44.510  24.886  28.167  1.00  0.00    -0.248 NA
ATOM     49  C   UNL A   1      43.186  23.810  29.754  1.00  0.00     0.031 C 
ATOM     50  C   UNL A   1      46.097  28.498  31.053  1.00  0.00     0.029 A 
ATOM     51  C   UNL A   1      45.787  27.160  30.804  1.00  0.00     0.049 A 
ATOM     52  H   UNL A   1      45.481  25.739  32.322  1.00  0.00     0.167 HD
ATOM     53  C   UNL A   1      44.964  25.263  29.422  1.00  0.00     0.074 A 
ATOM     54  C   UNL A   1      44.182  24.461  30.361  1.00  0.00     0.031 C 
ATOM     55  C   UNL A   1      45.715  26.393  29.580  1.00  0.00     0.031 A 
BRANCH  42  56
ATOM     56  C   UNL A   1      43.582  26.310  34.472  1.00  0.00    -0.014 A 
ATOM     57  C   UNL A   1      44.239  26.430  35.712  1.00  0.00     0.009 A 
ATOM     58  C   UNL A   1      43.146  25.018  34.119  1.00  0.00     0.009 A 
ATOM     59  C   UNL A   1      44.550  25.307  36.488  1.00  0.00     0.001 A 
ATOM     60  C   UNL A   1      43.414  23.900  34.916  1.00  0.00     0.001 A 
ATOM     61  C   UNL A   1      44.149  24.040  36.082  1.00  0.00     0.000 A 
ENDBRANCH  42  56
BRANCH  43  62
ATOM     62  C   UNL A   1      41.590  23.263  26.853  1.00  0.00    -0.014 A 
ATOM     63  C   UNL A   1      42.398  22.189  26.444  1.00  0.00     0.009 A 
ATOM     64  C   UNL A   1      40.198  23.066  26.867  1.00  0.00     0.009 A 
ATOM     65  C   UNL A   1      41.839  20.947  26.117  1.00  0.00     0.001 A 
ATOM     66  C   UNL A   1      39.638  21.827  26.533  1.00  0.00     0.001 A 
ATOM     67  C   UNL A   1      40.460  20.762  26.178  1.00  0.00     0.000 A 
ENDBRANCH  43  62
BRANCH  55  68
ATOM     68  C   UNL A   1      46.313  27.028  28.349  1.00  0.00    -0.014 A 
ATOM     69  C   UNL A   1      47.599  26.733  27.864  1.00  0.00     0.009 A 
ATOM     70  C   UNL A   1      45.491  27.869  27.583  1.00  0.00     0.009 A 
ATOM     71  C   UNL A   1      48.060  27.298  26.670  1.00  0.00     0.001 A 
ATOM     72  C   UNL A   1      45.941  28.410  26.378  1.00  0.00     0.001 A 
ATOM     73  C   UNL A   1      47.229  28.134  25.927  1.00  0.00     0.000 A 
ENDBRANCH  55  68
ENDBRANCH  29  30
ENDBRANCH  21  24
ENDBRANCH  19  20
ENDBRANCH  18  19
ENDBRANCH   1  18
TORSDOF 13
ENDMDL
MODEL 2
REMARK VINA RESULT:     -10.3      5.488     10.797
REMARK SMILES Cc1n[nH]c(C(=O)N(C)CC(=O)NCCCNC(=O)c2ccc(-c3c4nc(c(-c5ccccc5)c5ccc([nH]5)c(-c5ccccc5)c5nc(c(-c6ccccc6)c6ccc3[nH]6)C=C5)C=C4)cc2)n1
REMARK SMILES IDX 14 1 13 2 11 3 12 4 10 6 8 7 9 8 6 9 7 10 5 11 1 12 2 13
REMARK SMILES IDX 3 14 68 15 4 16 15 18 16 19 17 20 18 21 19 23 20 24 21 25
REMARK SMILES IDX 67 26 22 27 66 28 23 29 24 30 25 31 60 32 26 33 65 34 59 35
REMARK SMILES IDX 61 36 27 37 64 38 58 39 57 40 28 42 50 43 35 44 49 45 36 46
REMARK SMILES IDX 39 47 48 48 62 49 37 50 38 51 47 53 63 54 40 55 29 56 30 57
REMARK SMILES IDX 34 58 31 59 33 60 32 61 51 62 52 63 56 64 53 65 55 66 54 67
REMARK SMILES IDX 41 68 42 69 46 70 43 71 45 72 44 73
REMARK H PARENT 13 5 4 17 17 22 61 41 39 52
REMARK Flexibility Score: inf
ROOT
ATOM      1  C   UNL A   1      36.480  20.054  25.168  1.00  0.00     0.117 C 
ENDROOT
BRANCH   1   2
ATOM      2  N   UNL A   1      35.951  21.385  24.952  1.00  0.00    -0.354 N 
ATOM      3  C   UNL A   1      34.788  21.935  25.411  1.00  0.00     0.239 C 
ATOM      4  O   UNL A   1      34.709  23.167  25.412  1.00  0.00    -0.273 OA
ATOM      5  H   UNL A   1      36.509  21.976  24.397  1.00  0.00     0.163 HD
BRANCH   3   6
ATOM      6  C   UNL A   1      33.712  21.060  26.077  1.00  0.00     0.219 C 
BRANCH   6   7
ATOM      7  N   UNL A   1      32.462  20.857  25.322  1.00  0.00    -0.330 N 
ATOM      8  C   UNL A   1      31.448  21.892  25.460  1.00  0.00     0.147 C 
BRANCH   7   9
ATOM      9  C   UNL A   1      32.523  19.875  24.311  1.00  0.00     0.291 C 
ATOM     10  O   UNL A   1      32.238  20.208  23.158  1.00  0.00    -0.265 OA
BRANCH   9  11
ATOM     11  C   UNL A   1      32.947  18.510  24.594  1.00  0.00     0.214 A 
ATOM     12  C   UNL A   1      32.334  15.202  25.720  1.00  0.00     0.092 C 
ATOM     13  C   UNL A   1      32.877  16.467  25.183  1.00  0.00     0.148 A 
ATOM     14  N   UNL A   1      34.076  16.564  24.600  1.00  0.00    -0.159 NA
ATOM     15  N   UNL A   1      32.166  17.632  25.203  1.00  0.00    -0.207 NA
ATOM     16  N   UNL A   1      34.084  17.854  24.221  1.00  0.00    -0.255 N 
ATOM     17  H   UNL A   1      34.826  18.276  23.732  1.00  0.00     0.192 HD
ENDBRANCH   9  11
ENDBRANCH   7   9
ENDBRANCH   6   7
ENDBRANCH   3   6
ENDBRANCH   1   2
BRANCH   1  18
ATOM     18  C   UNL A   1      37.922  19.890  24.687  1.00  0.00     0.042 C 
BRANCH  18  19
ATOM     19  C   UNL A   1      38.947  20.187  25.774  1.00  0.00     0.118 C 
BRANCH  19  20
ATOM     20  N   UNL A   1      40.072  19.255  25.755  1.00  0.00    -0.352 N 
ATOM     21  C   UNL A   1      41.415  19.512  25.943  1.00  0.00     0.251 C 
ATOM     22  H   UNL A   1      39.839  18.313  25.583  1.00  0.00     0.163 HD
ATOM     23  O   UNL A   1      42.251  18.707  25.564  1.00  0.00    -0.269 OA
BRANCH  21  24
ATOM     24  C   UNL A   1      41.835  20.771  26.589  1.00  0.00     0.039 A 
ATOM     25  C   UNL A   1      42.191  21.874  25.807  1.00  0.00     0.014 A 
ATOM     26  C   UNL A   1      41.875  20.852  27.980  1.00  0.00     0.014 A 
ATOM     27  C   UNL A   1      42.498  23.079  26.434  1.00  0.00     0.010 A 
ATOM     28  C   UNL A   1      42.061  22.069  28.596  1.00  0.00     0.010 A 
ATOM     29  C   UNL A   1      42.401  23.181  27.831  1.00  0.00    -0.014 A 
BRANCH  29  30
ATOM     30  C   UNL A   1      42.495  24.490  28.475  1.00  0.00     0.031 A 
ATOM     31  C   UNL A   1      41.362  25.403  28.162  1.00  0.00     0.074 A 
ATOM     32  C   UNL A   1      43.381  24.799  29.446  1.00  0.00     0.049 A 
ATOM     33  N   UNL A   1      41.398  26.502  27.485  1.00  0.00    -0.248 NA
ATOM     34  C   UNL A   1      40.001  24.974  28.532  1.00  0.00     0.031 C 
ATOM     35  C   UNL A   1      44.344  23.909  30.104  1.00  0.00     0.029 A 
ATOM     36  N   UNL A   1      43.522  25.962  30.144  1.00  0.00    -0.354 N 
ATOM     37  C   UNL A   1      40.105  27.017  27.520  1.00  0.00     0.074 A 
ATOM     38  C   UNL A   1      39.263  25.954  28.007  1.00  0.00     0.031 C 
ATOM     39  C   UNL A   1      44.784  24.484  31.244  1.00  0.00     0.029 A 
ATOM     40  C   UNL A   1      44.268  25.840  31.312  1.00  0.00     0.049 A 
ATOM     41  H   UNL A   1      43.129  26.815  29.848  1.00  0.00     0.167 HD
ATOM     42  C   UNL A   1      39.879  28.357  27.412  1.00  0.00     0.031 A 
ATOM     43  C   UNL A   1      44.430  26.773  32.282  1.00  0.00     0.031 A 
ATOM     44  C   UNL A   1      41.041  29.048  26.910  1.00  0.00     0.049 A 
ATOM     45  C   UNL A   1      44.068  28.084  31.705  1.00  0.00     0.074 A 
ATOM     46  C   UNL A   1      41.820  28.965  25.773  1.00  0.00     0.029 A 
ATOM     47  N   UNL A   1      41.789  29.741  27.832  1.00  0.00    -0.354 N 
ATOM     48  N   UNL A   1      44.780  28.697  30.805  1.00  0.00    -0.248 NA
ATOM     49  C   UNL A   1      42.695  28.543  31.835  1.00  0.00     0.031 C 
ATOM     50  C   UNL A   1      43.154  29.198  26.223  1.00  0.00     0.029 A 
ATOM     51  C   UNL A   1      43.110  29.483  27.588  1.00  0.00     0.049 A 
ATOM     52  H   UNL A   1      41.435  30.321  28.544  1.00  0.00     0.167 HD
ATOM     53  C   UNL A   1      43.845  29.267  29.954  1.00  0.00     0.074 A 
ATOM     54  C   UNL A   1      42.593  29.254  30.709  1.00  0.00     0.031 C 
ATOM     55  C   UNL A   1      44.117  29.421  28.625  1.00  0.00     0.031 A 
BRANCH  42  56
ATOM     56  C   UNL A   1      38.807  29.088  28.196  1.00  0.00    -0.014 A 
ATOM     57  C   UNL A   1      38.778  28.930  29.596  1.00  0.00     0.009 A 
ATOM     58  C   UNL A   1      37.661  29.659  27.609  1.00  0.00     0.009 A 
ATOM     59  C   UNL A   1      37.626  29.210  30.341  1.00  0.00     0.001 A 
ATOM     60  C   UNL A   1      36.526  29.984  28.358  1.00  0.00     0.001 A 
ATOM     61  C   UNL A   1      36.495  29.725  29.719  1.00  0.00     0.000 A 
ENDBRANCH  42  56
BRANCH  43  62
ATOM     62  C   UNL A   1      44.686  26.617  33.729  1.00  0.00    -0.014 A 
ATOM     63  C   UNL A   1      43.682  26.124  34.580  1.00  0.00     0.009 A 
ATOM     64  C   UNL A   1      45.997  26.676  34.231  1.00  0.00     0.009 A 
ATOM     65  C   UNL A   1      43.988  25.655  35.864  1.00  0.00     0.001 A 
ATOM     66  C   UNL A   1      46.303  26.213  35.517  1.00  0.00     0.001 A 
ATOM     67  C   UNL A   1      45.302  25.685  36.325  1.00  0.00     0.000 A 
ENDBRANCH  43  62
BRANCH  55  68
ATOM     68  C   UNL A   1      45.546  29.273  28.169  1.00  0.00    -0.014 A 
ATOM     69  C   UNL A   1      46.445  30.348  28.052  1.00  0.00     0.009 A 
ATOM     70  C   UNL A   1      46.036  27.974  27.965  1.00  0.00     0.009 A 
ATOM     71  C   UNL A   1      47.782  30.128  27.702  1.00  0.00     0.001 A 
ATOM     72  C   UNL A   1      47.376  27.753  27.642  1.00  0.00     0.001 A 
ATOM     73  C   UNL A   1      48.246  28.831  27.500  1.00  0.00     0.000 A 
ENDBRANCH  55  68
ENDBRANCH  29  30
ENDBRANCH  21  24
ENDBRANCH  19  20
ENDBRANCH  18  19
ENDBRANCH   1  18
TORSDOF 13
ENDMDL
MODEL 3
REMARK VINA RESULT:     -10.2      4.395      8.025
REMARK SMILES Cc1n[nH]c(C(=O)N(C)CC(=O)NCCCNC(=O)c2ccc(-c3c4nc(c(-c5ccccc5)c5ccc([nH]5)c(-c5ccccc5)c5nc(c(-c6ccccc6)c6ccc3[nH]6)C=C5)C=C4)cc2)n1
REMARK SMILES IDX 14 1 13 2 11 3 12 4 10 6 8 7 9 8 6 9 7 10 5 11 1 12 2 13
REMARK SMILES IDX 3 14 68 15 4 16 15 18 16 19 17 20 18 21 19 23 20 24 21 25
REMARK SMILES IDX 67 26 22 27 66 28 23 29 24 30 25 31 60 32 26 33 65 34 59 35
REMARK SMILES IDX 61 36 27 37 64 38 58 39 57 40 28 42 50 43 35 44 49 45 36 46
REMARK SMILES IDX 39 47 48 48 62 49 37 50 38 51 47 53 63 54 40 55 29 56 30 57
REMARK SMILES IDX 34 58 31 59 33 60 32 61 51 62 52 63 56 64 53 65 55 66 54 67
REMARK SMILES IDX 41 68 42 69 46 70 43 71 45 72 44 73
REMARK H PARENT 13 5 4 17 17 22 61 41 39 52
REMARK Flexibility Score: inf
ROOT
ATOM      1  C   UNL A   1      33.749  27.991  26.540  1.00  0.00     0.117 C 
ENDROOT
BRANCH   1   2
ATOM      2  N   UNL A   1      32.368  27.629  26.296  1.00  0.00    -0.354 N 
ATOM      3  C   UNL A   1      31.846  26.828  25.318  1.00  0.00     0.239 C 
ATOM      4  O   UNL A   1      30.716  26.372  25.508  1.00  0.00    -0.273 OA
ATOM      5  H   UNL A   1      31.714  28.012  26.923  1.00  0.00     0.163 HD
BRANCH   3   6
ATOM      6  C   UNL A   1      32.712  26.365  24.134  1.00  0.00     0.219 C 
BRANCH   6   7
ATOM      7  N   UNL A   1      32.356  26.896  22.806  1.00  0.00    -0.330 N 
ATOM      8  C   UNL A   1      31.892  25.926  21.826  1.00  0.00     0.147 C 
BRANCH   7   9
ATOM      9  C   UNL A   1      32.191  28.295  22.742  1.00  0.00     0.291 C 
ATOM     10  O   UNL A   1      33.173  29.008  22.961  1.00  0.00    -0.265 OA
BRANCH   9  11
ATOM     11  C   UNL A   1      30.914  28.900  22.386  1.00  0.00     0.214 A 
ATOM     12  C   UNL A   1      27.423  29.354  22.832  1.00  0.00     0.092 C 
ATOM     13  C   UNL A   1      28.843  29.389  22.426  1.00  0.00     0.148 A 
ATOM     14  N   UNL A   1      29.341  30.285  21.568  1.00  0.00    -0.159 NA
ATOM     15  N   UNL A   1      29.769  28.527  22.938  1.00  0.00    -0.207 NA
ATOM     16  N   UNL A   1      30.647  29.967  21.579  1.00  0.00    -0.255 N 
ATOM     17  H   UNL A   1      31.332  30.449  21.062  1.00  0.00     0.192 HD
ENDBRANCH   9  11
ENDBRANCH   7   9
ENDBRANCH   6   7
ENDBRANCH   3   6
ENDBRANCH   1   2
BRANCH   1  18
ATOM     18  C   UNL A   1      33.916  29.410  27.081  1.00  0.00     0.042 C 
BRANCH  18  19
ATOM     19  C   UNL A   1      35.345  29.718  27.509  1.00  0.00     0.118 C 
BRANCH  19  20
ATOM     20  N   UNL A   1      35.438  30.118  28.911  1.00  0.00    -0.352 N 
ATOM     21  C   UNL A   1      36.364  29.741  29.862  1.00  0.00     0.251 C 
ATOM     22  H   UNL A   1      34.743  30.744  29.220  1.00  0.00     0.163 HD
ATOM     23  O   UNL A   1      36.116  29.882  31.049  1.00  0.00    -0.269 OA
BRANCH  21  24
ATOM     24  C   UNL A   1      37.648  29.149  29.437  1.00  0.00     0.039 A 
ATOM     25  C   UNL A   1      38.340  29.686  28.347  1.00  0.00     0.014 A 
ATOM     26  C   UNL A   1      38.163  28.053  30.127  1.00  0.00     0.014 A 
ATOM     27  C   UNL A   1      39.592  29.171  28.018  1.00  0.00     0.010 A 
ATOM     28  C   UNL A   1      39.447  27.622  29.880  1.00  0.00     0.010 A 
ATOM     29  C   UNL A   1      40.156  28.157  28.808  1.00  0.00    -0.014 A 
BRANCH  29  30
ATOM     30  C   UNL A   1      41.554  27.773  28.613  1.00  0.00     0.031 A 
ATOM     31  C   UNL A   1      41.734  26.486  27.888  1.00  0.00     0.074 A 
ATOM     32  C   UNL A   1      42.606  28.586  28.847  1.00  0.00     0.049 A 
ATOM     33  N   UNL A   1      42.214  25.380  28.350  1.00  0.00    -0.248 NA
ATOM     34  C   UNL A   1      41.191  26.377  26.522  1.00  0.00     0.031 C 
ATOM     35  C   UNL A   1      42.584  29.998  29.244  1.00  0.00     0.029 A 
ATOM     36  N   UNL A   1      43.936  28.350  28.654  1.00  0.00    -0.354 N 
ATOM     37  C   UNL A   1      42.233  24.492  27.278  1.00  0.00     0.074 A 
ATOM     38  C   UNL A   1      41.425  25.093  26.246  1.00  0.00     0.031 C 
ATOM     39  C   UNL A   1      43.799  30.547  29.027  1.00  0.00     0.029 A 
ATOM     40  C   UNL A   1      44.723  29.497  28.637  1.00  0.00     0.049 A 
ATOM     41  H   UNL A   1      44.306  27.445  28.535  1.00  0.00     0.167 HD
ATOM     42  C   UNL A   1      43.135  23.472  27.225  1.00  0.00     0.031 A 
ATOM     43  C   UNL A   1      46.033  29.586  28.300  1.00  0.00     0.031 A 
ATOM     44  C   UNL A   1      43.746  23.243  28.512  1.00  0.00     0.049 A 
ATOM     45  C   UNL A   1      46.610  28.228  28.387  1.00  0.00     0.074 A 
ATOM     46  C   UNL A   1      43.287  22.933  29.777  1.00  0.00     0.029 A 
ATOM     47  N   UNL A   1      45.024  23.719  28.679  1.00  0.00    -0.354 N 
ATOM     48  N   UNL A   1      46.799  27.596  29.508  1.00  0.00    -0.248 NA
ATOM     49  C   UNL A   1      46.613  27.400  27.194  1.00  0.00     0.031 C 
ATOM     50  C   UNL A   1      44.128  23.670  30.664  1.00  0.00     0.029 A 
ATOM     51  C   UNL A   1      45.096  24.326  29.902  1.00  0.00     0.049 A 
ATOM     52  H   UNL A   1      45.760  23.638  28.030  1.00  0.00     0.167 HD
ATOM     53  C   UNL A   1      46.476  26.279  29.220  1.00  0.00     0.074 A 
ATOM     54  C   UNL A   1      46.502  26.196  27.761  1.00  0.00     0.031 C 
ATOM     55  C   UNL A   1      45.937  25.469  30.179  1.00  0.00     0.031 A 
BRANCH  42  56
ATOM     56  C   UNL A   1      43.806  23.016  25.944  1.00  0.00    -0.014 A 
ATOM     57  C   UNL A   1      43.897  21.633  25.693  1.00  0.00     0.009 A 
ATOM     58  C   UNL A   1      44.612  23.849  25.145  1.00  0.00     0.009 A 
ATOM     59  C   UNL A   1      44.828  21.112  24.786  1.00  0.00     0.001 A 
ATOM     60  C   UNL A   1      45.510  23.335  24.205  1.00  0.00     0.001 A 
ATOM     61  C   UNL A   1      45.645  21.964  24.052  1.00  0.00     0.000 A 
ENDBRANCH  42  56
BRANCH  43  62
ATOM     62  C   UNL A   1      46.799  30.709  27.720  1.00  0.00    -0.014 A 
ATOM     63  C   UNL A   1      46.223  31.528  26.733  1.00  0.00     0.009 A 
ATOM     64  C   UNL A   1      47.982  31.157  28.333  1.00  0.00     0.009 A 
ATOM     65  C   UNL A   1      46.778  32.773  26.413  1.00  0.00     0.001 A 
ATOM     66  C   UNL A   1      48.541  32.399  28.008  1.00  0.00     0.001 A 
ATOM     67  C   UNL A   1      47.928  33.215  27.063  1.00  0.00     0.000 A 
ENDBRANCH  43  62
BRANCH  55  68
ATOM     68  C   UNL A   1      46.009  25.922  31.615  1.00  0.00    -0.014 A 
ATOM     69  C   UNL A   1      47.098  25.659  32.465  1.00  0.00     0.009 A 
ATOM     70  C   UNL A   1      44.983  26.754  32.091  1.00  0.00     0.009 A 
ATOM     71  C   UNL A   1      47.135  26.180  33.763  1.00  0.00     0.001 A 
ATOM     72  C   UNL A   1      45.033  27.294  33.377  1.00  0.00     0.001 A 
ATOM     73  C   UNL A   1      46.104  26.999  34.216  1.00  0.00     0.000 A 
ENDBRANCH  55  68
ENDBRANCH  29  30
ENDBRANCH  21  24
ENDBRANCH  19  20
ENDBRANCH  18  19
ENDBRANCH   1  18
TORSDOF 13
ENDMDL
