MODEL 1
REMARK VINA RESULT:     -11.3      0.000      0.000
REMARK SMILES Cc1cc(C)c(C(N)=O)c(N[C@H]2C=C[C@H](C(=O)NCCCNC(=O)c3ccc(-c4c5nc(c(-c6ccccc6)c6ccc([nH]6)c(-c6ccccc6)c6nc(c(-c7ccccc7)c7ccc4[nH]7)C=C6)C=C5)cc3)C2)n1
REMARK SMILES IDX 19 1 18 2 16 3 17 4 15 6 12 7 13 8 73 9 14 10 11 11 10 13
REMARK SMILES IDX 1 14 2 15 3 16 74 17 4 18 5 19 6 20 7 21 8 22 9 23 20 26
REMARK SMILES IDX 21 27 22 28 23 29 24 31 25 32 26 33 72 34 27 35 71 36 28 37
REMARK SMILES IDX 29 38 30 39 65 40 31 41 70 42 64 43 66 44 32 45 69 46 63 47
REMARK SMILES IDX 62 48 33 50 55 51 40 52 54 53 41 54 44 55 53 56 67 57 42 58
REMARK SMILES IDX 43 59 52 61 68 62 45 63 34 64 35 65 39 66 36 67 38 68 37 69
REMARK SMILES IDX 56 70 57 71 61 72 58 73 60 74 59 75 46 76 47 77 51 78 48 79
REMARK SMILES IDX 50 80 49 81
REMARK H PARENT 18 5 11 12 8 24 8 25 22 30 66 49 44 60
REMARK Flexibility Score: inf
ROOT
ATOM      1  C   UNL A   1      35.910  20.749  25.011  1.00  0.00     0.117 C 
ENDROOT
BRANCH   1   2
ATOM      2  N   UNL A   1      35.641  21.381  26.289  1.00  0.00    -0.356 N 
ATOM      3  C   UNL A   1      34.786  22.405  26.577  1.00  0.00     0.227 C 
ATOM      4  O   UNL A   1      34.655  22.730  27.757  1.00  0.00    -0.274 OA
ATOM      5  H   UNL A   1      36.145  21.021  27.055  1.00  0.00     0.163 HD
BRANCH   3   6
ATOM      6  C   UNL A   1      34.047  23.090  25.430  1.00  0.00     0.103 C 
ATOM      7  C   UNL A   1      34.040  25.539  25.348  1.00  0.00     0.104 C 
ATOM      8  C   UNL A   1      32.755  25.014  25.885  1.00  0.00    -0.006 C 
ATOM      9  C   UNL A   1      34.820  24.304  24.885  1.00  0.00     0.046 C 
ATOM     10  C   UNL A   1      32.754  23.680  25.928  1.00  0.00    -0.016 C 
BRANCH   7  11
ATOM     11  N   UNL A   1      33.833  26.519  24.300  1.00  0.00    -0.363 N 
ATOM     12  H   UNL A   1      34.429  26.488  23.517  1.00  0.00     0.162 HD
BRANCH  11  13
ATOM     13  C   UNL A   1      32.846  27.504  24.325  1.00  0.00     0.139 A 
ATOM     14  C   UNL A   1      32.225  30.513  26.364  1.00  0.00     0.067 C 
ATOM     15  C   UNL A   1      32.038  29.466  25.310  1.00  0.00     0.040 A 
ATOM     16  C   UNL A   1      30.920  29.472  24.496  1.00  0.00     0.028 A 
ATOM     17  N   UNL A   1      32.987  28.512  25.217  1.00  0.00    -0.236 NA
ATOM     18  C   UNL A   1      30.764  28.470  23.529  1.00  0.00    -0.033 A 
ATOM     19  C   UNL A   1      29.527  28.530  22.679  1.00  0.00     0.045 C 
ATOM     20  C   UNL A   1      31.746  27.459  23.445  1.00  0.00     0.084 A 
BRANCH  20  21
ATOM     21  C   UNL A   1      31.599  26.332  22.477  1.00  0.00     0.252 C 
ATOM     22  N   UNL A   1      31.993  26.555  21.186  1.00  0.00    -0.365 N 
ATOM     23  O   UNL A   1      31.157  25.235  22.802  1.00  0.00    -0.269 OA
ATOM     24  H   UNL A   1      32.348  27.436  20.925  1.00  0.00     0.159 HD
ATOM     25  H   UNL A   1      31.924  25.836  20.519  1.00  0.00     0.159 HD
ENDBRANCH  20  21
ENDBRANCH  11  13
ENDBRANCH   7  11
ENDBRANCH   3   6
ENDBRANCH   1   2
BRANCH   1  26
ATOM     26  C   UNL A   1      37.362  20.887  24.589  1.00  0.00     0.042 C 
BRANCH  26  27
ATOM     27  C   UNL A   1      38.345  20.928  25.748  1.00  0.00     0.118 C 
BRANCH  27  28
ATOM     28  N   UNL A   1      39.338  19.865  25.696  1.00  0.00    -0.352 N 
ATOM     29  C   UNL A   1      40.683  19.893  25.987  1.00  0.00     0.251 C 
ATOM     30  H   UNL A   1      38.995  18.988  25.407  1.00  0.00     0.163 HD
ATOM     31  O   UNL A   1      41.388  18.930  25.727  1.00  0.00    -0.269 OA
BRANCH  29  32
ATOM     32  C   UNL A   1      41.280  21.108  26.584  1.00  0.00     0.039 A 
ATOM     33  C   UNL A   1      41.839  22.070  25.741  1.00  0.00     0.014 A 
ATOM     34  C   UNL A   1      41.274  21.306  27.966  1.00  0.00     0.014 A 
ATOM     35  C   UNL A   1      42.313  23.268  26.278  1.00  0.00     0.010 A 
ATOM     36  C   UNL A   1      41.653  22.536  28.489  1.00  0.00     0.010 A 
ATOM     37  C   UNL A   1      42.180  23.531  27.652  1.00  0.00    -0.014 A 
BRANCH  37  38
ATOM     38  C   UNL A   1      42.589  24.832  28.239  1.00  0.00     0.031 A 
ATOM     39  C   UNL A   1      41.568  25.918  28.445  1.00  0.00     0.074 A 
ATOM     40  C   UNL A   1      43.886  25.062  28.523  1.00  0.00     0.049 A 
ATOM     41  N   UNL A   1      41.742  27.148  28.857  1.00  0.00    -0.248 NA
ATOM     42  C   UNL A   1      40.170  25.587  28.118  1.00  0.00     0.031 C 
ATOM     43  C   UNL A   1      44.981  24.104  28.346  1.00  0.00     0.029 A 
ATOM     44  N   UNL A   1      44.505  26.182  29.022  1.00  0.00    -0.354 N 
ATOM     45  C   UNL A   1      40.483  27.735  28.828  1.00  0.00     0.074 A 
ATOM     46  C   UNL A   1      39.566  26.751  28.300  1.00  0.00     0.031 C 
ATOM     47  C   UNL A   1      46.128  24.665  28.760  1.00  0.00     0.029 A 
ATOM     48  C   UNL A   1      45.861  26.035  29.185  1.00  0.00     0.049 A 
ATOM     49  H   UNL A   1      44.022  27.011  29.243  1.00  0.00     0.167 HD
ATOM     50  C   UNL A   1      40.115  28.975  29.231  1.00  0.00     0.031 A 
ATOM     51  C   UNL A   1      46.788  26.910  29.618  1.00  0.00     0.031 A 
ATOM     52  C   UNL A   1      41.023  29.954  29.763  1.00  0.00     0.049 A 
ATOM     53  C   UNL A   1      46.359  28.297  30.014  1.00  0.00     0.074 A 
ATOM     54  C   UNL A   1      40.742  31.227  30.228  1.00  0.00     0.029 A 
ATOM     55  N   UNL A   1      42.389  29.767  29.903  1.00  0.00    -0.354 N 
ATOM     56  N   UNL A   1      45.157  28.818  30.028  1.00  0.00    -0.248 NA
ATOM     57  C   UNL A   1      47.419  29.213  30.461  1.00  0.00     0.031 C 
ATOM     58  C   UNL A   1      41.946  31.829  30.605  1.00  0.00     0.029 A 
ATOM     59  C   UNL A   1      42.968  30.909  30.431  1.00  0.00     0.049 A 
ATOM     60  H   UNL A   1      42.875  28.945  29.664  1.00  0.00     0.167 HD
ATOM     61  C   UNL A   1      45.311  30.108  30.521  1.00  0.00     0.074 A 
ATOM     62  C   UNL A   1      46.719  30.285  30.806  1.00  0.00     0.031 C 
ATOM     63  C   UNL A   1      44.369  31.062  30.721  1.00  0.00     0.031 A 
BRANCH  50  64
ATOM     64  C   UNL A   1      38.660  29.337  29.114  1.00  0.00    -0.014 A 
ATOM     65  C   UNL A   1      37.797  29.228  30.217  1.00  0.00     0.009 A 
ATOM     66  C   UNL A   1      38.153  29.829  27.902  1.00  0.00     0.009 A 
ATOM     67  C   UNL A   1      36.449  29.570  30.098  1.00  0.00     0.001 A 
ATOM     68  C   UNL A   1      36.812  30.200  27.794  1.00  0.00     0.001 A 
ATOM     69  C   UNL A   1      35.959  30.062  28.889  1.00  0.00     0.000 A 
ENDBRANCH  50  64
BRANCH  51  70
ATOM     70  C   UNL A   1      48.218  26.511  29.715  1.00  0.00    -0.014 A 
ATOM     71  C   UNL A   1      48.708  25.901  30.881  1.00  0.00     0.009 A 
ATOM     72  C   UNL A   1      49.109  26.769  28.661  1.00  0.00     0.009 A 
ATOM     73  C   UNL A   1      50.065  25.594  31.005  1.00  0.00     0.001 A 
ATOM     74  C   UNL A   1      50.460  26.431  28.775  1.00  0.00     0.001 A 
ATOM     75  C   UNL A   1      50.939  25.857  29.951  1.00  0.00     0.000 A 
ENDBRANCH  51  70
BRANCH  63  76
ATOM     76  C   UNL A   1      44.822  32.362  31.323  1.00  0.00    -0.014 A 
ATOM     77  C   UNL A   1      45.213  33.446  30.521  1.00  0.00     0.009 A 
ATOM     78  C   UNL A   1      44.815  32.516  32.719  1.00  0.00     0.009 A 
ATOM     79  C   UNL A   1      45.620  34.646  31.107  1.00  0.00     0.001 A 
ATOM     80  C   UNL A   1      45.191  33.727  33.301  1.00  0.00     0.001 A 
ATOM     81  C   UNL A   1      45.602  34.788  32.495  1.00  0.00     0.000 A 
ENDBRANCH  63  76
ENDBRANCH  37  38
ENDBRANCH  29  32
ENDBRANCH  27  28
ENDBRANCH  26  27
ENDBRANCH   1  26
TORSDOF 13
ENDMDL
MODEL 2
REMARK VINA RESULT:     -11.2      1.251      6.185
REMARK SMILES Cc1cc(C)c(C(N)=O)c(N[C@H]2C=C[C@H](C(=O)NCCCNC(=O)c3ccc(-c4c5nc(c(-c6ccccc6)c6ccc([nH]6)c(-c6ccccc6)c6nc(c(-c7ccccc7)c7ccc4[nH]7)C=C6)C=C5)cc3)C2)n1
REMARK SMILES IDX 19 1 18 2 16 3 17 4 15 6 12 7 13 8 73 9 14 10 11 11 10 13
REMARK SMILES IDX 1 14 2 15 3 16 74 17 4 18 5 19 6 20 7 21 8 22 9 23 20 26
REMARK SMILES IDX 21 27 22 28 23 29 24 31 25 32 26 33 72 34 27 35 71 36 28 37
REMARK SMILES IDX 29 38 30 39 65 40 31 41 70 42 64 43 66 44 32 45 69 46 63 47
REMARK SMILES IDX 62 48 33 50 55 51 40 52 54 53 41 54 44 55 53 56 67 57 42 58
REMARK SMILES IDX 43 59 52 61 68 62 45 63 34 64 35 65 39 66 36 67 38 68 37 69
REMARK SMILES IDX 56 70 57 71 61 72 58 73 60 74 59 75 46 76 47 77 51 78 48 79
REMARK SMILES IDX 50 80 49 81
REMARK H PARENT 18 5 11 12 8 24 8 25 22 30 66 49 44 60
REMARK Flexibility Score: inf
ROOT
ATOM      1  C   UNL A   1      36.383  20.981  24.915  1.00  0.00     0.117 C 
ENDROOT
BRANCH   1   2
ATOM      2  N   UNL A   1      35.135  20.403  25.373  1.00  0.00    -0.356 N 
ATOM      3  C   UNL A   1      33.857  20.724  25.015  1.00  0.00     0.227 C 
ATOM      4  O   UNL A   1      32.942  20.040  25.474  1.00  0.00    -0.274 OA
ATOM      5  H   UNL A   1      35.220  19.678  26.034  1.00  0.00     0.163 HD
BRANCH   3   6
ATOM      6  C   UNL A   1      33.632  21.908  24.079  1.00  0.00     0.103 C 
ATOM      7  C   UNL A   1      31.451  23.024  24.114  1.00  0.00     0.104 C 
ATOM      8  C   UNL A   1      31.566  22.103  22.950  1.00  0.00    -0.006 C 
ATOM      9  C   UNL A   1      32.843  23.043  24.754  1.00  0.00     0.046 C 
ATOM     10  C   UNL A   1      32.755  21.495  22.926  1.00  0.00    -0.016 C 
BRANCH   7  11
ATOM     11  N   UNL A   1      30.976  24.337  23.724  1.00  0.00    -0.363 N 
ATOM     12  H   UNL A   1      30.128  24.390  23.226  1.00  0.00     0.162 HD
BRANCH  11  13
ATOM     13  C   UNL A   1      31.638  25.531  24.008  1.00  0.00     0.139 A 
ATOM     14  C   UNL A   1      31.763  27.811  26.903  1.00  0.00     0.067 C 
ATOM     15  C   UNL A   1      32.051  27.243  25.548  1.00  0.00     0.040 A 
ATOM     16  C   UNL A   1      32.859  27.920  24.653  1.00  0.00     0.028 A 
ATOM     17  N   UNL A   1      31.466  26.068  25.238  1.00  0.00    -0.236 NA
ATOM     18  C   UNL A   1      33.097  27.371  23.386  1.00  0.00    -0.033 A 
ATOM     19  C   UNL A   1      33.980  28.157  22.458  1.00  0.00     0.045 C 
ATOM     20  C   UNL A   1      32.469  26.152  23.052  1.00  0.00     0.084 A 
BRANCH  20  21
ATOM     21  C   UNL A   1      32.637  25.553  21.695  1.00  0.00     0.252 C 
ATOM     22  N   UNL A   1      31.818  26.011  20.699  1.00  0.00    -0.365 N 
ATOM     23  O   UNL A   1      33.477  24.693  21.452  1.00  0.00    -0.269 OA
ATOM     24  H   UNL A   1      31.144  26.701  20.895  1.00  0.00     0.159 HD
ATOM     25  H   UNL A   1      31.903  25.651  19.788  1.00  0.00     0.159 HD
ENDBRANCH  20  21
ENDBRANCH  11  13
ENDBRANCH   7  11
ENDBRANCH   3   6
ENDBRANCH   1   2
BRANCH   1  26
ATOM     26  C   UNL A   1      37.527  19.982  24.935  1.00  0.00     0.042 C 
BRANCH  26  27
ATOM     27  C   UNL A   1      38.745  20.448  25.717  1.00  0.00     0.118 C 
BRANCH  27  28
ATOM     28  N   UNL A   1      39.817  19.463  25.750  1.00  0.00    -0.352 N 
ATOM     29  C   UNL A   1      41.148  19.612  26.065  1.00  0.00     0.251 C 
ATOM     30  H   UNL A   1      39.548  18.547  25.508  1.00  0.00     0.163 HD
ATOM     31  O   UNL A   1      41.930  18.692  25.878  1.00  0.00    -0.269 OA
BRANCH  29  32
ATOM     32  C   UNL A   1      41.636  20.903  26.597  1.00  0.00     0.039 A 
ATOM     33  C   UNL A   1      42.169  21.841  25.711  1.00  0.00     0.014 A 
ATOM     34  C   UNL A   1      41.556  21.193  27.960  1.00  0.00     0.014 A 
ATOM     35  C   UNL A   1      42.539  23.103  26.181  1.00  0.00     0.010 A 
ATOM     36  C   UNL A   1      41.829  22.479  28.410  1.00  0.00     0.010 A 
ATOM     37  C   UNL A   1      42.327  23.449  27.526  1.00  0.00    -0.014 A 
BRANCH  37  38
ATOM     38  C   UNL A   1      42.623  24.812  28.036  1.00  0.00     0.031 A 
ATOM     39  C   UNL A   1      44.027  25.173  28.440  1.00  0.00     0.074 A 
ATOM     40  C   UNL A   1      41.623  25.699  28.200  1.00  0.00     0.049 A 
ATOM     41  N   UNL A   1      44.470  26.276  28.990  1.00  0.00    -0.248 NA
ATOM     42  C   UNL A   1      45.066  24.153  28.222  1.00  0.00     0.031 C 
ATOM     43  C   UNL A   1      40.214  25.466  27.874  1.00  0.00     0.029 A 
ATOM     44  N   UNL A   1      41.640  26.983  28.688  1.00  0.00    -0.354 N 
ATOM     45  C   UNL A   1      45.829  26.075  29.191  1.00  0.00     0.074 A 
ATOM     46  C   UNL A   1      46.128  24.727  28.765  1.00  0.00     0.031 C 
ATOM     47  C   UNL A   1      39.510  26.579  28.139  1.00  0.00     0.029 A 
ATOM     48  C   UNL A   1      40.405  27.585  28.699  1.00  0.00     0.049 A 
ATOM     49  H   UNL A   1      42.460  27.429  29.000  1.00  0.00     0.167 HD
ATOM     50  C   UNL A   1      46.755  26.943  29.663  1.00  0.00     0.031 A 
ATOM     51  C   UNL A   1      40.034  28.808  29.123  1.00  0.00     0.031 A 
ATOM     52  C   UNL A   1      46.463  28.287  30.083  1.00  0.00     0.049 A 
ATOM     53  C   UNL A   1      41.074  29.735  29.688  1.00  0.00     0.074 A 
ATOM     54  C   UNL A   1      47.337  29.255  30.547  1.00  0.00     0.029 A 
ATOM     55  N   UNL A   1      45.198  28.854  30.084  1.00  0.00    -0.354 N 
ATOM     56  N   UNL A   1      42.364  29.547  29.824  1.00  0.00    -0.248 NA
ATOM     57  C   UNL A   1      40.605  31.049  30.153  1.00  0.00     0.031 C 
ATOM     58  C   UNL A   1      46.593  30.392  30.875  1.00  0.00     0.029 A 
ATOM     59  C   UNL A   1      45.265  30.153  30.559  1.00  0.00     0.049 A 
ATOM     60  H   UNL A   1      44.375  28.400  29.792  1.00  0.00     0.167 HD
ATOM     61  C   UNL A   1      42.865  30.730  30.352  1.00  0.00     0.074 A 
ATOM     62  C   UNL A   1      41.744  31.633  30.499  1.00  0.00     0.031 C 
ATOM     63  C   UNL A   1      44.141  31.042  30.686  1.00  0.00     0.031 A 
BRANCH  50  64
ATOM     64  C   UNL A   1      48.177  26.462  29.747  1.00  0.00    -0.014 A 
ATOM     65  C   UNL A   1      49.069  26.652  28.678  1.00  0.00     0.009 A 
ATOM     66  C   UNL A   1      48.644  25.846  30.917  1.00  0.00     0.009 A 
ATOM     67  C   UNL A   1      50.388  26.203  28.768  1.00  0.00     0.001 A 
ATOM     68  C   UNL A   1      49.971  25.426  31.016  1.00  0.00     0.001 A 
ATOM     69  C   UNL A   1      50.840  25.597  29.938  1.00  0.00     0.000 A 
ENDBRANCH  50  64
BRANCH  51  70
ATOM     70  C   UNL A   1      38.614  29.243  29.026  1.00  0.00    -0.014 A 
ATOM     71  C   UNL A   1      38.124  29.805  27.836  1.00  0.00     0.009 A 
ATOM     72  C   UNL A   1      37.752  29.134  30.128  1.00  0.00     0.009 A 
ATOM     73  C   UNL A   1      36.814  30.284  27.766  1.00  0.00     0.001 A 
ATOM     74  C   UNL A   1      36.432  29.584  30.045  1.00  0.00     0.001 A 
ATOM     75  C   UNL A   1      35.968  30.171  28.869  1.00  0.00     0.000 A 
ENDBRANCH  51  70
BRANCH  63  76
ATOM     76  C   UNL A   1      44.401  32.433  31.191  1.00  0.00    -0.014 A 
ATOM     77  C   UNL A   1      44.370  32.733  32.562  1.00  0.00     0.009 A 
ATOM     78  C   UNL A   1      44.727  33.450  30.279  1.00  0.00     0.009 A 
ATOM     79  C   UNL A   1      44.625  34.033  33.004  1.00  0.00     0.001 A 
ATOM     80  C   UNL A   1      45.014  34.739  30.726  1.00  0.00     0.001 A 
ATOM     81  C   UNL A   1      44.953  35.032  32.088  1.00  0.00     0.000 A 
ENDBRANCH  63  76
ENDBRANCH  37  38
ENDBRANCH  29  32
ENDBRANCH  27  28
ENDBRANCH  26  27
ENDBRANCH   1  26
TORSDOF 13
ENDMDL
MODEL 3
REMARK VINA RESULT:     -11.2      2.463      6.910
REMARK SMILES Cc1cc(C)c(C(N)=O)c(N[C@H]2C=C[C@H](C(=O)NCCCNC(=O)c3ccc(-c4c5nc(c(-c6ccccc6)c6ccc([nH]6)c(-c6ccccc6)c6nc(c(-c7ccccc7)c7ccc4[nH]7)C=C6)C=C5)cc3)C2)n1
REMARK SMILES IDX 19 1 18 2 16 3 17 4 15 6 12 7 13 8 73 9 14 10 11 11 10 13
REMARK SMILES IDX 1 14 2 15 3 16 74 17 4 18 5 19 6 20 7 21 8 22 9 23 20 26
REMARK SMILES IDX 21 27 22 28 23 29 24 31 25 32 26 33 72 34 27 35 71 36 28 37
REMARK SMILES IDX 29 38 30 39 65 40 31 41 70 42 64 43 66 44 32 45 69 46 63 47
REMARK SMILES IDX 62 48 33 50 55 51 40 52 54 53 41 54 44 55 53 56 67 57 42 58
REMARK SMILES IDX 43 59 52 61 68 62 45 63 34 64 35 65 39 66 36 67 38 68 37 69
REMARK SMILES IDX 56 70 57 71 61 72 58 73 60 74 59 75 46 76 47 77 51 78 48 79
REMARK SMILES IDX 50 80 49 81
REMARK H PARENT 18 5 11 12 8 24 8 25 22 30 66 49 44 60
REMARK Flexibility Score: inf
ROOT
ATOM      1  C   UNL A   1      35.452  22.035  24.192  1.00  0.00     0.117 C 
ENDROOT
BRANCH   1   2
ATOM      2  N   UNL A   1      35.090  21.730  25.563  1.00  0.00    -0.356 N 
ATOM      3  C   UNL A   1      33.918  21.978  26.217  1.00  0.00     0.227 C 
ATOM      4  O   UNL A   1      33.799  21.554  27.367  1.00  0.00    -0.274 OA
ATOM      5  H   UNL A   1      35.785  21.280  26.096  1.00  0.00     0.163 HD
BRANCH   3   6
ATOM      6  C   UNL A   1      32.827  22.768  25.497  1.00  0.00     0.103 C 
ATOM      7  C   UNL A   1      31.201  24.006  26.847  1.00  0.00     0.104 C 
ATOM      8  C   UNL A   1      30.626  22.726  26.351  1.00  0.00    -0.006 C 
ATOM      9  C   UNL A   1      32.564  24.131  26.158  1.00  0.00     0.046 C 
ATOM     10  C   UNL A   1      31.509  22.050  25.613  1.00  0.00    -0.016 C 
BRANCH   7  11
ATOM     11  N   UNL A   1      30.321  25.131  26.597  1.00  0.00    -0.363 N 
ATOM     12  H   UNL A   1      29.366  25.026  26.816  1.00  0.00     0.162 HD
BRANCH  11  13
ATOM     13  C   UNL A   1      30.735  26.353  26.069  1.00  0.00     0.139 A 
ATOM     14  C   UNL A   1      32.560  29.273  27.389  1.00  0.00     0.067 C 
ATOM     15  C   UNL A   1      31.834  28.387  26.424  1.00  0.00     0.040 A 
ATOM     16  C   UNL A   1      31.555  28.819  25.140  1.00  0.00     0.028 A 
ATOM     17  N   UNL A   1      31.447  27.177  26.873  1.00  0.00    -0.236 NA
ATOM     18  C   UNL A   1      30.860  27.974  24.264  1.00  0.00    -0.033 A 
ATOM     19  C   UNL A   1      30.584  28.502  22.884  1.00  0.00     0.045 C 
ATOM     20  C   UNL A   1      30.435  26.715  24.740  1.00  0.00     0.084 A 
BRANCH  20  21
ATOM     21  C   UNL A   1      29.637  25.801  23.870  1.00  0.00     0.252 C 
ATOM     22  N   UNL A   1      28.301  26.062  23.741  1.00  0.00    -0.365 N 
ATOM     23  O   UNL A   1      30.138  24.853  23.273  1.00  0.00    -0.269 OA
ATOM     24  H   UNL A   1      27.899  26.823  24.220  1.00  0.00     0.159 HD
ATOM     25  H   UNL A   1      27.740  25.491  23.168  1.00  0.00     0.159 HD
ENDBRANCH  20  21
ENDBRANCH  11  13
ENDBRANCH   7  11
ENDBRANCH   3   6
ENDBRANCH   1   2
BRANCH   1  26
ATOM     26  C   UNL A   1      36.583  23.045  24.101  1.00  0.00     0.042 C 
BRANCH  26  27
ATOM     27  C   UNL A   1      37.258  23.343  25.431  1.00  0.00     0.118 C 
BRANCH  27  28
ATOM     28  N   UNL A   1      38.486  22.587  25.631  1.00  0.00    -0.352 N 
ATOM     29  C   UNL A   1      39.685  22.975  26.184  1.00  0.00     0.251 C 
ATOM     30  H   UNL A   1      38.455  21.652  25.323  1.00  0.00     0.163 HD
ATOM     31  O   UNL A   1      40.658  22.240  26.119  1.00  0.00    -0.269 OA
BRANCH  29  32
ATOM     32  C   UNL A   1      39.802  24.302  26.828  1.00  0.00     0.039 A 
ATOM     33  C   UNL A   1      39.284  24.478  28.113  1.00  0.00     0.014 A 
ATOM     34  C   UNL A   1      40.430  25.364  26.174  1.00  0.00     0.014 A 
ATOM     35  C   UNL A   1      39.476  25.692  28.774  1.00  0.00     0.010 A 
ATOM     36  C   UNL A   1      40.708  26.535  26.868  1.00  0.00     0.010 A 
ATOM     37  C   UNL A   1      40.232  26.714  28.176  1.00  0.00    -0.014 A 
BRANCH  37  38
ATOM     38  C   UNL A   1      40.531  27.981  28.890  1.00  0.00     0.031 A 
ATOM     39  C   UNL A   1      41.856  28.157  29.583  1.00  0.00     0.074 A 
ATOM     40  C   UNL A   1      39.592  28.943  28.974  1.00  0.00     0.049 A 
ATOM     41  N   UNL A   1      42.270  29.147  30.333  1.00  0.00    -0.248 NA
ATOM     42  C   UNL A   1      42.833  27.065  29.438  1.00  0.00     0.031 C 
ATOM     43  C   UNL A   1      38.258  28.887  28.371  1.00  0.00     0.029 A 
ATOM     44  N   UNL A   1      39.616  30.162  29.607  1.00  0.00    -0.354 N 
ATOM     45  C   UNL A   1      43.546  28.791  30.753  1.00  0.00     0.074 A 
ATOM     46  C   UNL A   1      43.813  27.471  30.230  1.00  0.00     0.031 C 
ATOM     47  C   UNL A   1      37.606  30.031  28.635  1.00  0.00     0.029 A 
ATOM     48  C   UNL A   1      38.454  30.880  29.465  1.00  0.00     0.049 A 
ATOM     49  H   UNL A   1      40.394  30.489  30.114  1.00  0.00     0.167 HD
ATOM     50  C   UNL A   1      44.429  29.509  31.486  1.00  0.00     0.031 A 
ATOM     51  C   UNL A   1      38.106  32.084  29.958  1.00  0.00     0.031 A 
ATOM     52  C   UNL A   1      44.169  30.826  32.003  1.00  0.00     0.049 A 
ATOM     53  C   UNL A   1      39.089  32.839  30.810  1.00  0.00     0.074 A 
ATOM     54  C   UNL A   1      45.012  31.648  32.731  1.00  0.00     0.029 A 
ATOM     55  N   UNL A   1      42.977  31.513  31.842  1.00  0.00    -0.354 N 
ATOM     56  N   UNL A   1      40.310  32.510  31.155  1.00  0.00    -0.248 NA
ATOM     57  C   UNL A   1      38.645  34.139  31.335  1.00  0.00     0.031 C 
ATOM     58  C   UNL A   1      44.311  32.814  33.052  1.00  0.00     0.029 A 
ATOM     59  C   UNL A   1      43.054  32.743  32.473  1.00  0.00     0.049 A 
ATOM     60  H   UNL A   1      42.192  31.177  31.352  1.00  0.00     0.167 HD
ATOM     61  C   UNL A   1      40.792  33.576  31.903  1.00  0.00     0.074 A 
ATOM     62  C   UNL A   1      39.738  34.567  31.951  1.00  0.00     0.031 C 
ATOM     63  C   UNL A   1      42.000  33.722  32.499  1.00  0.00     0.031 A 
BRANCH  50  64
ATOM     64  C   UNL A   1      45.766  28.881  31.769  1.00  0.00    -0.014 A 
ATOM     65  C   UNL A   1      46.855  29.078  30.903  1.00  0.00     0.009 A 
ATOM     66  C   UNL A   1      45.953  28.117  32.930  1.00  0.00     0.009 A 
ATOM     67  C   UNL A   1      48.092  28.492  31.177  1.00  0.00     0.001 A 
ATOM     68  C   UNL A   1      47.199  27.559  33.218  1.00  0.00     0.001 A 
ATOM     69  C   UNL A   1      48.265  27.739  32.337  1.00  0.00     0.000 A 
ENDBRANCH  50  64
BRANCH  51  70
ATOM     70  C   UNL A   1      36.771  32.667  29.656  1.00  0.00    -0.014 A 
ATOM     71  C   UNL A   1      36.579  33.445  28.503  1.00  0.00     0.009 A 
ATOM     72  C   UNL A   1      35.691  32.482  30.534  1.00  0.00     0.009 A 
ATOM     73  C   UNL A   1      35.348  34.056  28.257  1.00  0.00     0.001 A 
ATOM     74  C   UNL A   1      34.451  33.067  30.268  1.00  0.00     0.001 A 
ATOM     75  C   UNL A   1      34.284  33.865  29.138  1.00  0.00     0.000 A 
ENDBRANCH  51  70
BRANCH  63  76
ATOM     76  C   UNL A   1      42.268  35.022  33.205  1.00  0.00    -0.014 A 
ATOM     77  C   UNL A   1      41.773  35.270  34.495  1.00  0.00     0.009 A 
ATOM     78  C   UNL A   1      43.067  35.994  32.584  1.00  0.00     0.009 A 
ATOM     79  C   UNL A   1      42.045  36.482  35.133  1.00  0.00     0.001 A 
ATOM     80  C   UNL A   1      43.365  37.191  33.236  1.00  0.00     0.001 A 
ATOM     81  C   UNL A   1      42.845  37.438  34.506  1.00  0.00     0.000 A 
ENDBRANCH  63  76
ENDBRANCH  37  38
ENDBRANCH  29  32
ENDBRANCH  27  28
ENDBRANCH  26  27
ENDBRANCH   1  26
TORSDOF 13
ENDMDL
