MODEL 1
REMARK VINA RESULT:     -12.1      0.000      0.000
REMARK SMILES Cc1ccc(-c2nn(-c3ccccc3)cc2[C@@H]2[NH2+][C@H](C(=O)NCCCNC(=O)c3ccc(-c4c5nc(c(-c6ccccc6)c6ccc([nH]6)c(-c6ccccc6)c6nc(c(-c7ccccc7)c7ccc4[nH]7)C=C6)C=C5)cc3)CS2)cc1
REMARK SMILES IDX 24 1 23 2 22 3 20 4 21 5 19 7 17 8 18 9 78 10 77 13 16 14
REMARK SMILES IDX 6 15 7 16 8 17 15 18 5 19 1 20 2 21 3 22 80 23 4 24 79 25
REMARK SMILES IDX 9 26 10 27 14 28 11 29 13 30 12 31 25 32 26 33 27 34 28 36
REMARK SMILES IDX 29 37 30 38 76 39 31 40 75 41 32 42 33 43 34 44 69 45 35 46
REMARK SMILES IDX 74 47 68 48 70 49 36 50 73 51 67 52 66 53 37 55 59 56 44 57
REMARK SMILES IDX 58 58 45 59 48 60 57 61 71 62 46 63 47 64 56 66 72 67 49 68
REMARK SMILES IDX 38 69 39 70 43 71 40 72 42 73 41 74 60 75 61 76 65 77 62 78
REMARK SMILES IDX 64 79 63 80 50 81 51 82 55 83 52 84 54 85 53 86
REMARK H PARENT 22 6 18 11 18 12 26 35 70 54 48 65
REMARK Flexibility Score: inf
ROOT
ATOM      1  C   UNL A   1      42.044  23.077  26.610  1.00  0.00     0.042 C 
ENDROOT
BRANCH   1   2
ATOM      2  C   UNL A   1      40.532  23.255  26.461  1.00  0.00     0.118 C 
BRANCH   2   3
ATOM      3  N   UNL A   1      39.854  22.010  26.127  1.00  0.00    -0.351 N 
ATOM      4  C   UNL A   1      38.647  21.748  25.558  1.00  0.00     0.279 C 
ATOM      5  O   UNL A   1      38.382  20.556  25.356  1.00  0.00    -0.268 OA
ATOM      6  H   UNL A   1      40.370  21.203  26.356  1.00  0.00     0.163 HD
BRANCH   4   7
ATOM      7  C   UNL A   1      37.657  22.823  25.087  1.00  0.00     0.283 C 
ATOM      8  C   UNL A   1      35.407  22.986  24.176  1.00  0.00     0.278 C 
ATOM      9  N   UNL A   1      36.729  22.358  24.033  1.00  0.00    -0.320 N 
ATOM     10  S   UNL A   1      35.529  24.255  25.461  1.00  0.00    -0.087 SA
ATOM     11  H   UNL A   1      37.115  22.599  23.120  1.00  0.00     0.348 HD
ATOM     12  H   UNL A   1      36.620  21.349  24.120  1.00  0.00     0.348 HD
ATOM     13  C   UNL A   1      36.910  23.419  26.266  1.00  0.00     0.151 C 
BRANCH   8  14
ATOM     14  C   UNL A   1      34.451  21.880  24.518  1.00  0.00     0.067 A 
ATOM     15  C   UNL A   1      33.020  21.923  24.542  1.00  0.00     0.103 A 
ATOM     16  N   UNL A   1      32.512  20.681  24.617  1.00  0.00    -0.167 NA
ATOM     17  N   UNL A   1      33.562  19.851  24.773  1.00  0.00    -0.240 N 
ATOM     18  C   UNL A   1      34.737  20.555  24.829  1.00  0.00     0.126 A 
BRANCH  15  19
ATOM     19  C   UNL A   1      32.079  23.047  24.427  1.00  0.00     0.003 A 
ATOM     20  C   UNL A   1      29.228  26.301  24.288  1.00  0.00     0.044 C 
ATOM     21  C   UNL A   1      30.218  25.176  24.344  1.00  0.00    -0.051 A 
ATOM     22  C   UNL A   1      30.607  24.523  23.170  1.00  0.00     0.004 A 
ATOM     23  C   UNL A   1      30.738  24.739  25.563  1.00  0.00     0.004 A 
ATOM     24  C   UNL A   1      31.532  23.471  23.213  1.00  0.00     0.011 A 
ATOM     25  C   UNL A   1      31.655  23.686  25.603  1.00  0.00     0.011 A 
ENDBRANCH  15  19
BRANCH  17  26
ATOM     26  C   UNL A   1      33.395  18.438  24.785  1.00  0.00     0.065 A 
ATOM     27  C   UNL A   1      34.053  17.658  23.826  1.00  0.00     0.028 A 
ATOM     28  C   UNL A   1      32.600  17.805  25.748  1.00  0.00     0.028 A 
ATOM     29  C   UNL A   1      33.932  16.267  23.829  1.00  0.00     0.002 A 
ATOM     30  C   UNL A   1      32.439  16.415  25.715  1.00  0.00     0.002 A 
ATOM     31  C   UNL A   1      33.105  15.648  24.758  1.00  0.00     0.000 A 
ENDBRANCH  17  26
ENDBRANCH   8  14
ENDBRANCH   4   7
ENDBRANCH   2   3
ENDBRANCH   1   2
BRANCH   1  32
ATOM     32  C   UNL A   1      42.824  23.333  25.330  1.00  0.00     0.118 C 
BRANCH  32  33
ATOM     33  N   UNL A   1      43.610  22.246  24.742  1.00  0.00    -0.352 N 
ATOM     34  C   UNL A   1      45.002  22.119  24.763  1.00  0.00     0.251 C 
ATOM     35  H   UNL A   1      43.107  21.534  24.286  1.00  0.00     0.163 HD
ATOM     36  O   UNL A   1      45.613  21.216  24.238  1.00  0.00    -0.269 OA
BRANCH  34  37
ATOM     37  C   UNL A   1      45.718  23.113  25.591  1.00  0.00     0.039 A 
ATOM     38  C   UNL A   1      45.581  23.016  26.985  1.00  0.00     0.014 A 
ATOM     39  C   UNL A   1      46.032  24.308  24.967  1.00  0.00     0.014 A 
ATOM     40  C   UNL A   1      45.520  24.179  27.750  1.00  0.00     0.010 A 
ATOM     41  C   UNL A   1      45.828  25.452  25.699  1.00  0.00     0.010 A 
ATOM     42  C   UNL A   1      45.547  25.399  27.084  1.00  0.00    -0.014 A 
BRANCH  42  43
ATOM     43  C   UNL A   1      45.348  26.719  27.674  1.00  0.00     0.031 A 
ATOM     44  C   UNL A   1      43.964  27.278  27.609  1.00  0.00     0.074 A 
ATOM     45  C   UNL A   1      46.249  27.276  28.518  1.00  0.00     0.049 A 
ATOM     46  N   UNL A   1      43.608  28.421  28.082  1.00  0.00    -0.248 NA
ATOM     47  C   UNL A   1      42.849  26.565  26.980  1.00  0.00     0.031 C 
ATOM     48  C   UNL A   1      45.915  28.192  29.613  1.00  0.00     0.029 A 
ATOM     49  N   UNL A   1      47.636  27.236  28.594  1.00  0.00    -0.354 N 
ATOM     50  C   UNL A   1      42.237  28.410  28.190  1.00  0.00     0.074 A 
ATOM     51  C   UNL A   1      41.808  27.289  27.393  1.00  0.00     0.031 C 
ATOM     52  C   UNL A   1      47.020  28.842  30.000  1.00  0.00     0.029 A 
ATOM     53  C   UNL A   1      48.061  28.497  29.063  1.00  0.00     0.049 A 
ATOM     54  H   UNL A   1      48.213  26.472  28.365  1.00  0.00     0.167 HD
ATOM     55  C   UNL A   1      41.642  29.273  29.060  1.00  0.00     0.031 A 
ATOM     56  C   UNL A   1      48.742  29.424  28.316  1.00  0.00     0.031 A 
ATOM     57  C   UNL A   1      42.586  30.283  29.554  1.00  0.00     0.049 A 
ATOM     58  C   UNL A   1      47.980  30.706  28.038  1.00  0.00     0.074 A 
ATOM     59  C   UNL A   1      43.201  30.565  30.762  1.00  0.00     0.029 A 
ATOM     60  N   UNL A   1      43.244  31.056  28.609  1.00  0.00    -0.354 N 
ATOM     61  N   UNL A   1      46.870  31.048  28.631  1.00  0.00    -0.248 NA
ATOM     62  C   UNL A   1      48.347  31.642  26.971  1.00  0.00     0.031 C 
ATOM     63  C   UNL A   1      44.254  31.503  30.516  1.00  0.00     0.029 A 
ATOM     64  C   UNL A   1      44.258  31.806  29.167  1.00  0.00     0.049 A 
ATOM     65  H   UNL A   1      43.015  31.068  27.652  1.00  0.00     0.167 HD
ATOM     66  C   UNL A   1      46.325  32.124  27.987  1.00  0.00     0.074 A 
ATOM     67  C   UNL A   1      47.300  32.485  26.975  1.00  0.00     0.031 C 
ATOM     68  C   UNL A   1      45.079  32.604  28.269  1.00  0.00     0.031 A 
BRANCH  55  69
ATOM     69  C   UNL A   1      40.236  29.112  29.595  1.00  0.00    -0.014 A 
ATOM     70  C   UNL A   1      40.049  28.667  30.916  1.00  0.00     0.009 A 
ATOM     71  C   UNL A   1      39.059  29.311  28.852  1.00  0.00     0.009 A 
ATOM     72  C   UNL A   1      38.775  28.400  31.440  1.00  0.00     0.001 A 
ATOM     73  C   UNL A   1      37.783  29.041  29.364  1.00  0.00     0.001 A 
ATOM     74  C   UNL A   1      37.641  28.576  30.660  1.00  0.00     0.000 A 
ENDBRANCH  55  69
BRANCH  56  75
ATOM     75  C   UNL A   1      49.764  28.832  27.430  1.00  0.00    -0.014 A 
ATOM     76  C   UNL A   1      50.890  28.305  28.087  1.00  0.00     0.009 A 
ATOM     77  C   UNL A   1      49.365  28.316  26.188  1.00  0.00     0.009 A 
ATOM     78  C   UNL A   1      51.433  27.106  27.650  1.00  0.00     0.001 A 
ATOM     79  C   UNL A   1      49.912  27.111  25.760  1.00  0.00     0.001 A 
ATOM     80  C   UNL A   1      50.891  26.485  26.532  1.00  0.00     0.000 A 
ENDBRANCH  56  75
BRANCH  68  81
ATOM     81  C   UNL A   1      44.511  33.844  27.631  1.00  0.00    -0.014 A 
ATOM     82  C   UNL A   1      44.415  35.057  28.327  1.00  0.00     0.009 A 
ATOM     83  C   UNL A   1      43.929  33.797  26.349  1.00  0.00     0.009 A 
ATOM     84  C   UNL A   1      43.832  36.188  27.743  1.00  0.00     0.001 A 
ATOM     85  C   UNL A   1      43.323  34.916  25.771  1.00  0.00     0.001 A 
ATOM     86  C   UNL A   1      43.287  36.117  26.465  1.00  0.00     0.000 A 
ENDBRANCH  68  81
ENDBRANCH  42  43
ENDBRANCH  34  37
ENDBRANCH  32  33
ENDBRANCH   1  32
TORSDOF 13
ENDMDL
MODEL 2
REMARK VINA RESULT:     -12.0      5.456     12.272
REMARK SMILES Cc1ccc(-c2nn(-c3ccccc3)cc2[C@@H]2[NH2+][C@H](C(=O)NCCCNC(=O)c3ccc(-c4c5nc(c(-c6ccccc6)c6ccc([nH]6)c(-c6ccccc6)c6nc(c(-c7ccccc7)c7ccc4[nH]7)C=C6)C=C5)cc3)CS2)cc1
REMARK SMILES IDX 24 1 23 2 22 3 20 4 21 5 19 7 17 8 18 9 78 10 77 13 16 14
REMARK SMILES IDX 6 15 7 16 8 17 15 18 5 19 1 20 2 21 3 22 80 23 4 24 79 25
REMARK SMILES IDX 9 26 10 27 14 28 11 29 13 30 12 31 25 32 26 33 27 34 28 36
REMARK SMILES IDX 29 37 30 38 76 39 31 40 75 41 32 42 33 43 34 44 69 45 35 46
REMARK SMILES IDX 74 47 68 48 70 49 36 50 73 51 67 52 66 53 37 55 59 56 44 57
REMARK SMILES IDX 58 58 45 59 48 60 57 61 71 62 46 63 47 64 56 66 72 67 49 68
REMARK SMILES IDX 38 69 39 70 43 71 40 72 42 73 41 74 60 75 61 76 65 77 62 78
REMARK SMILES IDX 64 79 63 80 50 81 51 82 55 83 52 84 54 85 53 86
REMARK H PARENT 22 6 18 11 18 12 26 35 70 54 48 65
REMARK Flexibility Score: inf
ROOT
ATOM      1  C   UNL A   1      40.821  33.145  38.589  1.00  0.00     0.042 C 
ENDROOT
BRANCH   1   2
ATOM      2  C   UNL A   1      41.359  34.575  38.521  1.00  0.00     0.118 C 
BRANCH   2   3
ATOM      3  N   UNL A   1      40.527  35.446  37.702  1.00  0.00    -0.351 N 
ATOM      4  C   UNL A   1      40.630  35.866  36.413  1.00  0.00     0.279 C 
ATOM      5  O   UNL A   1      39.709  36.576  35.990  1.00  0.00    -0.268 OA
ATOM      6  H   UNL A   1      39.737  35.798  38.173  1.00  0.00     0.163 HD
BRANCH   4   7
ATOM      7  C   UNL A   1      41.754  35.450  35.452  1.00  0.00     0.283 C 
ATOM      8  C   UNL A   1      42.057  34.130  33.431  1.00  0.00     0.278 C 
ATOM      9  N   UNL A   1      41.528  34.139  34.804  1.00  0.00    -0.320 N 
ATOM     10  S   UNL A   1      42.978  35.667  33.177  1.00  0.00    -0.087 SA
ATOM     11  H   UNL A   1      41.997  33.414  35.346  1.00  0.00     0.348 HD
ATOM     12  H   UNL A   1      40.525  33.965  34.765  1.00  0.00     0.348 HD
ATOM     13  C   UNL A   1      42.019  36.540  34.431  1.00  0.00     0.151 C 
BRANCH   8  14
ATOM     14  C   UNL A   1      40.869  33.988  32.523  1.00  0.00     0.067 A 
ATOM     15  C   UNL A   1      40.851  33.630  31.137  1.00  0.00     0.103 A 
ATOM     16  N   UNL A   1      39.602  33.334  30.743  1.00  0.00    -0.167 NA
ATOM     17  N   UNL A   1      38.798  33.615  31.787  1.00  0.00    -0.240 N 
ATOM     18  C   UNL A   1      39.520  34.117  32.839  1.00  0.00     0.126 A 
BRANCH  15  19
ATOM     19  C   UNL A   1      41.939  33.471  30.161  1.00  0.00     0.003 A 
ATOM     20  C   UNL A   1      45.214  32.830  27.403  1.00  0.00     0.044 C 
ATOM     21  C   UNL A   1      44.077  33.045  28.358  1.00  0.00    -0.051 A 
ATOM     22  C   UNL A   1      43.609  34.337  28.615  1.00  0.00     0.004 A 
ATOM     23  C   UNL A   1      43.494  31.970  29.030  1.00  0.00     0.004 A 
ATOM     24  C   UNL A   1      42.547  34.546  29.506  1.00  0.00     0.011 A 
ATOM     25  C   UNL A   1      42.440  32.182  29.922  1.00  0.00     0.011 A 
ENDBRANCH  15  19
BRANCH  17  26
ATOM     26  C   UNL A   1      37.406  33.322  31.752  1.00  0.00     0.065 A 
ATOM     27  C   UNL A   1      36.953  32.073  32.196  1.00  0.00     0.028 A 
ATOM     28  C   UNL A   1      36.473  34.262  31.297  1.00  0.00     0.028 A 
ATOM     29  C   UNL A   1      35.592  31.766  32.201  1.00  0.00     0.002 A 
ATOM     30  C   UNL A   1      35.114  33.930  31.254  1.00  0.00     0.002 A 
ATOM     31  C   UNL A   1      34.675  32.685  31.705  1.00  0.00     0.000 A 
ENDBRANCH  17  26
ENDBRANCH   8  14
ENDBRANCH   4   7
ENDBRANCH   2   3
ENDBRANCH   1   2
BRANCH   1  32
ATOM     32  C   UNL A   1      41.322  32.245  37.471  1.00  0.00     0.118 C 
BRANCH  32  33
ATOM     33  N   UNL A   1      42.564  31.492  37.660  1.00  0.00    -0.352 N 
ATOM     34  C   UNL A   1      42.866  30.236  37.126  1.00  0.00     0.251 C 
ATOM     35  H   UNL A   1      43.254  31.914  38.220  1.00  0.00     0.163 HD
ATOM     36  O   UNL A   1      43.898  29.638  37.332  1.00  0.00    -0.269 OA
BRANCH  34  37
ATOM     37  C   UNL A   1      41.881  29.702  36.162  1.00  0.00     0.039 A 
ATOM     38  C   UNL A   1      41.798  28.306  36.027  1.00  0.00     0.014 A 
ATOM     39  C   UNL A   1      41.499  30.561  35.147  1.00  0.00     0.014 A 
ATOM     40  C   UNL A   1      41.555  27.753  34.770  1.00  0.00     0.010 A 
ATOM     41  C   UNL A   1      41.404  30.017  33.889  1.00  0.00     0.010 A 
ATOM     42  C   UNL A   1      41.455  28.619  33.686  1.00  0.00    -0.014 A 
BRANCH  42  43
ATOM     43  C   UNL A   1      41.352  28.244  32.280  1.00  0.00     0.031 A 
ATOM     44  C   UNL A   1      39.990  28.313  31.669  1.00  0.00     0.074 A 
ATOM     45  C   UNL A   1      42.436  28.156  31.474  1.00  0.00     0.049 A 
ATOM     46  N   UNL A   1      39.715  28.024  30.445  1.00  0.00    -0.248 NA
ATOM     47  C   UNL A   1      38.802  28.721  32.423  1.00  0.00     0.031 C 
ATOM     48  C   UNL A   1      42.433  28.433  30.033  1.00  0.00     0.029 A 
ATOM     49  N   UNL A   1      43.752  27.760  31.684  1.00  0.00    -0.354 N 
ATOM     50  C   UNL A   1      38.487  28.573  30.160  1.00  0.00     0.074 A 
ATOM     51  C   UNL A   1      37.915  28.894  31.443  1.00  0.00     0.031 C 
ATOM     52  C   UNL A   1      43.530  27.903  29.478  1.00  0.00     0.029 A 
ATOM     53  C   UNL A   1      44.186  27.126  30.501  1.00  0.00     0.049 A 
ATOM     54  H   UNL A   1      44.280  27.897  32.503  1.00  0.00     0.167 HD
ATOM     55  C   UNL A   1      38.166  28.819  28.860  1.00  0.00     0.031 A 
ATOM     56  C   UNL A   1      44.448  25.785  30.379  1.00  0.00     0.031 A 
ATOM     57  C   UNL A   1      39.115  28.186  27.937  1.00  0.00     0.049 A 
ATOM     58  C   UNL A   1      43.510  25.031  29.456  1.00  0.00     0.074 A 
ATOM     59  C   UNL A   1      40.097  28.622  27.063  1.00  0.00     0.029 A 
ATOM     60  N   UNL A   1      39.301  26.816  28.053  1.00  0.00    -0.354 N 
ATOM     61  N   UNL A   1      42.665  25.597  28.640  1.00  0.00    -0.248 NA
ATOM     62  C   UNL A   1      43.364  23.572  29.478  1.00  0.00     0.031 C 
ATOM     63  C   UNL A   1      40.885  27.491  26.679  1.00  0.00     0.029 A 
ATOM     64  C   UNL A   1      40.366  26.370  27.299  1.00  0.00     0.049 A 
ATOM     65  H   UNL A   1      38.738  26.231  28.609  1.00  0.00     0.167 HD
ATOM     66  C   UNL A   1      41.814  24.651  28.140  1.00  0.00     0.074 A 
ATOM     67  C   UNL A   1      42.311  23.391  28.663  1.00  0.00     0.031 C 
ATOM     68  C   UNL A   1      40.715  24.961  27.393  1.00  0.00     0.031 A 
BRANCH  55  69
ATOM     69  C   UNL A   1      37.077  29.770  28.414  1.00  0.00    -0.014 A 
ATOM     70  C   UNL A   1      37.244  31.152  28.615  1.00  0.00     0.009 A 
ATOM     71  C   UNL A   1      35.845  29.386  27.856  1.00  0.00     0.009 A 
ATOM     72  C   UNL A   1      36.233  32.077  28.319  1.00  0.00     0.001 A 
ATOM     73  C   UNL A   1      34.825  30.301  27.563  1.00  0.00     0.001 A 
ATOM     74  C   UNL A   1      35.017  31.651  27.802  1.00  0.00     0.000 A 
ENDBRANCH  55  69
BRANCH  56  75
ATOM     75  C   UNL A   1      45.132  25.209  31.555  1.00  0.00    -0.014 A 
ATOM     76  C   UNL A   1      46.434  25.689  31.783  1.00  0.00     0.009 A 
ATOM     77  C   UNL A   1      44.356  24.737  32.623  1.00  0.00     0.009 A 
ATOM     78  C   UNL A   1      46.842  25.955  33.081  1.00  0.00     0.001 A 
ATOM     79  C   UNL A   1      44.771  25.011  33.922  1.00  0.00     0.001 A 
ATOM     80  C   UNL A   1      45.978  25.679  34.133  1.00  0.00     0.000 A 
ENDBRANCH  56  75
BRANCH  68  81
ATOM     81  C   UNL A   1      39.830  23.921  26.761  1.00  0.00    -0.014 A 
ATOM     82  C   UNL A   1      38.503  24.198  26.399  1.00  0.00     0.009 A 
ATOM     83  C   UNL A   1      40.259  22.585  26.630  1.00  0.00     0.009 A 
ATOM     84  C   UNL A   1      37.671  23.206  25.866  1.00  0.00     0.001 A 
ATOM     85  C   UNL A   1      39.425  21.586  26.122  1.00  0.00     0.001 A 
ATOM     86  C   UNL A   1      38.133  21.901  25.727  1.00  0.00     0.000 A 
ENDBRANCH  68  81
ENDBRANCH  42  43
ENDBRANCH  34  37
ENDBRANCH  32  33
ENDBRANCH   1  32
TORSDOF 13
ENDMDL
MODEL 3
REMARK VINA RESULT:     -12.0      3.797      8.919
REMARK SMILES Cc1ccc(-c2nn(-c3ccccc3)cc2[C@@H]2[NH2+][C@H](C(=O)NCCCNC(=O)c3ccc(-c4c5nc(c(-c6ccccc6)c6ccc([nH]6)c(-c6ccccc6)c6nc(c(-c7ccccc7)c7ccc4[nH]7)C=C6)C=C5)cc3)CS2)cc1
REMARK SMILES IDX 24 1 23 2 22 3 20 4 21 5 19 7 17 8 18 9 78 10 77 13 16 14
REMARK SMILES IDX 6 15 7 16 8 17 15 18 5 19 1 20 2 21 3 22 80 23 4 24 79 25
REMARK SMILES IDX 9 26 10 27 14 28 11 29 13 30 12 31 25 32 26 33 27 34 28 36
REMARK SMILES IDX 29 37 30 38 76 39 31 40 75 41 32 42 33 43 34 44 69 45 35 46
REMARK SMILES IDX 74 47 68 48 70 49 36 50 73 51 67 52 66 53 37 55 59 56 44 57
REMARK SMILES IDX 58 58 45 59 48 60 57 61 71 62 46 63 47 64 56 66 72 67 49 68
REMARK SMILES IDX 38 69 39 70 43 71 40 72 42 73 41 74 60 75 61 76 65 77 62 78
REMARK SMILES IDX 64 79 63 80 50 81 51 82 55 83 52 84 54 85 53 86
REMARK H PARENT 22 6 18 11 18 12 26 35 70 54 48 65
REMARK Flexibility Score: inf
ROOT
ATOM      1  C   UNL A   1      36.492  31.962  28.612  1.00  0.00     0.042 C 
ENDROOT
BRANCH   1   2
ATOM      2  C   UNL A   1      35.126  31.647  29.224  1.00  0.00     0.118 C 
BRANCH   2   3
ATOM      3  N   UNL A   1      34.022  32.046  28.362  1.00  0.00    -0.351 N 
ATOM      4  C   UNL A   1      33.157  31.334  27.591  1.00  0.00     0.279 C 
ATOM      5  O   UNL A   1      32.277  31.981  27.009  1.00  0.00    -0.268 OA
ATOM      6  H   UNL A   1      33.872  33.018  28.333  1.00  0.00     0.163 HD
BRANCH   4   7
ATOM      7  C   UNL A   1      33.157  29.802  27.474  1.00  0.00     0.283 C 
ATOM      8  C   UNL A   1      31.973  28.044  26.280  1.00  0.00     0.278 C 
ATOM      9  N   UNL A   1      31.835  29.230  27.139  1.00  0.00    -0.320 N 
ATOM     10  S   UNL A   1      33.732  27.636  26.172  1.00  0.00    -0.087 SA
ATOM     11  H   UNL A   1      31.359  28.963  28.001  1.00  0.00     0.348 HD
ATOM     12  H   UNL A   1      31.295  29.933  26.636  1.00  0.00     0.348 HD
ATOM     13  C   UNL A   1      34.228  29.338  26.505  1.00  0.00     0.151 C 
BRANCH   8  14
ATOM     14  C   UNL A   1      31.362  28.409  24.958  1.00  0.00     0.067 A 
ATOM     15  C   UNL A   1      30.999  27.539  23.880  1.00  0.00     0.103 A 
ATOM     16  N   UNL A   1      30.232  28.188  22.989  1.00  0.00    -0.167 NA
ATOM     17  N   UNL A   1      30.196  29.475  23.385  1.00  0.00    -0.240 N 
ATOM     18  C   UNL A   1      30.959  29.662  24.508  1.00  0.00     0.126 A 
BRANCH  15  19
ATOM     19  C   UNL A   1      31.260  26.110  23.655  1.00  0.00     0.003 A 
ATOM     20  C   UNL A   1      32.135  21.956  22.805  1.00  0.00     0.044 C 
ATOM     21  C   UNL A   1      31.839  23.397  23.098  1.00  0.00    -0.051 A 
ATOM     22  C   UNL A   1      30.658  23.753  23.757  1.00  0.00     0.004 A 
ATOM     23  C   UNL A   1      32.714  24.404  22.691  1.00  0.00     0.004 A 
ATOM     24  C   UNL A   1      30.375  25.097  24.035  1.00  0.00     0.011 A 
ATOM     25  C   UNL A   1      32.426  25.744  22.963  1.00  0.00     0.011 A 
ENDBRANCH  15  19
BRANCH  17  26
ATOM     26  C   UNL A   1      29.382  30.434  22.719  1.00  0.00     0.065 A 
ATOM     27  C   UNL A   1      29.123  31.665  23.336  1.00  0.00     0.028 A 
ATOM     28  C   UNL A   1      28.845  30.181  21.451  1.00  0.00     0.028 A 
ATOM     29  C   UNL A   1      28.352  32.637  22.697  1.00  0.00     0.002 A 
ATOM     30  C   UNL A   1      28.029  31.138  20.837  1.00  0.00     0.002 A 
ATOM     31  C   UNL A   1      27.783  32.363  21.458  1.00  0.00     0.000 A 
ENDBRANCH  17  26
ENDBRANCH   8  14
ENDBRANCH   4   7
ENDBRANCH   2   3
ENDBRANCH   1   2
BRANCH   1  32
ATOM     32  C   UNL A   1      37.659  31.334  29.355  1.00  0.00     0.118 C 
BRANCH  32  33
ATOM     33  N   UNL A   1      37.605  29.913  29.704  1.00  0.00    -0.352 N 
ATOM     34  C   UNL A   1      38.505  28.921  29.303  1.00  0.00     0.251 C 
ATOM     35  H   UNL A   1      36.859  29.627  30.278  1.00  0.00     0.163 HD
ATOM     36  O   UNL A   1      38.404  27.751  29.593  1.00  0.00    -0.269 OA
BRANCH  34  37
ATOM     37  C   UNL A   1      39.700  29.403  28.578  1.00  0.00     0.039 A 
ATOM     38  C   UNL A   1      39.957  28.852  27.312  1.00  0.00     0.014 A 
ATOM     39  C   UNL A   1      40.705  29.943  29.361  1.00  0.00     0.014 A 
ATOM     40  C   UNL A   1      41.275  28.620  26.921  1.00  0.00     0.010 A 
ATOM     41  C   UNL A   1      41.991  29.584  29.038  1.00  0.00     0.010 A 
ATOM     42  C   UNL A   1      42.285  28.901  27.836  1.00  0.00    -0.014 A 
BRANCH  42  43
ATOM     43  C   UNL A   1      43.704  28.596  27.686  1.00  0.00     0.031 A 
ATOM     44  C   UNL A   1      44.569  29.692  27.154  1.00  0.00     0.074 A 
ATOM     45  C   UNL A   1      44.281  27.528  28.285  1.00  0.00     0.049 A 
ATOM     46  N   UNL A   1      45.839  29.602  26.962  1.00  0.00    -0.248 NA
ATOM     47  C   UNL A   1      44.044  31.008  26.783  1.00  0.00     0.031 C 
ATOM     48  C   UNL A   1      45.673  27.476  28.744  1.00  0.00     0.029 A 
ATOM     49  N   UNL A   1      43.837  26.244  28.579  1.00  0.00    -0.354 N 
ATOM     50  C   UNL A   1      46.328  30.882  26.854  1.00  0.00     0.074 A 
ATOM     51  C   UNL A   1      45.169  31.709  26.637  1.00  0.00     0.031 C 
ATOM     52  C   UNL A   1      46.029  26.199  28.934  1.00  0.00     0.029 A 
ATOM     53  C   UNL A   1      44.946  25.382  28.445  1.00  0.00     0.049 A 
ATOM     54  H   UNL A   1      42.922  25.985  28.833  1.00  0.00     0.167 HD
ATOM     55  C   UNL A   1      47.649  31.101  27.104  1.00  0.00     0.031 A 
ATOM     56  C   UNL A   1      45.096  24.442  27.458  1.00  0.00     0.031 A 
ATOM     57  C   UNL A   1      48.401  29.843  27.191  1.00  0.00     0.049 A 
ATOM     58  C   UNL A   1      46.233  24.707  26.490  1.00  0.00     0.074 A 
ATOM     59  C   UNL A   1      49.033  29.126  28.194  1.00  0.00     0.029 A 
ATOM     60  N   UNL A   1      48.336  28.985  26.103  1.00  0.00    -0.354 N 
ATOM     61  N   UNL A   1      47.164  25.601  26.672  1.00  0.00    -0.248 NA
ATOM     62  C   UNL A   1      46.332  24.068  25.173  1.00  0.00     0.031 C 
ATOM     63  C   UNL A   1      49.321  27.818  27.691  1.00  0.00     0.029 A 
ATOM     64  C   UNL A   1      48.888  27.752  26.380  1.00  0.00     0.049 A 
ATOM     65  H   UNL A   1      47.941  29.228  25.235  1.00  0.00     0.167 HD
ATOM     66  C   UNL A   1      47.883  25.750  25.518  1.00  0.00     0.074 A 
ATOM     67  C   UNL A   1      47.350  24.745  24.617  1.00  0.00     0.031 C 
ATOM     68  C   UNL A   1      48.813  26.733  25.345  1.00  0.00     0.031 A 
BRANCH  55  69
ATOM     69  C   UNL A   1      48.244  32.453  27.433  1.00  0.00    -0.014 A 
ATOM     70  C   UNL A   1      48.030  33.008  28.707  1.00  0.00     0.009 A 
ATOM     71  C   UNL A   1      48.961  33.262  26.535  1.00  0.00     0.009 A 
ATOM     72  C   UNL A   1      48.465  34.299  29.042  1.00  0.00     0.001 A 
ATOM     73  C   UNL A   1      49.395  34.555  26.856  1.00  0.00     0.001 A 
ATOM     74  C   UNL A   1      49.140  35.078  28.112  1.00  0.00     0.000 A 
ENDBRANCH  55  69
BRANCH  56  75
ATOM     75  C   UNL A   1      43.845  23.728  27.128  1.00  0.00    -0.014 A 
ATOM     76  C   UNL A   1      43.376  22.855  28.126  1.00  0.00     0.009 A 
ATOM     77  C   UNL A   1      42.948  24.319  26.228  1.00  0.00     0.009 A 
ATOM     78  C   UNL A   1      42.017  22.798  28.395  1.00  0.00     0.001 A 
ATOM     79  C   UNL A   1      41.586  24.260  26.507  1.00  0.00     0.001 A 
ATOM     80  C   UNL A   1      41.142  23.557  27.627  1.00  0.00     0.000 A 
ENDBRANCH  56  75
BRANCH  68  81
ATOM     81  C   UNL A   1      49.673  26.844  24.114  1.00  0.00    -0.014 A 
ATOM     82  C   UNL A   1      51.071  26.740  24.175  1.00  0.00     0.009 A 
ATOM     83  C   UNL A   1      49.115  27.190  22.868  1.00  0.00     0.009 A 
ATOM     84  C   UNL A   1      51.864  26.903  23.033  1.00  0.00     0.001 A 
ATOM     85  C   UNL A   1      49.904  27.379  21.730  1.00  0.00     0.001 A 
ATOM     86  C   UNL A   1      51.280  27.222  21.811  1.00  0.00     0.000 A 
ENDBRANCH  68  81
ENDBRANCH  42  43
ENDBRANCH  34  37
ENDBRANCH  32  33
ENDBRANCH   1  32
TORSDOF 13
ENDMDL
