MODEL 1
REMARK VINA RESULT:      -9.2      0.000      0.000
REMARK SMILES Cc1cc(F)ccc1CCNc1ccc(Cl)c(C(=O)NCCCNC(=O)c2ccc(-c3c4nc(c(-c5ccccc5)c5ccc([nH]5)c(-c5ccccc5)c5nc(c(-c6ccccc6)c6ccc3[nH]6)C=C5)C=C4)cc2)n1
REMARK SMILES IDX 21 1 20 2 18 3 19 4 17 6 12 7 13 8 75 9 14 10 15 11 16 12
REMARK SMILES IDX 11 13 10 15 9 16 8 17 1 18 2 19 3 20 4 21 7 22 5 23 6 24
REMARK SMILES IDX 22 25 23 26 24 27 25 28 26 30 27 31 28 32 74 33 29 34 73 35
REMARK SMILES IDX 30 36 31 37 32 38 67 39 33 40 72 41 66 42 68 43 34 44 71 45
REMARK SMILES IDX 65 46 64 47 35 49 57 50 42 51 56 52 43 53 46 54 55 55 69 56
REMARK SMILES IDX 44 57 45 58 54 60 70 61 47 62 36 63 37 64 41 65 38 66 40 67
REMARK SMILES IDX 39 68 58 69 59 70 63 71 60 72 62 73 61 74 48 75 49 76 53 77
REMARK SMILES IDX 50 78 52 79 51 80
REMARK H PARENT 20 5 11 14 24 29 68 48 46 59
REMARK Flexibility Score: inf
ROOT
ATOM      1  C   UNL A   1      34.793  33.368  30.670  1.00  0.00     0.118 C 
ENDROOT
BRANCH   1   2
ATOM      2  N   UNL A   1      34.827  34.252  31.805  1.00  0.00    -0.351 N 
ATOM      3  C   UNL A   1      35.771  34.854  32.584  1.00  0.00     0.271 C 
ATOM      4  O   UNL A   1      35.260  35.698  33.339  1.00  0.00    -0.267 OA
ATOM      5  H   UNL A   1      33.918  34.485  32.101  1.00  0.00     0.163 HD
BRANCH   3   6
ATOM      6  C   UNL A   1      37.272  34.640  32.674  1.00  0.00     0.149 A 
ATOM      7  C   UNL A   1      38.884  34.448  34.396  1.00  0.00     0.126 A 
ATOM      8  C   UNL A   1      39.900  34.271  33.489  1.00  0.00     0.048 A 
ATOM      9  N   UNL A   1      37.614  34.590  34.005  1.00  0.00    -0.224 NA
ATOM     10  C   UNL A   1      39.587  34.298  32.140  1.00  0.00     0.027 A 
ATOM     11  C   UNL A   1      38.266  34.503  31.708  1.00  0.00     0.072 A 
ATOM     12  Cl  UNL A   1      38.144  34.565  30.002  1.00  0.00    -0.082 Cl
BRANCH   7  13
ATOM     13  N   UNL A   1      39.107  34.528  35.752  1.00  0.00    -0.370 N 
ATOM     14  H   UNL A   1      38.833  35.325  36.262  1.00  0.00     0.162 HD
BRANCH  13  15
ATOM     15  C   UNL A   1      39.757  33.402  36.419  1.00  0.00     0.119 C 
BRANCH  15  16
ATOM     16  C   UNL A   1      38.939  32.105  36.273  1.00  0.00     0.057 C 
BRANCH  16  17
ATOM     17  C   UNL A   1      39.652  31.067  35.427  1.00  0.00    -0.043 A 
ATOM     18  C   UNL A   1      37.806  30.987  33.627  1.00  0.00     0.045 C 
ATOM     19  C   UNL A   1      39.089  30.513  34.254  1.00  0.00    -0.045 A 
ATOM     20  C   UNL A   1      39.786  29.488  33.587  1.00  0.00     0.043 A 
ATOM     21  C   UNL A   1      40.997  29.016  34.078  1.00  0.00     0.123 A 
ATOM     22  C   UNL A   1      40.902  30.596  35.878  1.00  0.00     0.007 A 
ATOM     23  F   UNL A   1      41.626  28.021  33.440  1.00  0.00    -0.207 F 
ATOM     24  C   UNL A   1      41.565  29.566  35.216  1.00  0.00     0.039 A 
ENDBRANCH  16  17
ENDBRANCH  15  16
ENDBRANCH  13  15
ENDBRANCH   7  13
ENDBRANCH   3   6
ENDBRANCH   1   2
BRANCH   1  25
ATOM     25  C   UNL A   1      34.615  34.116  29.352  1.00  0.00     0.042 C 
BRANCH  25  26
ATOM     26  C   UNL A   1      35.013  33.254  28.158  1.00  0.00     0.118 C 
BRANCH  26  27
ATOM     27  N   UNL A   1      34.108  32.120  27.986  1.00  0.00    -0.352 N 
ATOM     28  C   UNL A   1      34.357  30.782  27.890  1.00  0.00     0.251 C 
ATOM     29  H   UNL A   1      33.155  32.363  27.931  1.00  0.00     0.163 HD
ATOM     30  O   UNL A   1      33.449  30.025  27.530  1.00  0.00    -0.269 OA
BRANCH  28  31
ATOM     31  C   UNL A   1      35.684  30.232  28.209  1.00  0.00     0.039 A 
ATOM     32  C   UNL A   1      35.928  29.773  29.507  1.00  0.00     0.014 A 
ATOM     33  C   UNL A   1      36.707  30.223  27.258  1.00  0.00     0.014 A 
ATOM     34  C   UNL A   1      37.190  29.289  29.841  1.00  0.00     0.010 A 
ATOM     35  C   UNL A   1      37.929  29.639  27.560  1.00  0.00     0.010 A 
ATOM     36  C   UNL A   1      38.195  29.205  28.865  1.00  0.00    -0.014 A 
BRANCH  36  37
ATOM     37  C   UNL A   1      39.560  28.744  29.206  1.00  0.00     0.031 A 
ATOM     38  C   UNL A   1      40.475  29.647  29.990  1.00  0.00     0.074 A 
ATOM     39  C   UNL A   1      39.984  27.541  28.778  1.00  0.00     0.049 A 
ATOM     40  N   UNL A   1      41.717  29.452  30.351  1.00  0.00    -0.248 NA
ATOM     41  C   UNL A   1      39.935  30.959  30.392  1.00  0.00     0.031 C 
ATOM     42  C   UNL A   1      39.200  26.598  27.976  1.00  0.00     0.029 A 
ATOM     43  N   UNL A   1      41.183  26.903  28.963  1.00  0.00    -0.354 N 
ATOM     44  C   UNL A   1      42.109  30.620  30.993  1.00  0.00     0.074 A 
ATOM     45  C   UNL A   1      41.001  31.543  30.916  1.00  0.00     0.031 C 
ATOM     46  C   UNL A   1      39.926  25.487  27.770  1.00  0.00     0.029 A 
ATOM     47  C   UNL A   1      41.235  25.656  28.391  1.00  0.00     0.049 A 
ATOM     48  H   UNL A   1      41.935  27.302  29.458  1.00  0.00     0.167 HD
ATOM     49  C   UNL A   1      43.278  30.892  31.619  1.00  0.00     0.031 A 
ATOM     50  C   UNL A   1      42.231  24.750  28.375  1.00  0.00     0.031 A 
ATOM     51  C   UNL A   1      44.367  29.959  31.717  1.00  0.00     0.049 A 
ATOM     52  C   UNL A   1      43.514  25.072  29.090  1.00  0.00     0.074 A 
ATOM     53  C   UNL A   1      45.575  30.108  32.373  1.00  0.00     0.029 A 
ATOM     54  N   UNL A   1      44.371  28.696  31.145  1.00  0.00    -0.354 N 
ATOM     55  N   UNL A   1      43.848  26.156  29.748  1.00  0.00    -0.248 NA
ATOM     56  C   UNL A   1      44.549  24.030  29.080  1.00  0.00     0.031 C 
ATOM     57  C   UNL A   1      46.331  28.952  32.158  1.00  0.00     0.029 A 
ATOM     58  C   UNL A   1      45.567  28.058  31.423  1.00  0.00     0.049 A 
ATOM     59  H   UNL A   1      43.633  28.310  30.620  1.00  0.00     0.167 HD
ATOM     60  C   UNL A   1      45.114  25.911  30.264  1.00  0.00     0.074 A 
ATOM     61  C   UNL A   1      45.479  24.571  29.854  1.00  0.00     0.031 C 
ATOM     62  C   UNL A   1      45.903  26.720  31.013  1.00  0.00     0.031 A 
BRANCH  49  63
ATOM     63  C   UNL A   1      43.432  32.253  32.243  1.00  0.00    -0.014 A 
ATOM     64  C   UNL A   1      43.835  33.363  31.483  1.00  0.00     0.009 A 
ATOM     65  C   UNL A   1      43.148  32.433  33.606  1.00  0.00     0.009 A 
ATOM     66  C   UNL A   1      43.989  34.615  32.083  1.00  0.00     0.001 A 
ATOM     67  C   UNL A   1      43.271  33.692  34.195  1.00  0.00     0.001 A 
ATOM     68  C   UNL A   1      43.701  34.779  33.437  1.00  0.00     0.000 A 
ENDBRANCH  49  63
BRANCH  50  69
ATOM     69  C   UNL A   1      42.044  23.445  27.690  1.00  0.00    -0.014 A 
ATOM     70  C   UNL A   1      41.459  22.363  28.366  1.00  0.00     0.009 A 
ATOM     71  C   UNL A   1      42.461  23.268  26.362  1.00  0.00     0.009 A 
ATOM     72  C   UNL A   1      41.332  21.121  27.739  1.00  0.00     0.001 A 
ATOM     73  C   UNL A   1      42.303  22.035  25.728  1.00  0.00     0.001 A 
ATOM     74  C   UNL A   1      41.750  20.959  26.420  1.00  0.00     0.000 A 
ENDBRANCH  50  69
BRANCH  62  75
ATOM     75  C   UNL A   1      47.209  26.150  31.490  1.00  0.00    -0.014 A 
ATOM     76  C   UNL A   1      48.354  26.153  30.679  1.00  0.00     0.009 A 
ATOM     77  C   UNL A   1      47.297  25.628  32.790  1.00  0.00     0.009 A 
ATOM     78  C   UNL A   1      49.548  25.599  31.145  1.00  0.00     0.001 A 
ATOM     79  C   UNL A   1      48.500  25.107  33.265  1.00  0.00     0.001 A 
ATOM     80  C   UNL A   1      49.621  25.082  32.438  1.00  0.00     0.000 A 
ENDBRANCH  62  75
ENDBRANCH  36  37
ENDBRANCH  28  31
ENDBRANCH  26  27
ENDBRANCH  25  26
ENDBRANCH   1  25
TORSDOF 14
ENDMDL
MODEL 2
REMARK VINA RESULT:      -9.2      4.151      7.618
REMARK SMILES Cc1cc(F)ccc1CCNc1ccc(Cl)c(C(=O)NCCCNC(=O)c2ccc(-c3c4nc(c(-c5ccccc5)c5ccc([nH]5)c(-c5ccccc5)c5nc(c(-c6ccccc6)c6ccc3[nH]6)C=C5)C=C4)cc2)n1
REMARK SMILES IDX 21 1 20 2 18 3 19 4 17 6 12 7 13 8 75 9 14 10 15 11 16 12
REMARK SMILES IDX 11 13 10 15 9 16 8 17 1 18 2 19 3 20 4 21 7 22 5 23 6 24
REMARK SMILES IDX 22 25 23 26 24 27 25 28 26 30 27 31 28 32 74 33 29 34 73 35
REMARK SMILES IDX 30 36 31 37 32 38 67 39 33 40 72 41 66 42 68 43 34 44 71 45
REMARK SMILES IDX 65 46 64 47 35 49 57 50 42 51 56 52 43 53 46 54 55 55 69 56
REMARK SMILES IDX 44 57 45 58 54 60 70 61 47 62 36 63 37 64 41 65 38 66 40 67
REMARK SMILES IDX 39 68 58 69 59 70 63 71 60 72 62 73 61 74 48 75 49 76 53 77
REMARK SMILES IDX 50 78 52 79 51 80
REMARK H PARENT 20 5 11 14 24 29 68 48 46 59
REMARK Flexibility Score: inf
ROOT
ATOM      1  C   UNL A   1      32.223  29.308  25.309  1.00  0.00     0.118 C 
ENDROOT
BRANCH   1   2
ATOM      2  N   UNL A   1      31.076  28.534  24.917  1.00  0.00    -0.351 N 
ATOM      3  C   UNL A   1      30.822  27.405  24.194  1.00  0.00     0.271 C 
ATOM      4  O   UNL A   1      29.640  27.045  24.321  1.00  0.00    -0.267 OA
ATOM      5  H   UNL A   1      30.245  28.928  25.266  1.00  0.00     0.163 HD
BRANCH   3   6
ATOM      6  C   UNL A   1      31.720  26.582  23.287  1.00  0.00     0.149 A 
ATOM      7  C   UNL A   1      31.902  24.310  22.645  1.00  0.00     0.126 A 
ATOM      8  C   UNL A   1      32.970  24.580  21.826  1.00  0.00     0.048 A 
ATOM      9  N   UNL A   1      31.277  25.279  23.321  1.00  0.00    -0.224 NA
ATOM     10  C   UNL A   1      33.432  25.883  21.755  1.00  0.00     0.027 A 
ATOM     11  C   UNL A   1      32.824  26.907  22.502  1.00  0.00     0.072 A 
ATOM     12  Cl  UNL A   1      33.612  28.413  22.300  1.00  0.00    -0.082 Cl
BRANCH   7  13
ATOM     13  N   UNL A   1      31.430  23.034  22.853  1.00  0.00    -0.370 N 
ATOM     14  H   UNL A   1      30.464  22.844  22.829  1.00  0.00     0.162 HD
BRANCH  13  15
ATOM     15  C   UNL A   1      32.395  21.966  23.107  1.00  0.00     0.119 C 
BRANCH  15  16
ATOM     16  C   UNL A   1      32.767  21.881  24.599  1.00  0.00     0.057 C 
BRANCH  16  17
ATOM     17  C   UNL A   1      34.132  22.477  24.887  1.00  0.00    -0.043 A 
ATOM     18  C   UNL A   1      33.189  24.518  26.149  1.00  0.00     0.045 C 
ATOM     19  C   UNL A   1      34.308  23.720  25.537  1.00  0.00    -0.045 A 
ATOM     20  C   UNL A   1      35.610  24.234  25.676  1.00  0.00     0.043 A 
ATOM     21  C   UNL A   1      36.705  23.542  25.172  1.00  0.00     0.123 A 
ATOM     22  C   UNL A   1      35.266  21.778  24.423  1.00  0.00     0.007 A 
ATOM     23  F   UNL A   1      37.931  24.066  25.294  1.00  0.00    -0.207 F 
ATOM     24  C   UNL A   1      36.545  22.314  24.551  1.00  0.00     0.039 A 
ENDBRANCH  16  17
ENDBRANCH  15  16
ENDBRANCH  13  15
ENDBRANCH   7  13
ENDBRANCH   3   6
ENDBRANCH   1   2
BRANCH   1  25
ATOM     25  C   UNL A   1      33.344  28.445  25.879  1.00  0.00     0.042 C 
BRANCH  25  26
ATOM     26  C   UNL A   1      33.511  28.657  27.380  1.00  0.00     0.118 C 
BRANCH  26  27
ATOM     27  N   UNL A   1      33.573  30.077  27.721  1.00  0.00    -0.352 N 
ATOM     28  C   UNL A   1      34.557  30.813  28.314  1.00  0.00     0.251 C 
ATOM     29  H   UNL A   1      32.768  30.590  27.479  1.00  0.00     0.163 HD
ATOM     30  O   UNL A   1      34.302  31.960  28.698  1.00  0.00    -0.269 OA
BRANCH  28  31
ATOM     31  C   UNL A   1      35.909  30.263  28.499  1.00  0.00     0.039 A 
ATOM     32  C   UNL A   1      36.247  29.707  29.736  1.00  0.00     0.014 A 
ATOM     33  C   UNL A   1      36.864  30.347  27.483  1.00  0.00     0.014 A 
ATOM     34  C   UNL A   1      37.535  29.219  29.944  1.00  0.00     0.010 A 
ATOM     35  C   UNL A   1      38.111  29.763  27.654  1.00  0.00     0.010 A 
ATOM     36  C   UNL A   1      38.472  29.231  28.900  1.00  0.00    -0.014 A 
BRANCH  36  37
ATOM     37  C   UNL A   1      39.861  28.768  29.110  1.00  0.00     0.031 A 
ATOM     38  C   UNL A   1      40.862  29.690  29.756  1.00  0.00     0.074 A 
ATOM     39  C   UNL A   1      40.229  27.545  28.686  1.00  0.00     0.049 A 
ATOM     40  N   UNL A   1      42.134  29.495  29.989  1.00  0.00    -0.248 NA
ATOM     41  C   UNL A   1      40.378  31.022  30.162  1.00  0.00     0.031 C 
ATOM     42  C   UNL A   1      39.357  26.582  28.009  1.00  0.00     0.029 A 
ATOM     43  N   UNL A   1      41.436  26.902  28.765  1.00  0.00    -0.354 N 
ATOM     44  C   UNL A   1      42.602  30.682  30.539  1.00  0.00     0.074 A 
ATOM     45  C   UNL A   1      41.498  31.613  30.546  1.00  0.00     0.031 C 
ATOM     46  C   UNL A   1      40.049  25.456  27.770  1.00  0.00     0.029 A 
ATOM     47  C   UNL A   1      41.418  25.633  28.239  1.00  0.00     0.049 A 
ATOM     48  H   UNL A   1      42.240  27.310  29.161  1.00  0.00     0.167 HD
ATOM     49  C   UNL A   1      43.832  30.965  31.025  1.00  0.00     0.031 A 
ATOM     50  C   UNL A   1      42.400  24.717  28.151  1.00  0.00     0.031 A 
ATOM     51  C   UNL A   1      44.919  30.024  31.042  1.00  0.00     0.049 A 
ATOM     52  C   UNL A   1      43.755  25.051  28.712  1.00  0.00     0.074 A 
ATOM     53  C   UNL A   1      46.192  30.184  31.558  1.00  0.00     0.029 A 
ATOM     54  N   UNL A   1      44.853  28.740  30.522  1.00  0.00    -0.354 N 
ATOM     55  N   UNL A   1      44.165  26.155  29.287  1.00  0.00    -0.248 NA
ATOM     56  C   UNL A   1      44.776  23.998  28.631  1.00  0.00     0.031 C 
ATOM     57  C   UNL A   1      46.912  29.012  31.308  1.00  0.00     0.029 A 
ATOM     58  C   UNL A   1      46.068  28.100  30.695  1.00  0.00     0.049 A 
ATOM     59  H   UNL A   1      44.060  28.343  30.094  1.00  0.00     0.167 HD
ATOM     60  C   UNL A   1      45.477  25.916  29.674  1.00  0.00     0.074 A 
ATOM     61  C   UNL A   1      45.787  24.558  29.279  1.00  0.00     0.031 C 
ATOM     62  C   UNL A   1      46.349  26.744  30.302  1.00  0.00     0.031 A 
BRANCH  49  63
ATOM     63  C   UNL A   1      44.062  32.346  31.577  1.00  0.00    -0.014 A 
ATOM     64  C   UNL A   1      43.815  32.643  32.927  1.00  0.00     0.009 A 
ATOM     65  C   UNL A   1      44.556  33.359  30.741  1.00  0.00     0.009 A 
ATOM     66  C   UNL A   1      44.018  33.934  33.418  1.00  0.00     0.001 A 
ATOM     67  C   UNL A   1      44.789  34.640  31.242  1.00  0.00     0.001 A 
ATOM     68  C   UNL A   1      44.511  34.930  32.576  1.00  0.00     0.000 A 
ENDBRANCH  49  63
BRANCH  50  69
ATOM     69  C   UNL A   1      42.132  23.389  27.541  1.00  0.00    -0.014 A 
ATOM     70  C   UNL A   1      41.519  22.371  28.290  1.00  0.00     0.009 A 
ATOM     71  C   UNL A   1      42.498  23.125  26.212  1.00  0.00     0.009 A 
ATOM     72  C   UNL A   1      41.315  21.107  27.732  1.00  0.00     0.001 A 
ATOM     73  C   UNL A   1      42.263  21.870  25.648  1.00  0.00     0.001 A 
ATOM     74  C   UNL A   1      41.683  20.858  26.412  1.00  0.00     0.000 A 
ENDBRANCH  50  69
BRANCH  62  75
ATOM     75  C   UNL A   1      47.694  26.178  30.658  1.00  0.00    -0.014 A 
ATOM     76  C   UNL A   1      48.735  26.108  29.720  1.00  0.00     0.009 A 
ATOM     77  C   UNL A   1      47.928  25.734  31.969  1.00  0.00     0.009 A 
ATOM     78  C   UNL A   1      49.969  25.560  30.077  1.00  0.00     0.001 A 
ATOM     79  C   UNL A   1      49.172  25.219  32.332  1.00  0.00     0.001 A 
ATOM     80  C   UNL A   1      50.188  25.121  31.383  1.00  0.00     0.000 A 
ENDBRANCH  62  75
ENDBRANCH  36  37
ENDBRANCH  28  31
ENDBRANCH  26  27
ENDBRANCH  25  26
ENDBRANCH   1  25
TORSDOF 14
ENDMDL
MODEL 3
REMARK VINA RESULT:      -9.1      3.769     10.301
REMARK SMILES Cc1cc(F)ccc1CCNc1ccc(Cl)c(C(=O)NCCCNC(=O)c2ccc(-c3c4nc(c(-c5ccccc5)c5ccc([nH]5)c(-c5ccccc5)c5nc(c(-c6ccccc6)c6ccc3[nH]6)C=C5)C=C4)cc2)n1
REMARK SMILES IDX 21 1 20 2 18 3 19 4 17 6 12 7 13 8 75 9 14 10 15 11 16 12
REMARK SMILES IDX 11 13 10 15 9 16 8 17 1 18 2 19 3 20 4 21 7 22 5 23 6 24
REMARK SMILES IDX 22 25 23 26 24 27 25 28 26 30 27 31 28 32 74 33 29 34 73 35
REMARK SMILES IDX 30 36 31 37 32 38 67 39 33 40 72 41 66 42 68 43 34 44 71 45
REMARK SMILES IDX 65 46 64 47 35 49 57 50 42 51 56 52 43 53 46 54 55 55 69 56
REMARK SMILES IDX 44 57 45 58 54 60 70 61 47 62 36 63 37 64 41 65 38 66 40 67
REMARK SMILES IDX 39 68 58 69 59 70 63 71 60 72 62 73 61 74 48 75 49 76 53 77
REMARK SMILES IDX 50 78 52 79 51 80
REMARK H PARENT 20 5 11 14 24 29 68 48 46 59
REMARK Flexibility Score: inf
ROOT
ATOM      1  C   UNL A   1      42.656  22.118  25.672  1.00  0.00     0.118 C 
ENDROOT
BRANCH   1   2
ATOM      2  N   UNL A   1      44.028  21.797  25.379  1.00  0.00    -0.351 N 
ATOM      3  C   UNL A   1      45.262  22.115  25.865  1.00  0.00     0.271 C 
ATOM      4  O   UNL A   1      46.143  21.397  25.363  1.00  0.00    -0.267 OA
ATOM      5  H   UNL A   1      44.093  21.178  24.617  1.00  0.00     0.163 HD
BRANCH   3   6
ATOM      6  C   UNL A   1      45.696  23.176  26.861  1.00  0.00     0.149 A 
ATOM      7  C   UNL A   1      47.417  24.795  27.013  1.00  0.00     0.126 A 
ATOM      8  C   UNL A   1      46.959  25.235  28.231  1.00  0.00     0.048 A 
ATOM      9  N   UNL A   1      46.789  23.828  26.337  1.00  0.00    -0.224 NA
ATOM     10  C   UNL A   1      45.851  24.612  28.780  1.00  0.00     0.027 A 
ATOM     11  C   UNL A   1      45.210  23.555  28.110  1.00  0.00     0.072 A 
ATOM     12  Cl  UNL A   1      43.912  22.905  29.018  1.00  0.00    -0.082 Cl
BRANCH   7  13
ATOM     13  N   UNL A   1      48.562  25.288  26.429  1.00  0.00    -0.370 N 
ATOM     14  H   UNL A   1      49.363  24.722  26.334  1.00  0.00     0.162 HD
BRANCH  13  15
ATOM     15  C   UNL A   1      48.562  26.669  25.952  1.00  0.00     0.119 C 
BRANCH  15  16
ATOM     16  C   UNL A   1      47.324  26.970  25.086  1.00  0.00     0.057 C 
BRANCH  16  17
ATOM     17  C   UNL A   1      46.355  27.912  25.775  1.00  0.00    -0.043 A 
ATOM     18  C   UNL A   1      44.318  26.364  25.449  1.00  0.00     0.045 C 
ATOM     19  C   UNL A   1      44.969  27.654  25.873  1.00  0.00    -0.045 A 
ATOM     20  C   UNL A   1      44.136  28.631  26.449  1.00  0.00     0.043 A 
ATOM     21  C   UNL A   1      44.661  29.836  26.900  1.00  0.00     0.123 A 
ATOM     22  C   UNL A   1      46.864  29.127  26.280  1.00  0.00     0.007 A 
ATOM     23  F   UNL A   1      43.842  30.759  27.419  1.00  0.00    -0.207 F 
ATOM     24  C   UNL A   1      46.020  30.090  26.826  1.00  0.00     0.039 A 
ENDBRANCH  16  17
ENDBRANCH  15  16
ENDBRANCH  13  15
ENDBRANCH   7  13
ENDBRANCH   3   6
ENDBRANCH   1   2
BRANCH   1  25
ATOM     25  C   UNL A   1      41.886  20.930  26.239  1.00  0.00     0.042 C 
BRANCH  25  26
ATOM     26  C   UNL A   1      40.682  21.380  27.061  1.00  0.00     0.118 C 
BRANCH  26  27
ATOM     27  N   UNL A   1      39.553  21.747  26.208  1.00  0.00    -0.352 N 
ATOM     28  C   UNL A   1      38.833  22.903  26.124  1.00  0.00     0.251 C 
ATOM     29  H   UNL A   1      39.264  21.039  25.588  1.00  0.00     0.163 HD
ATOM     30  O   UNL A   1      37.780  22.909  25.478  1.00  0.00    -0.269 OA
BRANCH  28  31
ATOM     31  C   UNL A   1      39.293  24.133  26.786  1.00  0.00     0.039 A 
ATOM     32  C   UNL A   1      38.878  24.389  28.096  1.00  0.00     0.014 A 
ATOM     33  C   UNL A   1      40.080  25.065  26.105  1.00  0.00     0.014 A 
ATOM     34  C   UNL A   1      39.268  25.568  28.725  1.00  0.00     0.010 A 
ATOM     35  C   UNL A   1      40.559  26.185  26.769  1.00  0.00     0.010 A 
ATOM     36  C   UNL A   1      40.123  26.468  28.071  1.00  0.00    -0.014 A 
BRANCH  36  37
ATOM     37  C   UNL A   1      40.511  27.752  28.696  1.00  0.00     0.031 A 
ATOM     38  C   UNL A   1      41.912  27.931  29.218  1.00  0.00     0.074 A 
ATOM     39  C   UNL A   1      39.598  28.732  28.830  1.00  0.00     0.049 A 
ATOM     40  N   UNL A   1      42.438  28.956  29.837  1.00  0.00    -0.248 NA
ATOM     41  C   UNL A   1      42.836  26.795  29.054  1.00  0.00     0.031 C 
ATOM     42  C   UNL A   1      38.200  28.656  28.401  1.00  0.00     0.029 A 
ATOM     43  N   UNL A   1      39.714  29.988  29.366  1.00  0.00    -0.354 N 
ATOM     44  C   UNL A   1      43.736  28.577  30.157  1.00  0.00     0.074 A 
ATOM     45  C   UNL A   1      43.899  27.208  29.725  1.00  0.00     0.031 C 
ATOM     46  C   UNL A   1      37.598  29.829  28.656  1.00  0.00     0.029 A 
ATOM     47  C   UNL A   1      38.555  30.722  29.299  1.00  0.00     0.049 A 
ATOM     48  H   UNL A   1      40.548  30.331  29.761  1.00  0.00     0.167 HD
ATOM     49  C   UNL A   1      44.717  29.310  30.732  1.00  0.00     0.031 A 
ATOM     50  C   UNL A   1      38.299  31.977  29.711  1.00  0.00     0.031 A 
ATOM     51  C   UNL A   1      44.557  30.681  31.134  1.00  0.00     0.049 A 
ATOM     52  C   UNL A   1      39.411  32.776  30.334  1.00  0.00     0.074 A 
ATOM     53  C   UNL A   1      45.497  31.537  31.677  1.00  0.00     0.029 A 
ATOM     54  N   UNL A   1      43.374  31.397  31.028  1.00  0.00    -0.354 N 
ATOM     55  N   UNL A   1      40.651  32.425  30.573  1.00  0.00    -0.248 NA
ATOM     56  C   UNL A   1      39.089  34.156  30.723  1.00  0.00     0.031 C 
ATOM     57  C   UNL A   1      44.871  32.758  31.943  1.00  0.00     0.029 A 
ATOM     58  C   UNL A   1      43.557  32.682  31.505  1.00  0.00     0.049 A 
ATOM     59  H   UNL A   1      42.529  31.043  30.665  1.00  0.00     0.167 HD
ATOM     60  C   UNL A   1      41.268  33.552  31.100  1.00  0.00     0.074 A 
ATOM     61  C   UNL A   1      40.268  34.599  31.133  1.00  0.00     0.031 C 
ATOM     62  C   UNL A   1      42.549  33.710  31.518  1.00  0.00     0.031 A 
BRANCH  49  63
ATOM     63  C   UNL A   1      46.045  28.641  30.958  1.00  0.00    -0.014 A 
ATOM     64  C   UNL A   1      47.046  28.653  29.971  1.00  0.00     0.009 A 
ATOM     65  C   UNL A   1      46.310  28.008  32.182  1.00  0.00     0.009 A 
ATOM     66  C   UNL A   1      48.267  28.012  30.192  1.00  0.00     0.001 A 
ATOM     67  C   UNL A   1      47.544  27.396  32.411  1.00  0.00     0.001 A 
ATOM     68  C   UNL A   1      48.516  27.389  31.414  1.00  0.00     0.000 A 
ENDBRANCH  49  63
BRANCH  50  69
ATOM     69  C   UNL A   1      36.950  32.568  29.517  1.00  0.00    -0.014 A 
ATOM     70  C   UNL A   1      36.579  33.107  28.275  1.00  0.00     0.009 A 
ATOM     71  C   UNL A   1      36.028  32.609  30.575  1.00  0.00     0.009 A 
ATOM     72  C   UNL A   1      35.330  33.709  28.108  1.00  0.00     0.001 A 
ATOM     73  C   UNL A   1      34.768  33.183  30.396  1.00  0.00     0.001 A 
ATOM     74  C   UNL A   1      34.424  33.743  29.167  1.00  0.00     0.000 A 
ENDBRANCH  50  69
BRANCH  62  75
ATOM     75  C   UNL A   1      42.953  35.080  31.982  1.00  0.00    -0.014 A 
ATOM     76  C   UNL A   1      42.796  35.481  33.318  1.00  0.00     0.009 A 
ATOM     77  C   UNL A   1      43.531  35.973  31.066  1.00  0.00     0.009 A 
ATOM     78  C   UNL A   1      43.165  36.768  33.714  1.00  0.00     0.001 A 
ATOM     79  C   UNL A   1      43.931  37.246  31.473  1.00  0.00     0.001 A 
ATOM     80  C   UNL A   1      43.736  37.647  32.794  1.00  0.00     0.000 A 
ENDBRANCH  62  75
ENDBRANCH  36  37
ENDBRANCH  28  31
ENDBRANCH  26  27
ENDBRANCH  25  26
ENDBRANCH   1  25
TORSDOF 14
ENDMDL
