MODEL 1
REMARK VINA RESULT:     -10.1      0.000      0.000
REMARK SMILES CC(C)([NH2+]C[C@@H]1CCCO1)C(=O)NCCCNC(=O)c1ccc(-c2c3nc(c(-c4ccccc4)c4ccc([nH]4)c(-c4ccccc4)c4nc(c(-c5ccccc5)c5ccc2[nH]5)C=C4)C=C3)cc1
REMARK SMILES IDX 14 1 13 2 11 3 12 4 2 6 1 7 3 8 4 9 5 12 6 13 7 14 10 15
REMARK SMILES IDX 8 16 9 17 15 18 16 19 17 20 18 21 19 23 20 24 21 25 67 26
REMARK SMILES IDX 22 27 66 28 23 29 24 30 25 31 60 32 26 33 65 34 59 35 61 36
REMARK SMILES IDX 27 37 64 38 58 39 57 40 28 42 50 43 35 44 49 45 36 46 39 47
REMARK SMILES IDX 48 48 62 49 37 50 38 51 47 53 63 54 40 55 29 56 30 57 34 58
REMARK SMILES IDX 31 59 33 60 32 61 51 62 52 63 56 64 53 65 55 66 54 67 41 68
REMARK SMILES IDX 42 69 46 70 43 71 45 72 44 73
REMARK H PARENT 13 5 4 10 4 11 17 22 61 41 39 52
REMARK Flexibility Score: inf
ROOT
ATOM      1  C   UNL A   1      36.413  20.827  24.788  1.00  0.00     0.118 C 
ENDROOT
BRANCH   1   2
ATOM      2  N   UNL A   1      35.719  21.055  26.035  1.00  0.00    -0.351 N 
ATOM      3  C   UNL A   1      34.490  21.550  26.346  1.00  0.00     0.280 C 
ATOM      4  O   UNL A   1      34.308  21.688  27.565  1.00  0.00    -0.268 OA
ATOM      5  H   UNL A   1      36.244  20.796  26.826  1.00  0.00     0.163 HD
BRANCH   3   6
ATOM      6  C   UNL A   1      33.355  21.866  25.308  1.00  0.00     0.169 C 
ATOM      7  C   UNL A   1      33.809  23.174  24.585  1.00  0.00     0.090 C 
ATOM      8  C   UNL A   1      32.020  22.229  25.973  1.00  0.00     0.090 C 
BRANCH   6   9
ATOM      9  N   UNL A   1      33.280  20.909  24.172  1.00  0.00    -0.332 N 
ATOM     10  H   UNL A   1      34.239  20.608  23.995  1.00  0.00     0.347 HD
ATOM     11  H   UNL A   1      32.779  21.459  23.475  1.00  0.00     0.347 HD
BRANCH   9  12
ATOM     12  C   UNL A   1      32.478  19.690  24.209  1.00  0.00     0.293 C 
BRANCH  12  13
ATOM     13  C   UNL A   1      33.104  18.461  24.875  1.00  0.00     0.173 C 
ATOM     14  C   UNL A   1      34.132  17.742  24.021  1.00  0.00     0.040 C 
ATOM     15  O   UNL A   1      32.122  17.457  25.177  1.00  0.00    -0.372 OA
ATOM     16  C   UNL A   1      34.241  16.436  24.770  1.00  0.00     0.031 C 
ATOM     17  C   UNL A   1      32.814  16.197  25.244  1.00  0.00     0.161 C 
ENDBRANCH  12  13
ENDBRANCH   9  12
ENDBRANCH   6   9
ENDBRANCH   3   6
ENDBRANCH   1   2
BRANCH   1  18
ATOM     18  C   UNL A   1      37.552  19.830  24.964  1.00  0.00     0.042 C 
BRANCH  18  19
ATOM     19  C   UNL A   1      38.759  20.405  25.678  1.00  0.00     0.118 C 
BRANCH  19  20
ATOM     20  N   UNL A   1      39.846  19.442  25.783  1.00  0.00    -0.352 N 
ATOM     21  C   UNL A   1      41.170  19.628  26.102  1.00  0.00     0.251 C 
ATOM     22  H   UNL A   1      39.593  18.510  25.594  1.00  0.00     0.163 HD
ATOM     23  O   UNL A   1      41.965  18.709  25.927  1.00  0.00    -0.269 OA
BRANCH  21  24
ATOM     24  C   UNL A   1      41.650  20.925  26.631  1.00  0.00     0.039 A 
ATOM     25  C   UNL A   1      42.097  21.897  25.732  1.00  0.00     0.014 A 
ATOM     26  C   UNL A   1      41.689  21.185  28.003  1.00  0.00     0.014 A 
ATOM     27  C   UNL A   1      42.523  23.141  26.205  1.00  0.00     0.010 A 
ATOM     28  C   UNL A   1      42.001  22.458  28.464  1.00  0.00     0.010 A 
ATOM     29  C   UNL A   1      42.444  23.445  27.573  1.00  0.00    -0.014 A 
BRANCH  29  30
ATOM     30  C   UNL A   1      42.844  24.776  28.097  1.00  0.00     0.031 A 
ATOM     31  C   UNL A   1      41.803  25.837  28.338  1.00  0.00     0.074 A 
ATOM     32  C   UNL A   1      44.149  25.051  28.297  1.00  0.00     0.049 A 
ATOM     33  N   UNL A   1      41.960  27.074  28.736  1.00  0.00    -0.248 NA
ATOM     34  C   UNL A   1      40.401  25.472  28.065  1.00  0.00     0.031 C 
ATOM     35  C   UNL A   1      45.258  24.127  28.055  1.00  0.00     0.029 A 
ATOM     36  N   UNL A   1      44.762  26.194  28.745  1.00  0.00    -0.354 N 
ATOM     37  C   UNL A   1      40.689  27.636  28.736  1.00  0.00     0.074 A 
ATOM     38  C   UNL A   1      39.778  26.626  28.246  1.00  0.00     0.031 C 
ATOM     39  C   UNL A   1      46.412  24.727  28.388  1.00  0.00     0.029 A 
ATOM     40  C   UNL A   1      46.130  26.091  28.821  1.00  0.00     0.049 A 
ATOM     41  H   UNL A   1      44.268  27.010  28.989  1.00  0.00     0.167 HD
ATOM     42  C   UNL A   1      40.309  28.874  29.128  1.00  0.00     0.031 A 
ATOM     43  C   UNL A   1      47.056  26.997  29.189  1.00  0.00     0.031 A 
ATOM     44  C   UNL A   1      41.214  29.871  29.635  1.00  0.00     0.049 A 
ATOM     45  C   UNL A   1      46.607  28.367  29.619  1.00  0.00     0.074 A 
ATOM     46  C   UNL A   1      40.919  31.130  30.128  1.00  0.00     0.029 A 
ATOM     47  N   UNL A   1      42.589  29.721  29.709  1.00  0.00    -0.354 N 
ATOM     48  N   UNL A   1      45.391  28.853  29.693  1.00  0.00    -0.248 NA
ATOM     49  C   UNL A   1      47.658  29.309  30.028  1.00  0.00     0.031 C 
ATOM     50  C   UNL A   1      42.123  31.766  30.441  1.00  0.00     0.029 A 
ATOM     51  C   UNL A   1      43.161  30.878  30.210  1.00  0.00     0.049 A 
ATOM     52  H   UNL A   1      43.085  28.913  29.446  1.00  0.00     0.167 HD
ATOM     53  C   UNL A   1      45.530  30.145  30.184  1.00  0.00     0.074 A 
ATOM     54  C   UNL A   1      46.944  30.358  30.408  1.00  0.00     0.031 C 
ATOM     55  C   UNL A   1      44.571  31.073  30.427  1.00  0.00     0.031 A 
BRANCH  42  56
ATOM     56  C   UNL A   1      38.850  29.226  29.016  1.00  0.00    -0.014 A 
ATOM     57  C   UNL A   1      38.302  29.703  27.815  1.00  0.00     0.009 A 
ATOM     58  C   UNL A   1      38.002  29.036  30.118  1.00  0.00     0.009 A 
ATOM     59  C   UNL A   1      36.943  30.017  27.732  1.00  0.00     0.001 A 
ATOM     60  C   UNL A   1      36.638  29.318  30.023  1.00  0.00     0.001 A 
ATOM     61  C   UNL A   1      36.112  29.818  28.833  1.00  0.00     0.000 A 
ENDBRANCH  42  56
BRANCH  43  62
ATOM     62  C   UNL A   1      48.500  26.640  29.173  1.00  0.00    -0.014 A 
ATOM     63  C   UNL A   1      49.112  26.082  30.307  1.00  0.00     0.009 A 
ATOM     64  C   UNL A   1      49.277  26.868  28.028  1.00  0.00     0.009 A 
ATOM     65  C   UNL A   1      50.478  25.792  30.303  1.00  0.00     0.001 A 
ATOM     66  C   UNL A   1      50.637  26.545  28.016  1.00  0.00     0.001 A 
ATOM     67  C   UNL A   1      51.238  26.018  29.157  1.00  0.00     0.000 A 
ENDBRANCH  43  62
BRANCH  55  68
ATOM     68  C   UNL A   1      45.017  32.388  31.000  1.00  0.00    -0.014 A 
ATOM     69  C   UNL A   1      45.360  33.469  30.173  1.00  0.00     0.009 A 
ATOM     70  C   UNL A   1      45.050  32.561  32.393  1.00  0.00     0.009 A 
ATOM     71  C   UNL A   1      45.762  34.684  30.732  1.00  0.00     0.001 A 
ATOM     72  C   UNL A   1      45.420  33.787  32.948  1.00  0.00     0.001 A 
ATOM     73  C   UNL A   1      45.785  34.844  32.116  1.00  0.00     0.000 A 
ENDBRANCH  55  68
ENDBRANCH  29  30
ENDBRANCH  21  24
ENDBRANCH  19  20
ENDBRANCH  18  19
ENDBRANCH   1  18
TORSDOF 13
ENDMDL
MODEL 2
REMARK VINA RESULT:     -10.1      0.610      6.293
REMARK SMILES CC(C)([NH2+]C[C@@H]1CCCO1)C(=O)NCCCNC(=O)c1ccc(-c2c3nc(c(-c4ccccc4)c4ccc([nH]4)c(-c4ccccc4)c4nc(c(-c5ccccc5)c5ccc2[nH]5)C=C4)C=C3)cc1
REMARK SMILES IDX 14 1 13 2 11 3 12 4 2 6 1 7 3 8 4 9 5 12 6 13 7 14 10 15
REMARK SMILES IDX 8 16 9 17 15 18 16 19 17 20 18 21 19 23 20 24 21 25 67 26
REMARK SMILES IDX 22 27 66 28 23 29 24 30 25 31 60 32 26 33 65 34 59 35 61 36
REMARK SMILES IDX 27 37 64 38 58 39 57 40 28 42 50 43 35 44 49 45 36 46 39 47
REMARK SMILES IDX 48 48 62 49 37 50 38 51 47 53 63 54 40 55 29 56 30 57 34 58
REMARK SMILES IDX 31 59 33 60 32 61 51 62 52 63 56 64 53 65 55 66 54 67 41 68
REMARK SMILES IDX 42 69 46 70 43 71 45 72 44 73
REMARK H PARENT 13 5 4 10 4 11 17 22 61 41 39 52
REMARK Flexibility Score: inf
ROOT
ATOM      1  C   UNL A   1      36.413  20.463  24.659  1.00  0.00     0.118 C 
ENDROOT
BRANCH   1   2
ATOM      2  N   UNL A   1      35.658  20.768  25.853  1.00  0.00    -0.351 N 
ATOM      3  C   UNL A   1      34.393  21.219  26.071  1.00  0.00     0.280 C 
ATOM      4  O   UNL A   1      34.155  21.462  27.263  1.00  0.00    -0.268 OA
ATOM      5  H   UNL A   1      36.165  20.616  26.683  1.00  0.00     0.163 HD
BRANCH   3   6
ATOM      6  C   UNL A   1      33.285  21.369  24.968  1.00  0.00     0.169 C 
ATOM      7  C   UNL A   1      33.772  22.534  24.050  1.00  0.00     0.090 C 
ATOM      8  C   UNL A   1      31.941  21.849  25.532  1.00  0.00     0.090 C 
BRANCH   6   9
ATOM      9  N   UNL A   1      33.223  20.237  24.005  1.00  0.00    -0.332 N 
ATOM     10  H   UNL A   1      34.191  19.981  23.809  1.00  0.00     0.347 HD
ATOM     11  H   UNL A   1      32.639  20.630  23.267  1.00  0.00     0.347 HD
BRANCH   9  12
ATOM     12  C   UNL A   1      32.528  18.987  24.289  1.00  0.00     0.293 C 
BRANCH  12  13
ATOM     13  C   UNL A   1      33.321  17.893  25.011  1.00  0.00     0.173 C 
ATOM     14  C   UNL A   1      34.499  17.351  24.222  1.00  0.00     0.040 C 
ATOM     15  O   UNL A   1      32.512  16.739  25.289  1.00  0.00    -0.372 OA
ATOM     16  C   UNL A   1      34.793  16.094  25.004  1.00  0.00     0.031 C 
ATOM     17  C   UNL A   1      33.407  15.619  25.417  1.00  0.00     0.161 C 
ENDBRANCH  12  13
ENDBRANCH   9  12
ENDBRANCH   6   9
ENDBRANCH   3   6
ENDBRANCH   1   2
BRANCH   1  18
ATOM     18  C   UNL A   1      37.569  19.516  24.963  1.00  0.00     0.042 C 
BRANCH  18  19
ATOM     19  C   UNL A   1      38.754  20.195  25.620  1.00  0.00     0.118 C 
BRANCH  19  20
ATOM     20  N   UNL A   1      39.904  19.309  25.729  1.00  0.00    -0.352 N 
ATOM     21  C   UNL A   1      41.208  19.582  26.065  1.00  0.00     0.251 C 
ATOM     22  H   UNL A   1      39.718  18.363  25.529  1.00  0.00     0.163 HD
ATOM     23  O   UNL A   1      42.066  18.723  25.891  1.00  0.00    -0.269 OA
BRANCH  21  24
ATOM     24  C   UNL A   1      41.591  20.905  26.611  1.00  0.00     0.039 A 
ATOM     25  C   UNL A   1      42.099  21.874  25.740  1.00  0.00     0.014 A 
ATOM     26  C   UNL A   1      41.481  21.193  27.973  1.00  0.00     0.014 A 
ATOM     27  C   UNL A   1      42.436  23.139  26.227  1.00  0.00     0.010 A 
ATOM     28  C   UNL A   1      41.705  22.484  28.434  1.00  0.00     0.010 A 
ATOM     29  C   UNL A   1      42.206  23.468  27.572  1.00  0.00    -0.014 A 
BRANCH  29  30
ATOM     30  C   UNL A   1      42.510  24.821  28.103  1.00  0.00     0.031 A 
ATOM     31  C   UNL A   1      43.906  25.159  28.555  1.00  0.00     0.074 A 
ATOM     32  C   UNL A   1      41.518  25.725  28.237  1.00  0.00     0.049 A 
ATOM     33  N   UNL A   1      44.355  26.262  29.097  1.00  0.00    -0.248 NA
ATOM     34  C   UNL A   1      44.929  24.108  28.407  1.00  0.00     0.031 C 
ATOM     35  C   UNL A   1      40.115  25.505  27.882  1.00  0.00     0.029 A 
ATOM     36  N   UNL A   1      41.541  27.011  28.714  1.00  0.00    -0.354 N 
ATOM     37  C   UNL A   1      45.696  26.028  29.376  1.00  0.00     0.074 A 
ATOM     38  C   UNL A   1      45.977  24.662  28.996  1.00  0.00     0.031 C 
ATOM     39  C   UNL A   1      39.419  26.627  28.124  1.00  0.00     0.029 A 
ATOM     40  C   UNL A   1      40.314  27.628  28.693  1.00  0.00     0.049 A 
ATOM     41  H   UNL A   1      42.360  27.450  29.041  1.00  0.00     0.167 HD
ATOM     42  C   UNL A   1      46.618  26.879  29.885  1.00  0.00     0.031 A 
ATOM     43  C   UNL A   1      39.947  28.860  29.095  1.00  0.00     0.031 A 
ATOM     44  C   UNL A   1      46.341  28.244  30.243  1.00  0.00     0.049 A 
ATOM     45  C   UNL A   1      40.990  29.785  29.658  1.00  0.00     0.074 A 
ATOM     46  C   UNL A   1      47.222  29.210  30.697  1.00  0.00     0.029 A 
ATOM     47  N   UNL A   1      45.089  28.834  30.192  1.00  0.00    -0.354 N 
ATOM     48  N   UNL A   1      42.272  29.574  29.836  1.00  0.00    -0.248 NA
ATOM     49  C   UNL A   1      40.538  31.123  30.063  1.00  0.00     0.031 C 
ATOM     50  C   UNL A   1      46.490  30.366  30.981  1.00  0.00     0.029 A 
ATOM     51  C   UNL A   1      45.167  30.143  30.637  1.00  0.00     0.049 A 
ATOM     52  H   UNL A   1      44.266  28.389  29.885  1.00  0.00     0.167 HD
ATOM     53  C   UNL A   1      42.783  30.761  30.345  1.00  0.00     0.074 A 
ATOM     54  C   UNL A   1      41.678  31.692  30.428  1.00  0.00     0.031 C 
ATOM     55  C   UNL A   1      44.055  31.054  30.713  1.00  0.00     0.031 A 
BRANCH  42  56
ATOM     56  C   UNL A   1      48.013  26.355  30.093  1.00  0.00    -0.014 A 
ATOM     57  C   UNL A   1      48.406  25.783  31.313  1.00  0.00     0.009 A 
ATOM     58  C   UNL A   1      48.935  26.395  29.036  1.00  0.00     0.009 A 
ATOM     59  C   UNL A   1      49.706  25.297  31.481  1.00  0.00     0.001 A 
ATOM     60  C   UNL A   1      50.223  25.879  29.195  1.00  0.00     0.001 A 
ATOM     61  C   UNL A   1      50.610  25.339  30.421  1.00  0.00     0.000 A 
ENDBRANCH  42  56
BRANCH  43  62
ATOM     62  C   UNL A   1      38.529  29.294  28.977  1.00  0.00    -0.014 A 
ATOM     63  C   UNL A   1      38.028  29.782  27.759  1.00  0.00     0.009 A 
ATOM     64  C   UNL A   1      37.671  29.235  30.086  1.00  0.00     0.009 A 
ATOM     65  C   UNL A   1      36.710  30.232  27.666  1.00  0.00     0.001 A 
ATOM     66  C   UNL A   1      36.343  29.655  29.980  1.00  0.00     0.001 A 
ATOM     67  C   UNL A   1      35.867  30.164  28.774  1.00  0.00     0.000 A 
ENDBRANCH  43  62
BRANCH  55  68
ATOM     68  C   UNL A   1      44.326  32.450  31.201  1.00  0.00    -0.014 A 
ATOM     69  C   UNL A   1      44.693  33.476  30.316  1.00  0.00     0.009 A 
ATOM     70  C   UNL A   1      44.167  32.751  32.563  1.00  0.00     0.009 A 
ATOM     71  C   UNL A   1      44.930  34.767  30.794  1.00  0.00     0.001 A 
ATOM     72  C   UNL A   1      44.371  34.049  33.031  1.00  0.00     0.001 A 
ATOM     73  C   UNL A   1      44.763  35.053  32.148  1.00  0.00     0.000 A 
ENDBRANCH  55  68
ENDBRANCH  29  30
ENDBRANCH  21  24
ENDBRANCH  19  20
ENDBRANCH  18  19
ENDBRANCH   1  18
TORSDOF 13
ENDMDL
MODEL 3
REMARK VINA RESULT:     -10.0      5.597     10.120
REMARK SMILES CC(C)([NH2+]C[C@@H]1CCCO1)C(=O)NCCCNC(=O)c1ccc(-c2c3nc(c(-c4ccccc4)c4ccc([nH]4)c(-c4ccccc4)c4nc(c(-c5ccccc5)c5ccc2[nH]5)C=C4)C=C3)cc1
REMARK SMILES IDX 14 1 13 2 11 3 12 4 2 6 1 7 3 8 4 9 5 12 6 13 7 14 10 15
REMARK SMILES IDX 8 16 9 17 15 18 16 19 17 20 18 21 19 23 20 24 21 25 67 26
REMARK SMILES IDX 22 27 66 28 23 29 24 30 25 31 60 32 26 33 65 34 59 35 61 36
REMARK SMILES IDX 27 37 64 38 58 39 57 40 28 42 50 43 35 44 49 45 36 46 39 47
REMARK SMILES IDX 48 48 62 49 37 50 38 51 47 53 63 54 40 55 29 56 30 57 34 58
REMARK SMILES IDX 31 59 33 60 32 61 51 62 52 63 56 64 53 65 55 66 54 67 41 68
REMARK SMILES IDX 42 69 46 70 43 71 45 72 44 73
REMARK H PARENT 13 5 4 10 4 11 17 22 61 41 39 52
REMARK Flexibility Score: inf
ROOT
ATOM      1  C   UNL A   1      30.663  31.483  25.162  1.00  0.00     0.118 C 
ENDROOT
BRANCH   1   2
ATOM      2  N   UNL A   1      29.946  32.554  24.508  1.00  0.00    -0.351 N 
ATOM      3  C   UNL A   1      29.207  32.625  23.367  1.00  0.00     0.280 C 
ATOM      4  O   UNL A   1      28.840  33.777  23.091  1.00  0.00    -0.268 OA
ATOM      5  H   UNL A   1      30.001  33.410  24.990  1.00  0.00     0.163 HD
BRANCH   3   6
ATOM      6  C   UNL A   1      28.776  31.395  22.492  1.00  0.00     0.169 C 
ATOM      7  C   UNL A   1      28.217  32.007  21.168  1.00  0.00     0.090 C 
ATOM      8  C   UNL A   1      27.598  30.617  23.092  1.00  0.00     0.090 C 
BRANCH   6   9
ATOM      9  N   UNL A   1      29.910  30.577  21.985  1.00  0.00    -0.332 N 
ATOM     10  H   UNL A   1      30.724  30.855  22.534  1.00  0.00     0.347 HD
ATOM     11  H   UNL A   1      29.874  30.777  20.986  1.00  0.00     0.347 HD
BRANCH   9  12
ATOM     12  C   UNL A   1      29.904  29.118  21.990  1.00  0.00     0.293 C 
BRANCH  12  13
ATOM     13  C   UNL A   1      31.070  28.415  22.692  1.00  0.00     0.173 C 
ATOM     14  C   UNL A   1      30.768  27.973  24.112  1.00  0.00     0.040 C 
ATOM     15  O   UNL A   1      32.215  29.274  22.818  1.00  0.00    -0.372 OA
ATOM     16  C   UNL A   1      32.166  27.701  24.614  1.00  0.00     0.031 C 
ATOM     17  C   UNL A   1      32.988  28.782  23.928  1.00  0.00     0.161 C 
ENDBRANCH  12  13
ENDBRANCH   9  12
ENDBRANCH   6   9
ENDBRANCH   3   6
ENDBRANCH   1   2
BRANCH   1  18
ATOM     18  C   UNL A   1      30.968  31.829  26.615  1.00  0.00     0.042 C 
BRANCH  18  19
ATOM     19  C   UNL A   1      32.337  32.446  26.820  1.00  0.00     0.118 C 
BRANCH  19  20
ATOM     20  N   UNL A   1      32.259  33.780  27.397  1.00  0.00    -0.352 N 
ATOM     21  C   UNL A   1      33.043  34.383  28.350  1.00  0.00     0.251 C 
ATOM     22  H   UNL A   1      31.527  34.338  27.049  1.00  0.00     0.163 HD
ATOM     23  O   UNL A   1      32.676  35.443  28.848  1.00  0.00    -0.269 OA
BRANCH  21  24
ATOM     24  C   UNL A   1      34.312  33.762  28.796  1.00  0.00     0.039 A 
ATOM     25  C   UNL A   1      35.482  34.023  28.076  1.00  0.00     0.014 A 
ATOM     26  C   UNL A   1      34.358  32.906  29.899  1.00  0.00     0.014 A 
ATOM     27  C   UNL A   1      36.696  33.476  28.498  1.00  0.00     0.010 A 
ATOM     28  C   UNL A   1      35.581  32.458  30.384  1.00  0.00     0.010 A 
ATOM     29  C   UNL A   1      36.762  32.718  29.677  1.00  0.00    -0.014 A 
BRANCH  29  30
ATOM     30  C   UNL A   1      38.048  32.166  30.174  1.00  0.00     0.031 A 
ATOM     31  C   UNL A   1      38.572  30.865  29.626  1.00  0.00     0.074 A 
ATOM     32  C   UNL A   1      38.713  32.801  31.160  1.00  0.00     0.049 A 
ATOM     33  N   UNL A   1      39.642  30.194  29.971  1.00  0.00    -0.248 NA
ATOM     34  C   UNL A   1      37.774  30.213  28.573  1.00  0.00     0.031 C 
ATOM     35  C   UNL A   1      38.286  34.042  31.810  1.00  0.00     0.029 A 
ATOM     36  N   UNL A   1      39.888  32.484  31.792  1.00  0.00    -0.354 N 
ATOM     37  C   UNL A   1      39.629  29.038  29.199  1.00  0.00     0.074 A 
ATOM     38  C   UNL A   1      38.419  29.069  28.409  1.00  0.00     0.031 C 
ATOM     39  C   UNL A   1      39.202  34.398  32.724  1.00  0.00     0.029 A 
ATOM     40  C   UNL A   1      40.254  33.389  32.760  1.00  0.00     0.049 A 
ATOM     41  H   UNL A   1      40.419  31.685  31.574  1.00  0.00     0.167 HD
ATOM     42  C   UNL A   1      40.551  28.049  29.138  1.00  0.00     0.031 A 
ATOM     43  C   UNL A   1      41.315  33.400  33.590  1.00  0.00     0.031 A 
ATOM     44  C   UNL A   1      41.764  28.031  29.909  1.00  0.00     0.049 A 
ATOM     45  C   UNL A   1      42.322  32.288  33.503  1.00  0.00     0.074 A 
ATOM     46  C   UNL A   1      42.797  27.112  29.866  1.00  0.00     0.029 A 
ATOM     47  N   UNL A   1      42.103  28.973  30.867  1.00  0.00    -0.354 N 
ATOM     48  N   UNL A   1      42.336  31.246  32.707  1.00  0.00    -0.248 NA
ATOM     49  C   UNL A   1      43.469  32.361  34.420  1.00  0.00     0.031 C 
ATOM     50  C   UNL A   1      43.733  27.464  30.843  1.00  0.00     0.029 A 
ATOM     51  C   UNL A   1      43.316  28.640  31.445  1.00  0.00     0.049 A 
ATOM     52  H   UNL A   1      41.562  29.762  31.101  1.00  0.00     0.167 HD
ATOM     53  C   UNL A   1      43.504  30.556  33.007  1.00  0.00     0.074 A 
ATOM     54  C   UNL A   1      44.181  31.309  34.042  1.00  0.00     0.031 C 
ATOM     55  C   UNL A   1      43.975  29.402  32.474  1.00  0.00     0.031 A 
BRANCH  42  56
ATOM     56  C   UNL A   1      40.277  26.897  28.209  1.00  0.00    -0.014 A 
ATOM     57  C   UNL A   1      40.788  26.872  26.902  1.00  0.00     0.009 A 
ATOM     58  C   UNL A   1      39.532  25.798  28.666  1.00  0.00     0.009 A 
ATOM     59  C   UNL A   1      40.526  25.788  26.059  1.00  0.00     0.001 A 
ATOM     60  C   UNL A   1      39.300  24.702  27.833  1.00  0.00     0.001 A 
ATOM     61  C   UNL A   1      39.789  24.702  26.528  1.00  0.00     0.000 A 
ENDBRANCH  42  56
BRANCH  43  62
ATOM     62  C   UNL A   1      41.482  34.502  34.575  1.00  0.00    -0.014 A 
ATOM     63  C   UNL A   1      42.182  35.670  34.231  1.00  0.00     0.009 A 
ATOM     64  C   UNL A   1      40.953  34.388  35.870  1.00  0.00     0.009 A 
ATOM     65  C   UNL A   1      42.377  36.683  35.172  1.00  0.00     0.001 A 
ATOM     66  C   UNL A   1      41.121  35.417  36.800  1.00  0.00     0.001 A 
ATOM     67  C   UNL A   1      41.842  36.558  36.454  1.00  0.00     0.000 A 
ENDBRANCH  43  62
BRANCH  55  68
ATOM     68  C   UNL A   1      45.302  28.904  32.973  1.00  0.00    -0.014 A 
ATOM     69  C   UNL A   1      45.391  28.007  34.048  1.00  0.00     0.009 A 
ATOM     70  C   UNL A   1      46.481  29.307  32.324  1.00  0.00     0.009 A 
ATOM     71  C   UNL A   1      46.637  27.553  34.486  1.00  0.00     0.001 A 
ATOM     72  C   UNL A   1      47.721  28.825  32.743  1.00  0.00     0.001 A 
ATOM     73  C   UNL A   1      47.799  27.956  33.830  1.00  0.00     0.000 A 
ENDBRANCH  55  68
ENDBRANCH  29  30
ENDBRANCH  21  24
ENDBRANCH  19  20
ENDBRANCH  18  19
ENDBRANCH   1  18
TORSDOF 13
ENDMDL
