MODEL 1
REMARK VINA RESULT:     -11.1      0.000      0.000
REMARK SMILES O=C(NCCCNC(=O)c1cc(-c2cccc(Cl)c2)oc1C(F)(F)F)c1ccc(-c2c3nc(c(-c4ccccc4)c4ccc([nH]4)c(-c4ccccc4)c4nc(c(-c5ccccc5)c5ccc2[nH]5)C=C4)C=C3)cc1
REMARK SMILES IDX 4 1 3 2 1 3 2 4 26 6 27 7 73 8 28 9 72 10 29 11 30 12 31 13
REMARK SMILES IDX 66 14 32 15 71 16 65 17 67 18 33 19 70 20 64 21 63 22 34 24
REMARK SMILES IDX 56 25 41 26 55 27 42 28 45 29 54 30 68 31 43 32 44 33 53 35
REMARK SMILES IDX 69 36 46 37 35 38 36 39 40 40 37 41 39 42 38 43 57 44 58 45
REMARK SMILES IDX 62 46 59 47 61 48 60 49 47 50 48 51 52 52 49 53 51 54 50 55
REMARK SMILES IDX 5 56 6 57 7 58 8 59 9 61 10 62 11 63 21 64 12 65 20 66 22 67
REMARK SMILES IDX 23 68 24 69 25 70 13 71 14 72 19 73 15 74 17 75 16 76 18 77
REMARK H PARENT 3 5 67 23 45 34 7 60
REMARK Flexibility Score: inf
ROOT
ATOM      1  C   UNL A   1      33.587  28.523  27.268  1.00  0.00     0.118 C 
ENDROOT
BRANCH   1   2
ATOM      2  N   UNL A   1      33.617  29.928  27.653  1.00  0.00    -0.352 N 
ATOM      3  O   UNL A   1      34.323  31.796  28.669  1.00  0.00    -0.269 OA
ATOM      4  C   UNL A   1      34.596  30.671  28.261  1.00  0.00     0.251 C 
ATOM      5  H   UNL A   1      32.796  30.427  27.441  1.00  0.00     0.163 HD
BRANCH   4   6
ATOM      6  C   UNL A   1      35.968  30.144  28.440  1.00  0.00     0.039 A 
ATOM      7  C   UNL A   1      36.930  30.251  27.432  1.00  0.00     0.014 A 
ATOM      8  C   UNL A   1      36.326  29.611  29.685  1.00  0.00     0.014 A 
ATOM      9  C   UNL A   1      38.209  29.733  27.631  1.00  0.00     0.010 A 
ATOM     10  C   UNL A   1      37.626  29.149  29.905  1.00  0.00     0.010 A 
ATOM     11  C   UNL A   1      38.573  29.189  28.873  1.00  0.00    -0.014 A 
BRANCH  11  12
ATOM     12  C   UNL A   1      39.968  28.732  29.088  1.00  0.00     0.031 A 
ATOM     13  C   UNL A   1      40.416  27.365  28.654  1.00  0.00     0.074 A 
ATOM     14  C   UNL A   1      40.849  29.579  29.655  1.00  0.00     0.049 A 
ATOM     15  N   UNL A   1      41.612  26.837  28.714  1.00  0.00    -0.248 NA
ATOM     16  C   UNL A   1      39.392  26.474  28.088  1.00  0.00     0.031 C 
ATOM     17  C   UNL A   1      40.534  30.925  30.140  1.00  0.00     0.029 A 
ATOM     18  N   UNL A   1      42.192  29.442  29.898  1.00  0.00    -0.354 N 
ATOM     19  C   UNL A   1      41.484  25.549  28.213  1.00  0.00     0.074 A 
ATOM     20  C   UNL A   1      40.091  25.369  27.864  1.00  0.00     0.031 C 
ATOM     21  C   UNL A   1      41.663  31.509  30.573  1.00  0.00     0.029 A 
ATOM     22  C   UNL A   1      42.768  30.569  30.430  1.00  0.00     0.049 A 
ATOM     23  H   UNL A   1      42.693  28.616  29.709  1.00  0.00     0.167 HD
ATOM     24  C   UNL A   1      42.441  24.603  28.054  1.00  0.00     0.031 A 
ATOM     25  C   UNL A   1      44.046  30.822  30.762  1.00  0.00     0.031 A 
ATOM     26  C   UNL A   1      43.830  24.780  28.381  1.00  0.00     0.049 A 
ATOM     27  C   UNL A   1      45.087  29.763  30.560  1.00  0.00     0.074 A 
ATOM     28  C   UNL A   1      44.875  23.887  28.214  1.00  0.00     0.029 A 
ATOM     29  N   UNL A   1      44.369  25.927  28.939  1.00  0.00    -0.354 N 
ATOM     30  N   UNL A   1      44.951  28.563  30.054  1.00  0.00    -0.248 NA
ATOM     31  C   UNL A   1      46.456  30.095  30.980  1.00  0.00     0.031 C 
ATOM     32  C   UNL A   1      46.045  24.487  28.696  1.00  0.00     0.029 A 
ATOM     33  C   UNL A   1      45.728  25.761  29.139  1.00  0.00     0.049 A 
ATOM     34  H   UNL A   1      43.860  26.741  29.161  1.00  0.00     0.167 HD
ATOM     35  C   UNL A   1      46.214  27.993  30.094  1.00  0.00     0.074 A 
ATOM     36  C   UNL A   1      47.109  28.987  30.654  1.00  0.00     0.031 C 
ATOM     37  C   UNL A   1      46.599  26.754  29.707  1.00  0.00     0.031 A 
BRANCH  24  38
ATOM     38  C   UNL A   1      42.011  23.274  27.509  1.00  0.00    -0.014 A 
ATOM     39  C   UNL A   1      42.167  22.966  26.150  1.00  0.00     0.009 A 
ATOM     40  C   UNL A   1      41.490  22.302  28.377  1.00  0.00     0.009 A 
ATOM     41  C   UNL A   1      41.793  21.712  25.665  1.00  0.00     0.001 A 
ATOM     42  C   UNL A   1      41.130  21.044  27.891  1.00  0.00     0.001 A 
ATOM     43  C   UNL A   1      41.278  20.751  26.535  1.00  0.00     0.000 A 
ENDBRANCH  24  38
BRANCH  25  44
ATOM     44  C   UNL A   1      44.410  32.148  31.316  1.00  0.00    -0.014 A 
ATOM     45  C   UNL A   1      44.786  33.193  30.461  1.00  0.00     0.009 A 
ATOM     46  C   UNL A   1      44.361  32.378  32.699  1.00  0.00     0.009 A 
ATOM     47  C   UNL A   1      45.119  34.444  30.983  1.00  0.00     0.001 A 
ATOM     48  C   UNL A   1      44.677  33.635  33.216  1.00  0.00     0.001 A 
ATOM     49  C   UNL A   1      45.060  34.666  32.359  1.00  0.00     0.000 A 
ENDBRANCH  25  44
BRANCH  37  50
ATOM     50  C   UNL A   1      48.046  26.410  29.884  1.00  0.00    -0.014 A 
ATOM     51  C   UNL A   1      48.501  25.825  31.075  1.00  0.00     0.009 A 
ATOM     52  C   UNL A   1      48.958  26.655  28.846  1.00  0.00     0.009 A 
ATOM     53  C   UNL A   1      49.852  25.513  31.233  1.00  0.00     0.001 A 
ATOM     54  C   UNL A   1      50.305  26.328  29.003  1.00  0.00     0.001 A 
ATOM     55  C   UNL A   1      50.752  25.763  30.198  1.00  0.00     0.000 A 
ENDBRANCH  37  50
ENDBRANCH  11  12
ENDBRANCH   4   6
ENDBRANCH   1   2
BRANCH   1  56
ATOM     56  C   UNL A   1      33.767  28.326  25.765  1.00  0.00     0.042 C 
BRANCH  56  57
ATOM     57  C   UNL A   1      32.465  28.103  25.001  1.00  0.00     0.118 C 
BRANCH  57  58
ATOM     58  N   UNL A   1      31.495  27.338  25.772  1.00  0.00    -0.352 N 
ATOM     59  C   UNL A   1      31.364  25.982  25.925  1.00  0.00     0.255 C 
ATOM     60  H   UNL A   1      30.831  27.879  26.259  1.00  0.00     0.163 HD
ATOM     61  O   UNL A   1      30.331  25.531  26.415  1.00  0.00    -0.269 OA
BRANCH  59  62
ATOM     62  C   UNL A   1      32.438  25.116  25.495  1.00  0.00     0.091 A 
ATOM     63  C   UNL A   1      33.542  24.597  26.228  1.00  0.00     0.065 A 
ATOM     64  C   UNL A   1      32.531  24.556  24.232  1.00  0.00     0.221 A 
ATOM     65  C   UNL A   1      34.300  23.860  25.348  1.00  0.00     0.135 A 
ATOM     66  O   UNL A   1      33.685  23.824  24.132  1.00  0.00    -0.451 OA
BRANCH  64  67
ATOM     67  C   UNL A   1      31.658  24.634  23.033  1.00  0.00     0.450 C 
ATOM     68  F   UNL A   1      32.306  24.256  21.898  1.00  0.00    -0.163 F 
ATOM     69  F   UNL A   1      30.566  23.835  23.140  1.00  0.00    -0.163 F 
ATOM     70  F   UNL A   1      31.213  25.897  22.807  1.00  0.00    -0.163 F 
ENDBRANCH  64  67
BRANCH  65  71
ATOM     71  C   UNL A   1      35.566  23.153  25.464  1.00  0.00     0.019 A 
ATOM     72  C   UNL A   1      36.734  23.848  25.812  1.00  0.00     0.012 A 
ATOM     73  C   UNL A   1      35.651  21.785  25.175  1.00  0.00     0.032 A 
ATOM     74  C   UNL A   1      37.965  23.190  25.869  1.00  0.00     0.002 A 
ATOM     75  C   UNL A   1      36.884  21.135  25.222  1.00  0.00     0.041 A 
ATOM     76  C   UNL A   1      38.041  21.831  25.568  1.00  0.00     0.020 A 
ATOM     77  Cl  UNL A   1      36.982  19.462  24.830  1.00  0.00    -0.084 Cl
ENDBRANCH  65  71
ENDBRANCH  59  62
ENDBRANCH  57  58
ENDBRANCH  56  57
ENDBRANCH   1  56
TORSDOF 12
ENDMDL
MODEL 2
REMARK VINA RESULT:     -11.0      0.699      6.023
REMARK SMILES O=C(NCCCNC(=O)c1cc(-c2cccc(Cl)c2)oc1C(F)(F)F)c1ccc(-c2c3nc(c(-c4ccccc4)c4ccc([nH]4)c(-c4ccccc4)c4nc(c(-c5ccccc5)c5ccc2[nH]5)C=C4)C=C3)cc1
REMARK SMILES IDX 4 1 3 2 1 3 2 4 26 6 27 7 73 8 28 9 72 10 29 11 30 12 31 13
REMARK SMILES IDX 66 14 32 15 71 16 65 17 67 18 33 19 70 20 64 21 63 22 34 24
REMARK SMILES IDX 56 25 41 26 55 27 42 28 45 29 54 30 68 31 43 32 44 33 53 35
REMARK SMILES IDX 69 36 46 37 35 38 36 39 40 40 37 41 39 42 38 43 57 44 58 45
REMARK SMILES IDX 62 46 59 47 61 48 60 49 47 50 48 51 52 52 49 53 51 54 50 55
REMARK SMILES IDX 5 56 6 57 7 58 8 59 9 61 10 62 11 63 21 64 12 65 20 66 22 67
REMARK SMILES IDX 23 68 24 69 25 70 13 71 14 72 19 73 15 74 17 75 16 76 18 77
REMARK H PARENT 3 5 67 23 45 34 7 60
REMARK Flexibility Score: inf
ROOT
ATOM      1  C   UNL A   1      33.507  28.616  27.217  1.00  0.00     0.118 C 
ENDROOT
BRANCH   1   2
ATOM      2  N   UNL A   1      33.507  30.014  27.623  1.00  0.00    -0.352 N 
ATOM      3  O   UNL A   1      34.169  31.881  28.673  1.00  0.00    -0.269 OA
ATOM      4  C   UNL A   1      34.467  30.767  28.250  1.00  0.00     0.251 C 
ATOM      5  H   UNL A   1      32.679  30.502  27.411  1.00  0.00     0.163 HD
BRANCH   4   6
ATOM      6  C   UNL A   1      35.847  30.263  28.434  1.00  0.00     0.039 A 
ATOM      7  C   UNL A   1      36.815  30.401  27.436  1.00  0.00     0.014 A 
ATOM      8  C   UNL A   1      36.205  29.721  29.675  1.00  0.00     0.014 A 
ATOM      9  C   UNL A   1      38.101  29.904  27.638  1.00  0.00     0.010 A 
ATOM     10  C   UNL A   1      37.512  29.280  29.900  1.00  0.00     0.010 A 
ATOM     11  C   UNL A   1      38.466  29.351  28.876  1.00  0.00    -0.014 A 
BRANCH  11  12
ATOM     12  C   UNL A   1      39.867  28.917  29.096  1.00  0.00     0.031 A 
ATOM     13  C   UNL A   1      40.850  29.794  29.819  1.00  0.00     0.074 A 
ATOM     14  C   UNL A   1      40.247  27.700  28.661  1.00  0.00     0.049 A 
ATOM     15  N   UNL A   1      42.092  29.537  30.145  1.00  0.00    -0.248 NA
ATOM     16  C   UNL A   1      40.385  31.130  30.223  1.00  0.00     0.031 C 
ATOM     17  C   UNL A   1      39.394  26.763  27.926  1.00  0.00     0.029 A 
ATOM     18  N   UNL A   1      41.438  27.034  28.794  1.00  0.00    -0.354 N 
ATOM     19  C   UNL A   1      42.563  30.682  30.774  1.00  0.00     0.074 A 
ATOM     20  C   UNL A   1      41.479  31.640  30.773  1.00  0.00     0.031 C 
ATOM     21  C   UNL A   1      40.072  25.623  27.720  1.00  0.00     0.029 A 
ATOM     22  C   UNL A   1      41.414  25.763  28.275  1.00  0.00     0.049 A 
ATOM     23  H   UNL A   1      42.232  27.428  29.222  1.00  0.00     0.167 HD
ATOM     24  C   UNL A   1      43.787  30.913  31.306  1.00  0.00     0.031 A 
ATOM     25  C   UNL A   1      42.363  24.812  28.251  1.00  0.00     0.031 A 
ATOM     26  C   UNL A   1      44.865  29.960  31.327  1.00  0.00     0.049 A 
ATOM     27  C   UNL A   1      43.703  25.088  28.862  1.00  0.00     0.074 A 
ATOM     28  C   UNL A   1      46.126  30.096  31.882  1.00  0.00     0.029 A 
ATOM     29  N   UNL A   1      44.807  28.693  30.770  1.00  0.00    -0.354 N 
ATOM     30  N   UNL A   1      44.118  26.165  29.481  1.00  0.00    -0.248 NA
ATOM     31  C   UNL A   1      44.706  24.017  28.767  1.00  0.00     0.031 C 
ATOM     32  C   UNL A   1      46.841  28.918  31.638  1.00  0.00     0.029 A 
ATOM     33  C   UNL A   1      46.016  28.043  30.953  1.00  0.00     0.049 A 
ATOM     34  H   UNL A   1      44.023  28.312  30.312  1.00  0.00     0.167 HD
ATOM     35  C   UNL A   1      45.429  25.905  29.849  1.00  0.00     0.074 A 
ATOM     36  C   UNL A   1      45.735  24.560  29.404  1.00  0.00     0.031 C 
ATOM     37  C   UNL A   1      46.305  26.711  30.494  1.00  0.00     0.031 A 
BRANCH  24  38
ATOM     38  C   UNL A   1      44.034  32.265  31.905  1.00  0.00    -0.014 A 
ATOM     39  C   UNL A   1      44.517  33.324  31.122  1.00  0.00     0.009 A 
ATOM     40  C   UNL A   1      43.731  32.494  33.256  1.00  0.00     0.009 A 
ATOM     41  C   UNL A   1      44.709  34.586  31.687  1.00  0.00     0.001 A 
ATOM     42  C   UNL A   1      43.912  33.761  33.814  1.00  0.00     0.001 A 
ATOM     43  C   UNL A   1      44.404  34.804  33.030  1.00  0.00     0.000 A 
ENDBRANCH  24  38
BRANCH  25  44
ATOM     44  C   UNL A   1      42.069  23.499  27.627  1.00  0.00    -0.014 A 
ATOM     45  C   UNL A   1      42.414  23.257  26.290  1.00  0.00     0.009 A 
ATOM     46  C   UNL A   1      41.463  22.478  28.374  1.00  0.00     0.009 A 
ATOM     47  C   UNL A   1      42.146  22.018  25.707  1.00  0.00     0.001 A 
ATOM     48  C   UNL A   1      41.213  21.234  27.794  1.00  0.00     0.001 A 
ATOM     49  C   UNL A   1      41.550  21.006  26.460  1.00  0.00     0.000 A 
ENDBRANCH  25  44
BRANCH  37  50
ATOM     50  C   UNL A   1      47.673  26.157  30.747  1.00  0.00    -0.014 A 
ATOM     51  C   UNL A   1      48.637  26.138  29.727  1.00  0.00     0.009 A 
ATOM     52  C   UNL A   1      48.008  25.666  32.018  1.00  0.00     0.009 A 
ATOM     53  C   UNL A   1      49.907  25.615  29.971  1.00  0.00     0.001 A 
ATOM     54  C   UNL A   1      49.284  25.157  32.261  1.00  0.00     0.001 A 
ATOM     55  C   UNL A   1      50.230  25.126  31.236  1.00  0.00     0.000 A 
ENDBRANCH  37  50
ENDBRANCH  11  12
ENDBRANCH   4   6
ENDBRANCH   1   2
BRANCH   1  56
ATOM     56  C   UNL A   1      32.187  27.918  27.533  1.00  0.00     0.042 C 
BRANCH  56  57
ATOM     57  C   UNL A   1      31.549  27.211  26.339  1.00  0.00     0.118 C 
BRANCH  57  58
ATOM     58  N   UNL A   1      30.715  26.087  26.743  1.00  0.00    -0.352 N 
ATOM     59  C   UNL A   1      30.846  24.751  26.471  1.00  0.00     0.255 C 
ATOM     60  H   UNL A   1      29.936  26.326  27.298  1.00  0.00     0.163 HD
ATOM     61  O   UNL A   1      29.901  23.997  26.694  1.00  0.00    -0.269 OA
BRANCH  59  62
ATOM     62  C   UNL A   1      32.087  24.262  25.916  1.00  0.00     0.091 A 
ATOM     63  C   UNL A   1      33.234  23.730  26.571  1.00  0.00     0.065 A 
ATOM     64  C   UNL A   1      32.350  24.159  24.560  1.00  0.00     0.221 A 
ATOM     65  C   UNL A   1      34.163  23.452  25.594  1.00  0.00     0.135 A 
ATOM     66  O   UNL A   1      33.628  23.703  24.366  1.00  0.00    -0.451 OA
BRANCH  64  67
ATOM     67  C   UNL A   1      31.538  24.467  23.355  1.00  0.00     0.450 C 
ATOM     68  F   UNL A   1      30.420  23.695  23.276  1.00  0.00    -0.163 F 
ATOM     69  F   UNL A   1      31.120  25.758  23.334  1.00  0.00    -0.163 F 
ATOM     70  F   UNL A   1      32.227  24.248  22.205  1.00  0.00    -0.163 F 
ENDBRANCH  64  67
BRANCH  65  71
ATOM     71  C   UNL A   1      35.535  22.971  25.625  1.00  0.00     0.019 A 
ATOM     72  C   UNL A   1      36.588  23.852  25.913  1.00  0.00     0.012 A 
ATOM     73  C   UNL A   1      35.832  21.638  25.314  1.00  0.00     0.032 A 
ATOM     74  C   UNL A   1      37.914  23.413  25.888  1.00  0.00     0.002 A 
ATOM     75  C   UNL A   1      37.158  21.206  25.278  1.00  0.00     0.041 A 
ATOM     76  C   UNL A   1      38.200  22.087  25.564  1.00  0.00     0.020 A 
ATOM     77  Cl  UNL A   1      37.514  19.575  24.858  1.00  0.00    -0.084 Cl
ENDBRANCH  65  71
ENDBRANCH  59  62
ENDBRANCH  57  58
ENDBRANCH  56  57
ENDBRANCH   1  56
TORSDOF 12
ENDMDL
MODEL 3
REMARK VINA RESULT:     -11.0      2.850      7.614
REMARK SMILES O=C(NCCCNC(=O)c1cc(-c2cccc(Cl)c2)oc1C(F)(F)F)c1ccc(-c2c3nc(c(-c4ccccc4)c4ccc([nH]4)c(-c4ccccc4)c4nc(c(-c5ccccc5)c5ccc2[nH]5)C=C4)C=C3)cc1
REMARK SMILES IDX 4 1 3 2 1 3 2 4 26 6 27 7 73 8 28 9 72 10 29 11 30 12 31 13
REMARK SMILES IDX 66 14 32 15 71 16 65 17 67 18 33 19 70 20 64 21 63 22 34 24
REMARK SMILES IDX 56 25 41 26 55 27 42 28 45 29 54 30 68 31 43 32 44 33 53 35
REMARK SMILES IDX 69 36 46 37 35 38 36 39 40 40 37 41 39 42 38 43 57 44 58 45
REMARK SMILES IDX 62 46 59 47 61 48 60 49 47 50 48 51 52 52 49 53 51 54 50 55
REMARK SMILES IDX 5 56 6 57 7 58 8 59 9 61 10 62 11 63 21 64 12 65 20 66 22 67
REMARK SMILES IDX 23 68 24 69 25 70 13 71 14 72 19 73 15 74 17 75 16 76 18 77
REMARK H PARENT 3 5 67 23 45 34 7 60
REMARK Flexibility Score: inf
ROOT
ATOM      1  C   UNL A   1      36.846  23.626  25.085  1.00  0.00     0.118 C 
ENDROOT
BRANCH   1   2
ATOM      2  N   UNL A   1      37.915  22.689  25.400  1.00  0.00    -0.352 N 
ATOM      3  O   UNL A   1      39.953  21.978  26.004  1.00  0.00    -0.269 OA
ATOM      4  C   UNL A   1      39.121  22.881  26.024  1.00  0.00     0.251 C 
ATOM      5  H   UNL A   1      37.743  21.763  25.117  1.00  0.00     0.163 HD
BRANCH   4   6
ATOM      6  C   UNL A   1      39.442  24.152  26.713  1.00  0.00     0.039 A 
ATOM      7  C   UNL A   1      39.113  24.359  28.055  1.00  0.00     0.014 A 
ATOM      8  C   UNL A   1      40.175  25.124  26.022  1.00  0.00     0.014 A 
ATOM      9  C   UNL A   1      39.419  25.572  28.669  1.00  0.00     0.010 A 
ATOM     10  C   UNL A   1      40.538  26.316  26.656  1.00  0.00     0.010 A 
ATOM     11  C   UNL A   1      40.146  26.557  27.980  1.00  0.00    -0.014 A 
BRANCH  11  12
ATOM     12  C   UNL A   1      40.542  27.799  28.688  1.00  0.00     0.031 A 
ATOM     13  C   UNL A   1      41.949  28.008  29.168  1.00  0.00     0.074 A 
ATOM     14  C   UNL A   1      39.620  28.764  28.871  1.00  0.00     0.049 A 
ATOM     15  N   UNL A   1      42.470  29.060  29.749  1.00  0.00    -0.248 NA
ATOM     16  C   UNL A   1      42.892  26.894  28.982  1.00  0.00     0.031 C 
ATOM     17  C   UNL A   1      38.213  28.675  28.470  1.00  0.00     0.029 A 
ATOM     18  N   UNL A   1      39.732  30.017  29.418  1.00  0.00    -0.354 N 
ATOM     19  C   UNL A   1      43.793  28.731  30.014  1.00  0.00     0.074 A 
ATOM     20  C   UNL A   1      43.994  27.377  29.543  1.00  0.00     0.031 C 
ATOM     21  C   UNL A   1      37.608  29.843  28.737  1.00  0.00     0.029 A 
ATOM     22  C   UNL A   1      38.570  30.746  29.357  1.00  0.00     0.049 A 
ATOM     23  H   UNL A   1      40.566  30.360  29.814  1.00  0.00     0.167 HD
ATOM     24  C   UNL A   1      44.754  29.490  30.594  1.00  0.00     0.031 A 
ATOM     25  C   UNL A   1      38.308  32.004  29.751  1.00  0.00     0.031 A 
ATOM     26  C   UNL A   1      44.568  30.841  31.048  1.00  0.00     0.049 A 
ATOM     27  C   UNL A   1      39.394  32.826  30.375  1.00  0.00     0.074 A 
ATOM     28  C   UNL A   1      45.499  31.698  31.611  1.00  0.00     0.029 A 
ATOM     29  N   UNL A   1      43.371  31.535  30.989  1.00  0.00    -0.354 N 
ATOM     30  N   UNL A   1      40.647  32.509  30.586  1.00  0.00    -0.248 NA
ATOM     31  C   UNL A   1      39.027  34.179  30.817  1.00  0.00     0.031 C 
ATOM     32  C   UNL A   1      44.857  32.903  31.917  1.00  0.00     0.029 A 
ATOM     33  C   UNL A   1      43.534  32.802  31.521  1.00  0.00     0.049 A 
ATOM     34  H   UNL A   1      42.528  31.179  30.624  1.00  0.00     0.167 HD
ATOM     35  C   UNL A   1      41.220  33.619  31.187  1.00  0.00     0.074 A 
ATOM     36  C   UNL A   1      40.184  34.628  31.286  1.00  0.00     0.031 C 
ATOM     37  C   UNL A   1      42.490  33.787  31.623  1.00  0.00     0.031 A 
BRANCH  24  38
ATOM     38  C   UNL A   1      46.103  28.864  30.783  1.00  0.00    -0.014 A 
ATOM     39  C   UNL A   1      46.417  28.167  31.959  1.00  0.00     0.009 A 
ATOM     40  C   UNL A   1      47.052  28.931  29.752  1.00  0.00     0.009 A 
ATOM     41  C   UNL A   1      47.667  27.561  32.105  1.00  0.00     0.001 A 
ATOM     42  C   UNL A   1      48.296  28.313  29.896  1.00  0.00     0.001 A 
ATOM     43  C   UNL A   1      48.603  27.632  31.074  1.00  0.00     0.000 A 
ENDBRANCH  24  38
BRANCH  25  44
ATOM     44  C   UNL A   1      36.948  32.564  29.557  1.00  0.00    -0.014 A 
ATOM     45  C   UNL A   1      35.974  32.420  30.555  1.00  0.00     0.009 A 
ATOM     46  C   UNL A   1      36.629  33.261  28.383  1.00  0.00     0.009 A 
ATOM     47  C   UNL A   1      34.698  32.956  30.375  1.00  0.00     0.001 A 
ATOM     48  C   UNL A   1      35.358  33.812  28.214  1.00  0.00     0.001 A 
ATOM     49  C   UNL A   1      34.393  33.655  29.207  1.00  0.00     0.000 A 
ENDBRANCH  25  44
BRANCH  37  50
ATOM     50  C   UNL A   1      42.821  35.107  32.249  1.00  0.00    -0.014 A 
ATOM     51  C   UNL A   1      42.484  35.367  33.586  1.00  0.00     0.009 A 
ATOM     52  C   UNL A   1      43.489  36.090  31.504  1.00  0.00     0.009 A 
ATOM     53  C   UNL A   1      42.791  36.602  34.160  1.00  0.00     0.001 A 
ATOM     54  C   UNL A   1      43.807  37.317  32.086  1.00  0.00     0.001 A 
ATOM     55  C   UNL A   1      43.452  37.575  33.411  1.00  0.00     0.000 A 
ENDBRANCH  37  50
ENDBRANCH  11  12
ENDBRANCH   4   6
ENDBRANCH   1   2
BRANCH   1  56
ATOM     56  C   UNL A   1      35.626  23.443  25.985  1.00  0.00     0.042 C 
BRANCH  56  57
ATOM     57  C   UNL A   1      34.418  22.825  25.288  1.00  0.00     0.118 C 
BRANCH  57  58
ATOM     58  N   UNL A   1      34.393  23.117  23.861  1.00  0.00    -0.352 N 
ATOM     59  C   UNL A   1      33.803  24.152  23.185  1.00  0.00     0.255 C 
ATOM     60  H   UNL A   1      34.876  22.470  23.296  1.00  0.00     0.163 HD
ATOM     61  O   UNL A   1      33.687  24.082  21.963  1.00  0.00    -0.269 OA
BRANCH  59  62
ATOM     62  C   UNL A   1      33.320  25.295  23.925  1.00  0.00     0.091 A 
ATOM     63  C   UNL A   1      34.016  26.454  24.373  1.00  0.00     0.065 A 
ATOM     64  C   UNL A   1      31.996  25.493  24.280  1.00  0.00     0.221 A 
ATOM     65  C   UNL A   1      33.112  27.221  25.072  1.00  0.00     0.135 A 
ATOM     66  O   UNL A   1      31.878  26.646  25.011  1.00  0.00    -0.451 OA
BRANCH  64  67
ATOM     67  C   UNL A   1      30.764  24.700  24.039  1.00  0.00     0.450 C 
ATOM     68  F   UNL A   1      29.635  25.399  24.336  1.00  0.00    -0.163 F 
ATOM     69  F   UNL A   1      30.649  24.311  22.744  1.00  0.00    -0.163 F 
ATOM     70  F   UNL A   1      30.722  23.578  24.803  1.00  0.00    -0.163 F 
ENDBRANCH  64  67
BRANCH  65  71
ATOM     71  C   UNL A   1      33.221  28.462  25.823  1.00  0.00     0.019 A 
ATOM     72  C   UNL A   1      34.269  28.644  26.738  1.00  0.00     0.012 A 
ATOM     73  C   UNL A   1      32.255  29.467  25.690  1.00  0.00     0.032 A 
ATOM     74  C   UNL A   1      34.350  29.807  27.507  1.00  0.00     0.002 A 
ATOM     75  C   UNL A   1      32.333  30.621  26.468  1.00  0.00     0.041 A 
ATOM     76  C   UNL A   1      33.376  30.796  27.376  1.00  0.00     0.020 A 
ATOM     77  Cl  UNL A   1      31.120  31.833  26.323  1.00  0.00    -0.084 Cl
ENDBRANCH  65  71
ENDBRANCH  59  62
ENDBRANCH  57  58
ENDBRANCH  56  57
ENDBRANCH   1  56
TORSDOF 12
ENDMDL
