MODEL 1
REMARK VINA RESULT:     -11.2      0.000      0.000
REMARK SMILES C[NH2+][C@]1(C(=O)NCCCNC(=O)c2ccc(-c3c4nc(c(-c5ccccc5)c5ccc([nH]5)c(-c5ccccc5)c5nc(c(-c6ccccc6)c6ccc3[nH]6)C=C5)C=C4)cc2)CCC[C@@H]1CC[N@H+]1CCC[C@H]([NH+](C)C)C1
REMARK SMILES IDX 7 1 6 2 4 3 5 4 3 6 61 7 64 8 62 9 63 10 2 11 1 12 65 15
REMARK SMILES IDX 66 16 67 17 68 18 75 19 69 21 71 22 70 23 72 24 73 25 74 26
REMARK SMILES IDX 8 28 9 29 10 30 11 31 12 33 13 34 14 35 60 36 15 37 59 38
REMARK SMILES IDX 16 39 17 40 18 41 53 42 19 43 58 44 52 45 54 46 20 47 57 48
REMARK SMILES IDX 51 49 50 50 21 52 43 53 28 54 42 55 29 56 32 57 41 58 55 59
REMARK SMILES IDX 30 60 31 61 40 63 56 64 33 65 22 66 23 67 27 68 24 69 26 70
REMARK SMILES IDX 25 71 44 72 45 73 49 74 46 75 48 76 47 77 34 78 35 79 39 80
REMARK SMILES IDX 36 81 38 82 37 83
REMARK H PARENT 6 5 2 13 2 14 67 20 72 27 10 32 54 51 32 62
REMARK Flexibility Score: inf
ROOT
ATOM      1  C   UNL A   1      36.491  21.496  24.755  1.00  0.00     0.118 C 
ENDROOT
BRANCH   1   2
ATOM      2  N   UNL A   1      35.799  21.832  25.991  1.00  0.00    -0.351 N 
ATOM      3  C   UNL A   1      34.696  22.584  26.278  1.00  0.00     0.281 C 
ATOM      4  O   UNL A   1      34.367  22.536  27.467  1.00  0.00    -0.268 OA
ATOM      5  H   UNL A   1      36.213  21.432  26.789  1.00  0.00     0.163 HD
BRANCH   3   6
ATOM      6  C   UNL A   1      33.912  23.375  25.176  1.00  0.00     0.178 C 
ATOM      7  C   UNL A   1      34.846  24.404  24.502  1.00  0.00     0.079 C 
ATOM      8  C   UNL A   1      33.494  22.440  24.000  1.00  0.00     0.066 C 
ATOM      9  C   UNL A   1      34.329  24.573  23.080  1.00  0.00     0.008 C 
ATOM     10  C   UNL A   1      33.517  23.322  22.742  1.00  0.00     0.011 C 
BRANCH   6  11
ATOM     11  N   UNL A   1      32.765  24.216  25.639  1.00  0.00    -0.336 N 
ATOM     12  C   UNL A   1      33.036  25.547  26.149  1.00  0.00     0.331 C 
ATOM     13  H   UNL A   1      32.131  24.323  24.846  1.00  0.00     0.346 HD
ATOM     14  H   UNL A   1      32.398  23.712  26.446  1.00  0.00     0.346 HD
ENDBRANCH   6  11
BRANCH   8  15
ATOM     15  C   UNL A   1      32.168  21.681  24.211  1.00  0.00     0.072 C 
BRANCH  15  16
ATOM     16  C   UNL A   1      32.247  20.495  25.192  1.00  0.00     0.262 C 
BRANCH  16  17
ATOM     17  N   UNL A   1      32.612  19.182  24.622  1.00  0.00    -0.330 N 
ATOM     18  C   UNL A   1      32.242  19.007  23.213  1.00  0.00     0.262 C 
ATOM     19  C   UNL A   1      34.074  18.982  24.755  1.00  0.00     0.327 C 
ATOM     20  H   UNL A   1      32.082  18.490  25.152  1.00  0.00     0.348 HD
ATOM     21  C   UNL A   1      32.525  17.575  22.760  1.00  0.00     0.068 C 
ATOM     22  C   UNL A   1      34.574  17.572  24.329  1.00  0.00     0.239 C 
ATOM     23  C   UNL A   1      33.980  17.170  22.961  1.00  0.00     0.077 C 
BRANCH  22  24
ATOM     24  N   UNL A   1      34.496  16.496  25.348  1.00  0.00    -0.333 N 
ATOM     25  C   UNL A   1      33.308  15.658  25.168  1.00  0.00     0.332 C 
ATOM     26  C   UNL A   1      35.685  15.657  25.455  1.00  0.00     0.332 C 
ATOM     27  H   UNL A   1      34.429  17.002  26.232  1.00  0.00     0.348 HD
ENDBRANCH  22  24
ENDBRANCH  16  17
ENDBRANCH  15  16
ENDBRANCH   8  15
ENDBRANCH   3   6
ENDBRANCH   1   2
BRANCH   1  28
ATOM     28  C   UNL A   1      37.471  20.353  24.938  1.00  0.00     0.042 C 
BRANCH  28  29
ATOM     29  C   UNL A   1      38.720  20.725  25.722  1.00  0.00     0.118 C 
BRANCH  29  30
ATOM     30  N   UNL A   1      39.749  19.694  25.701  1.00  0.00    -0.352 N 
ATOM     31  C   UNL A   1      41.082  19.776  26.035  1.00  0.00     0.251 C 
ATOM     32  H   UNL A   1      39.446  18.806  25.404  1.00  0.00     0.163 HD
ATOM     33  O   UNL A   1      41.832  18.832  25.840  1.00  0.00    -0.269 OA
BRANCH  31  34
ATOM     34  C   UNL A   1      41.608  21.037  26.595  1.00  0.00     0.039 A 
ATOM     35  C   UNL A   1      42.184  21.973  25.732  1.00  0.00     0.014 A 
ATOM     36  C   UNL A   1      41.485  21.314  27.957  1.00  0.00     0.014 A 
ATOM     37  C   UNL A   1      42.555  23.225  26.226  1.00  0.00     0.010 A 
ATOM     38  C   UNL A   1      41.752  22.595  28.423  1.00  0.00     0.010 A 
ATOM     39  C   UNL A   1      42.296  23.562  27.565  1.00  0.00    -0.014 A 
BRANCH  39  40
ATOM     40  C   UNL A   1      42.597  24.913  28.101  1.00  0.00     0.031 A 
ATOM     41  C   UNL A   1      44.001  25.249  28.528  1.00  0.00     0.074 A 
ATOM     42  C   UNL A   1      41.603  25.803  28.280  1.00  0.00     0.049 A 
ATOM     43  N   UNL A   1      44.450  26.335  29.105  1.00  0.00    -0.248 NA
ATOM     44  C   UNL A   1      45.026  24.215  28.312  1.00  0.00     0.031 C 
ATOM     45  C   UNL A   1      40.191  25.583  27.954  1.00  0.00     0.029 A 
ATOM     46  N   UNL A   1      41.628  27.077  28.791  1.00  0.00    -0.354 N 
ATOM     47  C   UNL A   1      45.798  26.098  29.348  1.00  0.00     0.074 A 
ATOM     48  C   UNL A   1      46.080  24.751  28.908  1.00  0.00     0.031 C 
ATOM     49  C   UNL A   1      39.494  26.694  28.241  1.00  0.00     0.029 A 
ATOM     50  C   UNL A   1      40.399  27.688  28.810  1.00  0.00     0.049 A 
ATOM     51  H   UNL A   1      42.451  27.511  29.114  1.00  0.00     0.167 HD
ATOM     52  C   UNL A   1      46.725  26.935  29.867  1.00  0.00     0.031 A 
ATOM     53  C   UNL A   1      40.039  28.912  29.240  1.00  0.00     0.031 A 
ATOM     54  C   UNL A   1      46.452  28.286  30.276  1.00  0.00     0.049 A 
ATOM     55  C   UNL A   1      41.090  29.829  29.802  1.00  0.00     0.074 A 
ATOM     56  C   UNL A   1      47.335  29.240  30.750  1.00  0.00     0.029 A 
ATOM     57  N   UNL A   1      45.198  28.875  30.253  1.00  0.00    -0.354 N 
ATOM     58  N   UNL A   1      42.373  29.616  29.960  1.00  0.00    -0.248 NA
ATOM     59  C   UNL A   1      40.641  31.160  30.233  1.00  0.00     0.031 C 
ATOM     60  C   UNL A   1      46.607  30.393  31.057  1.00  0.00     0.029 A 
ATOM     61  C   UNL A   1      45.280  30.175  30.723  1.00  0.00     0.049 A 
ATOM     62  H   UNL A   1      44.372  28.436  29.949  1.00  0.00     0.167 HD
ATOM     63  C   UNL A   1      42.891  30.795  30.480  1.00  0.00     0.074 A 
ATOM     64  C   UNL A   1      41.785  31.723  30.597  1.00  0.00     0.031 C 
ATOM     65  C   UNL A   1      44.169  31.084  30.827  1.00  0.00     0.031 A 
BRANCH  52  66
ATOM     66  C   UNL A   1      48.124  26.406  30.022  1.00  0.00    -0.014 A 
ATOM     67  C   UNL A   1      48.542  25.788  31.210  1.00  0.00     0.009 A 
ATOM     68  C   UNL A   1      49.032  26.513  28.957  1.00  0.00     0.009 A 
ATOM     69  C   UNL A   1      49.853  25.326  31.345  1.00  0.00     0.001 A 
ATOM     70  C   UNL A   1      50.332  26.020  29.083  1.00  0.00     0.001 A 
ATOM     71  C   UNL A   1      50.745  25.438  30.280  1.00  0.00     0.000 A 
ENDBRANCH  52  66
BRANCH  53  72
ATOM     72  C   UNL A   1      38.625  29.357  29.132  1.00  0.00    -0.014 A 
ATOM     73  C   UNL A   1      38.145  29.913  27.936  1.00  0.00     0.009 A 
ATOM     74  C   UNL A   1      37.749  29.236  30.222  1.00  0.00     0.009 A 
ATOM     75  C   UNL A   1      36.827  30.365  27.843  1.00  0.00     0.001 A 
ATOM     76  C   UNL A   1      36.423  29.664  30.117  1.00  0.00     0.001 A 
ATOM     77  C   UNL A   1      35.966  30.237  28.932  1.00  0.00     0.000 A 
ENDBRANCH  53  72
BRANCH  65  78
ATOM     78  C   UNL A   1      44.447  32.474  31.325  1.00  0.00    -0.014 A 
ATOM     79  C   UNL A   1      44.762  33.518  30.441  1.00  0.00     0.009 A 
ATOM     80  C   UNL A   1      44.349  32.749  32.698  1.00  0.00     0.009 A 
ATOM     81  C   UNL A   1      45.004  34.803  30.929  1.00  0.00     0.001 A 
ATOM     82  C   UNL A   1      44.563  34.040  33.179  1.00  0.00     0.001 A 
ATOM     83  C   UNL A   1      44.899  35.065  32.294  1.00  0.00     0.000 A 
ENDBRANCH  65  78
ENDBRANCH  39  40
ENDBRANCH  31  34
ENDBRANCH  29  30
ENDBRANCH  28  29
ENDBRANCH   1  28
TORSDOF 15
ENDMDL
MODEL 2
REMARK VINA RESULT:     -11.2      5.286     10.307
REMARK SMILES C[NH2+][C@]1(C(=O)NCCCNC(=O)c2ccc(-c3c4nc(c(-c5ccccc5)c5ccc([nH]5)c(-c5ccccc5)c5nc(c(-c6ccccc6)c6ccc3[nH]6)C=C5)C=C4)cc2)CCC[C@@H]1CC[N@H+]1CCC[C@H]([NH+](C)C)C1
REMARK SMILES IDX 7 1 6 2 4 3 5 4 3 6 61 7 64 8 62 9 63 10 2 11 1 12 65 15
REMARK SMILES IDX 66 16 67 17 68 18 75 19 69 21 71 22 70 23 72 24 73 25 74 26
REMARK SMILES IDX 8 28 9 29 10 30 11 31 12 33 13 34 14 35 60 36 15 37 59 38
REMARK SMILES IDX 16 39 17 40 18 41 53 42 19 43 58 44 52 45 54 46 20 47 57 48
REMARK SMILES IDX 51 49 50 50 21 52 43 53 28 54 42 55 29 56 32 57 41 58 55 59
REMARK SMILES IDX 30 60 31 61 40 63 56 64 33 65 22 66 23 67 27 68 24 69 26 70
REMARK SMILES IDX 25 71 44 72 45 73 49 74 46 75 48 76 47 77 34 78 35 79 39 80
REMARK SMILES IDX 36 81 38 82 37 83
REMARK H PARENT 6 5 2 13 2 14 67 20 72 27 10 32 54 51 32 62
REMARK Flexibility Score: inf
ROOT
ATOM      1  C   UNL A   1      31.760  30.787  26.083  1.00  0.00     0.118 C 
ENDROOT
BRANCH   1   2
ATOM      2  N   UNL A   1      31.412  29.582  26.821  1.00  0.00    -0.351 N 
ATOM      3  C   UNL A   1      31.868  28.295  26.790  1.00  0.00     0.281 C 
ATOM      4  O   UNL A   1      31.371  27.579  27.667  1.00  0.00    -0.268 OA
ATOM      5  H   UNL A   1      30.697  29.724  27.481  1.00  0.00     0.163 HD
BRANCH   3   6
ATOM      6  C   UNL A   1      32.955  27.815  25.770  1.00  0.00     0.178 C 
ATOM      7  C   UNL A   1      33.640  26.534  26.297  1.00  0.00     0.079 C 
ATOM      8  C   UNL A   1      32.306  27.353  24.429  1.00  0.00     0.066 C 
ATOM      9  C   UNL A   1      34.076  25.754  25.064  1.00  0.00     0.008 C 
ATOM     10  C   UNL A   1      33.209  26.230  23.897  1.00  0.00     0.011 C 
BRANCH   6  11
ATOM     11  N   UNL A   1      34.107  28.737  25.529  1.00  0.00    -0.336 N 
ATOM     12  C   UNL A   1      34.925  29.142  26.658  1.00  0.00     0.331 C 
ATOM     13  H   UNL A   1      34.726  28.278  24.861  1.00  0.00     0.346 HD
ATOM     14  H   UNL A   1      33.669  29.604  25.218  1.00  0.00     0.346 HD
ENDBRANCH   6  11
BRANCH   8  15
ATOM     15  C   UNL A   1      32.040  28.481  23.413  1.00  0.00     0.072 C 
BRANCH  15  16
ATOM     16  C   UNL A   1      30.878  28.216  22.436  1.00  0.00     0.262 C 
BRANCH  16  17
ATOM     17  N   UNL A   1      29.739  29.155  22.484  1.00  0.00    -0.330 N 
ATOM     18  C   UNL A   1      28.446  28.525  22.776  1.00  0.00     0.262 C 
ATOM     19  C   UNL A   1      30.003  30.190  23.511  1.00  0.00     0.327 C 
ATOM     20  H   UNL A   1      29.666  29.554  21.549  1.00  0.00     0.348 HD
ATOM     21  C   UNL A   1      27.316  29.548  22.659  1.00  0.00     0.068 C 
ATOM     22  C   UNL A   1      28.948  31.332  23.563  1.00  0.00     0.239 C 
ATOM     23  C   UNL A   1      27.515  30.754  23.570  1.00  0.00     0.077 C 
BRANCH  22  24
ATOM     24  N   UNL A   1      29.128  32.457  22.612  1.00  0.00    -0.333 N 
ATOM     25  C   UNL A   1      28.109  32.452  21.560  1.00  0.00     0.332 C 
ATOM     26  C   UNL A   1      29.205  33.778  23.225  1.00  0.00     0.332 C 
ATOM     27  H   UNL A   1      30.046  32.284  22.202  1.00  0.00     0.348 HD
ENDBRANCH  22  24
ENDBRANCH  16  17
ENDBRANCH  15  16
ENDBRANCH   8  15
ENDBRANCH   3   6
ENDBRANCH   1   2
BRANCH   1  28
ATOM     28  C   UNL A   1      31.468  32.048  26.874  1.00  0.00     0.042 C 
BRANCH  28  29
ATOM     29  C   UNL A   1      32.705  32.856  27.235  1.00  0.00     0.118 C 
BRANCH  29  30
ATOM     30  N   UNL A   1      32.408  34.219  27.654  1.00  0.00    -0.352 N 
ATOM     31  C   UNL A   1      33.017  34.995  28.615  1.00  0.00     0.251 C 
ATOM     32  H   UNL A   1      31.661  34.649  27.179  1.00  0.00     0.163 HD
ATOM     33  O   UNL A   1      32.555  36.083  28.920  1.00  0.00    -0.269 OA
BRANCH  31  34
ATOM     34  C   UNL A   1      34.215  34.478  29.306  1.00  0.00     0.039 A 
ATOM     35  C   UNL A   1      34.060  33.811  30.523  1.00  0.00     0.014 A 
ATOM     36  C   UNL A   1      35.479  34.606  28.726  1.00  0.00     0.014 A 
ATOM     37  C   UNL A   1      35.165  33.196  31.115  1.00  0.00     0.010 A 
ATOM     38  C   UNL A   1      36.551  33.902  29.257  1.00  0.00     0.010 A 
ATOM     39  C   UNL A   1      36.407  33.195  30.461  1.00  0.00    -0.014 A 
BRANCH  39  40
ATOM     40  C   UNL A   1      37.581  32.477  31.018  1.00  0.00     0.031 A 
ATOM     41  C   UNL A   1      38.233  32.978  32.278  1.00  0.00     0.074 A 
ATOM     42  C   UNL A   1      38.108  31.431  30.353  1.00  0.00     0.049 A 
ATOM     43  N   UNL A   1      39.318  32.551  32.873  1.00  0.00    -0.248 NA
ATOM     44  C   UNL A   1      37.603  34.135  32.936  1.00  0.00     0.031 C 
ATOM     45  C   UNL A   1      37.602  30.877  29.094  1.00  0.00     0.029 A 
ATOM     46  N   UNL A   1      39.198  30.648  30.642  1.00  0.00    -0.354 N 
ATOM     47  C   UNL A   1      39.514  33.406  33.951  1.00  0.00     0.074 A 
ATOM     48  C   UNL A   1      38.473  34.407  33.897  1.00  0.00     0.031 C 
ATOM     49  C   UNL A   1      38.358  29.826  28.739  1.00  0.00     0.029 A 
ATOM     50  C   UNL A   1      39.426  29.657  29.719  1.00  0.00     0.049 A 
ATOM     51  H   UNL A   1      39.763  30.785  31.436  1.00  0.00     0.167 HD
ATOM     52  C   UNL A   1      40.462  33.351  34.915  1.00  0.00     0.031 A 
ATOM     53  C   UNL A   1      40.390  28.719  29.666  1.00  0.00     0.031 A 
ATOM     54  C   UNL A   1      41.480  32.338  34.987  1.00  0.00     0.049 A 
ATOM     55  C   UNL A   1      41.425  28.670  30.755  1.00  0.00     0.074 A 
ATOM     56  C   UNL A   1      42.444  32.151  35.960  1.00  0.00     0.029 A 
ATOM     57  N   UNL A   1      41.659  31.337  34.046  1.00  0.00    -0.354 N 
ATOM     58  N   UNL A   1      41.557  29.443  31.806  1.00  0.00    -0.248 NA
ATOM     59  C   UNL A   1      42.438  27.610  30.656  1.00  0.00     0.031 C 
ATOM     60  C   UNL A   1      43.237  31.062  35.586  1.00  0.00     0.029 A 
ATOM     61  C   UNL A   1      42.731  30.539  34.406  1.00  0.00     0.049 A 
ATOM     62  H   UNL A   1      41.107  31.210  33.241  1.00  0.00     0.167 HD
ATOM     63  C   UNL A   1      42.645  28.945  32.508  1.00  0.00     0.074 A 
ATOM     64  C   UNL A   1      43.130  27.795  31.772  1.00  0.00     0.031 C 
ATOM     65  C   UNL A   1      43.194  29.397  33.662  1.00  0.00     0.031 A 
BRANCH  52  66
ATOM     66  C   UNL A   1      40.438  34.422  35.970  1.00  0.00    -0.014 A 
ATOM     67  C   UNL A   1      41.190  35.599  35.830  1.00  0.00     0.009 A 
ATOM     68  C   UNL A   1      39.638  34.259  37.111  1.00  0.00     0.009 A 
ATOM     69  C   UNL A   1      41.175  36.572  36.832  1.00  0.00     0.001 A 
ATOM     70  C   UNL A   1      39.601  35.248  38.096  1.00  0.00     0.001 A 
ATOM     71  C   UNL A   1      40.377  36.397  37.961  1.00  0.00     0.000 A 
ENDBRANCH  52  66
BRANCH  53  72
ATOM     72  C   UNL A   1      40.410  27.729  28.557  1.00  0.00    -0.014 A 
ATOM     73  C   UNL A   1      41.121  28.000  27.378  1.00  0.00     0.009 A 
ATOM     74  C   UNL A   1      39.715  26.515  28.666  1.00  0.00     0.009 A 
ATOM     75  C   UNL A   1      41.112  27.088  26.320  1.00  0.00     0.001 A 
ATOM     76  C   UNL A   1      39.731  25.593  27.617  1.00  0.00     0.001 A 
ATOM     77  C   UNL A   1      40.420  25.883  26.442  1.00  0.00     0.000 A 
ENDBRANCH  53  72
BRANCH  65  78
ATOM     78  C   UNL A   1      44.353  28.621  34.221  1.00  0.00    -0.014 A 
ATOM     79  C   UNL A   1      44.155  27.533  35.086  1.00  0.00     0.009 A 
ATOM     80  C   UNL A   1      45.661  28.960  33.839  1.00  0.00     0.009 A 
ATOM     81  C   UNL A   1      45.249  26.821  35.581  1.00  0.00     0.001 A 
ATOM     82  C   UNL A   1      46.749  28.229  34.314  1.00  0.00     0.001 A 
ATOM     83  C   UNL A   1      46.543  27.165  35.192  1.00  0.00     0.000 A 
ENDBRANCH  65  78
ENDBRANCH  39  40
ENDBRANCH  31  34
ENDBRANCH  29  30
ENDBRANCH  28  29
ENDBRANCH   1  28
TORSDOF 15
ENDMDL
MODEL 3
REMARK VINA RESULT:     -11.1      0.367      5.911
REMARK SMILES C[NH2+][C@]1(C(=O)NCCCNC(=O)c2ccc(-c3c4nc(c(-c5ccccc5)c5ccc([nH]5)c(-c5ccccc5)c5nc(c(-c6ccccc6)c6ccc3[nH]6)C=C5)C=C4)cc2)CCC[C@@H]1CC[N@H+]1CCC[C@H]([NH+](C)C)C1
REMARK SMILES IDX 7 1 6 2 4 3 5 4 3 6 61 7 64 8 62 9 63 10 2 11 1 12 65 15
REMARK SMILES IDX 66 16 67 17 68 18 75 19 69 21 71 22 70 23 72 24 73 25 74 26
REMARK SMILES IDX 8 28 9 29 10 30 11 31 12 33 13 34 14 35 60 36 15 37 59 38
REMARK SMILES IDX 16 39 17 40 18 41 53 42 19 43 58 44 52 45 54 46 20 47 57 48
REMARK SMILES IDX 51 49 50 50 21 52 43 53 28 54 42 55 29 56 32 57 41 58 55 59
REMARK SMILES IDX 30 60 31 61 40 63 56 64 33 65 22 66 23 67 27 68 24 69 26 70
REMARK SMILES IDX 25 71 44 72 45 73 49 74 46 75 48 76 47 77 34 78 35 79 39 80
REMARK SMILES IDX 36 81 38 82 37 83
REMARK H PARENT 6 5 2 13 2 14 67 20 72 27 10 32 54 51 32 62
REMARK Flexibility Score: inf
ROOT
ATOM      1  C   UNL A   1      36.639  22.066  24.984  1.00  0.00     0.118 C 
ENDROOT
BRANCH   1   2
ATOM      2  N   UNL A   1      35.777  22.123  26.156  1.00  0.00    -0.351 N 
ATOM      3  C   UNL A   1      34.542  22.655  26.391  1.00  0.00     0.281 C 
ATOM      4  O   UNL A   1      34.105  22.398  27.518  1.00  0.00    -0.268 OA
ATOM      5  H   UNL A   1      36.168  21.687  26.947  1.00  0.00     0.163 HD
BRANCH   3   6
ATOM      6  C   UNL A   1      33.755  23.460  25.302  1.00  0.00     0.178 C 
ATOM      7  C   UNL A   1      34.616  24.638  24.795  1.00  0.00     0.079 C 
ATOM      8  C   UNL A   1      33.527  22.601  24.021  1.00  0.00     0.066 C 
ATOM      9  C   UNL A   1      34.185  24.885  23.356  1.00  0.00     0.008 C 
ATOM     10  C   UNL A   1      33.543  23.594  22.848  1.00  0.00     0.011 C 
BRANCH   6  11
ATOM     11  N   UNL A   1      32.493  24.131  25.740  1.00  0.00    -0.336 N 
ATOM     12  C   UNL A   1      32.577  25.439  26.365  1.00  0.00     0.331 C 
ATOM     13  H   UNL A   1      31.903  24.231  24.914  1.00  0.00     0.346 HD
ATOM     14  H   UNL A   1      32.135  23.527  26.480  1.00  0.00     0.346 HD
ENDBRANCH   6  11
BRANCH   8  15
ATOM     15  C   UNL A   1      32.282  21.692  24.059  1.00  0.00     0.072 C 
BRANCH  15  16
ATOM     16  C   UNL A   1      32.343  20.549  25.090  1.00  0.00     0.262 C 
BRANCH  16  17
ATOM     17  N   UNL A   1      32.691  19.208  24.579  1.00  0.00    -0.330 N 
ATOM     18  C   UNL A   1      32.280  18.961  23.192  1.00  0.00     0.262 C 
ATOM     19  C   UNL A   1      34.156  19.014  24.679  1.00  0.00     0.327 C 
ATOM     20  H   UNL A   1      32.177  18.545  25.159  1.00  0.00     0.348 HD
ATOM     21  C   UNL A   1      32.550  17.507  22.806  1.00  0.00     0.068 C 
ATOM     22  C   UNL A   1      34.644  17.583  24.312  1.00  0.00     0.239 C 
ATOM     23  C   UNL A   1      34.011  17.111  22.984  1.00  0.00     0.077 C 
BRANCH  22  24
ATOM     24  N   UNL A   1      34.597  16.561  25.387  1.00  0.00    -0.333 N 
ATOM     25  C   UNL A   1      33.384  15.744  25.311  1.00  0.00     0.332 C 
ATOM     26  C   UNL A   1      35.771  15.700  25.476  1.00  0.00     0.332 C 
ATOM     27  H   UNL A   1      34.587  17.112  26.246  1.00  0.00     0.348 HD
ENDBRANCH  22  24
ENDBRANCH  16  17
ENDBRANCH  15  16
ENDBRANCH   8  15
ENDBRANCH   3   6
ENDBRANCH   1   2
BRANCH   1  28
ATOM     28  C   UNL A   1      37.514  20.826  24.976  1.00  0.00     0.042 C 
BRANCH  28  29
ATOM     29  C   UNL A   1      38.623  20.841  26.017  1.00  0.00     0.118 C 
BRANCH  29  30
ATOM     30  N   UNL A   1      39.628  19.807  25.811  1.00  0.00    -0.352 N 
ATOM     31  C   UNL A   1      40.991  19.857  25.999  1.00  0.00     0.251 C 
ATOM     32  H   UNL A   1      39.280  18.944  25.491  1.00  0.00     0.163 HD
ATOM     33  O   UNL A   1      41.700  18.923  25.659  1.00  0.00    -0.269 OA
BRANCH  31  34
ATOM     34  C   UNL A   1      41.594  21.073  26.580  1.00  0.00     0.039 A 
ATOM     35  C   UNL A   1      42.102  22.053  25.724  1.00  0.00     0.014 A 
ATOM     36  C   UNL A   1      41.610  21.266  27.963  1.00  0.00     0.014 A 
ATOM     37  C   UNL A   1      42.544  23.265  26.254  1.00  0.00     0.010 A 
ATOM     38  C   UNL A   1      41.946  22.510  28.477  1.00  0.00     0.010 A 
ATOM     39  C   UNL A   1      42.423  23.522  27.630  1.00  0.00    -0.014 A 
BRANCH  39  40
ATOM     40  C   UNL A   1      42.803  24.832  28.215  1.00  0.00     0.031 A 
ATOM     41  C   UNL A   1      41.750  25.884  28.436  1.00  0.00     0.074 A 
ATOM     42  C   UNL A   1      44.097  25.106  28.470  1.00  0.00     0.049 A 
ATOM     43  N   UNL A   1      41.889  27.118  28.847  1.00  0.00    -0.248 NA
ATOM     44  C   UNL A   1      40.362  25.509  28.119  1.00  0.00     0.031 C 
ATOM     45  C   UNL A   1      45.221  24.191  28.252  1.00  0.00     0.029 A 
ATOM     46  N   UNL A   1      44.687  26.243  28.963  1.00  0.00    -0.354 N 
ATOM     47  C   UNL A   1      40.615  27.672  28.805  1.00  0.00     0.074 A 
ATOM     48  C   UNL A   1      39.728  26.661  28.278  1.00  0.00     0.031 C 
ATOM     49  C   UNL A   1      46.358  24.791  28.642  1.00  0.00     0.029 A 
ATOM     50  C   UNL A   1      46.051  26.143  29.095  1.00  0.00     0.049 A 
ATOM     51  H   UNL A   1      44.181  27.053  29.199  1.00  0.00     0.167 HD
ATOM     52  C   UNL A   1      40.214  28.905  29.193  1.00  0.00     0.031 A 
ATOM     53  C   UNL A   1      46.953  27.042  29.529  1.00  0.00     0.031 A 
ATOM     54  C   UNL A   1      41.091  29.901  29.747  1.00  0.00     0.049 A 
ATOM     55  C   UNL A   1      46.481  28.401  29.967  1.00  0.00     0.074 A 
ATOM     56  C   UNL A   1      40.772  31.155  30.235  1.00  0.00     0.029 A 
ATOM     57  N   UNL A   1      42.461  29.749  29.888  1.00  0.00    -0.354 N 
ATOM     58  N   UNL A   1      45.264  28.886  29.987  1.00  0.00    -0.248 NA
ATOM     59  C   UNL A   1      47.510  29.332  30.454  1.00  0.00     0.031 C 
ATOM     60  C   UNL A   1      41.958  31.781  30.632  1.00  0.00     0.029 A 
ATOM     61  C   UNL A   1      43.006  30.895  30.440  1.00  0.00     0.049 A 
ATOM     62  H   UNL A   1      42.971  28.947  29.634  1.00  0.00     0.167 HD
ATOM     63  C   UNL A   1      45.374  30.165  30.515  1.00  0.00     0.074 A 
ATOM     64  C   UNL A   1      46.776  30.375  30.816  1.00  0.00     0.031 C 
ATOM     65  C   UNL A   1      44.402  31.083  30.736  1.00  0.00     0.031 A 
BRANCH  52  66
ATOM     66  C   UNL A   1      38.757  29.240  29.029  1.00  0.00    -0.014 A 
ATOM     67  C   UNL A   1      37.847  29.071  30.085  1.00  0.00     0.009 A 
ATOM     68  C   UNL A   1      38.291  29.747  27.807  1.00  0.00     0.009 A 
ATOM     69  C   UNL A   1      36.493  29.363  29.906  1.00  0.00     0.001 A 
ATOM     70  C   UNL A   1      36.943  30.068  27.641  1.00  0.00     0.001 A 
ATOM     71  C   UNL A   1      36.044  29.866  28.687  1.00  0.00     0.000 A 
ENDBRANCH  52  66
BRANCH  53  72
ATOM     72  C   UNL A   1      48.394  26.682  29.600  1.00  0.00    -0.014 A 
ATOM     73  C   UNL A   1      49.248  26.958  28.521  1.00  0.00     0.009 A 
ATOM     74  C   UNL A   1      48.922  26.055  30.739  1.00  0.00     0.009 A 
ATOM     75  C   UNL A   1      50.594  26.588  28.570  1.00  0.00     0.001 A 
ATOM     76  C   UNL A   1      50.275  25.711  30.796  1.00  0.00     0.001 A 
ATOM     77  C   UNL A   1      51.107  25.968  29.709  1.00  0.00     0.000 A 
ENDBRANCH  53  72
BRANCH  65  78
ATOM     78  C   UNL A   1      44.814  32.381  31.369  1.00  0.00    -0.014 A 
ATOM     79  C   UNL A   1      44.861  32.531  32.764  1.00  0.00     0.009 A 
ATOM     80  C   UNL A   1      45.205  33.456  30.554  1.00  0.00     0.009 A 
ATOM     81  C   UNL A   1      45.260  33.745  33.328  1.00  0.00     0.001 A 
ATOM     82  C   UNL A   1      45.630  34.656  31.121  1.00  0.00     0.001 A 
ATOM     83  C   UNL A   1      45.649  34.803  32.508  1.00  0.00     0.000 A 
ENDBRANCH  65  78
ENDBRANCH  39  40
ENDBRANCH  31  34
ENDBRANCH  29  30
ENDBRANCH  28  29
ENDBRANCH   1  28
TORSDOF 15
ENDMDL
