MODEL 1
REMARK VINA RESULT:     -11.3      0.000      0.000
REMARK SMILES CCc1cc(OCC(=O)NCCCNC(=O)c2ccc(-c3c4nc(c(-c5ccccc5)c5ccc([nH]5)c(-c5ccccc5)c5nc(c(-c6ccccc6)c6ccc3[nH]6)C=C5)C=C4)cc2)nc(Nc2ccc(C)c(F)c2)n1
REMARK SMILES IDX 11 1 10 2 8 3 9 4 7 6 6 7 5 8 3 9 4 10 76 11 66 12 65 13
REMARK SMILES IDX 2 14 1 15 67 16 68 18 69 19 75 20 70 21 73 22 71 23 74 24
REMARK SMILES IDX 72 25 12 26 13 27 14 28 15 29 16 31 17 32 18 33 64 34 19 35
REMARK SMILES IDX 63 36 20 37 21 38 22 39 57 40 23 41 62 42 56 43 58 44 24 45
REMARK SMILES IDX 61 46 55 47 54 48 25 50 47 51 32 52 46 53 33 54 36 55 45 56
REMARK SMILES IDX 59 57 34 58 35 59 44 61 60 62 37 63 26 64 27 65 31 66 28 67
REMARK SMILES IDX 30 68 29 69 48 70 49 71 53 72 50 73 52 74 51 75 38 76 39 77
REMARK SMILES IDX 43 78 40 79 42 80 41 81
REMARK H PARENT 10 5 67 17 14 30 58 49 36 60
REMARK Flexibility Score: inf
ROOT
ATOM      1  C   UNL A   1      37.399  21.212  24.586  1.00  0.00     0.117 C 
ENDROOT
BRANCH   1   2
ATOM      2  N   UNL A   1      38.057  22.412  25.068  1.00  0.00    -0.353 N 
ATOM      3  C   UNL A   1      37.522  23.445  25.776  1.00  0.00     0.258 C 
ATOM      4  O   UNL A   1      38.256  24.375  26.115  1.00  0.00    -0.271 OA
ATOM      5  H   UNL A   1      39.015  22.488  24.856  1.00  0.00     0.163 HD
BRANCH   3   6
ATOM      6  C   UNL A   1      36.033  23.429  26.144  1.00  0.00     0.331 C 
BRANCH   6   7
ATOM      7  O   UNL A   1      35.180  24.247  25.363  1.00  0.00    -0.467 OA
BRANCH   7   8
ATOM      8  C   UNL A   1      33.830  24.109  25.522  1.00  0.00     0.218 A 
ATOM      9  C   UNL A   1      31.621  24.810  25.845  1.00  0.00     0.050 A 
ATOM     10  C   UNL A   1      32.956  25.134  25.808  1.00  0.00     0.092 A 
ATOM     11  N   UNL A   1      31.198  23.558  25.617  1.00  0.00    -0.218 NA
ATOM     12  C   UNL A   1      32.110  22.598  25.416  1.00  0.00     0.230 A 
ATOM     13  N   UNL A   1      33.425  22.836  25.355  1.00  0.00    -0.177 NA
BRANCH   9  14
ATOM     14  C   UNL A   1      30.580  25.875  26.078  1.00  0.00     0.053 C 
ATOM     15  C   UNL A   1      31.142  27.291  26.052  1.00  0.00     0.011 C 
ENDBRANCH   9  14
BRANCH  12  16
ATOM     16  N   UNL A   1      31.693  21.269  25.353  1.00  0.00    -0.324 N 
ATOM     17  H   UNL A   1      30.828  21.065  25.778  1.00  0.00     0.170 HD
BRANCH  16  18
ATOM     18  C   UNL A   1      32.356  20.190  24.758  1.00  0.00     0.044 A 
ATOM     19  C   UNL A   1      33.183  19.364  25.529  1.00  0.00     0.026 A 
ATOM     20  C   UNL A   1      32.109  19.825  23.430  1.00  0.00     0.065 A 
ATOM     21  C   UNL A   1      33.737  18.195  24.988  1.00  0.00     0.008 A 
ATOM     22  C   UNL A   1      32.676  18.675  22.890  1.00  0.00     0.128 A 
ATOM     23  C   UNL A   1      33.485  17.839  23.658  1.00  0.00    -0.015 A 
ATOM     24  F   UNL A   1      32.414  18.368  21.612  1.00  0.00    -0.207 F 
ATOM     25  C   UNL A   1      34.041  16.569  23.091  1.00  0.00     0.047 C 
ENDBRANCH  16  18
ENDBRANCH  12  16
ENDBRANCH   7   8
ENDBRANCH   6   7
ENDBRANCH   3   6
ENDBRANCH   1   2
BRANCH   1  26
ATOM     26  C   UNL A   1      38.176  19.945  24.920  1.00  0.00     0.042 C 
BRANCH  26  27
ATOM     27  C   UNL A   1      39.236  20.122  26.003  1.00  0.00     0.118 C 
BRANCH  27  28
ATOM     28  N   UNL A   1      40.278  19.102  25.959  1.00  0.00    -0.352 N 
ATOM     29  C   UNL A   1      41.638  19.220  26.105  1.00  0.00     0.251 C 
ATOM     30  H   UNL A   1      39.956  18.186  25.798  1.00  0.00     0.163 HD
ATOM     31  O   UNL A   1      42.363  18.254  25.877  1.00  0.00    -0.269 OA
BRANCH  29  32
ATOM     32  C   UNL A   1      42.237  20.507  26.516  1.00  0.00     0.039 A 
ATOM     33  C   UNL A   1      42.795  21.338  25.540  1.00  0.00     0.014 A 
ATOM     34  C   UNL A   1      42.257  20.892  27.858  1.00  0.00     0.014 A 
ATOM     35  C   UNL A   1      43.300  22.590  25.900  1.00  0.00     0.010 A 
ATOM     36  C   UNL A   1      42.686  22.170  28.203  1.00  0.00     0.010 A 
ATOM     37  C   UNL A   1      43.210  23.034  27.229  1.00  0.00    -0.014 A 
BRANCH  37  38
ATOM     38  C   UNL A   1      43.653  24.393  27.633  1.00  0.00     0.031 A 
ATOM     39  C   UNL A   1      42.634  25.434  28.009  1.00  0.00     0.074 A 
ATOM     40  C   UNL A   1      44.958  24.718  27.574  1.00  0.00     0.049 A 
ATOM     41  N   UNL A   1      42.808  26.706  28.264  1.00  0.00    -0.248 NA
ATOM     42  C   UNL A   1      41.233  24.992  28.082  1.00  0.00     0.031 C 
ATOM     43  C   UNL A   1      46.046  23.811  27.201  1.00  0.00     0.029 A 
ATOM     44  N   UNL A   1      45.592  25.914  27.809  1.00  0.00    -0.354 N 
ATOM     45  C   UNL A   1      41.539  27.219  28.501  1.00  0.00     0.074 A 
ATOM     46  C   UNL A   1      40.602  26.133  28.315  1.00  0.00     0.031 C 
ATOM     47  C   UNL A   1      47.211  24.477  27.250  1.00  0.00     0.029 A 
ATOM     48  C   UNL A   1      46.949  25.868  27.604  1.00  0.00     0.049 A 
ATOM     49  H   UNL A   1      45.118  26.727  28.098  1.00  0.00     0.167 HD
ATOM     50  C   UNL A   1      41.185  28.478  28.856  1.00  0.00     0.031 A 
ATOM     51  C   UNL A   1      47.879  26.840  27.673  1.00  0.00     0.031 A 
ATOM     52  C   UNL A   1      42.117  29.557  29.045  1.00  0.00     0.049 A 
ATOM     53  C   UNL A   1      47.457  28.238  28.033  1.00  0.00     0.074 A 
ATOM     54  C   UNL A   1      41.862  30.854  29.451  1.00  0.00     0.029 A 
ATOM     55  N   UNL A   1      43.485  29.465  28.834  1.00  0.00    -0.354 N 
ATOM     56  N   UNL A   1      46.259  28.695  28.312  1.00  0.00    -0.248 NA
ATOM     57  C   UNL A   1      48.517  29.253  28.099  1.00  0.00     0.031 C 
ATOM     58  C   UNL A   1      43.066  31.564  29.430  1.00  0.00     0.029 A 
ATOM     59  C   UNL A   1      44.083  30.689  29.080  1.00  0.00     0.049 A 
ATOM     60  H   UNL A   1      43.960  28.649  28.552  1.00  0.00     0.167 HD
ATOM     61  C   UNL A   1      46.428  30.038  28.621  1.00  0.00     0.074 A 
ATOM     62  C   UNL A   1      47.844  30.320  28.508  1.00  0.00     0.031 C 
ATOM     63  C   UNL A   1      45.494  30.955  28.973  1.00  0.00     0.031 A 
BRANCH  50  64
ATOM     64  C   UNL A   1      39.719  28.757  29.049  1.00  0.00    -0.014 A 
ATOM     65  C   UNL A   1      39.084  28.511  30.276  1.00  0.00     0.009 A 
ATOM     66  C   UNL A   1      38.971  29.308  27.997  1.00  0.00     0.009 A 
ATOM     67  C   UNL A   1      37.720  28.771  30.432  1.00  0.00     0.001 A 
ATOM     68  C   UNL A   1      37.615  29.599  28.167  1.00  0.00     0.001 A 
ATOM     69  C   UNL A   1      36.989  29.321  29.380  1.00  0.00     0.000 A 
ENDBRANCH  50  64
BRANCH  51  70
ATOM     70  C   UNL A   1      49.308  26.530  27.397  1.00  0.00    -0.014 A 
ATOM     71  C   UNL A   1      49.810  26.594  26.089  1.00  0.00     0.009 A 
ATOM     72  C   UNL A   1      50.173  26.154  28.437  1.00  0.00     0.009 A 
ATOM     73  C   UNL A   1      51.139  26.259  25.822  1.00  0.00     0.001 A 
ATOM     74  C   UNL A   1      51.511  25.852  28.172  1.00  0.00     0.001 A 
ATOM     75  C   UNL A   1      51.990  25.893  26.864  1.00  0.00     0.000 A 
ENDBRANCH  51  70
BRANCH  63  76
ATOM     76  C   UNL A   1      45.975  32.337  29.321  1.00  0.00    -0.014 A 
ATOM     77  C   UNL A   1      46.089  33.343  28.349  1.00  0.00     0.009 A 
ATOM     78  C   UNL A   1      46.269  32.647  30.659  1.00  0.00     0.009 A 
ATOM     79  C   UNL A   1      46.518  34.623  28.708  1.00  0.00     0.001 A 
ATOM     80  C   UNL A   1      46.667  33.934  31.018  1.00  0.00     0.001 A 
ATOM     81  C   UNL A   1      46.801  34.918  30.041  1.00  0.00     0.000 A 
ENDBRANCH  63  76
ENDBRANCH  37  38
ENDBRANCH  29  32
ENDBRANCH  27  28
ENDBRANCH  26  27
ENDBRANCH   1  26
TORSDOF 15
ENDMDL
MODEL 2
REMARK VINA RESULT:     -11.2      3.160      7.318
REMARK SMILES CCc1cc(OCC(=O)NCCCNC(=O)c2ccc(-c3c4nc(c(-c5ccccc5)c5ccc([nH]5)c(-c5ccccc5)c5nc(c(-c6ccccc6)c6ccc3[nH]6)C=C5)C=C4)cc2)nc(Nc2ccc(C)c(F)c2)n1
REMARK SMILES IDX 11 1 10 2 8 3 9 4 7 6 6 7 5 8 3 9 4 10 76 11 66 12 65 13
REMARK SMILES IDX 2 14 1 15 67 16 68 18 69 19 75 20 70 21 73 22 71 23 74 24
REMARK SMILES IDX 72 25 12 26 13 27 14 28 15 29 16 31 17 32 18 33 64 34 19 35
REMARK SMILES IDX 63 36 20 37 21 38 22 39 57 40 23 41 62 42 56 43 58 44 24 45
REMARK SMILES IDX 61 46 55 47 54 48 25 50 47 51 32 52 46 53 33 54 36 55 45 56
REMARK SMILES IDX 59 57 34 58 35 59 44 61 60 62 37 63 26 64 27 65 31 66 28 67
REMARK SMILES IDX 30 68 29 69 48 70 49 71 53 72 50 73 52 74 51 75 38 76 39 77
REMARK SMILES IDX 43 78 40 79 42 80 41 81
REMARK H PARENT 10 5 67 17 14 30 58 49 36 60
REMARK Flexibility Score: inf
ROOT
ATOM      1  C   UNL A   1      33.209  29.376  24.913  1.00  0.00     0.117 C 
ENDROOT
BRANCH   1   2
ATOM      2  N   UNL A   1      33.914  28.910  23.734  1.00  0.00    -0.353 N 
ATOM      3  C   UNL A   1      33.402  28.312  22.621  1.00  0.00     0.258 C 
ATOM      4  O   UNL A   1      34.169  28.004  21.707  1.00  0.00    -0.271 OA
ATOM      5  H   UNL A   1      34.889  29.043  23.738  1.00  0.00     0.163 HD
BRANCH   3   6
ATOM      6  C   UNL A   1      31.895  28.046  22.523  1.00  0.00     0.331 C 
BRANCH   6   7
ATOM      7  O   UNL A   1      31.506  26.718  22.221  1.00  0.00    -0.467 OA
BRANCH   7   8
ATOM      8  C   UNL A   1      31.711  25.754  23.168  1.00  0.00     0.218 A 
ATOM      9  C   UNL A   1      31.300  24.544  25.128  1.00  0.00     0.050 A 
ATOM     10  C   UNL A   1      31.003  25.633  24.343  1.00  0.00     0.092 A 
ATOM     11  N   UNL A   1      32.233  23.653  24.765  1.00  0.00    -0.218 NA
ATOM     12  C   UNL A   1      32.932  23.874  23.645  1.00  0.00     0.230 A 
ATOM     13  N   UNL A   1      32.696  24.904  22.823  1.00  0.00    -0.177 NA
BRANCH   9  14
ATOM     14  C   UNL A   1      30.530  24.283  26.397  1.00  0.00     0.053 C 
ATOM     15  C   UNL A   1      30.171  22.816  26.601  1.00  0.00     0.011 C 
ENDBRANCH   9  14
BRANCH  12  16
ATOM     16  N   UNL A   1      34.020  23.053  23.351  1.00  0.00    -0.324 N 
ATOM     17  H   UNL A   1      34.003  22.608  22.474  1.00  0.00     0.170 HD
BRANCH  16  18
ATOM     18  C   UNL A   1      35.134  22.786  24.156  1.00  0.00     0.044 A 
ATOM     19  C   UNL A   1      35.536  21.464  24.381  1.00  0.00     0.026 A 
ATOM     20  C   UNL A   1      35.949  23.817  24.638  1.00  0.00     0.065 A 
ATOM     21  C   UNL A   1      36.730  21.180  25.058  1.00  0.00     0.008 A 
ATOM     22  C   UNL A   1      37.124  23.532  25.327  1.00  0.00     0.128 A 
ATOM     23  C   UNL A   1      37.539  22.218  25.537  1.00  0.00    -0.015 A 
ATOM     24  F   UNL A   1      37.869  24.553  25.774  1.00  0.00    -0.207 F 
ATOM     25  C   UNL A   1      38.835  21.919  26.224  1.00  0.00     0.047 C 
ENDBRANCH  16  18
ENDBRANCH  12  16
ENDBRANCH   7   8
ENDBRANCH   6   7
ENDBRANCH   3   6
ENDBRANCH   1   2
BRANCH   1  26
ATOM     26  C   UNL A   1      33.014  28.278  25.950  1.00  0.00     0.042 C 
BRANCH  26  27
ATOM     27  C   UNL A   1      33.728  28.528  27.275  1.00  0.00     0.118 C 
BRANCH  27  28
ATOM     28  N   UNL A   1      33.762  29.937  27.652  1.00  0.00    -0.352 N 
ATOM     29  C   UNL A   1      34.756  30.666  28.258  1.00  0.00     0.251 C 
ATOM     30  H   UNL A   1      32.946  30.443  27.440  1.00  0.00     0.163 HD
ATOM     31  O   UNL A   1      34.528  31.813  28.635  1.00  0.00    -0.269 OA
BRANCH  29  32
ATOM     32  C   UNL A   1      36.091  30.073  28.478  1.00  0.00     0.039 A 
ATOM     33  C   UNL A   1      37.041  30.137  27.455  1.00  0.00     0.014 A 
ATOM     34  C   UNL A   1      36.407  29.448  29.687  1.00  0.00     0.014 A 
ATOM     35  C   UNL A   1      38.331  29.647  27.671  1.00  0.00     0.010 A 
ATOM     36  C   UNL A   1      37.713  29.035  29.930  1.00  0.00     0.010 A 
ATOM     37  C   UNL A   1      38.690  29.131  28.927  1.00  0.00    -0.014 A 
BRANCH  37  38
ATOM     38  C   UNL A   1      40.075  28.685  29.223  1.00  0.00     0.031 A 
ATOM     39  C   UNL A   1      41.042  29.626  29.887  1.00  0.00     0.074 A 
ATOM     40  C   UNL A   1      40.490  27.470  28.815  1.00  0.00     0.049 A 
ATOM     41  N   UNL A   1      42.322  29.473  30.112  1.00  0.00    -0.248 NA
ATOM     42  C   UNL A   1      40.504  30.921  30.332  1.00  0.00     0.031 C 
ATOM     43  C   UNL A   1      39.662  26.470  28.139  1.00  0.00     0.029 A 
ATOM     44  N   UNL A   1      41.727  26.876  28.894  1.00  0.00    -0.354 N 
ATOM     45  C   UNL A   1      42.745  30.659  30.699  1.00  0.00     0.074 A 
ATOM     46  C   UNL A   1      41.598  31.538  30.754  1.00  0.00     0.031 C 
ATOM     47  C   UNL A   1      40.406  25.382  27.881  1.00  0.00     0.029 A 
ATOM     48  C   UNL A   1      41.775  25.628  28.324  1.00  0.00     0.049 A 
ATOM     49  H   UNL A   1      42.504  27.305  29.320  1.00  0.00     0.167 HD
ATOM     50  C   UNL A   1      43.975  30.983  31.166  1.00  0.00     0.031 A 
ATOM     51  C   UNL A   1      42.809  24.781  28.156  1.00  0.00     0.031 A 
ATOM     52  C   UNL A   1      45.117  30.108  31.115  1.00  0.00     0.049 A 
ATOM     53  C   UNL A   1      44.173  25.179  28.649  1.00  0.00     0.074 A 
ATOM     54  C   UNL A   1      46.392  30.327  31.603  1.00  0.00     0.029 A 
ATOM     55  N   UNL A   1      45.120  28.848  30.535  1.00  0.00    -0.354 N 
ATOM     56  N   UNL A   1      44.545  26.281  29.255  1.00  0.00    -0.248 NA
ATOM     57  C   UNL A   1      45.259  24.210  28.444  1.00  0.00     0.031 C 
ATOM     58  C   UNL A   1      47.183  29.225  31.269  1.00  0.00     0.029 A 
ATOM     59  C   UNL A   1      46.382  28.288  30.634  1.00  0.00     0.049 A 
ATOM     60  H   UNL A   1      44.340  28.417  30.116  1.00  0.00     0.167 HD
ATOM     61  C   UNL A   1      45.896  26.122  29.536  1.00  0.00     0.074 A 
ATOM     62  C   UNL A   1      46.276  24.814  29.045  1.00  0.00     0.031 C 
ATOM     63  C   UNL A   1      46.745  26.981  30.150  1.00  0.00     0.031 A 
BRANCH  50  64
ATOM     64  C   UNL A   1      44.152  32.355  31.759  1.00  0.00    -0.014 A 
ATOM     65  C   UNL A   1      43.922  32.596  33.122  1.00  0.00     0.009 A 
ATOM     66  C   UNL A   1      44.590  33.414  30.948  1.00  0.00     0.009 A 
ATOM     67  C   UNL A   1      44.086  33.878  33.652  1.00  0.00     0.001 A 
ATOM     68  C   UNL A   1      44.786  34.687  31.488  1.00  0.00     0.001 A 
ATOM     69  C   UNL A   1      44.523  34.921  32.836  1.00  0.00     0.000 A 
ENDBRANCH  50  64
BRANCH  51  70
ATOM     70  C   UNL A   1      42.599  23.466  27.493  1.00  0.00    -0.014 A 
ATOM     71  C   UNL A   1      42.245  22.338  28.246  1.00  0.00     0.009 A 
ATOM     72  C   UNL A   1      42.765  23.329  26.105  1.00  0.00     0.009 A 
ATOM     73  C   UNL A   1      42.092  21.093  27.631  1.00  0.00     0.001 A 
ATOM     74  C   UNL A   1      42.578  22.090  25.487  1.00  0.00     0.001 A 
ATOM     75  C   UNL A   1      42.254  20.971  26.252  1.00  0.00     0.000 A 
ENDBRANCH  51  70
BRANCH  63  76
ATOM     76  C   UNL A   1      48.156  26.516  30.383  1.00  0.00    -0.014 A 
ATOM     77  C   UNL A   1      48.518  25.817  31.545  1.00  0.00     0.009 A 
ATOM     78  C   UNL A   1      49.126  26.738  29.393  1.00  0.00     0.009 A 
ATOM     79  C   UNL A   1      49.832  25.380  31.723  1.00  0.00     0.001 A 
ATOM     80  C   UNL A   1      50.430  26.271  29.559  1.00  0.00     0.001 A 
ATOM     81  C   UNL A   1      50.785  25.601  30.728  1.00  0.00     0.000 A 
ENDBRANCH  63  76
ENDBRANCH  37  38
ENDBRANCH  29  32
ENDBRANCH  27  28
ENDBRANCH  26  27
ENDBRANCH   1  26
TORSDOF 15
ENDMDL
MODEL 3
REMARK VINA RESULT:     -11.2      1.632      6.772
REMARK SMILES CCc1cc(OCC(=O)NCCCNC(=O)c2ccc(-c3c4nc(c(-c5ccccc5)c5ccc([nH]5)c(-c5ccccc5)c5nc(c(-c6ccccc6)c6ccc3[nH]6)C=C5)C=C4)cc2)nc(Nc2ccc(C)c(F)c2)n1
REMARK SMILES IDX 11 1 10 2 8 3 9 4 7 6 6 7 5 8 3 9 4 10 76 11 66 12 65 13
REMARK SMILES IDX 2 14 1 15 67 16 68 18 69 19 75 20 70 21 73 22 71 23 74 24
REMARK SMILES IDX 72 25 12 26 13 27 14 28 15 29 16 31 17 32 18 33 64 34 19 35
REMARK SMILES IDX 63 36 20 37 21 38 22 39 57 40 23 41 62 42 56 43 58 44 24 45
REMARK SMILES IDX 61 46 55 47 54 48 25 50 47 51 32 52 46 53 33 54 36 55 45 56
REMARK SMILES IDX 59 57 34 58 35 59 44 61 60 62 37 63 26 64 27 65 31 66 28 67
REMARK SMILES IDX 30 68 29 69 48 70 49 71 53 72 50 73 52 74 51 75 38 76 39 77
REMARK SMILES IDX 43 78 40 79 42 80 41 81
REMARK H PARENT 10 5 67 17 14 30 58 49 36 60
REMARK Flexibility Score: inf
ROOT
ATOM      1  C   UNL A   1      37.511  21.102  24.452  1.00  0.00     0.117 C 
ENDROOT
BRANCH   1   2
ATOM      2  N   UNL A   1      37.996  22.301  25.109  1.00  0.00    -0.353 N 
ATOM      3  C   UNL A   1      37.278  23.263  25.753  1.00  0.00     0.258 C 
ATOM      4  O   UNL A   1      37.880  24.205  26.271  1.00  0.00    -0.271 OA
ATOM      5  H   UNL A   1      38.971  22.437  25.086  1.00  0.00     0.163 HD
BRANCH   3   6
ATOM      6  C   UNL A   1      35.751  23.152  25.832  1.00  0.00     0.331 C 
BRANCH   6   7
ATOM      7  O   UNL A   1      35.232  21.960  26.396  1.00  0.00    -0.467 OA
BRANCH   7   8
ATOM      8  C   UNL A   1      34.094  21.431  25.854  1.00  0.00     0.218 A 
ATOM      9  C   UNL A   1      32.742  19.797  24.868  1.00  0.00     0.050 A 
ATOM     10  C   UNL A   1      33.995  20.184  25.279  1.00  0.00     0.092 A 
ATOM     11  N   UNL A   1      31.677  20.598  25.017  1.00  0.00    -0.218 NA
ATOM     12  C   UNL A   1      31.861  21.826  25.518  1.00  0.00     0.230 A 
ATOM     13  N   UNL A   1      33.046  22.272  25.951  1.00  0.00    -0.177 NA
BRANCH   9  14
ATOM     14  C   UNL A   1      32.516  18.422  24.293  1.00  0.00     0.053 C 
ATOM     15  C   UNL A   1      32.330  18.417  22.780  1.00  0.00     0.011 C 
ENDBRANCH   9  14
BRANCH  12  16
ATOM     16  N   UNL A   1      30.797  22.726  25.514  1.00  0.00    -0.324 N 
ATOM     17  H   UNL A   1      29.930  22.374  25.819  1.00  0.00     0.170 HD
BRANCH  16  18
ATOM     18  C   UNL A   1      30.815  24.072  25.130  1.00  0.00     0.044 A 
ATOM     19  C   UNL A   1      30.630  24.419  23.786  1.00  0.00     0.026 A 
ATOM     20  C   UNL A   1      30.877  25.101  26.076  1.00  0.00     0.065 A 
ATOM     21  C   UNL A   1      30.496  25.761  23.401  1.00  0.00     0.008 A 
ATOM     22  C   UNL A   1      30.764  26.432  25.690  1.00  0.00     0.128 A 
ATOM     23  C   UNL A   1      30.560  26.783  24.356  1.00  0.00    -0.015 A 
ATOM     24  F   UNL A   1      30.834  27.383  26.632  1.00  0.00    -0.207 F 
ATOM     25  C   UNL A   1      30.376  28.213  23.954  1.00  0.00     0.047 C 
ENDBRANCH  16  18
ENDBRANCH  12  16
ENDBRANCH   7   8
ENDBRANCH   6   7
ENDBRANCH   3   6
ENDBRANCH   1   2
BRANCH   1  26
ATOM     26  C   UNL A   1      38.242  19.847  24.912  1.00  0.00     0.042 C 
BRANCH  26  27
ATOM     27  C   UNL A   1      39.250  20.080  26.033  1.00  0.00     0.118 C 
BRANCH  27  28
ATOM     28  N   UNL A   1      40.398  19.183  25.969  1.00  0.00    -0.352 N 
ATOM     29  C   UNL A   1      41.739  19.453  26.089  1.00  0.00     0.251 C 
ATOM     30  H   UNL A   1      40.178  18.236  25.814  1.00  0.00     0.163 HD
ATOM     31  O   UNL A   1      42.564  18.574  25.846  1.00  0.00    -0.269 OA
BRANCH  29  32
ATOM     32  C   UNL A   1      42.199  20.799  26.488  1.00  0.00     0.039 A 
ATOM     33  C   UNL A   1      42.639  21.687  25.502  1.00  0.00     0.014 A 
ATOM     34  C   UNL A   1      42.203  21.187  27.830  1.00  0.00     0.014 A 
ATOM     35  C   UNL A   1      43.007  22.988  25.852  1.00  0.00     0.010 A 
ATOM     36  C   UNL A   1      42.492  22.505  28.167  1.00  0.00     0.010 A 
ATOM     37  C   UNL A   1      42.895  23.421  27.183  1.00  0.00    -0.014 A 
BRANCH  37  38
ATOM     38  C   UNL A   1      43.190  24.822  27.579  1.00  0.00     0.031 A 
ATOM     39  C   UNL A   1      44.613  25.254  27.808  1.00  0.00     0.074 A 
ATOM     40  C   UNL A   1      42.179  25.677  27.823  1.00  0.00     0.049 A 
ATOM     41  N   UNL A   1      45.066  26.388  28.279  1.00  0.00    -0.248 NA
ATOM     42  C   UNL A   1      45.661  24.273  27.488  1.00  0.00     0.031 C 
ATOM     43  C   UNL A   1      40.754  25.379  27.665  1.00  0.00     0.029 A 
ATOM     44  N   UNL A   1      42.196  26.974  28.276  1.00  0.00    -0.354 N 
ATOM     45  C   UNL A   1      46.447  26.245  28.337  1.00  0.00     0.074 A 
ATOM     46  C   UNL A   1      46.753  24.902  27.896  1.00  0.00     0.031 C 
ATOM     47  C   UNL A   1      40.037  26.464  27.998  1.00  0.00     0.029 A 
ATOM     48  C   UNL A   1      40.945  27.516  28.444  1.00  0.00     0.049 A 
ATOM     49  H   UNL A   1      43.026  27.468  28.463  1.00  0.00     0.167 HD
ATOM     50  C   UNL A   1      47.379  27.156  28.709  1.00  0.00     0.031 A 
ATOM     51  C   UNL A   1      40.567  28.717  28.921  1.00  0.00     0.031 A 
ATOM     52  C   UNL A   1      47.076  28.493  29.144  1.00  0.00     0.049 A 
ATOM     53  C   UNL A   1      41.619  29.697  29.363  1.00  0.00     0.074 A 
ATOM     54  C   UNL A   1      47.952  29.504  29.495  1.00  0.00     0.029 A 
ATOM     55  N   UNL A   1      45.795  29.004  29.291  1.00  0.00    -0.354 N 
ATOM     56  N   UNL A   1      42.925  29.568  29.357  1.00  0.00    -0.248 NA
ATOM     57  C   UNL A   1      41.146  30.993  29.868  1.00  0.00     0.031 C 
ATOM     58  C   UNL A   1      47.202  30.608  29.911  1.00  0.00     0.029 A 
ATOM     59  C   UNL A   1      45.858  30.307  29.750  1.00  0.00     0.049 A 
ATOM     60  H   UNL A   1      44.964  28.511  29.097  1.00  0.00     0.167 HD
ATOM     61  C   UNL A   1      43.427  30.778  29.820  1.00  0.00     0.074 A 
ATOM     62  C   UNL A   1      42.287  31.631  30.088  1.00  0.00     0.031 C 
ATOM     63  C   UNL A   1      44.717  31.149  30.003  1.00  0.00     0.031 A 
BRANCH  50  64
ATOM     64  C   UNL A   1      48.821  26.724  28.676  1.00  0.00    -0.014 A 
ATOM     65  C   UNL A   1      49.593  26.846  27.510  1.00  0.00     0.009 A 
ATOM     66  C   UNL A   1      49.425  26.222  29.839  1.00  0.00     0.009 A 
ATOM     67  C   UNL A   1      50.928  26.434  27.499  1.00  0.00     0.001 A 
ATOM     68  C   UNL A   1      50.769  25.842  29.834  1.00  0.00     0.001 A 
ATOM     69  C   UNL A   1      51.516  25.939  28.662  1.00  0.00     0.000 A 
ENDBRANCH  50  64
BRANCH  51  70
ATOM     70  C   UNL A   1      39.124  29.068  29.007  1.00  0.00    -0.014 A 
ATOM     71  C   UNL A   1      38.389  28.778  30.166  1.00  0.00     0.009 A 
ATOM     72  C   UNL A   1      38.470  29.681  27.927  1.00  0.00     0.009 A 
ATOM     73  C   UNL A   1      37.024  29.065  30.231  1.00  0.00     0.001 A 
ATOM     74  C   UNL A   1      37.112  29.998  28.006  1.00  0.00     0.001 A 
ATOM     75  C   UNL A   1      36.387  29.679  29.153  1.00  0.00     0.000 A 
ENDBRANCH  51  70
BRANCH  63  76
ATOM     76  C   UNL A   1      44.975  32.559  30.460  1.00  0.00    -0.014 A 
ATOM     77  C   UNL A   1      45.103  33.617  29.546  1.00  0.00     0.009 A 
ATOM     78  C   UNL A   1      45.038  32.837  31.835  1.00  0.00     0.009 A 
ATOM     79  C   UNL A   1      45.321  34.919  30.003  1.00  0.00     0.001 A 
ATOM     80  C   UNL A   1      45.224  34.143  32.288  1.00  0.00     0.001 A 
ATOM     81  C   UNL A   1      45.375  35.181  31.371  1.00  0.00     0.000 A 
ENDBRANCH  63  76
ENDBRANCH  37  38
ENDBRANCH  29  32
ENDBRANCH  27  28
ENDBRANCH  26  27
ENDBRANCH   1  26
TORSDOF 15
ENDMDL
