MODEL 1
REMARK VINA RESULT:     -12.5      0.000      0.000
REMARK SMILES C[C@@H](C(=O)NCCCNC(=O)c1ccc(-c2c3nc(c(-c4ccccc4)c4ccc([nH]4)c(-c4ccccc4)c4nc(c(-c5ccccc5)c5ccc2[nH]5)C=C4)C=C3)cc1)c1ccc(C[C@H]2CCCC2=O)c(-c2ccc(F)cc2)c1
REMARK SMILES IDX 6 1 5 2 3 3 4 4 2 6 1 7 60 8 61 9 79 10 62 11 71 12 63 13
REMARK SMILES IDX 72 14 73 15 78 16 74 17 77 18 75 19 76 20 64 21 65 22 66 23
REMARK SMILES IDX 69 24 67 25 68 26 70 27 7 28 8 29 9 30 10 31 11 33 12 34
REMARK SMILES IDX 13 35 59 36 14 37 58 38 15 39 16 40 17 41 52 42 18 43 57 44
REMARK SMILES IDX 51 45 53 46 19 47 56 48 50 49 49 50 20 52 42 53 27 54 41 55
REMARK SMILES IDX 28 56 31 57 40 58 54 59 29 60 30 61 39 63 55 64 32 65 21 66
REMARK SMILES IDX 22 67 26 68 23 69 25 70 24 71 43 72 44 73 48 74 45 75 47 76
REMARK SMILES IDX 46 77 33 78 34 79 38 80 35 81 37 82 36 83
REMARK H PARENT 5 5 9 32 53 51 31 62
REMARK Flexibility Score: inf
ROOT
ATOM      1  C   UNL A   1      33.049  29.327  24.779  1.00  0.00     0.117 C 
ENDROOT
BRANCH   1   2
ATOM      2  N   UNL A   1      33.645  29.280  23.458  1.00  0.00    -0.356 N 
ATOM      3  C   UNL A   1      33.444  28.390  22.442  1.00  0.00     0.227 C 
ATOM      4  O   UNL A   1      34.365  28.286  21.630  1.00  0.00    -0.274 OA
ATOM      5  H   UNL A   1      34.293  29.997  23.265  1.00  0.00     0.163 HD
BRANCH   3   6
ATOM      6  C   UNL A   1      32.133  27.583  22.375  1.00  0.00     0.105 C 
ATOM      7  C   UNL A   1      31.021  28.438  22.999  1.00  0.00     0.023 C 
BRANCH   6   8
ATOM      8  C   UNL A   1      32.172  26.180  22.999  1.00  0.00    -0.035 A 
ATOM      9  C   UNL A   1      31.041  25.376  23.138  1.00  0.00     0.005 A 
ATOM     10  C   UNL A   1      33.386  25.657  23.489  1.00  0.00     0.013 A 
ATOM     11  C   UNL A   1      31.131  24.084  23.659  1.00  0.00     0.004 A 
ATOM     12  C   UNL A   1      33.506  24.359  24.043  1.00  0.00    -0.015 A 
ATOM     13  C   UNL A   1      32.346  23.561  24.135  1.00  0.00    -0.039 A 
BRANCH  12  14
ATOM     14  C   UNL A   1      34.843  23.914  24.486  1.00  0.00    -0.018 A 
ATOM     15  C   UNL A   1      35.279  24.121  25.808  1.00  0.00     0.012 A 
ATOM     16  C   UNL A   1      35.709  23.250  23.597  1.00  0.00     0.012 A 
ATOM     17  C   UNL A   1      36.559  23.732  26.211  1.00  0.00     0.040 A 
ATOM     18  C   UNL A   1      36.982  22.844  24.005  1.00  0.00     0.040 A 
ATOM     19  C   UNL A   1      37.399  23.101  25.304  1.00  0.00     0.123 A 
ATOM     20  F   UNL A   1      38.629  22.734  25.687  1.00  0.00    -0.207 F 
ENDBRANCH  12  14
BRANCH  13  21
ATOM     21  C   UNL A   1      32.317  22.170  24.741  1.00  0.00     0.047 C 
BRANCH  21  22
ATOM     22  C   UNL A   1      33.143  21.086  24.039  1.00  0.00     0.060 C 
ATOM     23  C   UNL A   1      33.748  19.998  24.928  1.00  0.00     0.012 C 
ATOM     24  C   UNL A   1      32.330  20.276  23.058  1.00  0.00     0.136 C 
ATOM     25  C   UNL A   1      32.795  18.811  24.859  1.00  0.00     0.009 C 
ATOM     26  C   UNL A   1      32.218  18.827  23.451  1.00  0.00     0.076 C 
ATOM     27  O   UNL A   1      31.821  20.744  22.045  1.00  0.00    -0.299 OA
ENDBRANCH  21  22
ENDBRANCH  13  21
ENDBRANCH   6   8
ENDBRANCH   3   6
ENDBRANCH   1   2
BRANCH   1  28
ATOM     28  C   UNL A   1      33.895  28.550  25.790  1.00  0.00     0.042 C 
BRANCH  28  29
ATOM     29  C   UNL A   1      33.492  28.764  27.246  1.00  0.00     0.118 C 
BRANCH  29  30
ATOM     30  N   UNL A   1      33.561  30.161  27.647  1.00  0.00    -0.352 N 
ATOM     31  C   UNL A   1      34.566  30.836  28.290  1.00  0.00     0.251 C 
ATOM     32  H   UNL A   1      32.769  30.701  27.422  1.00  0.00     0.163 HD
ATOM     33  O   UNL A   1      34.360  31.969  28.722  1.00  0.00    -0.269 OA
BRANCH  31  34
ATOM     34  C   UNL A   1      35.886  30.202  28.492  1.00  0.00     0.039 A 
ATOM     35  C   UNL A   1      36.807  30.214  27.443  1.00  0.00     0.014 A 
ATOM     36  C   UNL A   1      36.215  29.591  29.705  1.00  0.00     0.014 A 
ATOM     37  C   UNL A   1      38.084  29.680  27.632  1.00  0.00     0.010 A 
ATOM     38  C   UNL A   1      37.511  29.124  29.917  1.00  0.00     0.010 A 
ATOM     39  C   UNL A   1      38.461  29.170  28.885  1.00  0.00    -0.014 A 
BRANCH  39  40
ATOM     40  C   UNL A   1      39.849  28.708  29.146  1.00  0.00     0.031 A 
ATOM     41  C   UNL A   1      40.865  29.647  29.735  1.00  0.00     0.074 A 
ATOM     42  C   UNL A   1      40.215  27.465  28.776  1.00  0.00     0.049 A 
ATOM     43  N   UNL A   1      42.141  29.450  29.953  1.00  0.00    -0.248 NA
ATOM     44  C   UNL A   1      40.393  30.990  30.109  1.00  0.00     0.031 C 
ATOM     45  C   UNL A   1      39.333  26.467  28.163  1.00  0.00     0.029 A 
ATOM     46  N   UNL A   1      41.431  26.830  28.847  1.00  0.00    -0.354 N 
ATOM     47  C   UNL A   1      42.627  30.646  30.464  1.00  0.00     0.074 A 
ATOM     48  C   UNL A   1      41.519  31.576  30.493  1.00  0.00     0.031 C 
ATOM     49  C   UNL A   1      40.032  25.344  27.932  1.00  0.00     0.029 A 
ATOM     50  C   UNL A   1      41.419  25.556  28.330  1.00  0.00     0.049 A 
ATOM     51  H   UNL A   1      42.234  27.248  29.232  1.00  0.00     0.167 HD
ATOM     52  C   UNL A   1      43.881  30.941  30.882  1.00  0.00     0.031 A 
ATOM     53  C   UNL A   1      42.416  24.666  28.173  1.00  0.00     0.031 A 
ATOM     54  C   UNL A   1      44.980  30.011  30.865  1.00  0.00     0.049 A 
ATOM     55  C   UNL A   1      43.806  25.033  28.616  1.00  0.00     0.074 A 
ATOM     56  C   UNL A   1      46.266  30.194  31.340  1.00  0.00     0.029 A 
ATOM     57  N   UNL A   1      44.925  28.733  30.335  1.00  0.00    -0.354 N 
ATOM     58  N   UNL A   1      44.228  26.138  29.183  1.00  0.00    -0.248 NA
ATOM     59  C   UNL A   1      44.859  24.028  28.400  1.00  0.00     0.031 C 
ATOM     60  C   UNL A   1      47.010  29.051  31.036  1.00  0.00     0.029 A 
ATOM     61  C   UNL A   1      46.168  28.130  30.432  1.00  0.00     0.049 A 
ATOM     62  H   UNL A   1      44.122  28.314  29.949  1.00  0.00     0.167 HD
ATOM     63  C   UNL A   1      45.584  25.949  29.415  1.00  0.00     0.074 A 
ATOM     64  C   UNL A   1      45.912  24.619  28.947  1.00  0.00     0.031 C 
ATOM     65  C   UNL A   1      46.479  26.804  29.966  1.00  0.00     0.031 A 
BRANCH  52  66
ATOM     66  C   UNL A   1      44.147  32.335  31.378  1.00  0.00    -0.014 A 
ATOM     67  C   UNL A   1      44.488  33.374  30.499  1.00  0.00     0.009 A 
ATOM     68  C   UNL A   1      43.989  32.627  32.743  1.00  0.00     0.009 A 
ATOM     69  C   UNL A   1      44.694  34.669  30.979  1.00  0.00     0.001 A 
ATOM     70  C   UNL A   1      44.164  33.928  33.216  1.00  0.00     0.001 A 
ATOM     71  C   UNL A   1      44.525  34.947  32.335  1.00  0.00     0.000 A 
ENDBRANCH  52  66
BRANCH  53  72
ATOM     72  C   UNL A   1      42.150  23.339  27.553  1.00  0.00    -0.014 A 
ATOM     73  C   UNL A   1      42.442  23.111  26.200  1.00  0.00     0.009 A 
ATOM     74  C   UNL A   1      41.571  22.304  28.304  1.00  0.00     0.009 A 
ATOM     75  C   UNL A   1      42.127  21.887  25.604  1.00  0.00     0.001 A 
ATOM     76  C   UNL A   1      41.289  21.070  27.714  1.00  0.00     0.001 A 
ATOM     77  C   UNL A   1      41.555  20.868  26.361  1.00  0.00     0.000 A 
ENDBRANCH  53  72
BRANCH  65  78
ATOM     78  C   UNL A   1      47.893  26.320  30.123  1.00  0.00    -0.014 A 
ATOM     79  C   UNL A   1      48.346  25.771  31.332  1.00  0.00     0.009 A 
ATOM     80  C   UNL A   1      48.768  26.364  29.025  1.00  0.00     0.009 A 
ATOM     81  C   UNL A   1      49.655  25.298  31.446  1.00  0.00     0.001 A 
ATOM     82  C   UNL A   1      50.066  25.862  29.133  1.00  0.00     0.001 A 
ATOM     83  C   UNL A   1      50.510  25.337  30.345  1.00  0.00     0.000 A 
ENDBRANCH  65  78
ENDBRANCH  39  40
ENDBRANCH  31  34
ENDBRANCH  29  30
ENDBRANCH  28  29
ENDBRANCH   1  28
TORSDOF 14
ENDMDL
MODEL 2
REMARK VINA RESULT:     -12.4      2.521      7.735
REMARK SMILES C[C@@H](C(=O)NCCCNC(=O)c1ccc(-c2c3nc(c(-c4ccccc4)c4ccc([nH]4)c(-c4ccccc4)c4nc(c(-c5ccccc5)c5ccc2[nH]5)C=C4)C=C3)cc1)c1ccc(C[C@H]2CCCC2=O)c(-c2ccc(F)cc2)c1
REMARK SMILES IDX 6 1 5 2 3 3 4 4 2 6 1 7 60 8 61 9 79 10 62 11 71 12 63 13
REMARK SMILES IDX 72 14 73 15 78 16 74 17 77 18 75 19 76 20 64 21 65 22 66 23
REMARK SMILES IDX 69 24 67 25 68 26 70 27 7 28 8 29 9 30 10 31 11 33 12 34
REMARK SMILES IDX 13 35 59 36 14 37 58 38 15 39 16 40 17 41 52 42 18 43 57 44
REMARK SMILES IDX 51 45 53 46 19 47 56 48 50 49 49 50 20 52 42 53 27 54 41 55
REMARK SMILES IDX 28 56 31 57 40 58 54 59 29 60 30 61 39 63 55 64 32 65 21 66
REMARK SMILES IDX 22 67 26 68 23 69 25 70 24 71 43 72 44 73 48 74 45 75 47 76
REMARK SMILES IDX 46 77 33 78 34 79 38 80 35 81 37 82 36 83
REMARK H PARENT 5 5 9 32 53 51 31 62
REMARK Flexibility Score: inf
ROOT
ATOM      1  C   UNL A   1      37.176  21.119  24.736  1.00  0.00     0.117 C 
ENDROOT
BRANCH   1   2
ATOM      2  N   UNL A   1      35.796  20.691  24.861  1.00  0.00    -0.356 N 
ATOM      3  C   UNL A   1      34.806  21.165  25.674  1.00  0.00     0.227 C 
ATOM      4  O   UNL A   1      33.896  20.374  25.926  1.00  0.00    -0.274 OA
ATOM      5  H   UNL A   1      35.534  19.947  24.271  1.00  0.00     0.163 HD
BRANCH   3   6
ATOM      6  C   UNL A   1      34.885  22.601  26.225  1.00  0.00     0.105 C 
ATOM      7  C   UNL A   1      34.106  22.642  27.547  1.00  0.00     0.023 C 
BRANCH   6   8
ATOM      8  C   UNL A   1      34.421  23.715  25.274  1.00  0.00    -0.035 A 
ATOM      9  C   UNL A   1      34.382  23.567  23.888  1.00  0.00     0.005 A 
ATOM     10  C   UNL A   1      34.033  24.969  25.790  1.00  0.00     0.013 A 
ATOM     11  C   UNL A   1      33.900  24.586  23.065  1.00  0.00     0.004 A 
ATOM     12  C   UNL A   1      33.560  26.030  24.979  1.00  0.00    -0.015 A 
ATOM     13  C   UNL A   1      33.502  25.831  23.584  1.00  0.00    -0.039 A 
BRANCH  12  14
ATOM     14  C   UNL A   1      33.148  27.282  25.645  1.00  0.00    -0.018 A 
ATOM     15  C   UNL A   1      33.818  28.494  25.398  1.00  0.00     0.012 A 
ATOM     16  C   UNL A   1      32.055  27.297  26.531  1.00  0.00     0.012 A 
ATOM     17  C   UNL A   1      33.449  29.668  26.060  1.00  0.00     0.040 A 
ATOM     18  C   UNL A   1      31.673  28.474  27.179  1.00  0.00     0.040 A 
ATOM     19  C   UNL A   1      32.381  29.645  26.947  1.00  0.00     0.123 A 
ATOM     20  F   UNL A   1      32.031  30.768  27.588  1.00  0.00    -0.207 F 
ENDBRANCH  12  14
BRANCH  13  21
ATOM     21  C   UNL A   1      33.055  26.889  22.592  1.00  0.00     0.047 C 
BRANCH  21  22
ATOM     22  C   UNL A   1      31.593  26.844  22.135  1.00  0.00     0.060 C 
ATOM     23  C   UNL A   1      30.741  25.689  22.665  1.00  0.00     0.012 C 
ATOM     24  C   UNL A   1      30.803  28.051  22.585  1.00  0.00     0.136 C 
ATOM     25  C   UNL A   1      29.975  26.238  23.863  1.00  0.00     0.009 C 
ATOM     26  C   UNL A   1      29.694  27.698  23.538  1.00  0.00     0.076 C 
ATOM     27  O   UNL A   1      31.035  29.195  22.208  1.00  0.00    -0.299 OA
ENDBRANCH  21  22
ENDBRANCH  13  21
ENDBRANCH   6   8
ENDBRANCH   3   6
ENDBRANCH   1   2
BRANCH   1  28
ATOM     28  C   UNL A   1      38.135  19.946  24.952  1.00  0.00     0.042 C 
BRANCH  28  29
ATOM     29  C   UNL A   1      39.178  20.177  26.041  1.00  0.00     0.118 C 
BRANCH  29  30
ATOM     30  N   UNL A   1      40.337  19.308  25.898  1.00  0.00    -0.352 N 
ATOM     31  C   UNL A   1      41.671  19.606  26.009  1.00  0.00     0.251 C 
ATOM     32  H   UNL A   1      40.133  18.368  25.693  1.00  0.00     0.163 HD
ATOM     33  O   UNL A   1      42.511  18.779  25.658  1.00  0.00    -0.269 OA
BRANCH  31  34
ATOM     34  C   UNL A   1      42.106  20.923  26.521  1.00  0.00     0.039 A 
ATOM     35  C   UNL A   1      42.506  21.902  25.610  1.00  0.00     0.014 A 
ATOM     36  C   UNL A   1      42.129  21.192  27.892  1.00  0.00     0.014 A 
ATOM     37  C   UNL A   1      42.858  23.175  26.065  1.00  0.00     0.010 A 
ATOM     38  C   UNL A   1      42.409  22.481  28.340  1.00  0.00     0.010 A 
ATOM     39  C   UNL A   1      42.770  23.488  27.432  1.00  0.00    -0.014 A 
BRANCH  39  40
ATOM     40  C   UNL A   1      43.021  24.866  27.926  1.00  0.00     0.031 A 
ATOM     41  C   UNL A   1      44.399  25.277  28.366  1.00  0.00     0.074 A 
ATOM     42  C   UNL A   1      41.988  25.723  28.055  1.00  0.00     0.049 A 
ATOM     43  N   UNL A   1      44.791  26.406  28.904  1.00  0.00    -0.248 NA
ATOM     44  C   UNL A   1      45.475  24.287  28.200  1.00  0.00     0.031 C 
ATOM     45  C   UNL A   1      40.597  25.436  27.696  1.00  0.00     0.029 A 
ATOM     46  N   UNL A   1      41.946  27.008  28.539  1.00  0.00    -0.354 N 
ATOM     47  C   UNL A   1      46.147  26.252  29.162  1.00  0.00     0.074 A 
ATOM     48  C   UNL A   1      46.505  24.911  28.755  1.00  0.00     0.031 C 
ATOM     49  C   UNL A   1      39.843  26.517  27.954  1.00  0.00     0.029 A 
ATOM     50  C   UNL A   1      40.683  27.553  28.544  1.00  0.00     0.049 A 
ATOM     51  H   UNL A   1      42.743  27.492  28.852  1.00  0.00     0.167 HD
ATOM     52  C   UNL A   1      47.017  27.150  29.682  1.00  0.00     0.031 A 
ATOM     53  C   UNL A   1      40.246  28.745  28.993  1.00  0.00     0.031 A 
ATOM     54  C   UNL A   1      46.661  28.488  30.075  1.00  0.00     0.049 A 
ATOM     55  C   UNL A   1      41.230  29.709  29.596  1.00  0.00     0.074 A 
ATOM     56  C   UNL A   1      47.489  29.495  30.538  1.00  0.00     0.029 A 
ATOM     57  N   UNL A   1      45.374  28.999  30.062  1.00  0.00    -0.354 N 
ATOM     58  N   UNL A   1      42.526  29.581  29.747  1.00  0.00    -0.248 NA
ATOM     59  C   UNL A   1      40.691  30.986  30.088  1.00  0.00     0.031 C 
ATOM     60  C   UNL A   1      46.694  30.594  30.871  1.00  0.00     0.029 A 
ATOM     61  C   UNL A   1      45.379  30.295  30.553  1.00  0.00     0.049 A 
ATOM     62  H   UNL A   1      44.575  28.515  29.751  1.00  0.00     0.167 HD
ATOM     63  C   UNL A   1      42.959  30.767  30.325  1.00  0.00     0.074 A 
ATOM     64  C   UNL A   1      41.792  31.611  30.479  1.00  0.00     0.031 C 
ATOM     65  C   UNL A   1      44.211  31.125  30.696  1.00  0.00     0.031 A 
BRANCH  52  66
ATOM     66  C   UNL A   1      48.442  26.714  29.879  1.00  0.00    -0.014 A 
ATOM     67  C   UNL A   1      48.849  26.041  31.041  1.00  0.00     0.009 A 
ATOM     68  C   UNL A   1      49.379  26.924  28.854  1.00  0.00     0.009 A 
ATOM     69  C   UNL A   1      50.171  25.613  31.184  1.00  0.00     0.001 A 
ATOM     70  C   UNL A   1      50.691  26.469  28.986  1.00  0.00     0.001 A 
ATOM     71  C   UNL A   1      51.089  25.820  30.154  1.00  0.00     0.000 A 
ENDBRANCH  52  66
BRANCH  53  72
ATOM     72  C   UNL A   1      38.802  29.096  28.908  1.00  0.00    -0.014 A 
ATOM     73  C   UNL A   1      38.261  29.618  27.724  1.00  0.00     0.009 A 
ATOM     74  C   UNL A   1      37.964  28.940  30.025  1.00  0.00     0.009 A 
ATOM     75  C   UNL A   1      36.921  30.011  27.671  1.00  0.00     0.001 A 
ATOM     76  C   UNL A   1      36.617  29.301  29.957  1.00  0.00     0.001 A 
ATOM     77  C   UNL A   1      36.100  29.848  28.784  1.00  0.00     0.000 A 
ENDBRANCH  53  72
BRANCH  65  78
ATOM     78  C   UNL A   1      44.396  32.498  31.277  1.00  0.00    -0.014 A 
ATOM     79  C   UNL A   1      44.435  32.705  32.664  1.00  0.00     0.009 A 
ATOM     80  C   UNL A   1      44.591  33.594  30.420  1.00  0.00     0.009 A 
ATOM     81  C   UNL A   1      44.639  33.985  33.182  1.00  0.00     0.001 A 
ATOM     82  C   UNL A   1      44.826  34.868  30.941  1.00  0.00     0.001 A 
ATOM     83  C   UNL A   1      44.842  35.063  32.321  1.00  0.00     0.000 A 
ENDBRANCH  65  78
ENDBRANCH  39  40
ENDBRANCH  31  34
ENDBRANCH  29  30
ENDBRANCH  28  29
ENDBRANCH   1  28
TORSDOF 14
ENDMDL
MODEL 3
REMARK VINA RESULT:     -11.9      2.558      7.578
REMARK SMILES C[C@@H](C(=O)NCCCNC(=O)c1ccc(-c2c3nc(c(-c4ccccc4)c4ccc([nH]4)c(-c4ccccc4)c4nc(c(-c5ccccc5)c5ccc2[nH]5)C=C4)C=C3)cc1)c1ccc(C[C@H]2CCCC2=O)c(-c2ccc(F)cc2)c1
REMARK SMILES IDX 6 1 5 2 3 3 4 4 2 6 1 7 60 8 61 9 79 10 62 11 71 12 63 13
REMARK SMILES IDX 72 14 73 15 78 16 74 17 77 18 75 19 76 20 64 21 65 22 66 23
REMARK SMILES IDX 69 24 67 25 68 26 70 27 7 28 8 29 9 30 10 31 11 33 12 34
REMARK SMILES IDX 13 35 59 36 14 37 58 38 15 39 16 40 17 41 52 42 18 43 57 44
REMARK SMILES IDX 51 45 53 46 19 47 56 48 50 49 49 50 20 52 42 53 27 54 41 55
REMARK SMILES IDX 28 56 31 57 40 58 54 59 29 60 30 61 39 63 55 64 32 65 21 66
REMARK SMILES IDX 22 67 26 68 23 69 25 70 24 71 43 72 44 73 48 74 45 75 47 76
REMARK SMILES IDX 46 77 33 78 34 79 38 80 35 81 37 82 36 83
REMARK H PARENT 5 5 9 32 53 51 31 62
REMARK Flexibility Score: inf
ROOT
ATOM      1  C   UNL A   1      36.300  20.048  25.011  1.00  0.00     0.117 C 
ENDROOT
BRANCH   1   2
ATOM      2  N   UNL A   1      35.867  21.089  25.923  1.00  0.00    -0.356 N 
ATOM      3  C   UNL A   1      35.430  22.356  25.656  1.00  0.00     0.227 C 
ATOM      4  O   UNL A   1      35.561  23.171  26.570  1.00  0.00    -0.274 OA
ATOM      5  H   UNL A   1      35.892  20.847  26.877  1.00  0.00     0.163 HD
BRANCH   3   6
ATOM      6  C   UNL A   1      34.836  22.689  24.274  1.00  0.00     0.105 C 
ATOM      7  C   UNL A   1      35.944  23.331  23.428  1.00  0.00     0.023 C 
BRANCH   6   8
ATOM      8  C   UNL A   1      33.567  23.555  24.276  1.00  0.00    -0.035 A 
ATOM      9  C   UNL A   1      32.385  23.177  23.640  1.00  0.00     0.005 A 
ATOM     10  C   UNL A   1      33.568  24.808  24.922  1.00  0.00     0.013 A 
ATOM     11  C   UNL A   1      31.238  23.968  23.716  1.00  0.00     0.004 A 
ATOM     12  C   UNL A   1      32.427  25.645  24.997  1.00  0.00    -0.015 A 
ATOM     13  C   UNL A   1      31.238  25.212  24.371  1.00  0.00    -0.039 A 
BRANCH  12  14
ATOM     14  C   UNL A   1      32.546  26.918  25.735  1.00  0.00    -0.018 A 
ATOM     15  C   UNL A   1      31.617  27.275  26.730  1.00  0.00     0.012 A 
ATOM     16  C   UNL A   1      33.610  27.801  25.474  1.00  0.00     0.012 A 
ATOM     17  C   UNL A   1      31.712  28.498  27.398  1.00  0.00     0.040 A 
ATOM     18  C   UNL A   1      33.717  29.017  26.154  1.00  0.00     0.040 A 
ATOM     19  C   UNL A   1      32.761  29.358  27.100  1.00  0.00     0.123 A 
ATOM     20  F   UNL A   1      32.849  30.535  27.735  1.00  0.00    -0.207 F 
ENDBRANCH  12  14
BRANCH  13  21
ATOM     21  C   UNL A   1      29.954  26.019  24.336  1.00  0.00     0.047 C 
BRANCH  21  22
ATOM     22  C   UNL A   1      29.794  27.029  23.194  1.00  0.00     0.060 C 
ATOM     23  C   UNL A   1      29.341  28.439  23.580  1.00  0.00     0.012 C 
ATOM     24  C   UNL A   1      31.091  27.302  22.470  1.00  0.00     0.136 C 
ATOM     25  C   UNL A   1      30.606  29.284  23.670  1.00  0.00     0.009 C 
ATOM     26  C   UNL A   1      31.550  28.728  22.614  1.00  0.00     0.076 C 
ATOM     27  O   UNL A   1      31.702  26.455  21.826  1.00  0.00    -0.299 OA
ENDBRANCH  21  22
ENDBRANCH  13  21
ENDBRANCH   6   8
ENDBRANCH   3   6
ENDBRANCH   1   2
BRANCH   1  28
ATOM     28  C   UNL A   1      37.739  20.288  24.548  1.00  0.00     0.042 C 
BRANCH  28  29
ATOM     29  C   UNL A   1      38.733  20.531  25.680  1.00  0.00     0.118 C 
BRANCH  29  30
ATOM     30  N   UNL A   1      39.743  19.489  25.771  1.00  0.00    -0.352 N 
ATOM     31  C   UNL A   1      41.068  19.583  26.113  1.00  0.00     0.251 C 
ATOM     32  H   UNL A   1      39.428  18.581  25.556  1.00  0.00     0.163 HD
ATOM     33  O   UNL A   1      41.812  18.619  25.941  1.00  0.00    -0.269 OA
BRANCH  31  34
ATOM     34  C   UNL A   1      41.613  20.842  26.662  1.00  0.00     0.039 A 
ATOM     35  C   UNL A   1      42.226  21.747  25.792  1.00  0.00     0.014 A 
ATOM     36  C   UNL A   1      41.531  21.130  28.027  1.00  0.00     0.014 A 
ATOM     37  C   UNL A   1      42.689  22.972  26.276  1.00  0.00     0.010 A 
ATOM     38  C   UNL A   1      41.927  22.380  28.496  1.00  0.00     0.010 A 
ATOM     39  C   UNL A   1      42.504  23.317  27.626  1.00  0.00    -0.014 A 
BRANCH  39  40
ATOM     40  C   UNL A   1      42.878  24.661  28.138  1.00  0.00     0.031 A 
ATOM     41  C   UNL A   1      41.823  25.707  28.372  1.00  0.00     0.074 A 
ATOM     42  C   UNL A   1      44.180  24.965  28.315  1.00  0.00     0.049 A 
ATOM     43  N   UNL A   1      41.968  26.958  28.733  1.00  0.00    -0.248 NA
ATOM     44  C   UNL A   1      40.425  25.304  28.153  1.00  0.00     0.031 C 
ATOM     45  C   UNL A   1      45.303  24.050  28.092  1.00  0.00     0.029 A 
ATOM     46  N   UNL A   1      44.781  26.134  28.711  1.00  0.00    -0.354 N 
ATOM     47  C   UNL A   1      40.687  27.495  28.760  1.00  0.00     0.074 A 
ATOM     48  C   UNL A   1      39.781  26.446  28.346  1.00  0.00     0.031 C 
ATOM     49  C   UNL A   1      46.452  24.687  28.370  1.00  0.00     0.029 A 
ATOM     50  C   UNL A   1      46.154  26.066  28.741  1.00  0.00     0.049 A 
ATOM     51  H   UNL A   1      44.277  26.945  28.950  1.00  0.00     0.167 HD
ATOM     52  C   UNL A   1      40.300  28.745  29.107  1.00  0.00     0.031 A 
ATOM     53  C   UNL A   1      47.072  27.012  29.015  1.00  0.00     0.031 A 
ATOM     54  C   UNL A   1      41.203  29.783  29.532  1.00  0.00     0.049 A 
ATOM     55  C   UNL A   1      46.614  28.401  29.366  1.00  0.00     0.074 A 
ATOM     56  C   UNL A   1      40.898  31.056  29.979  1.00  0.00     0.029 A 
ATOM     57  N   UNL A   1      42.583  29.671  29.549  1.00  0.00    -0.354 N 
ATOM     58  N   UNL A   1      45.392  28.865  29.476  1.00  0.00    -0.248 NA
ATOM     59  C   UNL A   1      47.662  29.397  29.635  1.00  0.00     0.031 C 
ATOM     60  C   UNL A   1      42.095  31.739  30.202  1.00  0.00     0.029 A 
ATOM     61  C   UNL A   1      43.146  30.869  29.957  1.00  0.00     0.049 A 
ATOM     62  H   UNL A   1      43.089  28.862  29.308  1.00  0.00     0.167 HD
ATOM     63  C   UNL A   1      45.527  30.196  29.851  1.00  0.00     0.074 A 
ATOM     64  C   UNL A   1      46.945  30.460  29.970  1.00  0.00     0.031 C 
ATOM     65  C   UNL A   1      44.559  31.117  30.076  1.00  0.00     0.031 A 
BRANCH  52  66
ATOM     66  C   UNL A   1      38.836  29.075  29.028  1.00  0.00    -0.014 A 
ATOM     67  C   UNL A   1      37.999  28.970  30.149  1.00  0.00     0.009 A 
ATOM     68  C   UNL A   1      38.300  29.564  27.825  1.00  0.00     0.009 A 
ATOM     69  C   UNL A   1      36.649  29.319  30.059  1.00  0.00     0.001 A 
ATOM     70  C   UNL A   1      36.959  29.940  27.746  1.00  0.00     0.001 A 
ATOM     71  C   UNL A   1      36.132  29.810  28.861  1.00  0.00     0.000 A 
ENDBRANCH  52  66
BRANCH  53  72
ATOM     72  C   UNL A   1      48.524  26.690  28.954  1.00  0.00    -0.014 A 
ATOM     73  C   UNL A   1      49.211  26.266  30.101  1.00  0.00     0.009 A 
ATOM     74  C   UNL A   1      49.237  26.838  27.753  1.00  0.00     0.009 A 
ATOM     75  C   UNL A   1      50.588  26.031  30.056  1.00  0.00     0.001 A 
ATOM     76  C   UNL A   1      50.606  26.569  27.703  1.00  0.00     0.001 A 
ATOM     77  C   UNL A   1      51.283  26.179  28.857  1.00  0.00     0.000 A 
ENDBRANCH  53  72
BRANCH  65  78
ATOM     78  C   UNL A   1      44.996  32.489  30.504  1.00  0.00    -0.014 A 
ATOM     79  C   UNL A   1      45.253  32.787  31.851  1.00  0.00     0.009 A 
ATOM     80  C   UNL A   1      45.207  33.484  29.535  1.00  0.00     0.009 A 
ATOM     81  C   UNL A   1      45.690  34.060  32.222  1.00  0.00     0.001 A 
ATOM     82  C   UNL A   1      45.673  34.747  29.906  1.00  0.00     0.001 A 
ATOM     83  C   UNL A   1      45.906  35.036  31.249  1.00  0.00     0.000 A 
ENDBRANCH  65  78
ENDBRANCH  39  40
ENDBRANCH  31  34
ENDBRANCH  29  30
ENDBRANCH  28  29
ENDBRANCH   1  28
TORSDOF 14
ENDMDL
