MODEL 1
REMARK VINA RESULT:      -9.6      0.000      0.000
REMARK SMILES CSc1cccc(N2C[C@@H](C(=O)NCCCNC(=O)c3ccc(-c4c5nc(c(-c6ccccc6)c6ccc([nH]6)c(-c6ccccc6)c6nc(c(-c7ccccc7)c7ccc4[nH]7)C=C6)C=C5)cc3)CC2=O)c1
REMARK SMILES IDX 15 1 14 2 13 3 11 4 12 5 10 7 8 8 9 9 69 10 68 11 70 12 7 13
REMARK SMILES IDX 3 14 4 15 71 16 5 17 6 18 2 19 1 20 16 21 17 22 18 23 19 25
REMARK SMILES IDX 20 26 21 27 67 28 22 29 66 30 23 31 24 32 25 33 60 34 26 35
REMARK SMILES IDX 65 36 59 37 61 38 27 39 64 40 58 41 57 42 28 44 50 45 35 46
REMARK SMILES IDX 49 47 36 48 39 49 48 50 62 51 37 52 38 53 47 55 63 56 40 57
REMARK SMILES IDX 29 58 30 59 34 60 31 61 33 62 32 63 51 64 52 65 56 66 53 67
REMARK SMILES IDX 55 68 54 69 41 70 42 71 46 72 43 73 45 74 44 75
REMARK H PARENT 13 6 17 24 61 43 39 54
REMARK Flexibility Score: inf
ROOT
ATOM      1  C   UNL A   1      44.597  18.549  25.187  1.00  0.00     0.042 C 
ENDROOT
BRANCH   1   2
ATOM      2  C   UNL A   1      45.462  19.760  24.852  1.00  0.00     0.117 C 
BRANCH   2   3
ATOM      3  N   UNL A   1      44.752  20.746  24.053  1.00  0.00    -0.356 N 
ATOM      4  C   UNL A   1      44.868  22.094  23.956  1.00  0.00     0.225 C 
ATOM      5  O   UNL A   1      44.122  22.665  23.157  1.00  0.00    -0.275 OA
ATOM      6  H   UNL A   1      44.056  20.363  23.473  1.00  0.00     0.163 HD
BRANCH   4   7
ATOM      7  C   UNL A   1      45.862  22.903  24.764  1.00  0.00     0.107 C 
ATOM      8  N   UNL A   1      46.193  25.202  25.174  1.00  0.00    -0.312 N 
ATOM      9  C   UNL A   1      45.254  24.132  25.413  1.00  0.00     0.139 C 
ATOM     10  C   UNL A   1      47.221  24.829  24.311  1.00  0.00     0.227 C 
ATOM     11  C   UNL A   1      47.075  23.370  23.980  1.00  0.00     0.116 C 
ATOM     12  O   UNL A   1      48.145  25.509  23.886  1.00  0.00    -0.274 OA
BRANCH   8  13
ATOM     13  C   UNL A   1      46.030  26.497  25.727  1.00  0.00     0.045 A 
ATOM     14  C   UNL A   1      44.581  28.374  26.356  1.00  0.00     0.009 A 
ATOM     15  C   UNL A   1      45.708  29.095  26.753  1.00  0.00     0.015 A 
ATOM     16  C   UNL A   1      44.761  27.086  25.823  1.00  0.00     0.041 A 
ATOM     17  C   UNL A   1      46.979  28.526  26.660  1.00  0.00     0.003 A 
ATOM     18  C   UNL A   1      47.136  27.226  26.175  1.00  0.00     0.026 A 
BRANCH  14  19
ATOM     19  S   UNL A   1      42.896  28.970  26.466  1.00  0.00    -0.130 SA
ATOM     20  C   UNL A   1      41.959  27.779  25.474  1.00  0.00     0.091 C 
ENDBRANCH  14  19
ENDBRANCH   8  13
ENDBRANCH   4   7
ENDBRANCH   2   3
ENDBRANCH   1   2
BRANCH   1  21
ATOM     21  C   UNL A   1      43.593  18.782  26.311  1.00  0.00     0.118 C 
BRANCH  21  22
ATOM     22  N   UNL A   1      42.209  18.652  25.873  1.00  0.00    -0.352 N 
ATOM     23  C   UNL A   1      41.138  19.493  26.052  1.00  0.00     0.251 C 
ATOM     24  H   UNL A   1      42.011  17.830  25.369  1.00  0.00     0.163 HD
ATOM     25  O   UNL A   1      40.010  19.109  25.757  1.00  0.00    -0.269 OA
BRANCH  23  26
ATOM     26  C   UNL A   1      41.328  20.846  26.619  1.00  0.00     0.039 A 
ATOM     27  C   UNL A   1      41.140  21.034  27.991  1.00  0.00     0.014 A 
ATOM     28  C   UNL A   1      41.678  21.928  25.809  1.00  0.00     0.014 A 
ATOM     29  C   UNL A   1      41.389  22.285  28.561  1.00  0.00     0.010 A 
ATOM     30  C   UNL A   1      42.006  23.150  26.388  1.00  0.00     0.010 A 
ATOM     31  C   UNL A   1      41.872  23.341  27.771  1.00  0.00    -0.014 A 
BRANCH  31  32
ATOM     32  C   UNL A   1      42.273  24.638  28.376  1.00  0.00     0.031 A 
ATOM     33  C   UNL A   1      41.274  25.751  28.527  1.00  0.00     0.074 A 
ATOM     34  C   UNL A   1      43.561  24.838  28.721  1.00  0.00     0.049 A 
ATOM     35  N   UNL A   1      41.460  26.972  28.961  1.00  0.00    -0.248 NA
ATOM     36  C   UNL A   1      39.891  25.463  28.114  1.00  0.00     0.031 C 
ATOM     37  C   UNL A   1      44.637  23.853  28.594  1.00  0.00     0.029 A 
ATOM     38  N   UNL A   1      44.186  25.944  29.242  1.00  0.00    -0.354 N 
ATOM     39  C   UNL A   1      40.225  27.601  28.860  1.00  0.00     0.074 A 
ATOM     40  C   UNL A   1      39.311  26.643  28.278  1.00  0.00     0.031 C 
ATOM     41  C   UNL A   1      45.781  24.388  29.049  1.00  0.00     0.029 A 
ATOM     42  C   UNL A   1      45.533  25.768  29.451  1.00  0.00     0.049 A 
ATOM     43  H   UNL A   1      43.714  26.784  29.445  1.00  0.00     0.167 HD
ATOM     44  C   UNL A   1      39.878  28.856  29.234  1.00  0.00     0.031 A 
ATOM     45  C   UNL A   1      46.469  26.624  29.903  1.00  0.00     0.031 A 
ATOM     46  C   UNL A   1      40.788  29.809  29.812  1.00  0.00     0.049 A 
ATOM     47  C   UNL A   1      46.066  28.025  30.271  1.00  0.00     0.074 A 
ATOM     48  C   UNL A   1      40.519  31.087  30.273  1.00  0.00     0.029 A 
ATOM     49  N   UNL A   1      42.145  29.593  30.001  1.00  0.00    -0.354 N 
ATOM     50  N   UNL A   1      44.879  28.580  30.238  1.00  0.00    -0.248 NA
ATOM     51  C   UNL A   1      47.134  28.917  30.746  1.00  0.00     0.031 C 
ATOM     52  C   UNL A   1      41.725  31.667  30.679  1.00  0.00     0.029 A 
ATOM     53  C   UNL A   1      42.732  30.727  30.536  1.00  0.00     0.049 A 
ATOM     54  H   UNL A   1      42.620  28.758  29.784  1.00  0.00     0.167 HD
ATOM     55  C   UNL A   1      45.052  29.873  30.713  1.00  0.00     0.074 A 
ATOM     56  C   UNL A   1      46.454  30.015  31.045  1.00  0.00     0.031 C 
ATOM     57  C   UNL A   1      44.130  30.857  30.860  1.00  0.00     0.031 A 
BRANCH  44  58
ATOM     58  C   UNL A   1      38.450  29.277  29.014  1.00  0.00    -0.014 A 
ATOM     59  C   UNL A   1      37.513  29.254  30.060  1.00  0.00     0.009 A 
ATOM     60  C   UNL A   1      38.047  29.746  27.754  1.00  0.00     0.009 A 
ATOM     61  C   UNL A   1      36.193  29.653  29.837  1.00  0.00     0.001 A 
ATOM     62  C   UNL A   1      36.735  30.176  27.543  1.00  0.00     0.001 A 
ATOM     63  C   UNL A   1      35.807  30.118  28.581  1.00  0.00     0.000 A 
ENDBRANCH  44  58
BRANCH  45  64
ATOM     64  C   UNL A   1      47.884  26.184  30.032  1.00  0.00    -0.014 A 
ATOM     65  C   UNL A   1      48.756  26.254  28.934  1.00  0.00     0.009 A 
ATOM     66  C   UNL A   1      48.368  25.681  31.250  1.00  0.00     0.009 A 
ATOM     67  C   UNL A   1      50.073  25.803  29.047  1.00  0.00     0.001 A 
ATOM     68  C   UNL A   1      49.695  25.264  31.369  1.00  0.00     0.001 A 
ATOM     69  C   UNL A   1      50.543  25.314  30.264  1.00  0.00     0.000 A 
ENDBRANCH  45  64
BRANCH  57  70
ATOM     70  C   UNL A   1      44.601  32.163  31.436  1.00  0.00    -0.014 A 
ATOM     71  C   UNL A   1      44.655  32.374  32.823  1.00  0.00     0.009 A 
ATOM     72  C   UNL A   1      45.043  33.182  30.577  1.00  0.00     0.009 A 
ATOM     73  C   UNL A   1      45.111  33.590  33.335  1.00  0.00     0.001 A 
ATOM     74  C   UNL A   1      45.529  34.384  31.092  1.00  0.00     0.001 A 
ATOM     75  C   UNL A   1      45.554  34.591  32.470  1.00  0.00     0.000 A 
ENDBRANCH  57  70
ENDBRANCH  31  32
ENDBRANCH  23  26
ENDBRANCH  21  22
ENDBRANCH   1  21
TORSDOF 12
ENDMDL
MODEL 2
REMARK VINA RESULT:      -9.5      1.065      6.242
REMARK SMILES CSc1cccc(N2C[C@@H](C(=O)NCCCNC(=O)c3ccc(-c4c5nc(c(-c6ccccc6)c6ccc([nH]6)c(-c6ccccc6)c6nc(c(-c7ccccc7)c7ccc4[nH]7)C=C6)C=C5)cc3)CC2=O)c1
REMARK SMILES IDX 15 1 14 2 13 3 11 4 12 5 10 7 8 8 9 9 69 10 68 11 70 12 7 13
REMARK SMILES IDX 3 14 4 15 71 16 5 17 6 18 2 19 1 20 16 21 17 22 18 23 19 25
REMARK SMILES IDX 20 26 21 27 67 28 22 29 66 30 23 31 24 32 25 33 60 34 26 35
REMARK SMILES IDX 65 36 59 37 61 38 27 39 64 40 58 41 57 42 28 44 50 45 35 46
REMARK SMILES IDX 49 47 36 48 39 49 48 50 62 51 37 52 38 53 47 55 63 56 40 57
REMARK SMILES IDX 29 58 30 59 34 60 31 61 33 62 32 63 51 64 52 65 56 66 53 67
REMARK SMILES IDX 55 68 54 69 41 70 42 71 46 72 43 73 45 74 44 75
REMARK H PARENT 13 6 17 24 61 43 39 54
REMARK Flexibility Score: inf
ROOT
ATOM      1  C   UNL A   1      44.767  20.021  24.812  1.00  0.00     0.042 C 
ENDROOT
BRANCH   1   2
ATOM      2  C   UNL A   1      45.975  20.823  25.290  1.00  0.00     0.117 C 
BRANCH   2   3
ATOM      3  N   UNL A   1      46.410  21.806  24.312  1.00  0.00    -0.356 N 
ATOM      4  C   UNL A   1      46.538  23.156  24.372  1.00  0.00     0.225 C 
ATOM      5  O   UNL A   1      46.963  23.724  23.363  1.00  0.00    -0.275 OA
ATOM      6  H   UNL A   1      46.661  21.421  23.442  1.00  0.00     0.163 HD
BRANCH   4   7
ATOM      7  C   UNL A   1      46.198  23.968  25.604  1.00  0.00     0.107 C 
ATOM      8  N   UNL A   1      45.382  26.148  25.986  1.00  0.00    -0.312 N 
ATOM      9  C   UNL A   1      45.000  24.879  25.415  1.00  0.00     0.139 C 
ATOM     10  C   UNL A   1      46.727  26.188  26.349  1.00  0.00     0.227 C 
ATOM     11  C   UNL A   1      47.335  24.833  26.119  1.00  0.00     0.116 C 
ATOM     12  O   UNL A   1      47.362  27.121  26.823  1.00  0.00    -0.274 OA
BRANCH   8  13
ATOM     13  C   UNL A   1      44.480  27.236  26.101  1.00  0.00     0.045 A 
ATOM     14  C   UNL A   1      43.965  29.496  26.904  1.00  0.00     0.009 A 
ATOM     15  C   UNL A   1      42.671  29.367  26.398  1.00  0.00     0.015 A 
ATOM     16  C   UNL A   1      44.850  28.412  26.769  1.00  0.00     0.041 A 
ATOM     17  C   UNL A   1      42.285  28.202  25.734  1.00  0.00     0.003 A 
ATOM     18  C   UNL A   1      43.192  27.154  25.564  1.00  0.00     0.026 A 
BRANCH  14  19
ATOM     19  S   UNL A   1      44.598  30.952  27.733  1.00  0.00    -0.130 SA
ATOM     20  C   UNL A   1      43.944  32.321  26.743  1.00  0.00     0.091 C 
ENDBRANCH  14  19
ENDBRANCH   8  13
ENDBRANCH   4   7
ENDBRANCH   2   3
ENDBRANCH   1   2
BRANCH   1  21
ATOM     21  C   UNL A   1      44.112  19.165  25.891  1.00  0.00     0.118 C 
BRANCH  21  22
ATOM     22  N   UNL A   1      42.711  18.875  25.614  1.00  0.00    -0.352 N 
ATOM     23  C   UNL A   1      41.577  19.579  25.939  1.00  0.00     0.251 C 
ATOM     24  H   UNL A   1      42.552  18.041  25.115  1.00  0.00     0.163 HD
ATOM     25  O   UNL A   1      40.475  19.066  25.767  1.00  0.00    -0.269 OA
BRANCH  23  26
ATOM     26  C   UNL A   1      41.673  20.938  26.516  1.00  0.00     0.039 A 
ATOM     27  C   UNL A   1      41.482  21.101  27.890  1.00  0.00     0.014 A 
ATOM     28  C   UNL A   1      41.938  22.048  25.711  1.00  0.00     0.014 A 
ATOM     29  C   UNL A   1      41.644  22.363  28.468  1.00  0.00     0.010 A 
ATOM     30  C   UNL A   1      42.181  23.287  26.298  1.00  0.00     0.010 A 
ATOM     31  C   UNL A   1      42.044  23.457  27.683  1.00  0.00    -0.014 A 
BRANCH  31  32
ATOM     32  C   UNL A   1      42.354  24.775  28.296  1.00  0.00     0.031 A 
ATOM     33  C   UNL A   1      43.709  25.040  28.893  1.00  0.00     0.074 A 
ATOM     34  C   UNL A   1      41.387  25.711  28.381  1.00  0.00     0.049 A 
ATOM     35  N   UNL A   1      44.135  26.099  29.534  1.00  0.00    -0.248 NA
ATOM     36  C   UNL A   1      44.708  23.965  28.775  1.00  0.00     0.031 C 
ATOM     37  C   UNL A   1      40.021  25.568  27.873  1.00  0.00     0.029 A 
ATOM     38  N   UNL A   1      41.404  26.966  28.935  1.00  0.00    -0.354 N 
ATOM     39  C   UNL A   1      45.442  25.813  29.908  1.00  0.00     0.074 A 
ATOM     40  C   UNL A   1      45.722  24.465  29.467  1.00  0.00     0.031 C 
ATOM     41  C   UNL A   1      39.341  26.700  28.114  1.00  0.00     0.029 A 
ATOM     42  C   UNL A   1      40.203  27.627  28.839  1.00  0.00     0.049 A 
ATOM     43  H   UNL A   1      42.201  27.357  29.363  1.00  0.00     0.167 HD
ATOM     44  C   UNL A   1      46.335  26.608  30.546  1.00  0.00     0.031 A 
ATOM     45  C   UNL A   1      39.829  28.838  29.294  1.00  0.00     0.031 A 
ATOM     46  C   UNL A   1      46.055  27.949  30.986  1.00  0.00     0.049 A 
ATOM     47  C   UNL A   1      40.826  29.683  30.036  1.00  0.00     0.074 A 
ATOM     48  C   UNL A   1      46.912  28.852  31.594  1.00  0.00     0.029 A 
ATOM     49  N   UNL A   1      44.824  28.577  30.875  1.00  0.00    -0.354 N 
ATOM     50  N   UNL A   1      42.081  29.427  30.317  1.00  0.00    -0.248 NA
ATOM     51  C   UNL A   1      40.357  30.990  30.519  1.00  0.00     0.031 C 
ATOM     52  C   UNL A   1      46.181  30.002  31.909  1.00  0.00     0.029 A 
ATOM     53  C   UNL A   1      44.889  29.842  31.436  1.00  0.00     0.049 A 
ATOM     54  H   UNL A   1      44.024  28.182  30.461  1.00  0.00     0.167 HD
ATOM     55  C   UNL A   1      42.557  30.548  30.983  1.00  0.00     0.074 A 
ATOM     56  C   UNL A   1      41.463  31.494  31.048  1.00  0.00     0.031 C 
ATOM     57  C   UNL A   1      43.792  30.774  31.497  1.00  0.00     0.031 A 
BRANCH  44  58
ATOM     58  C   UNL A   1      47.700  26.037  30.821  1.00  0.00    -0.014 A 
ATOM     59  C   UNL A   1      48.683  25.982  29.819  1.00  0.00     0.009 A 
ATOM     60  C   UNL A   1      48.023  25.590  32.111  1.00  0.00     0.009 A 
ATOM     61  C   UNL A   1      49.946  25.453  30.095  1.00  0.00     0.001 A 
ATOM     62  C   UNL A   1      49.297  25.092  32.393  1.00  0.00     0.001 A 
ATOM     63  C   UNL A   1      50.253  25.014  31.382  1.00  0.00     0.000 A 
ENDBRANCH  44  58
BRANCH  45  64
ATOM     64  C   UNL A   1      38.443  29.328  29.063  1.00  0.00    -0.014 A 
ATOM     65  C   UNL A   1      38.086  29.904  27.834  1.00  0.00     0.009 A 
ATOM     66  C   UNL A   1      37.474  29.233  30.073  1.00  0.00     0.009 A 
ATOM     67  C   UNL A   1      36.796  30.399  27.633  1.00  0.00     0.001 A 
ATOM     68  C   UNL A   1      36.175  29.697  29.857  1.00  0.00     0.001 A 
ATOM     69  C   UNL A   1      35.840  30.291  28.642  1.00  0.00     0.000 A 
ENDBRANCH  45  64
BRANCH  57  70
ATOM     70  C   UNL A   1      44.037  32.109  32.143  1.00  0.00    -0.014 A 
ATOM     71  C   UNL A   1      43.834  32.304  33.518  1.00  0.00     0.009 A 
ATOM     72  C   UNL A   1      44.526  33.174  31.372  1.00  0.00     0.009 A 
ATOM     73  C   UNL A   1      44.085  33.548  34.099  1.00  0.00     0.001 A 
ATOM     74  C   UNL A   1      44.808  34.408  31.960  1.00  0.00     0.001 A 
ATOM     75  C   UNL A   1      44.578  34.596  33.322  1.00  0.00     0.000 A 
ENDBRANCH  57  70
ENDBRANCH  31  32
ENDBRANCH  23  26
ENDBRANCH  21  22
ENDBRANCH   1  21
TORSDOF 12
ENDMDL
MODEL 3
REMARK VINA RESULT:      -9.2      4.666      9.635
REMARK SMILES CSc1cccc(N2C[C@@H](C(=O)NCCCNC(=O)c3ccc(-c4c5nc(c(-c6ccccc6)c6ccc([nH]6)c(-c6ccccc6)c6nc(c(-c7ccccc7)c7ccc4[nH]7)C=C6)C=C5)cc3)CC2=O)c1
REMARK SMILES IDX 15 1 14 2 13 3 11 4 12 5 10 7 8 8 9 9 69 10 68 11 70 12 7 13
REMARK SMILES IDX 3 14 4 15 71 16 5 17 6 18 2 19 1 20 16 21 17 22 18 23 19 25
REMARK SMILES IDX 20 26 21 27 67 28 22 29 66 30 23 31 24 32 25 33 60 34 26 35
REMARK SMILES IDX 65 36 59 37 61 38 27 39 64 40 58 41 57 42 28 44 50 45 35 46
REMARK SMILES IDX 49 47 36 48 39 49 48 50 62 51 37 52 38 53 47 55 63 56 40 57
REMARK SMILES IDX 29 58 30 59 34 60 31 61 33 62 32 63 51 64 52 65 56 66 53 67
REMARK SMILES IDX 55 68 54 69 41 70 42 71 46 72 43 73 45 74 44 75
REMARK H PARENT 13 6 17 24 61 43 39 54
REMARK Flexibility Score: inf
ROOT
ATOM      1  C   UNL A   1      33.797  28.347  26.009  1.00  0.00     0.042 C 
ENDROOT
BRANCH   1   2
ATOM      2  C   UNL A   1      33.010  29.084  24.930  1.00  0.00     0.117 C 
BRANCH   2   3
ATOM      3  N   UNL A   1      33.649  29.008  23.626  1.00  0.00    -0.356 N 
ATOM      4  C   UNL A   1      33.733  28.010  22.711  1.00  0.00     0.225 C 
ATOM      5  O   UNL A   1      34.338  28.258  21.665  1.00  0.00    -0.275 OA
ATOM      6  H   UNL A   1      34.106  29.835  23.356  1.00  0.00     0.163 HD
BRANCH   4   7
ATOM      7  C   UNL A   1      33.117  26.641  22.915  1.00  0.00     0.107 C 
ATOM      8  N   UNL A   1      33.962  24.447  23.100  1.00  0.00    -0.312 N 
ATOM      9  C   UNL A   1      33.960  25.721  23.777  1.00  0.00     0.139 C 
ATOM     10  C   UNL A   1      33.370  24.510  21.841  1.00  0.00     0.227 C 
ATOM     11  C   UNL A   1      32.816  25.891  21.630  1.00  0.00     0.116 C 
ATOM     12  O   UNL A   1      33.246  23.619  21.011  1.00  0.00    -0.274 OA
BRANCH   8  13
ATOM     13  C   UNL A   1      34.559  23.288  23.657  1.00  0.00     0.045 A 
ATOM     14  C   UNL A   1      34.346  21.117  24.781  1.00  0.00     0.009 A 
ATOM     15  C   UNL A   1      35.738  21.022  24.831  1.00  0.00     0.015 A 
ATOM     16  C   UNL A   1      33.773  22.268  24.212  1.00  0.00     0.041 A 
ATOM     17  C   UNL A   1      36.535  22.029  24.288  1.00  0.00     0.003 A 
ATOM     18  C   UNL A   1      35.949  23.143  23.681  1.00  0.00     0.026 A 
BRANCH  14  19
ATOM     19  S   UNL A   1      33.214  19.875  25.399  1.00  0.00    -0.130 SA
ATOM     20  C   UNL A   1      32.551  19.119  23.893  1.00  0.00     0.091 C 
ENDBRANCH  14  19
ENDBRANCH   8  13
ENDBRANCH   4   7
ENDBRANCH   2   3
ENDBRANCH   1   2
BRANCH   1  21
ATOM     21  C   UNL A   1      33.388  28.694  27.437  1.00  0.00     0.118 C 
BRANCH  21  22
ATOM     22  N   UNL A   1      33.497  30.117  27.729  1.00  0.00    -0.352 N 
ATOM     23  C   UNL A   1      34.534  30.836  28.273  1.00  0.00     0.251 C 
ATOM     24  H   UNL A   1      32.700  30.648  27.501  1.00  0.00     0.163 HD
ATOM     25  O   UNL A   1      34.354  32.004  28.604  1.00  0.00    -0.269 OA
BRANCH  23  26
ATOM     26  C   UNL A   1      35.857  30.208  28.484  1.00  0.00     0.039 A 
ATOM     27  C   UNL A   1      36.779  30.209  27.435  1.00  0.00     0.014 A 
ATOM     28  C   UNL A   1      36.188  29.612  29.703  1.00  0.00     0.014 A 
ATOM     29  C   UNL A   1      38.061  29.691  27.636  1.00  0.00     0.010 A 
ATOM     30  C   UNL A   1      37.489  29.172  29.929  1.00  0.00     0.010 A 
ATOM     31  C   UNL A   1      38.442  29.214  28.901  1.00  0.00    -0.014 A 
BRANCH  31  32
ATOM     32  C   UNL A   1      39.839  28.785  29.176  1.00  0.00     0.031 A 
ATOM     33  C   UNL A   1      40.815  29.731  29.817  1.00  0.00     0.074 A 
ATOM     34  C   UNL A   1      40.247  27.563  28.778  1.00  0.00     0.049 A 
ATOM     35  N   UNL A   1      42.090  29.559  30.065  1.00  0.00    -0.248 NA
ATOM     36  C   UNL A   1      40.300  31.053  30.210  1.00  0.00     0.031 C 
ATOM     37  C   UNL A   1      39.410  26.562  28.114  1.00  0.00     0.029 A 
ATOM     38  N   UNL A   1      41.476  26.958  28.867  1.00  0.00    -0.354 N 
ATOM     39  C   UNL A   1      42.530  30.750  30.626  1.00  0.00     0.074 A 
ATOM     40  C   UNL A   1      41.401  31.654  30.638  1.00  0.00     0.031 C 
ATOM     41  C   UNL A   1      40.140  25.461  27.881  1.00  0.00     0.029 A 
ATOM     42  C   UNL A   1      41.509  25.694  28.330  1.00  0.00     0.049 A 
ATOM     43  H   UNL A   1      42.262  27.391  29.276  1.00  0.00     0.167 HD
ATOM     44  C   UNL A   1      43.759  31.060  31.106  1.00  0.00     0.031 A 
ATOM     45  C   UNL A   1      42.527  24.823  28.198  1.00  0.00     0.031 A 
ATOM     46  C   UNL A   1      44.882  30.161  31.093  1.00  0.00     0.049 A 
ATOM     47  C   UNL A   1      43.891  25.207  28.700  1.00  0.00     0.074 A 
ATOM     48  C   UNL A   1      46.153  30.363  31.605  1.00  0.00     0.029 A 
ATOM     49  N   UNL A   1      44.874  28.892  30.534  1.00  0.00    -0.354 N 
ATOM     50  N   UNL A   1      44.273  26.310  29.295  1.00  0.00    -0.248 NA
ATOM     51  C   UNL A   1      44.965  24.220  28.518  1.00  0.00     0.031 C 
ATOM     52  C   UNL A   1      46.932  29.243  31.296  1.00  0.00     0.029 A 
ATOM     53  C   UNL A   1      46.127  28.315  30.654  1.00  0.00     0.049 A 
ATOM     54  H   UNL A   1      44.093  28.465  30.112  1.00  0.00     0.167 HD
ATOM     55  C   UNL A   1      45.620  26.140  29.582  1.00  0.00     0.074 A 
ATOM     56  C   UNL A   1      45.985  24.819  29.114  1.00  0.00     0.031 C 
ATOM     57  C   UNL A   1      46.480  27.001  30.181  1.00  0.00     0.031 A 
BRANCH  44  58
ATOM     58  C   UNL A   1      43.957  32.439  31.673  1.00  0.00    -0.014 A 
ATOM     59  C   UNL A   1      44.354  33.512  30.859  1.00  0.00     0.009 A 
ATOM     60  C   UNL A   1      43.699  32.679  33.031  1.00  0.00     0.009 A 
ATOM     61  C   UNL A   1      44.528  34.787  31.403  1.00  0.00     0.001 A 
ATOM     62  C   UNL A   1      43.842  33.962  33.566  1.00  0.00     0.001 A 
ATOM     63  C   UNL A   1      44.267  35.011  32.754  1.00  0.00     0.000 A 
ENDBRANCH  44  58
BRANCH  45  64
ATOM     64  C   UNL A   1      42.299  23.498  27.561  1.00  0.00    -0.014 A 
ATOM     65  C   UNL A   1      41.848  22.409  28.322  1.00  0.00     0.009 A 
ATOM     66  C   UNL A   1      42.541  23.313  26.190  1.00  0.00     0.009 A 
ATOM     67  C   UNL A   1      41.672  21.156  27.730  1.00  0.00     0.001 A 
ATOM     68  C   UNL A   1      42.331  22.068  25.595  1.00  0.00     0.001 A 
ATOM     69  C   UNL A   1      41.908  20.987  26.367  1.00  0.00     0.000 A 
ENDBRANCH  45  64
BRANCH  57  70
ATOM     70  C   UNL A   1      47.891  26.531  30.396  1.00  0.00    -0.014 A 
ATOM     71  C   UNL A   1      48.919  26.867  29.501  1.00  0.00     0.009 A 
ATOM     72  C   UNL A   1      48.206  25.779  31.539  1.00  0.00     0.009 A 
ATOM     73  C   UNL A   1      50.225  26.433  29.730  1.00  0.00     0.001 A 
ATOM     74  C   UNL A   1      49.519  25.374  31.783  1.00  0.00     0.001 A 
ATOM     75  C   UNL A   1      50.526  25.693  30.873  1.00  0.00     0.000 A 
ENDBRANCH  57  70
ENDBRANCH  31  32
ENDBRANCH  23  26
ENDBRANCH  21  22
ENDBRANCH   1  21
TORSDOF 12
ENDMDL
