MODEL 1
REMARK VINA RESULT:     -12.8      0.000      0.000
REMARK SMILES Cc1ccc(-c2cc(Cl)cc3c2O[C@H](C(F)(F)F)C(C(=O)NCCCNC(=O)c2ccc(-c4c5nc(c(-c6ccccc6)c6ccc([nH]6)c(-c6ccccc6)c6nc(c(-c7ccccc7)c7ccc4[nH]7)C=C6)C=C5)cc2)=C3)cc1F
REMARK SMILES IDX 24 1 23 2 22 3 20 4 21 5 19 7 6 8 7 9 12 10 8 11 11 12 13 13
REMARK SMILES IDX 9 14 10 15 77 16 14 17 5 18 1 19 2 20 3 21 79 22 4 23 78 24
REMARK SMILES IDX 80 25 15 26 16 27 17 28 18 29 25 30 26 31 27 32 28 34 29 35
REMARK SMILES IDX 30 36 76 37 31 38 75 39 32 40 33 41 34 42 69 43 35 44 74 45
REMARK SMILES IDX 68 46 70 47 36 48 73 49 67 50 66 51 37 53 59 54 44 55 58 56
REMARK SMILES IDX 45 57 48 58 57 59 71 60 46 61 47 62 56 64 72 65 49 66 38 67
REMARK SMILES IDX 39 68 43 69 40 70 42 71 41 72 60 73 61 74 65 75 62 76 64 77
REMARK SMILES IDX 63 78 50 79 51 80 55 81 52 82 54 83 53 84
REMARK H PARENT 22 6 26 33 70 52 48 63
REMARK Flexibility Score: inf
ROOT
ATOM      1  C   UNL A   1      31.399  31.982  26.487  1.00  0.00     0.042 C 
ENDROOT
BRANCH   1   2
ATOM      2  C   UNL A   1      31.429  30.479  26.270  1.00  0.00     0.118 C 
BRANCH   2   3
ATOM      3  N   UNL A   1      31.216  30.126  24.873  1.00  0.00    -0.352 N 
ATOM      4  C   UNL A   1      31.275  29.007  24.112  1.00  0.00     0.251 C 
ATOM      5  O   UNL A   1      30.999  29.164  22.919  1.00  0.00    -0.270 OA
ATOM      6  H   UNL A   1      30.961  30.911  24.338  1.00  0.00     0.163 HD
BRANCH   4   7
ATOM      7  C   UNL A   1      31.644  27.654  24.613  1.00  0.00     0.067 C 
ATOM      8  C   UNL A   1      32.607  23.742  25.821  1.00  0.00     0.026 A 
ATOM      9  C   UNL A   1      31.629  22.972  26.465  1.00  0.00     0.033 A 
ATOM     10  C   UNL A   1      32.240  25.019  25.359  1.00  0.00     0.135 A 
ATOM     11  C   UNL A   1      30.337  23.476  26.640  1.00  0.00     0.042 A 
ATOM     12  C   UNL A   1      30.951  25.534  25.542  1.00  0.00     0.019 A 
ATOM     13  O   UNL A   1      33.184  25.719  24.653  1.00  0.00    -0.475 OA
ATOM     14  Cl  UNL A   1      29.150  22.508  27.425  1.00  0.00    -0.084 Cl
ATOM     15  C   UNL A   1      29.993  24.750  26.185  1.00  0.00     0.032 A 
ATOM     16  C   UNL A   1      30.634  26.864  25.027  1.00  0.00     0.025 C 
ATOM     17  C   UNL A   1      33.057  27.158  24.685  1.00  0.00     0.314 C 
BRANCH   8  18
ATOM     18  C   UNL A   1      33.981  23.244  25.641  1.00  0.00    -0.012 A 
ATOM     19  C   UNL A   1      37.979  21.602  25.413  1.00  0.00     0.047 C 
ATOM     20  C   UNL A   1      36.605  22.195  25.477  1.00  0.00    -0.015 A 
ATOM     21  C   UNL A   1      36.387  23.490  25.959  1.00  0.00     0.007 A 
ATOM     22  C   UNL A   1      35.505  21.442  25.066  1.00  0.00     0.126 A 
ATOM     23  C   UNL A   1      35.089  24.009  26.037  1.00  0.00     0.009 A 
ATOM     24  C   UNL A   1      34.212  21.954  25.135  1.00  0.00     0.048 A 
ATOM     25  F   UNL A   1      35.682  20.194  24.611  1.00  0.00    -0.207 F 
ENDBRANCH   8  18
BRANCH  17  26
ATOM     26  C   UNL A   1      33.835  27.725  25.890  1.00  0.00     0.429 C 
ATOM     27  F   UNL A   1      34.902  26.938  26.174  1.00  0.00    -0.167 F 
ATOM     28  F   UNL A   1      34.322  28.967  25.657  1.00  0.00    -0.167 F 
ATOM     29  F   UNL A   1      33.081  27.805  27.009  1.00  0.00    -0.167 F 
ENDBRANCH  17  26
ENDBRANCH   4   7
ENDBRANCH   2   3
ENDBRANCH   1   2
BRANCH   1  30
ATOM     30  C   UNL A   1      32.656  32.480  27.183  1.00  0.00     0.118 C 
BRANCH  30  31
ATOM     31  N   UNL A   1      32.519  33.861  27.647  1.00  0.00    -0.352 N 
ATOM     32  C   UNL A   1      33.206  34.561  28.608  1.00  0.00     0.251 C 
ATOM     33  H   UNL A   1      31.813  34.376  27.194  1.00  0.00     0.163 HD
ATOM     34  O   UNL A   1      32.771  35.640  29.002  1.00  0.00    -0.269 OA
BRANCH  32  35
ATOM     35  C   UNL A   1      34.454  34.016  29.177  1.00  0.00     0.039 A 
ATOM     36  C   UNL A   1      35.674  34.270  28.558  1.00  0.00     0.014 A 
ATOM     37  C   UNL A   1      34.411  33.247  30.343  1.00  0.00     0.014 A 
ATOM     38  C   UNL A   1      36.804  33.578  28.960  1.00  0.00     0.010 A 
ATOM     39  C   UNL A   1      35.584  32.664  30.835  1.00  0.00     0.010 A 
ATOM     40  C   UNL A   1      36.782  32.780  30.115  1.00  0.00    -0.014 A 
BRANCH  40  41
ATOM     41  C   UNL A   1      38.043  32.120  30.539  1.00  0.00     0.031 A 
ATOM     42  C   UNL A   1      38.510  30.843  29.894  1.00  0.00     0.074 A 
ATOM     43  C   UNL A   1      38.814  32.737  31.459  1.00  0.00     0.049 A 
ATOM     44  N   UNL A   1      39.631  30.194  30.091  1.00  0.00    -0.248 NA
ATOM     45  C   UNL A   1      37.619  30.206  28.912  1.00  0.00     0.031 C 
ATOM     46  C   UNL A   1      38.458  33.977  32.157  1.00  0.00     0.029 A 
ATOM     47  N   UNL A   1      40.066  32.440  31.932  1.00  0.00    -0.354 N 
ATOM     48  C   UNL A   1      39.568  29.069  29.279  1.00  0.00     0.074 A 
ATOM     49  C   UNL A   1      38.290  29.102  28.605  1.00  0.00     0.031 C 
ATOM     50  C   UNL A   1      39.497  34.376  32.903  1.00  0.00     0.029 A 
ATOM     51  C   UNL A   1      40.556  33.379  32.810  1.00  0.00     0.049 A 
ATOM     52  H   UNL A   1      40.566  31.635  31.669  1.00  0.00     0.167 HD
ATOM     53  C   UNL A   1      40.502  28.105  29.102  1.00  0.00     0.031 A 
ATOM     54  C   UNL A   1      41.721  33.433  33.484  1.00  0.00     0.031 A 
ATOM     55  C   UNL A   1      41.784  28.092  29.757  1.00  0.00     0.049 A 
ATOM     56  C   UNL A   1      42.728  32.343  33.273  1.00  0.00     0.074 A 
ATOM     57  C   UNL A   1      42.809  27.174  29.606  1.00  0.00     0.029 A 
ATOM     58  N   UNL A   1      42.220  29.032  30.677  1.00  0.00    -0.354 N 
ATOM     59  N   UNL A   1      42.665  31.308  32.470  1.00  0.00    -0.248 NA
ATOM     60  C   UNL A   1      43.970  32.425  34.053  1.00  0.00     0.031 C 
ATOM     61  C   UNL A   1      43.834  27.516  30.489  1.00  0.00     0.029 A 
ATOM     62  C   UNL A   1      43.486  28.695  31.128  1.00  0.00     0.049 A 
ATOM     63  H   UNL A   1      41.708  29.822  30.965  1.00  0.00     0.167 HD
ATOM     64  C   UNL A   1      43.854  30.616  32.648  1.00  0.00     0.074 A 
ATOM     65  C   UNL A   1      44.641  31.375  33.599  1.00  0.00     0.031 C 
ATOM     66  C   UNL A   1      44.252  29.449  32.087  1.00  0.00     0.031 A 
BRANCH  53  67
ATOM     67  C   UNL A   1      40.197  26.967  28.167  1.00  0.00    -0.014 A 
ATOM     68  C   UNL A   1      39.522  25.834  28.651  1.00  0.00     0.009 A 
ATOM     69  C   UNL A   1      40.709  26.943  26.861  1.00  0.00     0.009 A 
ATOM     70  C   UNL A   1      39.396  24.690  27.862  1.00  0.00     0.001 A 
ATOM     71  C   UNL A   1      40.556  25.807  26.062  1.00  0.00     0.001 A 
ATOM     72  C   UNL A   1      39.914  24.676  26.569  1.00  0.00     0.000 A 
ENDBRANCH  53  67
BRANCH  54  73
ATOM     73  C   UNL A   1      41.968  34.556  34.429  1.00  0.00    -0.014 A 
ATOM     74  C   UNL A   1      41.623  34.428  35.786  1.00  0.00     0.009 A 
ATOM     75  C   UNL A   1      42.505  35.773  33.984  1.00  0.00     0.009 A 
ATOM     76  C   UNL A   1      41.776  35.498  36.667  1.00  0.00     0.001 A 
ATOM     77  C   UNL A   1      42.698  36.830  34.879  1.00  0.00     0.001 A 
ATOM     78  C   UNL A   1      42.322  36.696  36.215  1.00  0.00     0.000 A 
ENDBRANCH  54  73
BRANCH  66  79
ATOM     79  C   UNL A   1      45.595  28.905  32.489  1.00  0.00    -0.014 A 
ATOM     80  C   UNL A   1      46.744  29.263  31.765  1.00  0.00     0.009 A 
ATOM     81  C   UNL A   1      45.713  27.974  33.533  1.00  0.00     0.009 A 
ATOM     82  C   UNL A   1      47.981  28.691  32.070  1.00  0.00     0.001 A 
ATOM     83  C   UNL A   1      46.959  27.434  33.861  1.00  0.00     0.001 A 
ATOM     84  C   UNL A   1      48.088  27.784  33.123  1.00  0.00     0.000 A 
ENDBRANCH  66  79
ENDBRANCH  40  41
ENDBRANCH  32  35
ENDBRANCH  30  31
ENDBRANCH   1  30
TORSDOF 12
ENDMDL
MODEL 2
REMARK VINA RESULT:     -12.7      3.612      8.867
REMARK SMILES Cc1ccc(-c2cc(Cl)cc3c2O[C@H](C(F)(F)F)C(C(=O)NCCCNC(=O)c2ccc(-c4c5nc(c(-c6ccccc6)c6ccc([nH]6)c(-c6ccccc6)c6nc(c(-c7ccccc7)c7ccc4[nH]7)C=C6)C=C5)cc2)=C3)cc1F
REMARK SMILES IDX 24 1 23 2 22 3 20 4 21 5 19 7 6 8 7 9 12 10 8 11 11 12 13 13
REMARK SMILES IDX 9 14 10 15 77 16 14 17 5 18 1 19 2 20 3 21 79 22 4 23 78 24
REMARK SMILES IDX 80 25 15 26 16 27 17 28 18 29 25 30 26 31 27 32 28 34 29 35
REMARK SMILES IDX 30 36 76 37 31 38 75 39 32 40 33 41 34 42 69 43 35 44 74 45
REMARK SMILES IDX 68 46 70 47 36 48 73 49 67 50 66 51 37 53 59 54 44 55 58 56
REMARK SMILES IDX 45 57 48 58 57 59 71 60 46 61 47 62 56 64 72 65 49 66 38 67
REMARK SMILES IDX 39 68 43 69 40 70 42 71 41 72 60 73 61 74 65 75 62 76 64 77
REMARK SMILES IDX 63 78 50 79 51 80 55 81 52 82 54 83 53 84
REMARK H PARENT 22 6 26 33 70 52 48 63
REMARK Flexibility Score: inf
ROOT
ATOM      1  C   UNL A   1      37.772  19.556  25.004  1.00  0.00     0.042 C 
ENDROOT
BRANCH   1   2
ATOM      2  C   UNL A   1      36.751  20.608  24.607  1.00  0.00     0.118 C 
BRANCH   2   3
ATOM      3  N   UNL A   1      35.411  20.268  25.065  1.00  0.00    -0.352 N 
ATOM      4  C   UNL A   1      34.199  20.869  25.121  1.00  0.00     0.251 C 
ATOM      5  O   UNL A   1      33.291  20.184  25.602  1.00  0.00    -0.270 OA
ATOM      6  H   UNL A   1      35.377  19.355  25.433  1.00  0.00     0.163 HD
BRANCH   4   7
ATOM      7  C   UNL A   1      33.912  22.255  24.658  1.00  0.00     0.067 C 
ATOM      8  C   UNL A   1      32.870  26.119  23.365  1.00  0.00     0.026 A 
ATOM      9  C   UNL A   1      32.663  26.342  21.998  1.00  0.00     0.033 A 
ATOM     10  C   UNL A   1      33.143  24.804  23.783  1.00  0.00     0.135 A 
ATOM     11  C   UNL A   1      32.736  25.281  21.091  1.00  0.00     0.042 A 
ATOM     12  C   UNL A   1      33.230  23.739  22.878  1.00  0.00     0.019 A 
ATOM     13  O   UNL A   1      33.254  24.591  25.132  1.00  0.00    -0.475 OA
ATOM     14  Cl  UNL A   1      32.467  25.579  19.417  1.00  0.00    -0.084 Cl
ATOM     15  C   UNL A   1      33.020  23.984  21.521  1.00  0.00     0.032 A 
ATOM     16  C   UNL A   1      33.507  22.396  23.381  1.00  0.00     0.025 C 
ATOM     17  C   UNL A   1      34.068  23.464  25.529  1.00  0.00     0.314 C 
BRANCH   8  18
ATOM     18  C   UNL A   1      32.819  27.222  24.340  1.00  0.00    -0.012 A 
ATOM     19  C   UNL A   1      32.800  30.671  26.954  1.00  0.00     0.047 C 
ATOM     20  C   UNL A   1      32.811  29.459  26.074  1.00  0.00    -0.015 A 
ATOM     21  C   UNL A   1      33.843  28.517  26.135  1.00  0.00     0.007 A 
ATOM     22  C   UNL A   1      31.782  29.262  25.153  1.00  0.00     0.126 A 
ATOM     23  C   UNL A   1      33.845  27.410  25.279  1.00  0.00     0.009 A 
ATOM     24  C   UNL A   1      31.774  28.159  24.303  1.00  0.00     0.048 A 
ATOM     25  F   UNL A   1      30.785  30.154  25.063  1.00  0.00    -0.207 F 
ENDBRANCH   8  18
BRANCH  17  26
ATOM     26  C   UNL A   1      35.536  23.910  25.687  1.00  0.00     0.429 C 
ATOM     27  F   UNL A   1      35.595  25.191  26.128  1.00  0.00    -0.167 F 
ATOM     28  F   UNL A   1      36.213  23.160  26.589  1.00  0.00    -0.167 F 
ATOM     29  F   UNL A   1      36.230  23.847  24.529  1.00  0.00    -0.167 F 
ENDBRANCH  17  26
ENDBRANCH   4   7
ENDBRANCH   2   3
ENDBRANCH   1   2
BRANCH   1  30
ATOM     30  C   UNL A   1      38.947  20.161  25.756  1.00  0.00     0.118 C 
BRANCH  30  31
ATOM     31  N   UNL A   1      40.062  19.221  25.886  1.00  0.00    -0.352 N 
ATOM     32  C   UNL A   1      41.398  19.434  26.118  1.00  0.00     0.251 C 
ATOM     33  H   UNL A   1      39.810  18.274  25.791  1.00  0.00     0.163 HD
ATOM     34  O   UNL A   1      42.197  18.515  25.956  1.00  0.00    -0.269 OA
BRANCH  32  35
ATOM     35  C   UNL A   1      41.877  20.763  26.545  1.00  0.00     0.039 A 
ATOM     36  C   UNL A   1      41.886  21.102  27.895  1.00  0.00     0.014 A 
ATOM     37  C   UNL A   1      42.327  21.681  25.593  1.00  0.00     0.014 A 
ATOM     38  C   UNL A   1      42.119  22.414  28.270  1.00  0.00     0.010 A 
ATOM     39  C   UNL A   1      42.705  22.968  25.992  1.00  0.00     0.010 A 
ATOM     40  C   UNL A   1      42.551  23.362  27.329  1.00  0.00    -0.014 A 
BRANCH  40  41
ATOM     41  C   UNL A   1      42.856  24.737  27.803  1.00  0.00     0.031 A 
ATOM     42  C   UNL A   1      41.760  25.733  28.064  1.00  0.00     0.074 A 
ATOM     43  C   UNL A   1      44.138  25.050  28.082  1.00  0.00     0.049 A 
ATOM     44  N   UNL A   1      41.858  26.941  28.564  1.00  0.00    -0.248 NA
ATOM     45  C   UNL A   1      40.383  25.343  27.722  1.00  0.00     0.031 C 
ATOM     46  C   UNL A   1      45.286  24.164  27.862  1.00  0.00     0.029 A 
ATOM     47  N   UNL A   1      44.691  26.169  28.650  1.00  0.00    -0.354 N 
ATOM     48  C   UNL A   1      40.568  27.456  28.575  1.00  0.00     0.074 A 
ATOM     49  C   UNL A   1      39.703  26.446  28.007  1.00  0.00     0.031 C 
ATOM     50  C   UNL A   1      46.388  24.738  28.363  1.00  0.00     0.029 A 
ATOM     51  C   UNL A   1      46.047  26.066  28.857  1.00  0.00     0.049 A 
ATOM     52  H   UNL A   1      44.168  26.968  28.889  1.00  0.00     0.167 HD
ATOM     53  C   UNL A   1      40.145  28.657  29.033  1.00  0.00     0.031 A 
ATOM     54  C   UNL A   1      46.929  26.944  29.371  1.00  0.00     0.031 A 
ATOM     55  C   UNL A   1      41.009  29.646  29.622  1.00  0.00     0.049 A 
ATOM     56  C   UNL A   1      46.428  28.270  29.859  1.00  0.00     0.074 A 
ATOM     57  C   UNL A   1      40.659  30.878  30.151  1.00  0.00     0.029 A 
ATOM     58  N   UNL A   1      42.382  29.524  29.765  1.00  0.00    -0.354 N 
ATOM     59  N   UNL A   1      45.198  28.721  29.896  1.00  0.00    -0.248 NA
ATOM     60  C   UNL A   1      47.432  29.208  30.380  1.00  0.00     0.031 C 
ATOM     61  C   UNL A   1      41.828  31.531  30.545  1.00  0.00     0.029 A 
ATOM     62  C   UNL A   1      42.898  30.674  30.341  1.00  0.00     0.049 A 
ATOM     63  H   UNL A   1      42.911  28.739  29.498  1.00  0.00     0.167 HD
ATOM     64  C   UNL A   1      45.278  29.994  30.443  1.00  0.00     0.074 A 
ATOM     65  C   UNL A   1      46.671  30.224  30.767  1.00  0.00     0.031 C 
ATOM     66  C   UNL A   1      44.288  30.898  30.644  1.00  0.00     0.031 A 
BRANCH  53  67
ATOM     67  C   UNL A   1      38.684  28.997  28.928  1.00  0.00    -0.014 A 
ATOM     68  C   UNL A   1      38.195  29.599  27.757  1.00  0.00     0.009 A 
ATOM     69  C   UNL A   1      37.827  28.869  30.032  1.00  0.00     0.009 A 
ATOM     70  C   UNL A   1      36.892  30.097  27.703  1.00  0.00     0.001 A 
ATOM     71  C   UNL A   1      36.514  29.342  29.966  1.00  0.00     0.001 A 
ATOM     72  C   UNL A   1      36.054  29.970  28.808  1.00  0.00     0.000 A 
ENDBRANCH  53  67
BRANCH  54  73
ATOM     73  C   UNL A   1      48.373  26.584  29.423  1.00  0.00    -0.014 A 
ATOM     74  C   UNL A   1      48.900  25.936  30.554  1.00  0.00     0.009 A 
ATOM     75  C   UNL A   1      49.242  26.919  28.375  1.00  0.00     0.009 A 
ATOM     76  C   UNL A   1      50.264  25.663  30.652  1.00  0.00     0.001 A 
ATOM     77  C   UNL A   1      50.602  26.605  28.456  1.00  0.00     0.001 A 
ATOM     78  C   UNL A   1      51.113  25.990  29.598  1.00  0.00     0.000 A 
ENDBRANCH  54  73
BRANCH  66  79
ATOM     79  C   UNL A   1      44.668  32.229  31.232  1.00  0.00    -0.014 A 
ATOM     80  C   UNL A   1      44.624  32.421  32.623  1.00  0.00     0.009 A 
ATOM     81  C   UNL A   1      44.992  33.317  30.407  1.00  0.00     0.009 A 
ATOM     82  C   UNL A   1      44.883  33.677  33.174  1.00  0.00     0.001 A 
ATOM     83  C   UNL A   1      45.290  34.562  30.963  1.00  0.00     0.001 A 
ATOM     84  C   UNL A   1      45.224  34.744  32.344  1.00  0.00     0.000 A 
ENDBRANCH  66  79
ENDBRANCH  40  41
ENDBRANCH  32  35
ENDBRANCH  30  31
ENDBRANCH   1  30
TORSDOF 12
ENDMDL
MODEL 3
REMARK VINA RESULT:     -12.6      0.944      5.773
REMARK SMILES Cc1ccc(-c2cc(Cl)cc3c2O[C@H](C(F)(F)F)C(C(=O)NCCCNC(=O)c2ccc(-c4c5nc(c(-c6ccccc6)c6ccc([nH]6)c(-c6ccccc6)c6nc(c(-c7ccccc7)c7ccc4[nH]7)C=C6)C=C5)cc2)=C3)cc1F
REMARK SMILES IDX 24 1 23 2 22 3 20 4 21 5 19 7 6 8 7 9 12 10 8 11 11 12 13 13
REMARK SMILES IDX 9 14 10 15 77 16 14 17 5 18 1 19 2 20 3 21 79 22 4 23 78 24
REMARK SMILES IDX 80 25 15 26 16 27 17 28 18 29 25 30 26 31 27 32 28 34 29 35
REMARK SMILES IDX 30 36 76 37 31 38 75 39 32 40 33 41 34 42 69 43 35 44 74 45
REMARK SMILES IDX 68 46 70 47 36 48 73 49 67 50 66 51 37 53 59 54 44 55 58 56
REMARK SMILES IDX 45 57 48 58 57 59 71 60 46 61 47 62 56 64 72 65 49 66 38 67
REMARK SMILES IDX 39 68 43 69 40 70 42 71 41 72 60 73 61 74 65 75 62 76 64 77
REMARK SMILES IDX 63 78 50 79 51 80 55 81 52 82 54 83 53 84
REMARK H PARENT 22 6 26 33 70 52 48 63
REMARK Flexibility Score: inf
ROOT
ATOM      1  C   UNL A   1      31.409  31.970  26.489  1.00  0.00     0.042 C 
ENDROOT
BRANCH   1   2
ATOM      2  C   UNL A   1      31.531  30.474  26.254  1.00  0.00     0.118 C 
BRANCH   2   3
ATOM      3  N   UNL A   1      31.238  30.114  24.874  1.00  0.00    -0.352 N 
ATOM      4  C   UNL A   1      31.231  28.987  24.122  1.00  0.00     0.251 C 
ATOM      5  O   UNL A   1      30.898  29.140  22.944  1.00  0.00    -0.270 OA
ATOM      6  H   UNL A   1      30.974  30.901  24.345  1.00  0.00     0.163 HD
BRANCH   4   7
ATOM      7  C   UNL A   1      31.593  27.630  24.618  1.00  0.00     0.067 C 
ATOM      8  C   UNL A   1      32.531  23.707  25.811  1.00  0.00     0.026 A 
ATOM      9  C   UNL A   1      31.555  22.949  26.469  1.00  0.00     0.033 A 
ATOM     10  C   UNL A   1      32.171  24.989  25.354  1.00  0.00     0.135 A 
ATOM     11  C   UNL A   1      30.271  23.467  26.664  1.00  0.00     0.042 A 
ATOM     12  C   UNL A   1      30.891  25.518  25.557  1.00  0.00     0.019 A 
ATOM     13  O   UNL A   1      33.111  25.679  24.634  1.00  0.00    -0.475 OA
ATOM     14  Cl  UNL A   1      29.085  22.512  27.467  1.00  0.00    -0.084 Cl
ATOM     15  C   UNL A   1      29.934  24.745  26.215  1.00  0.00     0.032 A 
ATOM     16  C   UNL A   1      30.581  26.851  25.047  1.00  0.00     0.025 C 
ATOM     17  C   UNL A   1      33.001  27.119  24.668  1.00  0.00     0.314 C 
BRANCH   8  18
ATOM     18  C   UNL A   1      33.896  23.194  25.610  1.00  0.00    -0.012 A 
ATOM     19  C   UNL A   1      37.873  21.511  25.323  1.00  0.00     0.047 C 
ATOM     20  C   UNL A   1      36.506  22.118  25.407  1.00  0.00    -0.015 A 
ATOM     21  C   UNL A   1      36.310  23.418  25.883  1.00  0.00     0.007 A 
ATOM     22  C   UNL A   1      35.392  21.374  25.020  1.00  0.00     0.126 A 
ATOM     23  C   UNL A   1      35.019  23.951  25.982  1.00  0.00     0.009 A 
ATOM     24  C   UNL A   1      34.105  21.899  25.109  1.00  0.00     0.048 A 
ATOM     25  F   UNL A   1      35.548  20.121  24.570  1.00  0.00    -0.207 F 
ENDBRANCH   8  18
BRANCH  17  26
ATOM     26  C   UNL A   1      33.803  27.677  25.861  1.00  0.00     0.429 C 
ATOM     27  F   UNL A   1      34.853  26.866  26.143  1.00  0.00    -0.167 F 
ATOM     28  F   UNL A   1      34.320  28.904  25.613  1.00  0.00    -0.167 F 
ATOM     29  F   UNL A   1      33.062  27.786  26.986  1.00  0.00    -0.167 F 
ENDBRANCH  17  26
ENDBRANCH   4   7
ENDBRANCH   2   3
ENDBRANCH   1   2
BRANCH   1  30
ATOM     30  C   UNL A   1      32.616  32.530  27.225  1.00  0.00     0.118 C 
BRANCH  30  31
ATOM     31  N   UNL A   1      32.441  33.939  27.581  1.00  0.00    -0.352 N 
ATOM     32  C   UNL A   1      33.078  34.717  28.515  1.00  0.00     0.251 C 
ATOM     33  H   UNL A   1      31.749  34.407  27.062  1.00  0.00     0.163 HD
ATOM     34  O   UNL A   1      32.612  35.816  28.810  1.00  0.00    -0.269 OA
BRANCH  32  35
ATOM     35  C   UNL A   1      34.308  34.235  29.174  1.00  0.00     0.039 A 
ATOM     36  C   UNL A   1      35.555  34.546  28.640  1.00  0.00     0.014 A 
ATOM     37  C   UNL A   1      34.220  33.469  30.340  1.00  0.00     0.014 A 
ATOM     38  C   UNL A   1      36.685  33.911  29.125  1.00  0.00     0.010 A 
ATOM     39  C   UNL A   1      35.382  32.946  30.917  1.00  0.00     0.010 A 
ATOM     40  C   UNL A   1      36.620  33.117  30.281  1.00  0.00    -0.014 A 
BRANCH  40  41
ATOM     41  C   UNL A   1      37.879  32.520  30.798  1.00  0.00     0.031 A 
ATOM     42  C   UNL A   1      38.530  33.037  32.052  1.00  0.00     0.074 A 
ATOM     43  C   UNL A   1      38.384  31.441  30.166  1.00  0.00     0.049 A 
ATOM     44  N   UNL A   1      39.580  32.565  32.678  1.00  0.00    -0.248 NA
ATOM     45  C   UNL A   1      37.945  34.228  32.687  1.00  0.00     0.031 C 
ATOM     46  C   UNL A   1      37.840  30.856  28.936  1.00  0.00     0.029 A 
ATOM     47  N   UNL A   1      39.432  30.616  30.487  1.00  0.00    -0.354 N 
ATOM     48  C   UNL A   1      39.791  33.411  33.760  1.00  0.00     0.074 A 
ATOM     49  C   UNL A   1      38.781  34.443  33.695  1.00  0.00     0.031 C 
ATOM     50  C   UNL A   1      38.503  29.727  28.654  1.00  0.00     0.029 A 
ATOM     51  C   UNL A   1      39.575  29.553  29.626  1.00  0.00     0.049 A 
ATOM     52  H   UNL A   1      40.023  30.768  31.258  1.00  0.00     0.167 HD
ATOM     53  C   UNL A   1      40.734  33.321  34.727  1.00  0.00     0.031 A 
ATOM     54  C   UNL A   1      40.476  28.552  29.602  1.00  0.00     0.031 A 
ATOM     55  C   UNL A   1      41.720  32.275  34.800  1.00  0.00     0.049 A 
ATOM     56  C   UNL A   1      41.514  28.490  30.683  1.00  0.00     0.074 A 
ATOM     57  C   UNL A   1      42.690  32.083  35.769  1.00  0.00     0.029 A 
ATOM     58  N   UNL A   1      41.863  31.248  33.881  1.00  0.00    -0.354 N 
ATOM     59  N   UNL A   1      41.671  29.277  31.719  1.00  0.00    -0.248 NA
ATOM     60  C   UNL A   1      42.496  27.400  30.598  1.00  0.00     0.031 C 
ATOM     61  C   UNL A   1      43.467  30.986  35.397  1.00  0.00     0.029 A 
ATOM     62  C   UNL A   1      42.930  30.441  34.242  1.00  0.00     0.049 A 
ATOM     63  H   UNL A   1      41.293  31.112  33.090  1.00  0.00     0.167 HD
ATOM     64  C   UNL A   1      42.768  28.782  32.409  1.00  0.00     0.074 A 
ATOM     65  C   UNL A   1      43.207  27.597  31.701  1.00  0.00     0.031 C 
ATOM     66  C   UNL A   1      43.368  29.273  33.521  1.00  0.00     0.031 A 
BRANCH  53  67
ATOM     67  C   UNL A   1      40.769  34.374  35.801  1.00  0.00    -0.014 A 
ATOM     68  C   UNL A   1      39.925  34.254  36.917  1.00  0.00     0.009 A 
ATOM     69  C   UNL A   1      41.514  35.552  35.639  1.00  0.00     0.009 A 
ATOM     70  C   UNL A   1      39.798  35.302  37.830  1.00  0.00     0.001 A 
ATOM     71  C   UNL A   1      41.407  36.589  36.569  1.00  0.00     0.001 A 
ATOM     72  C   UNL A   1      40.537  36.470  37.654  1.00  0.00     0.000 A 
ENDBRANCH  53  67
BRANCH  54  73
ATOM     73  C   UNL A   1      40.430  27.552  28.501  1.00  0.00    -0.014 A 
ATOM     74  C   UNL A   1      41.116  27.793  27.297  1.00  0.00     0.009 A 
ATOM     75  C   UNL A   1      39.674  26.377  28.619  1.00  0.00     0.009 A 
ATOM     76  C   UNL A   1      41.019  26.903  26.228  1.00  0.00     0.001 A 
ATOM     77  C   UNL A   1      39.614  25.465  27.562  1.00  0.00     0.001 A 
ATOM     78  C   UNL A   1      40.275  25.734  26.364  1.00  0.00     0.000 A 
ENDBRANCH  54  73
BRANCH  66  79
ATOM     79  C   UNL A   1      44.574  28.543  34.042  1.00  0.00    -0.014 A 
ATOM     80  C   UNL A   1      45.855  28.872  33.568  1.00  0.00     0.009 A 
ATOM     81  C   UNL A   1      44.438  27.473  34.941  1.00  0.00     0.009 A 
ATOM     82  C   UNL A   1      46.971  28.138  33.974  1.00  0.00     0.001 A 
ATOM     83  C   UNL A   1      45.561  26.767  35.376  1.00  0.00     0.001 A 
ATOM     84  C   UNL A   1      46.824  27.093  34.883  1.00  0.00     0.000 A 
ENDBRANCH  66  79
ENDBRANCH  40  41
ENDBRANCH  32  35
ENDBRANCH  30  31
ENDBRANCH   1  30
TORSDOF 12
ENDMDL
