MODEL 1
REMARK VINA RESULT:      -9.9      0.000      0.000
REMARK SMILES C=CCN(CC(=O)NCCCNC(=O)c1ccc(-c2c3nc(c(-c4ccccc4)c4ccc([nH]4)c(-c4ccccc4)c4nc(c(-c5ccccc5)c5ccc2[nH]5)C=C4)C=C3)cc1)C(=O)c1cc(OC)ccc1Br
REMARK SMILES IDX 9 1 8 2 6 3 7 4 5 6 4 7 3 8 2 9 1 10 63 11 64 12 65 13 66 14
REMARK SMILES IDX 72 15 67 16 71 17 73 18 70 19 68 20 69 21 10 22 11 23 12 24
REMARK SMILES IDX 13 25 14 27 15 28 16 29 62 30 17 31 61 32 18 33 19 34 20 35
REMARK SMILES IDX 55 36 21 37 60 38 54 39 56 40 22 41 59 42 53 43 52 44 23 46
REMARK SMILES IDX 45 47 30 48 44 49 31 50 34 51 43 52 57 53 32 54 33 55 42 57
REMARK SMILES IDX 58 58 35 59 24 60 25 61 29 62 26 63 28 64 27 65 46 66 47 67
REMARK SMILES IDX 51 68 48 69 50 70 49 71 36 72 37 73 41 74 38 75 40 76 39 77
REMARK H PARENT 8 5 12 26 56 45 34 56
REMARK Flexibility Score: inf
ROOT
ATOM      1  C   UNL A   1      36.290  20.471  24.827  1.00  0.00     0.117 C 
ENDROOT
BRANCH   1   2
ATOM      2  N   UNL A   1      35.058  19.931  25.366  1.00  0.00    -0.354 N 
ATOM      3  C   UNL A   1      33.750  20.213  25.104  1.00  0.00     0.239 C 
ATOM      4  O   UNL A   1      32.918  19.393  25.510  1.00  0.00    -0.273 OA
ATOM      5  H   UNL A   1      35.189  19.231  26.047  1.00  0.00     0.163 HD
BRANCH   3   6
ATOM      6  C   UNL A   1      33.288  21.402  24.242  1.00  0.00     0.220 C 
BRANCH   6   7
ATOM      7  N   UNL A   1      33.930  22.698  24.493  1.00  0.00    -0.326 N 
BRANCH   7   8
ATOM      8  C   UNL A   1      34.522  23.389  23.350  1.00  0.00     0.147 C 
BRANCH   8   9
ATOM      9  C   UNL A   1      33.502  23.629  22.280  1.00  0.00    -0.014 C 
ATOM     10  C   UNL A   1      32.521  24.536  22.398  1.00  0.00     0.006 C 
ENDBRANCH   8   9
ENDBRANCH   7   8
BRANCH   7  11
ATOM     11  C   UNL A   1      33.914  23.366  25.727  1.00  0.00     0.255 C 
ATOM     12  O   UNL A   1      34.595  23.018  26.689  1.00  0.00    -0.269 OA
BRANCH  11  13
ATOM     13  C   UNL A   1      33.099  24.593  25.899  1.00  0.00     0.057 A 
ATOM     14  C   UNL A   1      33.783  25.816  25.974  1.00  0.00     0.061 A 
ATOM     15  C   UNL A   1      31.725  24.575  26.151  1.00  0.00     0.031 A 
ATOM     16  C   UNL A   1      33.077  26.995  26.233  1.00  0.00     0.119 A 
ATOM     17  C   UNL A   1      31.008  25.771  26.242  1.00  0.00     0.020 A 
ATOM     18  Br  UNL A   1      30.774  23.013  26.617  1.00  0.00    -0.050 Br
ATOM     19  C   UNL A   1      31.683  26.985  26.266  1.00  0.00     0.047 A 
BRANCH  16  20
ATOM     20  O   UNL A   1      33.813  28.125  26.474  1.00  0.00    -0.497 OA
ATOM     21  C   UNL A   1      33.470  29.206  25.600  1.00  0.00     0.278 C 
ENDBRANCH  16  20
ENDBRANCH  11  13
ENDBRANCH   7  11
ENDBRANCH   6   7
ENDBRANCH   3   6
ENDBRANCH   1   2
BRANCH   1  22
ATOM     22  C   UNL A   1      37.511  19.567  24.985  1.00  0.00     0.042 C 
BRANCH  22  23
ATOM     23  C   UNL A   1      38.699  20.163  25.735  1.00  0.00     0.118 C 
BRANCH  23  24
ATOM     24  N   UNL A   1      39.903  19.357  25.686  1.00  0.00    -0.352 N 
ATOM     25  C   UNL A   1      41.185  19.633  26.080  1.00  0.00     0.251 C 
ATOM     26  H   UNL A   1      39.777  18.458  25.303  1.00  0.00     0.163 HD
ATOM     27  O   UNL A   1      42.045  18.764  25.917  1.00  0.00    -0.269 OA
BRANCH  25  28
ATOM     28  C   UNL A   1      41.585  20.942  26.654  1.00  0.00     0.039 A 
ATOM     29  C   UNL A   1      42.008  21.932  25.758  1.00  0.00     0.014 A 
ATOM     30  C   UNL A   1      41.620  21.207  28.026  1.00  0.00     0.014 A 
ATOM     31  C   UNL A   1      42.417  23.184  26.224  1.00  0.00     0.010 A 
ATOM     32  C   UNL A   1      41.967  22.483  28.490  1.00  0.00     0.010 A 
ATOM     33  C   UNL A   1      42.375  23.483  27.594  1.00  0.00    -0.014 A 
BRANCH  33  34
ATOM     34  C   UNL A   1      42.762  24.836  28.077  1.00  0.00     0.031 A 
ATOM     35  C   UNL A   1      41.725  25.906  28.289  1.00  0.00     0.074 A 
ATOM     36  C   UNL A   1      44.057  25.109  28.326  1.00  0.00     0.049 A 
ATOM     37  N   UNL A   1      41.879  27.127  28.742  1.00  0.00    -0.248 NA
ATOM     38  C   UNL A   1      40.337  25.568  27.935  1.00  0.00     0.031 C 
ATOM     39  C   UNL A   1      45.170  24.177  28.137  1.00  0.00     0.029 A 
ATOM     40  N   UNL A   1      44.656  26.248  28.804  1.00  0.00    -0.354 N 
ATOM     41  C   UNL A   1      40.615  27.702  28.718  1.00  0.00     0.074 A 
ATOM     42  C   UNL A   1      39.713  26.715  28.166  1.00  0.00     0.031 C 
ATOM     43  C   UNL A   1      46.310  24.769  28.527  1.00  0.00     0.029 A 
ATOM     44  C   UNL A   1      46.016  26.130  28.964  1.00  0.00     0.049 A 
ATOM     45  H   UNL A   1      44.160  27.073  29.011  1.00  0.00     0.167 HD
ATOM     46  C   UNL A   1      40.231  28.935  29.134  1.00  0.00     0.031 A 
ATOM     47  C   UNL A   1      46.926  27.013  29.417  1.00  0.00     0.031 A 
ATOM     48  C   UNL A   1      41.121  29.922  29.689  1.00  0.00     0.049 A 
ATOM     49  C   UNL A   1      46.478  28.377  29.862  1.00  0.00     0.074 A 
ATOM     50  C   UNL A   1      40.814  31.180  30.179  1.00  0.00     0.029 A 
ATOM     51  N   UNL A   1      42.490  29.763  29.826  1.00  0.00    -0.354 N 
ATOM     52  N   UNL A   1      45.269  28.880  29.893  1.00  0.00    -0.248 NA
ATOM     53  C   UNL A   1      47.524  29.288  30.352  1.00  0.00     0.031 C 
ATOM     54  C   UNL A   1      42.005  31.800  30.573  1.00  0.00     0.029 A 
ATOM     55  C   UNL A   1      43.046  30.907  30.374  1.00  0.00     0.049 A 
ATOM     56  H   UNL A   1      42.994  28.956  29.571  1.00  0.00     0.167 HD
ATOM     57  C   UNL A   1      45.403  30.154  30.432  1.00  0.00     0.074 A 
ATOM     58  C   UNL A   1      46.809  30.340  30.725  1.00  0.00     0.031 C 
ATOM     59  C   UNL A   1      44.445  31.083  30.663  1.00  0.00     0.031 A 
BRANCH  46  60
ATOM     60  C   UNL A   1      38.777  29.287  28.996  1.00  0.00    -0.014 A 
ATOM     61  C   UNL A   1      38.249  29.726  27.771  1.00  0.00     0.009 A 
ATOM     62  C   UNL A   1      37.915  29.146  30.094  1.00  0.00     0.009 A 
ATOM     63  C   UNL A   1      36.896  30.052  27.659  1.00  0.00     0.001 A 
ATOM     64  C   UNL A   1      36.556  29.445  29.972  1.00  0.00     0.001 A 
ATOM     65  C   UNL A   1      36.050  29.908  28.758  1.00  0.00     0.000 A 
ENDBRANCH  46  60
BRANCH  47  66
ATOM     66  C   UNL A   1      48.358  26.626  29.501  1.00  0.00    -0.014 A 
ATOM     67  C   UNL A   1      49.232  26.901  28.437  1.00  0.00     0.009 A 
ATOM     68  C   UNL A   1      48.857  25.976  30.639  1.00  0.00     0.009 A 
ATOM     69  C   UNL A   1      50.571  26.511  28.504  1.00  0.00     0.001 A 
ATOM     70  C   UNL A   1      50.203  25.611  30.714  1.00  0.00     0.001 A 
ATOM     71  C   UNL A   1      51.056  25.871  29.643  1.00  0.00     0.000 A 
ENDBRANCH  47  66
BRANCH  59  72
ATOM     72  C   UNL A   1      44.879  32.372  31.302  1.00  0.00    -0.014 A 
ATOM     73  C   UNL A   1      44.935  32.513  32.697  1.00  0.00     0.009 A 
ATOM     74  C   UNL A   1      45.266  33.451  30.492  1.00  0.00     0.009 A 
ATOM     75  C   UNL A   1      45.337  33.724  33.268  1.00  0.00     0.001 A 
ATOM     76  C   UNL A   1      45.694  34.650  31.065  1.00  0.00     0.001 A 
ATOM     77  C   UNL A   1      45.719  34.788  32.452  1.00  0.00     0.000 A 
ENDBRANCH  59  72
ENDBRANCH  33  34
ENDBRANCH  25  28
ENDBRANCH  23  24
ENDBRANCH  22  23
ENDBRANCH   1  22
TORSDOF 16
ENDMDL
MODEL 2
REMARK VINA RESULT:      -9.9      2.238      7.489
REMARK SMILES C=CCN(CC(=O)NCCCNC(=O)c1ccc(-c2c3nc(c(-c4ccccc4)c4ccc([nH]4)c(-c4ccccc4)c4nc(c(-c5ccccc5)c5ccc2[nH]5)C=C4)C=C3)cc1)C(=O)c1cc(OC)ccc1Br
REMARK SMILES IDX 9 1 8 2 6 3 7 4 5 6 4 7 3 8 2 9 1 10 63 11 64 12 65 13 66 14
REMARK SMILES IDX 72 15 67 16 71 17 73 18 70 19 68 20 69 21 10 22 11 23 12 24
REMARK SMILES IDX 13 25 14 27 15 28 16 29 62 30 17 31 61 32 18 33 19 34 20 35
REMARK SMILES IDX 55 36 21 37 60 38 54 39 56 40 22 41 59 42 53 43 52 44 23 46
REMARK SMILES IDX 45 47 30 48 44 49 31 50 34 51 43 52 57 53 32 54 33 55 42 57
REMARK SMILES IDX 58 58 35 59 24 60 25 61 29 62 26 63 28 64 27 65 46 66 47 67
REMARK SMILES IDX 51 68 48 69 50 70 49 71 36 72 37 73 41 74 38 75 40 76 39 77
REMARK H PARENT 8 5 12 26 56 45 34 56
REMARK Flexibility Score: inf
ROOT
ATOM      1  C   UNL A   1      31.157  27.428  26.450  1.00  0.00     0.117 C 
ENDROOT
BRANCH   1   2
ATOM      2  N   UNL A   1      30.723  26.046  26.493  1.00  0.00    -0.354 N 
ATOM      3  C   UNL A   1      31.334  24.888  26.111  1.00  0.00     0.239 C 
ATOM      4  O   UNL A   1      30.834  23.838  26.532  1.00  0.00    -0.273 OA
ATOM      5  H   UNL A   1      29.821  25.919  26.867  1.00  0.00     0.163 HD
BRANCH   3   6
ATOM      6  C   UNL A   1      32.649  24.839  25.313  1.00  0.00     0.220 C 
BRANCH   6   7
ATOM      7  N   UNL A   1      32.551  24.528  23.883  1.00  0.00    -0.326 N 
BRANCH   7   8
ATOM      8  C   UNL A   1      31.529  25.228  23.109  1.00  0.00     0.147 C 
BRANCH   8   9
ATOM      9  C   UNL A   1      31.877  26.676  22.945  1.00  0.00    -0.014 C 
ATOM     10  C   UNL A   1      33.125  27.146  23.081  1.00  0.00     0.006 C 
ENDBRANCH   8   9
ENDBRANCH   7   8
BRANCH   7  11
ATOM     11  C   UNL A   1      33.442  23.694  23.189  1.00  0.00     0.255 C 
ATOM     12  O   UNL A   1      33.952  24.002  22.114  1.00  0.00    -0.269 OA
BRANCH  11  13
ATOM     13  C   UNL A   1      33.863  22.400  23.778  1.00  0.00     0.057 A 
ATOM     14  C   UNL A   1      32.895  21.389  23.875  1.00  0.00     0.061 A 
ATOM     15  C   UNL A   1      35.108  22.199  24.381  1.00  0.00     0.031 A 
ATOM     16  C   UNL A   1      33.207  20.183  24.509  1.00  0.00     0.119 A 
ATOM     17  C   UNL A   1      35.463  20.935  24.862  1.00  0.00     0.020 A 
ATOM     18  Br  UNL A   1      36.294  23.602  24.812  1.00  0.00    -0.050 Br
ATOM     19  C   UNL A   1      34.515  19.920  24.911  1.00  0.00     0.047 A 
BRANCH  16  20
ATOM     20  O   UNL A   1      32.176  19.309  24.734  1.00  0.00    -0.497 OA
ATOM     21  C   UNL A   1      32.603  18.102  25.376  1.00  0.00     0.278 C 
ENDBRANCH  16  20
ENDBRANCH  11  13
ENDBRANCH   7  11
ENDBRANCH   6   7
ENDBRANCH   3   6
ENDBRANCH   1   2
BRANCH   1  22
ATOM     22  C   UNL A   1      32.043  27.860  27.615  1.00  0.00     0.042 C 
BRANCH  22  23
ATOM     23  C   UNL A   1      33.346  28.566  27.246  1.00  0.00     0.118 C 
BRANCH  23  24
ATOM     24  N   UNL A   1      33.358  29.987  27.533  1.00  0.00    -0.352 N 
ATOM     25  C   UNL A   1      34.355  30.799  28.001  1.00  0.00     0.251 C 
ATOM     26  H   UNL A   1      32.503  30.445  27.361  1.00  0.00     0.163 HD
ATOM     27  O   UNL A   1      34.102  31.995  28.174  1.00  0.00    -0.269 OA
BRANCH  25  28
ATOM     28  C   UNL A   1      35.707  30.294  28.349  1.00  0.00     0.039 A 
ATOM     29  C   UNL A   1      36.692  30.363  27.355  1.00  0.00     0.014 A 
ATOM     30  C   UNL A   1      36.021  29.705  29.578  1.00  0.00     0.014 A 
ATOM     31  C   UNL A   1      37.984  29.891  27.602  1.00  0.00     0.010 A 
ATOM     32  C   UNL A   1      37.332  29.293  29.848  1.00  0.00     0.010 A 
ATOM     33  C   UNL A   1      38.326  29.375  28.861  1.00  0.00    -0.014 A 
BRANCH  33  34
ATOM     34  C   UNL A   1      39.718  28.924  29.131  1.00  0.00     0.031 A 
ATOM     35  C   UNL A   1      40.689  29.811  29.863  1.00  0.00     0.074 A 
ATOM     36  C   UNL A   1      40.116  27.706  28.716  1.00  0.00     0.049 A 
ATOM     37  N   UNL A   1      41.927  29.564  30.219  1.00  0.00    -0.248 NA
ATOM     38  C   UNL A   1      40.216  31.155  30.231  1.00  0.00     0.031 C 
ATOM     39  C   UNL A   1      39.290  26.755  27.971  1.00  0.00     0.029 A 
ATOM     40  N   UNL A   1      41.315  27.055  28.870  1.00  0.00    -0.354 N 
ATOM     41  C   UNL A   1      42.380  30.720  30.842  1.00  0.00     0.074 A 
ATOM     42  C   UNL A   1      41.303  31.683  30.777  1.00  0.00     0.031 C 
ATOM     43  C   UNL A   1      39.993  25.629  27.764  1.00  0.00     0.029 A 
ATOM     44  C   UNL A   1      41.328  25.790  28.332  1.00  0.00     0.049 A 
ATOM     45  H   UNL A   1      42.093  27.456  29.322  1.00  0.00     0.167 HD
ATOM     46  C   UNL A   1      43.578  30.956  31.432  1.00  0.00     0.031 A 
ATOM     47  C   UNL A   1      42.300  24.859  28.304  1.00  0.00     0.031 A 
ATOM     48  C   UNL A   1      44.654  30.002  31.505  1.00  0.00     0.049 A 
ATOM     49  C   UNL A   1      43.623  25.149  28.955  1.00  0.00     0.074 A 
ATOM     50  C   UNL A   1      45.886  30.137  32.122  1.00  0.00     0.029 A 
ATOM     51  N   UNL A   1      44.627  28.737  30.941  1.00  0.00    -0.354 N 
ATOM     52  N   UNL A   1      44.011  26.223  29.596  1.00  0.00    -0.248 NA
ATOM     53  C   UNL A   1      44.637  24.085  28.891  1.00  0.00     0.031 C 
ATOM     54  C   UNL A   1      46.622  28.969  31.894  1.00  0.00     0.029 A 
ATOM     55  C   UNL A   1      45.827  28.088  31.179  1.00  0.00     0.049 A 
ATOM     56  H   UNL A   1      43.867  28.355  30.445  1.00  0.00     0.167 HD
ATOM     57  C   UNL A   1      45.301  25.955  30.038  1.00  0.00     0.074 A 
ATOM     58  C   UNL A   1      45.623  24.612  29.602  1.00  0.00     0.031 C 
ATOM     59  C   UNL A   1      46.140  26.752  30.743  1.00  0.00     0.031 A 
BRANCH  46  60
ATOM     60  C   UNL A   1      43.790  32.313  32.043  1.00  0.00    -0.014 A 
ATOM     61  C   UNL A   1      43.467  32.563  33.386  1.00  0.00     0.009 A 
ATOM     62  C   UNL A   1      44.353  33.345  31.277  1.00  0.00     0.009 A 
ATOM     63  C   UNL A   1      43.668  33.829  33.939  1.00  0.00     0.001 A 
ATOM     64  C   UNL A   1      44.579  34.603  31.840  1.00  0.00     0.001 A 
ATOM     65  C   UNL A   1      44.227  34.847  33.167  1.00  0.00     0.000 A 
ENDBRANCH  46  60
BRANCH  47  66
ATOM     66  C   UNL A   1      42.050  23.546  27.655  1.00  0.00    -0.014 A 
ATOM     67  C   UNL A   1      41.425  22.510  28.366  1.00  0.00     0.009 A 
ATOM     68  C   UNL A   1      42.439  23.320  26.327  1.00  0.00     0.009 A 
ATOM     69  C   UNL A   1      41.215  21.266  27.767  1.00  0.00     0.001 A 
ATOM     70  C   UNL A   1      42.205  22.083  25.721  1.00  0.00     0.001 A 
ATOM     71  C   UNL A   1      41.602  21.055  26.444  1.00  0.00     0.000 A 
ENDBRANCH  47  66
BRANCH  59  72
ATOM     72  C   UNL A   1      47.475  26.177  31.123  1.00  0.00    -0.014 A 
ATOM     73  C   UNL A   1      48.556  26.188  30.229  1.00  0.00     0.009 A 
ATOM     74  C   UNL A   1      47.658  25.642  32.408  1.00  0.00     0.009 A 
ATOM     75  C   UNL A   1      49.786  25.642  30.604  1.00  0.00     0.001 A 
ATOM     76  C   UNL A   1      48.897  25.123  32.789  1.00  0.00     0.001 A 
ATOM     77  C   UNL A   1      49.956  25.114  31.883  1.00  0.00     0.000 A 
ENDBRANCH  59  72
ENDBRANCH  33  34
ENDBRANCH  25  28
ENDBRANCH  23  24
ENDBRANCH  22  23
ENDBRANCH   1  22
TORSDOF 16
ENDMDL
MODEL 3
REMARK VINA RESULT:      -9.7      2.746      4.009
REMARK SMILES C=CCN(CC(=O)NCCCNC(=O)c1ccc(-c2c3nc(c(-c4ccccc4)c4ccc([nH]4)c(-c4ccccc4)c4nc(c(-c5ccccc5)c5ccc2[nH]5)C=C4)C=C3)cc1)C(=O)c1cc(OC)ccc1Br
REMARK SMILES IDX 9 1 8 2 6 3 7 4 5 6 4 7 3 8 2 9 1 10 63 11 64 12 65 13 66 14
REMARK SMILES IDX 72 15 67 16 71 17 73 18 70 19 68 20 69 21 10 22 11 23 12 24
REMARK SMILES IDX 13 25 14 27 15 28 16 29 62 30 17 31 61 32 18 33 19 34 20 35
REMARK SMILES IDX 55 36 21 37 60 38 54 39 56 40 22 41 59 42 53 43 52 44 23 46
REMARK SMILES IDX 45 47 30 48 44 49 31 50 34 51 43 52 57 53 32 54 33 55 42 57
REMARK SMILES IDX 58 58 35 59 24 60 25 61 29 62 26 63 28 64 27 65 46 66 47 67
REMARK SMILES IDX 51 68 48 69 50 70 49 71 36 72 37 73 41 74 38 75 40 76 39 77
REMARK H PARENT 8 5 12 26 56 45 34 56
REMARK Flexibility Score: inf
ROOT
ATOM      1  C   UNL A   1      34.440  23.568  24.745  1.00  0.00     0.117 C 
ENDROOT
BRANCH   1   2
ATOM      2  N   UNL A   1      33.714  23.637  25.997  1.00  0.00    -0.354 N 
ATOM      3  C   UNL A   1      32.402  23.426  26.301  1.00  0.00     0.239 C 
ATOM      4  O   UNL A   1      32.131  23.279  27.498  1.00  0.00    -0.273 OA
ATOM      5  H   UNL A   1      34.271  23.881  26.772  1.00  0.00     0.163 HD
BRANCH   3   6
ATOM      6  C   UNL A   1      31.299  23.241  25.243  1.00  0.00     0.220 C 
BRANCH   6   7
ATOM      7  N   UNL A   1      30.763  24.456  24.617  1.00  0.00    -0.326 N 
BRANCH   7   8
ATOM      8  C   UNL A   1      30.723  24.501  23.158  1.00  0.00     0.147 C 
BRANCH   8   9
ATOM      9  C   UNL A   1      32.079  24.794  22.592  1.00  0.00    -0.014 C 
ATOM     10  C   UNL A   1      32.371  25.936  21.953  1.00  0.00     0.006 C 
ENDBRANCH   8   9
ENDBRANCH   7   8
BRANCH   7  11
ATOM     11  C   UNL A   1      30.185  25.523  25.323  1.00  0.00     0.255 C 
ATOM     12  O   UNL A   1      29.613  25.384  26.402  1.00  0.00    -0.269 OA
BRANCH  11  13
ATOM     13  C   UNL A   1      30.305  26.908  24.807  1.00  0.00     0.057 A 
ATOM     14  C   UNL A   1      29.398  27.307  23.813  1.00  0.00     0.061 A 
ATOM     15  C   UNL A   1      31.359  27.763  25.138  1.00  0.00     0.031 A 
ATOM     16  C   UNL A   1      29.524  28.567  23.220  1.00  0.00     0.119 A 
ATOM     17  C   UNL A   1      31.377  29.078  24.663  1.00  0.00     0.020 A 
ATOM     18  Br  UNL A   1      32.926  27.190  26.019  1.00  0.00    -0.050 Br
ATOM     19  C   UNL A   1      30.447  29.487  23.715  1.00  0.00     0.047 A 
BRANCH  16  20
ATOM     20  O   UNL A   1      28.729  28.830  22.136  1.00  0.00    -0.497 OA
ATOM     21  C   UNL A   1      27.998  30.055  22.269  1.00  0.00     0.278 C 
ENDBRANCH  16  20
ENDBRANCH  11  13
ENDBRANCH   7  11
ENDBRANCH   6   7
ENDBRANCH   3   6
ENDBRANCH   1   2
BRANCH   1  22
ATOM     22  C   UNL A   1      35.946  23.794  24.861  1.00  0.00     0.042 C 
BRANCH  22  23
ATOM     23  C   UNL A   1      36.592  23.366  26.176  1.00  0.00     0.118 C 
BRANCH  23  24
ATOM     24  N   UNL A   1      37.811  22.598  26.021  1.00  0.00    -0.352 N 
ATOM     25  C   UNL A   1      39.111  22.905  26.322  1.00  0.00     0.251 C 
ATOM     26  H   UNL A   1      37.682  21.701  25.633  1.00  0.00     0.163 HD
ATOM     27  O   UNL A   1      39.981  22.065  26.078  1.00  0.00    -0.269 OA
BRANCH  25  28
ATOM     28  C   UNL A   1      39.517  24.217  26.886  1.00  0.00     0.039 A 
ATOM     29  C   UNL A   1      39.202  24.463  28.228  1.00  0.00     0.014 A 
ATOM     30  C   UNL A   1      40.131  25.225  26.136  1.00  0.00     0.014 A 
ATOM     31  C   UNL A   1      39.536  25.681  28.825  1.00  0.00     0.010 A 
ATOM     32  C   UNL A   1      40.525  26.420  26.751  1.00  0.00     0.010 A 
ATOM     33  C   UNL A   1      40.226  26.664  28.100  1.00  0.00    -0.014 A 
BRANCH  33  34
ATOM     34  C   UNL A   1      40.625  27.937  28.758  1.00  0.00     0.031 A 
ATOM     35  C   UNL A   1      39.641  29.064  28.920  1.00  0.00     0.074 A 
ATOM     36  C   UNL A   1      41.884  28.084  29.215  1.00  0.00     0.049 A 
ATOM     37  N   UNL A   1      39.807  30.227  29.504  1.00  0.00    -0.248 NA
ATOM     38  C   UNL A   1      38.303  28.869  28.342  1.00  0.00     0.031 C 
ATOM     39  C   UNL A   1      42.949  27.086  29.099  1.00  0.00     0.029 A 
ATOM     40  N   UNL A   1      42.479  29.129  29.878  1.00  0.00    -0.354 N 
ATOM     41  C   UNL A   1      38.601  30.901  29.354  1.00  0.00     0.074 A 
ATOM     42  C   UNL A   1      37.729  30.038  28.588  1.00  0.00     0.031 C 
ATOM     43  C   UNL A   1      44.054  27.550  29.702  1.00  0.00     0.029 A 
ATOM     44  C   UNL A   1      43.789  28.890  30.219  1.00  0.00     0.049 A 
ATOM     45  H   UNL A   1      42.013  29.970  30.089  1.00  0.00     0.167 HD
ATOM     46  C   UNL A   1      38.243  32.121  29.826  1.00  0.00     0.031 A 
ATOM     47  C   UNL A   1      44.678  29.656  30.879  1.00  0.00     0.031 A 
ATOM     48  C   UNL A   1      39.103  32.984  30.592  1.00  0.00     0.049 A 
ATOM     49  C   UNL A   1      44.260  31.009  31.382  1.00  0.00     0.074 A 
ATOM     50  C   UNL A   1      38.811  34.218  31.150  1.00  0.00     0.029 A 
ATOM     51  N   UNL A   1      40.423  32.706  30.908  1.00  0.00    -0.354 N 
ATOM     52  N   UNL A   1      43.096  31.603  31.287  1.00  0.00    -0.248 NA
ATOM     53  C   UNL A   1      45.279  31.791  32.099  1.00  0.00     0.031 C 
ATOM     54  C   UNL A   1      39.969  34.706  31.766  1.00  0.00     0.029 A 
ATOM     55  C   UNL A   1      40.965  33.753  31.635  1.00  0.00     0.049 A 
ATOM     56  H   UNL A   1      40.904  31.886  30.653  1.00  0.00     0.167 HD
ATOM     57  C   UNL A   1      43.233  32.813  31.957  1.00  0.00     0.074 A 
ATOM     58  C   UNL A   1      44.588  32.861  32.464  1.00  0.00     0.031 C 
ATOM     59  C   UNL A   1      42.315  33.793  32.136  1.00  0.00     0.031 A 
BRANCH  46  60
ATOM     60  C   UNL A   1      36.852  32.599  29.515  1.00  0.00    -0.014 A 
ATOM     61  C   UNL A   1      36.549  33.199  28.283  1.00  0.00     0.009 A 
ATOM     62  C   UNL A   1      35.823  32.414  30.451  1.00  0.00     0.009 A 
ATOM     63  C   UNL A   1      35.252  33.639  28.010  1.00  0.00     0.001 A 
ATOM     64  C   UNL A   1      34.521  32.830  30.165  1.00  0.00     0.001 A 
ATOM     65  C   UNL A   1      34.238  33.452  28.949  1.00  0.00     0.000 A 
ENDBRANCH  46  60
BRANCH  47  66
ATOM     66  C   UNL A   1      46.052  29.151  31.129  1.00  0.00    -0.014 A 
ATOM     67  C   UNL A   1      47.088  29.432  30.225  1.00  0.00     0.009 A 
ATOM     68  C   UNL A   1      46.334  28.382  32.268  1.00  0.00     0.009 A 
ATOM     69  C   UNL A   1      48.374  28.933  30.445  1.00  0.00     0.001 A 
ATOM     70  C   UNL A   1      47.627  27.907  32.499  1.00  0.00     0.001 A 
ATOM     71  C   UNL A   1      48.643  28.174  31.583  1.00  0.00     0.000 A 
ENDBRANCH  47  66
BRANCH  59  72
ATOM     72  C   UNL A   1      42.733  34.985  32.949  1.00  0.00    -0.014 A 
ATOM     73  C   UNL A   1      42.554  35.020  34.340  1.00  0.00     0.009 A 
ATOM     74  C   UNL A   1      43.343  36.078  32.313  1.00  0.00     0.009 A 
ATOM     75  C   UNL A   1      42.946  36.142  35.074  1.00  0.00     0.001 A 
ATOM     76  C   UNL A   1      43.759  37.186  33.053  1.00  0.00     0.001 A 
ATOM     77  C   UNL A   1      43.551  37.221  34.430  1.00  0.00     0.000 A 
ENDBRANCH  59  72
ENDBRANCH  33  34
ENDBRANCH  25  28
ENDBRANCH  23  24
ENDBRANCH  22  23
ENDBRANCH   1  22
TORSDOF 16
ENDMDL
