MODEL 1
REMARK VINA RESULT:      -9.3      0.000      0.000
REMARK SMILES Cc1cc(-c2cc(C(=O)NCCCNC(=O)c3ccc(-c4c5nc(c(-c6ccccc6)c6ccc([nH]6)c(-c6ccccc6)c6nc(c(-c7ccccc7)c7ccc4[nH]7)C=C6)C=C5)cc3)c[nH]c2=O)ccc1Cl
REMARK SMILES IDX 12 1 11 2 10 3 8 4 9 5 7 7 5 8 6 9 67 10 66 11 68 12 65 13
REMARK SMILES IDX 4 15 1 16 2 17 3 18 71 19 70 20 72 21 69 22 13 23 14 24
REMARK SMILES IDX 15 25 16 27 17 28 18 29 64 30 19 31 63 32 20 33 21 34 22 35
REMARK SMILES IDX 57 36 23 37 62 38 56 39 58 40 24 41 61 42 55 43 54 44 25 46
REMARK SMILES IDX 47 47 32 48 46 49 33 50 36 51 45 52 59 53 34 54 35 55 44 57
REMARK SMILES IDX 60 58 37 59 26 60 27 61 31 62 28 63 30 64 29 65 48 66 49 67
REMARK SMILES IDX 53 68 50 69 52 70 51 71 38 72 39 73 43 74 40 75 42 76 41 77
REMARK H PARENT 10 6 66 14 14 26 58 45 36 56
REMARK Flexibility Score: inf
ROOT
ATOM      1  C   UNL A   1      33.167  28.923  25.649  1.00  0.00     0.042 C 
ENDROOT
BRANCH   1   2
ATOM      2  C   UNL A   1      31.761  29.459  25.372  1.00  0.00     0.118 C 
BRANCH   2   3
ATOM      3  N   UNL A   1      31.190  28.855  24.182  1.00  0.00    -0.352 N 
ATOM      4  C   UNL A   1      30.939  27.566  23.823  1.00  0.00     0.252 C 
ATOM      5  O   UNL A   1      30.416  27.388  22.721  1.00  0.00    -0.269 OA
ATOM      6  H   UNL A   1      30.933  29.510  23.494  1.00  0.00     0.163 HD
BRANCH   4   7
ATOM      7  C   UNL A   1      31.217  26.402  24.727  1.00  0.00     0.056 A 
ATOM      8  C   UNL A   1      32.537  24.486  25.487  1.00  0.00     0.048 A 
ATOM      9  C   UNL A   1      32.281  25.434  24.566  1.00  0.00     0.029 A 
ATOM     10  C   UNL A   1      31.596  24.333  26.643  1.00  0.00     0.255 A 
ATOM     11  N   UNL A   1      30.556  25.237  26.679  1.00  0.00    -0.328 N 
ATOM     12  O   UNL A   1      31.726  23.463  27.495  1.00  0.00    -0.269 OA
ATOM     13  C   UNL A   1      30.376  26.247  25.765  1.00  0.00     0.099 A 
ATOM     14  H   UNL A   1      29.900  25.152  27.408  1.00  0.00     0.169 HD
BRANCH   8  15
ATOM     15  C   UNL A   1      33.732  23.646  25.326  1.00  0.00    -0.012 A 
ATOM     16  C   UNL A   1      37.483  23.816  25.964  1.00  0.00     0.046 C 
ATOM     17  C   UNL A   1      36.133  23.283  25.575  1.00  0.00    -0.032 A 
ATOM     18  C   UNL A   1      35.005  24.117  25.671  1.00  0.00     0.014 A 
ATOM     19  C   UNL A   1      35.965  21.967  25.113  1.00  0.00     0.044 A 
ATOM     20  C   UNL A   1      34.701  21.495  24.756  1.00  0.00     0.021 A 
ATOM     21  Cl  UNL A   1      37.299  20.878  24.975  1.00  0.00    -0.084 Cl
ATOM     22  C   UNL A   1      33.590  22.331  24.862  1.00  0.00     0.010 A 
ENDBRANCH   8  15
ENDBRANCH   4   7
ENDBRANCH   2   3
ENDBRANCH   1   2
BRANCH   1  23
ATOM     23  C   UNL A   1      33.532  28.897  27.132  1.00  0.00     0.118 C 
BRANCH  23  24
ATOM     24  N   UNL A   1      33.595  30.235  27.695  1.00  0.00    -0.352 N 
ATOM     25  C   UNL A   1      34.583  30.856  28.414  1.00  0.00     0.251 C 
ATOM     26  H   UNL A   1      32.796  30.787  27.534  1.00  0.00     0.163 HD
ATOM     27  O   UNL A   1      34.324  31.920  28.973  1.00  0.00    -0.269 OA
BRANCH  25  28
ATOM     28  C   UNL A   1      35.945  30.285  28.528  1.00  0.00     0.039 A 
ATOM     29  C   UNL A   1      36.339  29.769  29.767  1.00  0.00     0.014 A 
ATOM     30  C   UNL A   1      36.868  30.343  27.479  1.00  0.00     0.014 A 
ATOM     31  C   UNL A   1      37.643  29.306  29.953  1.00  0.00     0.010 A 
ATOM     32  C   UNL A   1      38.150  29.819  27.645  1.00  0.00     0.010 A 
ATOM     33  C   UNL A   1      38.560  29.322  28.891  1.00  0.00    -0.014 A 
BRANCH  33  34
ATOM     34  C   UNL A   1      39.958  28.865  29.095  1.00  0.00     0.031 A 
ATOM     35  C   UNL A   1      40.968  29.773  29.746  1.00  0.00     0.074 A 
ATOM     36  C   UNL A   1      40.327  27.638  28.681  1.00  0.00     0.049 A 
ATOM     37  N   UNL A   1      42.227  29.544  30.023  1.00  0.00    -0.248 NA
ATOM     38  C   UNL A   1      40.509  31.122  30.115  1.00  0.00     0.031 C 
ATOM     39  C   UNL A   1      39.457  26.677  28.002  1.00  0.00     0.029 A 
ATOM     40  N   UNL A   1      41.532  26.990  28.777  1.00  0.00    -0.354 N 
ATOM     41  C   UNL A   1      42.713  30.721  30.577  1.00  0.00     0.074 A 
ATOM     42  C   UNL A   1      41.628  31.677  30.555  1.00  0.00     0.031 C 
ATOM     43  C   UNL A   1      40.149  25.549  27.770  1.00  0.00     0.029 A 
ATOM     44  C   UNL A   1      41.513  25.717  28.261  1.00  0.00     0.049 A 
ATOM     45  H   UNL A   1      42.334  27.396  29.178  1.00  0.00     0.167 HD
ATOM     46  C   UNL A   1      43.946  30.982  31.076  1.00  0.00     0.031 A 
ATOM     47  C   UNL A   1      42.482  24.785  28.199  1.00  0.00     0.031 A 
ATOM     48  C   UNL A   1      45.022  30.029  31.117  1.00  0.00     0.049 A 
ATOM     49  C   UNL A   1      43.832  25.086  28.785  1.00  0.00     0.074 A 
ATOM     50  C   UNL A   1      46.291  30.179  31.652  1.00  0.00     0.029 A 
ATOM     51  N   UNL A   1      44.954  28.743  30.603  1.00  0.00    -0.354 N 
ATOM     52  N   UNL A   1      44.255  26.184  29.365  1.00  0.00    -0.248 NA
ATOM     53  C   UNL A   1      44.831  24.011  28.726  1.00  0.00     0.031 C 
ATOM     54  C   UNL A   1      47.003  28.996  31.425  1.00  0.00     0.029 A 
ATOM     55  C   UNL A   1      46.163  28.093  30.795  1.00  0.00     0.049 A 
ATOM     56  H   UNL A   1      44.164  28.351  30.165  1.00  0.00     0.167 HD
ATOM     57  C   UNL A   1      45.559  25.921  29.765  1.00  0.00     0.074 A 
ATOM     58  C   UNL A   1      45.850  24.556  29.376  1.00  0.00     0.031 C 
ATOM     59  C   UNL A   1      46.436  26.737  30.399  1.00  0.00     0.031 A 
BRANCH  46  60
ATOM     60  C   UNL A   1      44.192  32.365  31.615  1.00  0.00    -0.014 A 
ATOM     61  C   UNL A   1      43.955  32.675  32.964  1.00  0.00     0.009 A 
ATOM     62  C   UNL A   1      44.689  33.367  30.766  1.00  0.00     0.009 A 
ATOM     63  C   UNL A   1      44.168  33.970  33.441  1.00  0.00     0.001 A 
ATOM     64  C   UNL A   1      44.929  34.654  31.254  1.00  0.00     0.001 A 
ATOM     65  C   UNL A   1      44.658  34.956  32.587  1.00  0.00     0.000 A 
ENDBRANCH  46  60
BRANCH  47  66
ATOM     66  C   UNL A   1      42.197  23.460  27.590  1.00  0.00    -0.014 A 
ATOM     67  C   UNL A   1      42.572  23.193  26.264  1.00  0.00     0.009 A 
ATOM     68  C   UNL A   1      41.556  22.457  28.332  1.00  0.00     0.009 A 
ATOM     69  C   UNL A   1      42.286  21.956  25.685  1.00  0.00     0.001 A 
ATOM     70  C   UNL A   1      41.296  21.211  27.757  1.00  0.00     0.001 A 
ATOM     71  C   UNL A   1      41.653  20.964  26.433  1.00  0.00     0.000 A 
ENDBRANCH  47  66
BRANCH  59  72
ATOM     72  C   UNL A   1      47.780  26.158  30.740  1.00  0.00    -0.014 A 
ATOM     73  C   UNL A   1      48.807  26.086  29.786  1.00  0.00     0.009 A 
ATOM     74  C   UNL A   1      48.026  25.696  32.043  1.00  0.00     0.009 A 
ATOM     75  C   UNL A   1      50.041  25.524  30.120  1.00  0.00     0.001 A 
ATOM     76  C   UNL A   1      49.269  25.160  32.381  1.00  0.00     0.001 A 
ATOM     77  C   UNL A   1      50.271  25.064  31.417  1.00  0.00     0.000 A 
ENDBRANCH  59  72
ENDBRANCH  33  34
ENDBRANCH  25  28
ENDBRANCH  23  24
ENDBRANCH   1  23
TORSDOF 11
ENDMDL
MODEL 2
REMARK VINA RESULT:      -9.2      3.608      6.423
REMARK SMILES Cc1cc(-c2cc(C(=O)NCCCNC(=O)c3ccc(-c4c5nc(c(-c6ccccc6)c6ccc([nH]6)c(-c6ccccc6)c6nc(c(-c7ccccc7)c7ccc4[nH]7)C=C6)C=C5)cc3)c[nH]c2=O)ccc1Cl
REMARK SMILES IDX 12 1 11 2 10 3 8 4 9 5 7 7 5 8 6 9 67 10 66 11 68 12 65 13
REMARK SMILES IDX 4 15 1 16 2 17 3 18 71 19 70 20 72 21 69 22 13 23 14 24
REMARK SMILES IDX 15 25 16 27 17 28 18 29 64 30 19 31 63 32 20 33 21 34 22 35
REMARK SMILES IDX 57 36 23 37 62 38 56 39 58 40 24 41 61 42 55 43 54 44 25 46
REMARK SMILES IDX 47 47 32 48 46 49 33 50 36 51 45 52 59 53 34 54 35 55 44 57
REMARK SMILES IDX 60 58 37 59 26 60 27 61 31 62 28 63 30 64 29 65 48 66 49 67
REMARK SMILES IDX 53 68 50 69 52 70 51 71 38 72 39 73 43 74 40 75 42 76 41 77
REMARK H PARENT 10 6 66 14 14 26 58 45 36 56
REMARK Flexibility Score: inf
ROOT
ATOM      1  C   UNL A   1      34.822  32.641  31.320  1.00  0.00     0.042 C 
ENDROOT
BRANCH   1   2
ATOM      2  C   UNL A   1      35.096  33.888  32.163  1.00  0.00     0.118 C 
BRANCH   2   3
ATOM      3  N   UNL A   1      36.398  34.455  31.859  1.00  0.00    -0.352 N 
ATOM      4  C   UNL A   1      37.660  34.166  32.283  1.00  0.00     0.252 C 
ATOM      5  O   UNL A   1      38.574  34.842  31.807  1.00  0.00    -0.269 OA
ATOM      6  H   UNL A   1      36.362  35.201  31.219  1.00  0.00     0.163 HD
BRANCH   4   7
ATOM      7  C   UNL A   1      37.960  33.047  33.234  1.00  0.00     0.056 A 
ATOM      8  C   UNL A   1      39.182  31.052  33.953  1.00  0.00     0.048 A 
ATOM      9  C   UNL A   1      38.880  31.954  33.001  1.00  0.00     0.029 A 
ATOM     10  C   UNL A   1      38.430  31.092  35.248  1.00  0.00     0.255 A 
ATOM     11  N   UNL A   1      37.507  32.110  35.361  1.00  0.00    -0.328 N 
ATOM     12  O   UNL A   1      38.606  30.278  36.145  1.00  0.00    -0.269 OA
ATOM     13  C   UNL A   1      37.286  33.065  34.398  1.00  0.00     0.099 A 
ATOM     14  H   UNL A   1      36.972  32.155  36.186  1.00  0.00     0.169 HD
BRANCH   8  15
ATOM     15  C   UNL A   1      40.245  30.071  33.688  1.00  0.00    -0.012 A 
ATOM     16  C   UNL A   1      43.926  29.519  34.490  1.00  0.00     0.046 C 
ATOM     17  C   UNL A   1      42.540  29.287  33.959  1.00  0.00    -0.032 A 
ATOM     18  C   UNL A   1      41.548  30.263  34.162  1.00  0.00     0.014 A 
ATOM     19  C   UNL A   1      42.205  28.116  33.258  1.00  0.00     0.044 A 
ATOM     20  C   UNL A   1      40.911  27.925  32.773  1.00  0.00     0.021 A 
ATOM     21  Cl  UNL A   1      43.364  26.867  32.975  1.00  0.00    -0.084 Cl
ATOM     22  C   UNL A   1      39.936  28.897  32.987  1.00  0.00     0.010 A 
ENDBRANCH   8  15
ENDBRANCH   4   7
ENDBRANCH   2   3
ENDBRANCH   1   2
BRANCH   1  23
ATOM     23  C   UNL A   1      34.956  32.876  29.817  1.00  0.00     0.118 C 
BRANCH  23  24
ATOM     24  N   UNL A   1      34.175  31.919  29.050  1.00  0.00    -0.352 N 
ATOM     25  C   UNL A   1      34.564  30.814  28.339  1.00  0.00     0.251 C 
ATOM     26  H   UNL A   1      33.206  32.093  29.040  1.00  0.00     0.163 HD
ATOM     27  O   UNL A   1      33.749  30.279  27.591  1.00  0.00    -0.269 OA
BRANCH  25  28
ATOM     28  C   UNL A   1      35.929  30.251  28.453  1.00  0.00     0.039 A 
ATOM     29  C   UNL A   1      36.308  29.687  29.676  1.00  0.00     0.014 A 
ATOM     30  C   UNL A   1      36.868  30.359  27.423  1.00  0.00     0.014 A 
ATOM     31  C   UNL A   1      37.613  29.228  29.865  1.00  0.00     0.010 A 
ATOM     32  C   UNL A   1      38.153  29.839  27.589  1.00  0.00     0.010 A 
ATOM     33  C   UNL A   1      38.546  29.296  28.820  1.00  0.00    -0.014 A 
BRANCH  33  34
ATOM     34  C   UNL A   1      39.945  28.842  29.028  1.00  0.00     0.031 A 
ATOM     35  C   UNL A   1      40.956  29.760  29.661  1.00  0.00     0.074 A 
ATOM     36  C   UNL A   1      40.313  27.608  28.633  1.00  0.00     0.049 A 
ATOM     37  N   UNL A   1      42.216  29.536  29.939  1.00  0.00    -0.248 NA
ATOM     38  C   UNL A   1      40.498  31.116  30.009  1.00  0.00     0.031 C 
ATOM     39  C   UNL A   1      39.442  26.636  27.972  1.00  0.00     0.029 A 
ATOM     40  N   UNL A   1      41.519  26.962  28.737  1.00  0.00    -0.354 N 
ATOM     41  C   UNL A   1      42.703  30.723  30.472  1.00  0.00     0.074 A 
ATOM     42  C   UNL A   1      41.618  31.678  30.437  1.00  0.00     0.031 C 
ATOM     43  C   UNL A   1      40.133  25.504  27.758  1.00  0.00     0.029 A 
ATOM     44  C   UNL A   1      41.499  25.681  28.242  1.00  0.00     0.049 A 
ATOM     45  H   UNL A   1      42.321  27.375  29.129  1.00  0.00     0.167 HD
ATOM     46  C   UNL A   1      43.937  30.992  30.964  1.00  0.00     0.031 A 
ATOM     47  C   UNL A   1      42.468  24.748  28.194  1.00  0.00     0.031 A 
ATOM     48  C   UNL A   1      45.014  30.041  31.018  1.00  0.00     0.049 A 
ATOM     49  C   UNL A   1      43.820  25.060  28.772  1.00  0.00     0.074 A 
ATOM     50  C   UNL A   1      46.283  30.200  31.548  1.00  0.00     0.029 A 
ATOM     51  N   UNL A   1      44.945  28.746  30.526  1.00  0.00    -0.354 N 
ATOM     52  N   UNL A   1      44.244  26.166  29.333  1.00  0.00    -0.248 NA
ATOM     53  C   UNL A   1      44.819  23.983  28.728  1.00  0.00     0.031 C 
ATOM     54  C   UNL A   1      46.995  29.013  31.339  1.00  0.00     0.029 A 
ATOM     55  C   UNL A   1      46.154  28.100  30.725  1.00  0.00     0.049 A 
ATOM     56  H   UNL A   1      44.154  28.347  30.096  1.00  0.00     0.167 HD
ATOM     57  C   UNL A   1      45.548  25.911  29.734  1.00  0.00     0.074 A 
ATOM     58  C   UNL A   1      45.838  24.540  29.367  1.00  0.00     0.031 C 
ATOM     59  C   UNL A   1      46.427  26.737  30.352  1.00  0.00     0.031 A 
BRANCH  46  60
ATOM     60  C   UNL A   1      44.185  32.384  31.480  1.00  0.00    -0.014 A 
ATOM     61  C   UNL A   1      43.915  32.726  32.815  1.00  0.00     0.009 A 
ATOM     62  C   UNL A   1      44.714  33.362  30.623  1.00  0.00     0.009 A 
ATOM     63  C   UNL A   1      44.129  34.029  33.269  1.00  0.00     0.001 A 
ATOM     64  C   UNL A   1      44.955  34.657  31.089  1.00  0.00     0.001 A 
ATOM     65  C   UNL A   1      44.653  34.991  32.408  1.00  0.00     0.000 A 
ENDBRANCH  46  60
BRANCH  47  66
ATOM     66  C   UNL A   1      42.182  23.414  27.608  1.00  0.00    -0.014 A 
ATOM     67  C   UNL A   1      42.531  23.132  26.278  1.00  0.00     0.009 A 
ATOM     68  C   UNL A   1      41.566  22.414  28.376  1.00  0.00     0.009 A 
ATOM     69  C   UNL A   1      42.244  21.886  25.720  1.00  0.00     0.001 A 
ATOM     70  C   UNL A   1      41.304  21.159  27.822  1.00  0.00     0.001 A 
ATOM     71  C   UNL A   1      41.636  20.898  26.494  1.00  0.00     0.000 A 
ENDBRANCH  47  66
BRANCH  59  72
ATOM     72  C   UNL A   1      47.772  26.164  30.699  1.00  0.00    -0.014 A 
ATOM     73  C   UNL A   1      48.799  26.085  29.747  1.00  0.00     0.009 A 
ATOM     74  C   UNL A   1      48.017  25.714  32.006  1.00  0.00     0.009 A 
ATOM     75  C   UNL A   1      50.034  25.530  30.087  1.00  0.00     0.001 A 
ATOM     76  C   UNL A   1      49.261  25.184  32.350  1.00  0.00     0.001 A 
ATOM     77  C   UNL A   1      50.264  25.081  31.388  1.00  0.00     0.000 A 
ENDBRANCH  59  72
ENDBRANCH  33  34
ENDBRANCH  25  28
ENDBRANCH  23  24
ENDBRANCH   1  23
TORSDOF 11
ENDMDL
MODEL 3
REMARK VINA RESULT:      -9.2      2.545      7.604
REMARK SMILES Cc1cc(-c2cc(C(=O)NCCCNC(=O)c3ccc(-c4c5nc(c(-c6ccccc6)c6ccc([nH]6)c(-c6ccccc6)c6nc(c(-c7ccccc7)c7ccc4[nH]7)C=C6)C=C5)cc3)c[nH]c2=O)ccc1Cl
REMARK SMILES IDX 12 1 11 2 10 3 8 4 9 5 7 7 5 8 6 9 67 10 66 11 68 12 65 13
REMARK SMILES IDX 4 15 1 16 2 17 3 18 71 19 70 20 72 21 69 22 13 23 14 24
REMARK SMILES IDX 15 25 16 27 17 28 18 29 64 30 19 31 63 32 20 33 21 34 22 35
REMARK SMILES IDX 57 36 23 37 62 38 56 39 58 40 24 41 61 42 55 43 54 44 25 46
REMARK SMILES IDX 47 47 32 48 46 49 33 50 36 51 45 52 59 53 34 54 35 55 44 57
REMARK SMILES IDX 60 58 37 59 26 60 27 61 31 62 28 63 30 64 29 65 48 66 49 67
REMARK SMILES IDX 53 68 50 69 52 70 51 71 38 72 39 73 43 74 40 75 42 76 41 77
REMARK H PARENT 10 6 66 14 14 26 58 45 36 56
REMARK Flexibility Score: inf
ROOT
ATOM      1  C   UNL A   1      37.172  19.811  24.975  1.00  0.00     0.042 C 
ENDROOT
BRANCH   1   2
ATOM      2  C   UNL A   1      35.942  20.719  25.028  1.00  0.00     0.118 C 
BRANCH   2   3
ATOM      3  N   UNL A   1      34.734  19.956  25.289  1.00  0.00    -0.352 N 
ATOM      4  C   UNL A   1      33.411  20.216  25.097  1.00  0.00     0.252 C 
ATOM      5  O   UNL A   1      32.619  19.327  25.417  1.00  0.00    -0.269 OA
ATOM      6  H   UNL A   1      34.906  19.073  25.687  1.00  0.00     0.163 HD
BRANCH   4   7
ATOM      7  C   UNL A   1      32.915  21.485  24.473  1.00  0.00     0.056 A 
ATOM      8  C   UNL A   1      32.299  23.854  24.519  1.00  0.00     0.048 A 
ATOM      9  C   UNL A   1      32.630  22.722  25.169  1.00  0.00     0.029 A 
ATOM     10  C   UNL A   1      32.073  23.795  23.040  1.00  0.00     0.255 A 
ATOM     11  N   UNL A   1      32.279  22.562  22.461  1.00  0.00    -0.328 N 
ATOM     12  O   UNL A   1      31.720  24.766  22.382  1.00  0.00    -0.269 OA
ATOM     13  C   UNL A   1      32.699  21.446  23.146  1.00  0.00     0.099 A 
ATOM     14  H   UNL A   1      32.115  22.474  21.495  1.00  0.00     0.169 HD
BRANCH   8  15
ATOM     15  C   UNL A   1      32.184  25.103  25.286  1.00  0.00    -0.012 A 
ATOM     16  C   UNL A   1      34.330  28.087  26.278  1.00  0.00     0.046 C 
ATOM     17  C   UNL A   1      33.139  27.185  26.130  1.00  0.00    -0.032 A 
ATOM     18  C   UNL A   1      33.278  25.961  25.450  1.00  0.00     0.014 A 
ATOM     19  C   UNL A   1      31.883  27.529  26.656  1.00  0.00     0.044 A 
ATOM     20  C   UNL A   1      30.791  26.672  26.506  1.00  0.00     0.021 A 
ATOM     21  Cl  UNL A   1      31.628  29.017  27.495  1.00  0.00    -0.084 Cl
ATOM     22  C   UNL A   1      30.941  25.465  25.825  1.00  0.00     0.010 A 
ENDBRANCH   8  15
ENDBRANCH   4   7
ENDBRANCH   2   3
ENDBRANCH   1   2
BRANCH   1  23
ATOM     23  C   UNL A   1      38.457  20.493  25.444  1.00  0.00     0.118 C 
BRANCH  23  24
ATOM     24  N   UNL A   1      39.539  19.539  25.623  1.00  0.00    -0.352 N 
ATOM     25  C   UNL A   1      40.844  19.728  25.994  1.00  0.00     0.251 C 
ATOM     26  H   UNL A   1      39.293  18.601  25.449  1.00  0.00     0.163 HD
ATOM     27  O   UNL A   1      41.634  18.795  25.868  1.00  0.00    -0.269 OA
BRANCH  25  28
ATOM     28  C   UNL A   1      41.323  21.019  26.542  1.00  0.00     0.039 A 
ATOM     29  C   UNL A   1      41.147  21.257  27.909  1.00  0.00     0.014 A 
ATOM     30  C   UNL A   1      41.842  22.029  25.727  1.00  0.00     0.014 A 
ATOM     31  C   UNL A   1      41.494  22.493  28.458  1.00  0.00     0.010 A 
ATOM     32  C   UNL A   1      42.251  23.240  26.286  1.00  0.00     0.010 A 
ATOM     33  C   UNL A   1      42.055  23.495  27.651  1.00  0.00    -0.014 A 
BRANCH  33  34
ATOM     34  C   UNL A   1      42.392  24.823  28.223  1.00  0.00     0.031 A 
ATOM     35  C   UNL A   1      43.809  25.143  28.620  1.00  0.00     0.074 A 
ATOM     36  C   UNL A   1      41.422  25.740  28.401  1.00  0.00     0.049 A 
ATOM     37  N   UNL A   1      44.297  26.251  29.119  1.00  0.00    -0.248 NA
ATOM     38  C   UNL A   1      44.804  24.071  28.455  1.00  0.00     0.031 C 
ATOM     39  C   UNL A   1      40.004  25.543  28.095  1.00  0.00     0.029 A 
ATOM     40  N   UNL A   1      41.485  27.024  28.880  1.00  0.00    -0.354 N 
ATOM     41  C   UNL A   1      45.645  26.003  29.345  1.00  0.00     0.074 A 
ATOM     42  C   UNL A   1      45.889  24.627  28.973  1.00  0.00     0.031 C 
ATOM     43  C   UNL A   1      39.337  26.677  28.364  1.00  0.00     0.029 A 
ATOM     44  C   UNL A   1      40.273  27.669  28.884  1.00  0.00     0.049 A 
ATOM     45  H   UNL A   1      42.320  27.444  29.191  1.00  0.00     0.167 HD
ATOM     46  C   UNL A   1      46.601  26.846  29.804  1.00  0.00     0.031 A 
ATOM     47  C   UNL A   1      39.952  28.922  29.254  1.00  0.00     0.031 A 
ATOM     48  C   UNL A   1      46.367  28.221  30.158  1.00  0.00     0.049 A 
ATOM     49  C   UNL A   1      41.033  29.849  29.732  1.00  0.00     0.074 A 
ATOM     50  C   UNL A   1      47.280  29.172  30.581  1.00  0.00     0.029 A 
ATOM     51  N   UNL A   1      45.128  28.841  30.127  1.00  0.00    -0.354 N 
ATOM     52  N   UNL A   1      42.316  29.618  29.878  1.00  0.00    -0.248 NA
ATOM     53  C   UNL A   1      40.624  31.218  30.077  1.00  0.00     0.031 C 
ATOM     54  C   UNL A   1      46.584  30.358  30.843  1.00  0.00     0.029 A 
ATOM     55  C   UNL A   1      45.248  30.159  30.536  1.00  0.00     0.049 A 
ATOM     56  H   UNL A   1      44.286  28.408  29.855  1.00  0.00     0.167 HD
ATOM     57  C   UNL A   1      42.870  30.818  30.303  1.00  0.00     0.074 A 
ATOM     58  C   UNL A   1      41.788  31.777  30.376  1.00  0.00     0.031 C 
ATOM     59  C   UNL A   1      44.161  31.099  30.606  1.00  0.00     0.031 A 
BRANCH  46  60
ATOM     60  C   UNL A   1      47.993  26.295  29.954  1.00  0.00    -0.014 A 
ATOM     61  C   UNL A   1      48.430  25.742  31.169  1.00  0.00     0.009 A 
ATOM     62  C   UNL A   1      48.872  26.309  28.860  1.00  0.00     0.009 A 
ATOM     63  C   UNL A   1      49.733  25.255  31.297  1.00  0.00     0.001 A 
ATOM     64  C   UNL A   1      50.164  25.794  28.983  1.00  0.00     0.001 A 
ATOM     65  C   UNL A   1      50.597  25.278  30.203  1.00  0.00     0.000 A 
ENDBRANCH  46  60
BRANCH  47  66
ATOM     66  C   UNL A   1      38.545  29.388  29.149  1.00  0.00    -0.014 A 
ATOM     67  C   UNL A   1      38.073  29.959  27.956  1.00  0.00     0.009 A 
ATOM     68  C   UNL A   1      37.668  29.260  30.236  1.00  0.00     0.009 A 
ATOM     69  C   UNL A   1      36.758  30.416  27.864  1.00  0.00     0.001 A 
ATOM     70  C   UNL A   1      36.345  29.694  30.130  1.00  0.00     0.001 A 
ATOM     71  C   UNL A   1      35.893  30.279  28.949  1.00  0.00     0.000 A 
ENDBRANCH  47  66
BRANCH  59  72
ATOM     72  C   UNL A   1      44.473  32.513  31.008  1.00  0.00    -0.014 A 
ATOM     73  C   UNL A   1      44.803  33.487  30.054  1.00  0.00     0.009 A 
ATOM     74  C   UNL A   1      44.415  32.877  32.363  1.00  0.00     0.009 A 
ATOM     75  C   UNL A   1      45.109  34.790  30.453  1.00  0.00     0.001 A 
ATOM     76  C   UNL A   1      44.695  34.187  32.756  1.00  0.00     0.001 A 
ATOM     77  C   UNL A   1      45.053  35.138  31.803  1.00  0.00     0.000 A 
ENDBRANCH  59  72
ENDBRANCH  33  34
ENDBRANCH  25  28
ENDBRANCH  23  24
ENDBRANCH   1  23
TORSDOF 11
ENDMDL
