MODEL 1
REMARK VINA RESULT:      -9.7      0.000      0.000
REMARK SMILES Nc1ccc(C(=O)NC[C@@H]2CC[C@@H](C(=O)NCCCNC(=O)c3ccc(-c4c5nc(c(-c6ccccc6)c6ccc([nH]6)c(-c6ccccc6)c6nc(c(-c7ccccc7)c7ccc4[nH]7)C=C6)C=C5)cc3)O2)cc1Cl
REMARK SMILES IDX 17 1 16 2 14 3 15 4 13 6 10 7 11 8 71 9 12 10 9 11 8 12 6 13
REMARK SMILES IDX 7 14 5 16 2 17 3 18 73 19 4 20 72 21 74 22 1 23 18 26 19 27
REMARK SMILES IDX 20 28 21 29 22 31 23 32 24 33 70 34 25 35 69 36 26 37 27 38
REMARK SMILES IDX 28 39 63 40 29 41 68 42 62 43 64 44 30 45 67 46 61 47 60 48
REMARK SMILES IDX 31 50 53 51 38 52 52 53 39 54 42 55 51 56 65 57 40 58 41 59
REMARK SMILES IDX 50 61 66 62 43 63 32 64 33 65 37 66 34 67 36 68 35 69 54 70
REMARK SMILES IDX 55 71 59 72 56 73 58 74 57 75 44 76 45 77 49 78 46 79 48 80
REMARK SMILES IDX 47 81
REMARK H PARENT 16 5 8 15 1 24 1 25 20 30 64 49 42 60
REMARK Flexibility Score: inf
ROOT
ATOM      1  C   UNL A   1      32.558  36.009  30.785  1.00  0.00     0.117 C 
ENDROOT
BRANCH   1   2
ATOM      2  N   UNL A   1      32.762  36.693  32.048  1.00  0.00    -0.354 N 
ATOM      3  C   UNL A   1      33.707  36.488  33.011  1.00  0.00     0.249 C 
ATOM      4  O   UNL A   1      33.664  37.214  34.007  1.00  0.00    -0.272 OA
ATOM      5  H   UNL A   1      32.121  37.416  32.240  1.00  0.00     0.163 HD
BRANCH   3   6
ATOM      6  C   UNL A   1      34.722  35.335  32.875  1.00  0.00     0.207 C 
ATOM      7  C   UNL A   1      36.002  34.315  34.548  1.00  0.00     0.138 C 
ATOM      8  C   UNL A   1      35.246  33.220  33.820  1.00  0.00     0.037 C 
ATOM      9  O   UNL A   1      35.892  35.466  33.698  1.00  0.00    -0.363 OA
ATOM     10  C   UNL A   1      34.088  33.994  33.240  1.00  0.00     0.045 C 
BRANCH   7  11
ATOM     11  C   UNL A   1      37.473  34.038  34.908  1.00  0.00     0.148 C 
BRANCH  11  12
ATOM     12  N   UNL A   1      37.665  33.269  36.128  1.00  0.00    -0.349 N 
ATOM     13  C   UNL A   1      38.229  32.074  36.468  1.00  0.00     0.251 C 
ATOM     14  O   UNL A   1      38.117  31.763  37.658  1.00  0.00    -0.269 OA
ATOM     15  H   UNL A   1      37.292  33.732  36.912  1.00  0.00     0.163 HD
BRANCH  13  16
ATOM     16  C   UNL A   1      38.959  31.141  35.561  1.00  0.00     0.041 A 
ATOM     17  C   UNL A   1      40.097  29.261  33.746  1.00  0.00     0.050 A 
ATOM     18  C   UNL A   1      40.876  29.895  34.718  1.00  0.00     0.028 A 
ATOM     19  C   UNL A   1      38.747  29.628  33.651  1.00  0.00     0.064 A 
ATOM     20  C   UNL A   1      40.315  30.819  35.617  1.00  0.00     0.016 A 
ATOM     21  C   UNL A   1      38.187  30.538  34.550  1.00  0.00     0.036 A 
ATOM     22  Cl  UNL A   1      37.729  28.941  32.431  1.00  0.00    -0.082 Cl
BRANCH  17  23
ATOM     23  N   UNL A   1      40.697  28.403  32.830  1.00  0.00    -0.398 N 
ATOM     24  H   UNL A   1      41.671  28.258  32.855  1.00  0.00     0.156 HD
ATOM     25  H   UNL A   1      40.149  27.939  32.158  1.00  0.00     0.156 HD
ENDBRANCH  17  23
ENDBRANCH  13  16
ENDBRANCH  11  12
ENDBRANCH   7  11
ENDBRANCH   3   6
ENDBRANCH   1   2
BRANCH   1  26
ATOM     26  C   UNL A   1      32.941  36.873  29.590  1.00  0.00     0.042 C 
BRANCH  26  27
ATOM     27  C   UNL A   1      33.677  36.130  28.482  1.00  0.00     0.118 C 
BRANCH  27  28
ATOM     28  N   UNL A   1      33.003  34.907  28.068  1.00  0.00    -0.352 N 
ATOM     29  C   UNL A   1      33.440  33.603  28.059  1.00  0.00     0.251 C 
ATOM     30  H   UNL A   1      32.083  35.035  27.741  1.00  0.00     0.163 HD
ATOM     31  O   UNL A   1      32.764  32.738  27.515  1.00  0.00    -0.269 OA
BRANCH  29  32
ATOM     32  C   UNL A   1      34.741  33.243  28.666  1.00  0.00     0.039 A 
ATOM     33  C   UNL A   1      34.744  32.515  29.859  1.00  0.00     0.014 A 
ATOM     34  C   UNL A   1      35.949  33.615  28.072  1.00  0.00     0.014 A 
ATOM     35  C   UNL A   1      35.954  32.070  30.398  1.00  0.00     0.010 A 
ATOM     36  C   UNL A   1      37.147  33.105  28.565  1.00  0.00     0.010 A 
ATOM     37  C   UNL A   1      37.161  32.310  29.721  1.00  0.00    -0.014 A 
BRANCH  37  38
ATOM     38  C   UNL A   1      38.434  31.692  30.169  1.00  0.00     0.031 A 
ATOM     39  C   UNL A   1      39.334  32.403  31.139  1.00  0.00     0.074 A 
ATOM     40  C   UNL A   1      38.822  30.519  29.628  1.00  0.00     0.049 A 
ATOM     41  N   UNL A   1      40.523  32.058  31.566  1.00  0.00    -0.248 NA
ATOM     42  C   UNL A   1      38.844  33.678  31.687  1.00  0.00     0.031 C 
ATOM     43  C   UNL A   1      38.056  29.741  28.651  1.00  0.00     0.029 A 
ATOM     44  N   UNL A   1      39.966  29.783  29.812  1.00  0.00    -0.354 N 
ATOM     45  C   UNL A   1      40.928  33.076  32.419  1.00  0.00     0.074 A 
ATOM     46  C   UNL A   1      39.878  34.072  32.417  1.00  0.00     0.031 C 
ATOM     47  C   UNL A   1      38.741  28.630  28.338  1.00  0.00     0.029 A 
ATOM     48  C   UNL A   1      40.015  28.642  29.048  1.00  0.00     0.049 A 
ATOM     49  H   UNL A   1      40.683  30.047  30.433  1.00  0.00     0.167 HD
ATOM     50  C   UNL A   1      42.066  33.167  33.148  1.00  0.00     0.031 A 
ATOM     51  C   UNL A   1      40.984  27.717  28.913  1.00  0.00     0.031 A 
ATOM     52  C   UNL A   1      43.113  32.179  33.147  1.00  0.00     0.049 A 
ATOM     53  C   UNL A   1      42.259  27.869  29.695  1.00  0.00     0.074 A 
ATOM     54  C   UNL A   1      44.278  32.157  33.895  1.00  0.00     0.029 A 
ATOM     55  N   UNL A   1      43.130  31.046  32.349  1.00  0.00    -0.354 N 
ATOM     56  N   UNL A   1      42.595  28.801  30.553  1.00  0.00    -0.248 NA
ATOM     57  C   UNL A   1      43.286  26.838  29.490  1.00  0.00     0.031 C 
ATOM     58  C   UNL A   1      45.029  31.045  33.503  1.00  0.00     0.029 A 
ATOM     59  C   UNL A   1      44.304  30.339  32.557  1.00  0.00     0.049 A 
ATOM     60  H   UNL A   1      42.414  30.781  31.727  1.00  0.00     0.167 HD
ATOM     61  C   UNL A   1      43.863  28.460  31.004  1.00  0.00     0.074 A 
ATOM     62  C   UNL A   1      44.225  27.223  30.344  1.00  0.00     0.031 C 
ATOM     63  C   UNL A   1      44.658  29.115  31.885  1.00  0.00     0.031 A 
BRANCH  50  64
ATOM     64  C   UNL A   1      42.249  34.392  34.002  1.00  0.00    -0.014 A 
ATOM     65  C   UNL A   1      42.831  35.561  33.486  1.00  0.00     0.009 A 
ATOM     66  C   UNL A   1      41.788  34.392  35.329  1.00  0.00     0.009 A 
ATOM     67  C   UNL A   1      42.980  36.693  34.292  1.00  0.00     0.001 A 
ATOM     68  C   UNL A   1      41.911  35.535  36.122  1.00  0.00     0.001 A 
ATOM     69  C   UNL A   1      42.515  36.680  35.606  1.00  0.00     0.000 A 
ENDBRANCH  50  64
BRANCH  51  70
ATOM     70  C   UNL A   1      40.795  26.568  27.989  1.00  0.00    -0.014 A 
ATOM     71  C   UNL A   1      40.144  25.403  28.423  1.00  0.00     0.009 A 
ATOM     72  C   UNL A   1      41.275  26.625  26.671  1.00  0.00     0.009 A 
ATOM     73  C   UNL A   1      40.000  24.311  27.564  1.00  0.00     0.001 A 
ATOM     74  C   UNL A   1      41.103  25.543  25.805  1.00  0.00     0.001 A 
ATOM     75  C   UNL A   1      40.475  24.383  26.255  1.00  0.00     0.000 A 
ENDBRANCH  51  70
BRANCH  63  76
ATOM     76  C   UNL A   1      45.991  28.496  32.200  1.00  0.00    -0.014 A 
ATOM     77  C   UNL A   1      47.140  28.835  31.468  1.00  0.00     0.009 A 
ATOM     78  C   UNL A   1      46.107  27.594  33.269  1.00  0.00     0.009 A 
ATOM     79  C   UNL A   1      48.372  28.257  31.781  1.00  0.00     0.001 A 
ATOM     80  C   UNL A   1      47.346  27.042  33.599  1.00  0.00     0.001 A 
ATOM     81  C   UNL A   1      48.475  27.366  32.849  1.00  0.00     0.000 A 
ENDBRANCH  63  76
ENDBRANCH  37  38
ENDBRANCH  29  32
ENDBRANCH  27  28
ENDBRANCH  26  27
ENDBRANCH   1  26
TORSDOF 14
ENDMDL
MODEL 2
REMARK VINA RESULT:      -9.3      5.590     11.190
REMARK SMILES Nc1ccc(C(=O)NC[C@@H]2CC[C@@H](C(=O)NCCCNC(=O)c3ccc(-c4c5nc(c(-c6ccccc6)c6ccc([nH]6)c(-c6ccccc6)c6nc(c(-c7ccccc7)c7ccc4[nH]7)C=C6)C=C5)cc3)O2)cc1Cl
REMARK SMILES IDX 17 1 16 2 14 3 15 4 13 6 10 7 11 8 71 9 12 10 9 11 8 12 6 13
REMARK SMILES IDX 7 14 5 16 2 17 3 18 73 19 4 20 72 21 74 22 1 23 18 26 19 27
REMARK SMILES IDX 20 28 21 29 22 31 23 32 24 33 70 34 25 35 69 36 26 37 27 38
REMARK SMILES IDX 28 39 63 40 29 41 68 42 62 43 64 44 30 45 67 46 61 47 60 48
REMARK SMILES IDX 31 50 53 51 38 52 52 53 39 54 42 55 51 56 65 57 40 58 41 59
REMARK SMILES IDX 50 61 66 62 43 63 32 64 33 65 37 66 34 67 36 68 35 69 54 70
REMARK SMILES IDX 55 71 59 72 56 73 58 74 57 75 44 76 45 77 49 78 46 79 48 80
REMARK SMILES IDX 47 81
REMARK H PARENT 16 5 8 15 1 24 1 25 20 30 64 49 42 60
REMARK Flexibility Score: inf
ROOT
ATOM      1  C   UNL A   1      36.140  21.624  24.921  1.00  0.00     0.117 C 
ENDROOT
BRANCH   1   2
ATOM      2  N   UNL A   1      35.344  21.290  26.087  1.00  0.00    -0.354 N 
ATOM      3  C   UNL A   1      34.188  21.852  26.548  1.00  0.00     0.249 C 
ATOM      4  O   UNL A   1      33.703  21.377  27.578  1.00  0.00    -0.272 OA
ATOM      5  H   UNL A   1      35.690  20.544  26.629  1.00  0.00     0.163 HD
BRANCH   3   6
ATOM      6  C   UNL A   1      33.581  23.079  25.840  1.00  0.00     0.207 C 
ATOM      7  C   UNL A   1      31.554  23.238  24.681  1.00  0.00     0.138 C 
ATOM      8  C   UNL A   1      31.567  24.334  25.730  1.00  0.00     0.037 C 
ATOM      9  O   UNL A   1      32.914  22.789  24.601  1.00  0.00    -0.363 OA
ATOM     10  C   UNL A   1      32.552  23.778  26.728  1.00  0.00     0.045 C 
BRANCH   7  11
ATOM     11  C   UNL A   1      31.015  23.604  23.286  1.00  0.00     0.148 C 
BRANCH  11  12
ATOM     12  N   UNL A   1      32.005  24.160  22.378  1.00  0.00    -0.349 N 
ATOM     13  C   UNL A   1      32.518  25.396  22.106  1.00  0.00     0.251 C 
ATOM     14  O   UNL A   1      33.333  25.430  21.179  1.00  0.00    -0.269 OA
ATOM     15  H   UNL A   1      32.412  23.465  21.814  1.00  0.00     0.163 HD
BRANCH  13  16
ATOM     16  C   UNL A   1      32.200  26.671  22.814  1.00  0.00     0.041 A 
ATOM     17  C   UNL A   1      31.781  29.023  24.367  1.00  0.00     0.050 A 
ATOM     18  C   UNL A   1      30.905  28.667  23.337  1.00  0.00     0.028 A 
ATOM     19  C   UNL A   1      32.910  28.217  24.571  1.00  0.00     0.064 A 
ATOM     20  C   UNL A   1      31.108  27.504  22.573  1.00  0.00     0.016 A 
ATOM     21  C   UNL A   1      33.107  27.056  23.819  1.00  0.00     0.036 A 
ATOM     22  Cl  UNL A   1      34.079  28.625  25.780  1.00  0.00    -0.082 Cl
BRANCH  17  23
ATOM     23  N   UNL A   1      31.587  30.215  25.058  1.00  0.00    -0.398 N 
ATOM     24  H   UNL A   1      32.323  30.864  25.137  1.00  0.00     0.156 HD
ATOM     25  H   UNL A   1      30.712  30.410  25.467  1.00  0.00     0.156 HD
ENDBRANCH  17  23
ENDBRANCH  13  16
ENDBRANCH  11  12
ENDBRANCH   7  11
ENDBRANCH   3   6
ENDBRANCH   1   2
BRANCH   1  26
ATOM     26  C   UNL A   1      37.315  20.675  24.730  1.00  0.00     0.042 C 
BRANCH  26  27
ATOM     27  C   UNL A   1      38.484  20.918  25.677  1.00  0.00     0.118 C 
BRANCH  27  28
ATOM     28  N   UNL A   1      39.459  19.835  25.671  1.00  0.00    -0.352 N 
ATOM     29  C   UNL A   1      40.796  19.832  25.995  1.00  0.00     0.251 C 
ATOM     30  H   UNL A   1      39.103  18.962  25.389  1.00  0.00     0.163 HD
ATOM     31  O   UNL A   1      41.475  18.839  25.765  1.00  0.00    -0.269 OA
BRANCH  29  32
ATOM     32  C   UNL A   1      41.428  21.034  26.583  1.00  0.00     0.039 A 
ATOM     33  C   UNL A   1      41.956  22.002  25.723  1.00  0.00     0.014 A 
ATOM     34  C   UNL A   1      41.505  21.213  27.966  1.00  0.00     0.014 A 
ATOM     35  C   UNL A   1      42.462  23.194  26.247  1.00  0.00     0.010 A 
ATOM     36  C   UNL A   1      41.936  22.433  28.482  1.00  0.00     0.010 A 
ATOM     37  C   UNL A   1      42.399  23.443  27.627  1.00  0.00    -0.014 A 
BRANCH  37  38
ATOM     38  C   UNL A   1      42.755  24.771  28.189  1.00  0.00     0.031 A 
ATOM     39  C   UNL A   1      41.705  25.827  28.388  1.00  0.00     0.074 A 
ATOM     40  C   UNL A   1      44.049  25.055  28.439  1.00  0.00     0.049 A 
ATOM     41  N   UNL A   1      41.848  27.069  28.777  1.00  0.00    -0.248 NA
ATOM     42  C   UNL A   1      40.314  25.444  28.095  1.00  0.00     0.031 C 
ATOM     43  C   UNL A   1      45.170  24.130  28.257  1.00  0.00     0.029 A 
ATOM     44  N   UNL A   1      44.643  26.210  28.884  1.00  0.00    -0.354 N 
ATOM     45  C   UNL A   1      40.572  27.619  28.761  1.00  0.00     0.074 A 
ATOM     46  C   UNL A   1      39.674  26.589  28.285  1.00  0.00     0.031 C 
ATOM     47  C   UNL A   1      46.310  24.745  28.607  1.00  0.00     0.029 A 
ATOM     48  C   UNL A   1      46.010  26.122  28.985  1.00  0.00     0.049 A 
ATOM     49  H   UNL A   1      44.136  27.024  29.111  1.00  0.00     0.167 HD
ATOM     50  C   UNL A   1      40.183  28.865  29.123  1.00  0.00     0.031 A 
ATOM     51  C   UNL A   1      46.927  27.049  29.322  1.00  0.00     0.031 A 
ATOM     52  C   UNL A   1      41.077  29.891  29.592  1.00  0.00     0.049 A 
ATOM     53  C   UNL A   1      46.473  28.439  29.670  1.00  0.00     0.074 A 
ATOM     54  C   UNL A   1      40.768  31.166  30.035  1.00  0.00     0.029 A 
ATOM     55  N   UNL A   1      42.456  29.766  29.667  1.00  0.00    -0.354 N 
ATOM     56  N   UNL A   1      45.255  28.921  29.719  1.00  0.00    -0.248 NA
ATOM     57  C   UNL A   1      47.521  29.411  30.009  1.00  0.00     0.031 C 
ATOM     58  C   UNL A   1      41.965  31.834  30.316  1.00  0.00     0.029 A 
ATOM     59  C   UNL A   1      43.015  30.954  30.109  1.00  0.00     0.049 A 
ATOM     60  H   UNL A   1      42.963  28.953  29.439  1.00  0.00     0.167 HD
ATOM     61  C   UNL A   1      45.389  30.246  30.115  1.00  0.00     0.074 A 
ATOM     62  C   UNL A   1      46.803  30.484  30.314  1.00  0.00     0.031 C 
ATOM     63  C   UNL A   1      44.425  31.182  30.292  1.00  0.00     0.031 A 
BRANCH  50  64
ATOM     64  C   UNL A   1      38.721  29.197  29.010  1.00  0.00    -0.014 A 
ATOM     65  C   UNL A   1      37.852  29.050  30.104  1.00  0.00     0.009 A 
ATOM     66  C   UNL A   1      38.212  29.708  27.805  1.00  0.00     0.009 A 
ATOM     67  C   UNL A   1      36.499  29.376  29.982  1.00  0.00     0.001 A 
ATOM     68  C   UNL A   1      36.866  30.060  27.696  1.00  0.00     0.001 A 
ATOM     69  C   UNL A   1      36.009  29.885  28.781  1.00  0.00     0.000 A 
ENDBRANCH  50  64
BRANCH  51  70
ATOM     70  C   UNL A   1      48.372  26.699  29.334  1.00  0.00    -0.014 A 
ATOM     71  C   UNL A   1      48.969  26.175  30.491  1.00  0.00     0.009 A 
ATOM     72  C   UNL A   1      49.165  26.898  28.193  1.00  0.00     0.009 A 
ATOM     73  C   UNL A   1      50.335  25.882  30.512  1.00  0.00     0.001 A 
ATOM     74  C   UNL A   1      50.523  26.576  28.207  1.00  0.00     0.001 A 
ATOM     75  C   UNL A   1      51.109  26.078  29.369  1.00  0.00     0.000 A 
ENDBRANCH  51  70
BRANCH  63  76
ATOM     76  C   UNL A   1      44.868  32.546  30.743  1.00  0.00    -0.014 A 
ATOM     77  C   UNL A   1      45.159  33.559  29.816  1.00  0.00     0.009 A 
ATOM     78  C   UNL A   1      44.956  32.834  32.114  1.00  0.00     0.009 A 
ATOM     79  C   UNL A   1      45.560  34.823  30.253  1.00  0.00     0.001 A 
ATOM     80  C   UNL A   1      45.326  34.108  32.549  1.00  0.00     0.001 A 
ATOM     81  C   UNL A   1      45.637  35.098  31.618  1.00  0.00     0.000 A 
ENDBRANCH  63  76
ENDBRANCH  37  38
ENDBRANCH  29  32
ENDBRANCH  27  28
ENDBRANCH  26  27
ENDBRANCH   1  26
TORSDOF 14
ENDMDL
MODEL 3
REMARK VINA RESULT:      -9.2      5.651     11.459
REMARK SMILES Nc1ccc(C(=O)NC[C@@H]2CC[C@@H](C(=O)NCCCNC(=O)c3ccc(-c4c5nc(c(-c6ccccc6)c6ccc([nH]6)c(-c6ccccc6)c6nc(c(-c7ccccc7)c7ccc4[nH]7)C=C6)C=C5)cc3)O2)cc1Cl
REMARK SMILES IDX 17 1 16 2 14 3 15 4 13 6 10 7 11 8 71 9 12 10 9 11 8 12 6 13
REMARK SMILES IDX 7 14 5 16 2 17 3 18 73 19 4 20 72 21 74 22 1 23 18 26 19 27
REMARK SMILES IDX 20 28 21 29 22 31 23 32 24 33 70 34 25 35 69 36 26 37 27 38
REMARK SMILES IDX 28 39 63 40 29 41 68 42 62 43 64 44 30 45 67 46 61 47 60 48
REMARK SMILES IDX 31 50 53 51 38 52 52 53 39 54 42 55 51 56 65 57 40 58 41 59
REMARK SMILES IDX 50 61 66 62 43 63 32 64 33 65 37 66 34 67 36 68 35 69 54 70
REMARK SMILES IDX 55 71 59 72 56 73 58 74 57 75 44 76 45 77 49 78 46 79 48 80
REMARK SMILES IDX 47 81
REMARK H PARENT 16 5 8 15 1 24 1 25 20 30 64 49 42 60
REMARK Flexibility Score: inf
ROOT
ATOM      1  C   UNL A   1      36.457  21.082  25.117  1.00  0.00     0.117 C 
ENDROOT
BRANCH   1   2
ATOM      2  N   UNL A   1      35.248  20.333  25.406  1.00  0.00    -0.354 N 
ATOM      3  C   UNL A   1      33.942  20.729  25.364  1.00  0.00     0.249 C 
ATOM      4  O   UNL A   1      33.089  19.889  25.659  1.00  0.00    -0.272 OA
ATOM      5  H   UNL A   1      35.390  19.396  25.672  1.00  0.00     0.163 HD
BRANCH   3   6
ATOM      6  C   UNL A   1      33.581  22.193  25.040  1.00  0.00     0.207 C 
ATOM      7  C   UNL A   1      31.526  23.067  24.341  1.00  0.00     0.138 C 
ATOM      8  C   UNL A   1      31.964  23.852  25.563  1.00  0.00     0.037 C 
ATOM      9  O   UNL A   1      32.700  22.359  23.917  1.00  0.00    -0.363 OA
ATOM     10  C   UNL A   1      32.898  22.871  26.226  1.00  0.00     0.045 C 
BRANCH   7  11
ATOM     11  C   UNL A   1      30.914  23.862  23.174  1.00  0.00     0.148 C 
BRANCH  11  12
ATOM     12  N   UNL A   1      31.884  24.435  22.254  1.00  0.00    -0.349 N 
ATOM     13  C   UNL A   1      32.425  25.667  22.024  1.00  0.00     0.251 C 
ATOM     14  O   UNL A   1      33.202  25.725  21.066  1.00  0.00    -0.269 OA
ATOM     15  H   UNL A   1      32.246  23.758  21.639  1.00  0.00     0.163 HD
BRANCH  13  16
ATOM     16  C   UNL A   1      32.177  26.912  22.808  1.00  0.00     0.041 A 
ATOM     17  C   UNL A   1      31.872  29.179  24.508  1.00  0.00     0.050 A 
ATOM     18  C   UNL A   1      31.027  28.973  23.415  1.00  0.00     0.028 A 
ATOM     19  C   UNL A   1      32.918  28.266  24.705  1.00  0.00     0.064 A 
ATOM     20  C   UNL A   1      31.172  27.852  22.578  1.00  0.00     0.016 A 
ATOM     21  C   UNL A   1      33.058  27.147  23.880  1.00  0.00     0.036 A 
ATOM     22  Cl  UNL A   1      34.052  28.487  25.994  1.00  0.00    -0.082 Cl
BRANCH  17  23
ATOM     23  N   UNL A   1      31.742  30.332  25.275  1.00  0.00    -0.398 N 
ATOM     24  H   UNL A   1      31.183  31.077  24.954  1.00  0.00     0.156 HD
ATOM     25  H   UNL A   1      32.207  30.403  26.140  1.00  0.00     0.156 HD
ENDBRANCH  17  23
ENDBRANCH  13  16
ENDBRANCH  11  12
ENDBRANCH   7  11
ENDBRANCH   3   6
ENDBRANCH   1   2
BRANCH   1  26
ATOM     26  C   UNL A   1      37.671  20.178  24.947  1.00  0.00     0.042 C 
BRANCH  26  27
ATOM     27  C   UNL A   1      38.894  20.603  25.749  1.00  0.00     0.118 C 
BRANCH  27  28
ATOM     28  N   UNL A   1      39.928  19.578  25.802  1.00  0.00    -0.352 N 
ATOM     29  C   UNL A   1      41.265  19.669  26.116  1.00  0.00     0.251 C 
ATOM     30  H   UNL A   1      39.620  18.671  25.575  1.00  0.00     0.163 HD
ATOM     31  O   UNL A   1      41.997  18.703  25.941  1.00  0.00    -0.269 OA
BRANCH  29  32
ATOM     32  C   UNL A   1      41.831  20.938  26.626  1.00  0.00     0.039 A 
ATOM     33  C   UNL A   1      42.372  21.845  25.710  1.00  0.00     0.014 A 
ATOM     34  C   UNL A   1      41.832  21.238  27.989  1.00  0.00     0.014 A 
ATOM     35  C   UNL A   1      42.816  23.094  26.151  1.00  0.00     0.010 A 
ATOM     36  C   UNL A   1      42.200  22.512  28.417  1.00  0.00     0.010 A 
ATOM     37  C   UNL A   1      42.677  23.460  27.499  1.00  0.00    -0.014 A 
BRANCH  37  38
ATOM     38  C   UNL A   1      42.964  24.842  27.958  1.00  0.00     0.031 A 
ATOM     39  C   UNL A   1      44.355  25.244  28.360  1.00  0.00     0.074 A 
ATOM     40  C   UNL A   1      41.946  25.715  28.097  1.00  0.00     0.049 A 
ATOM     41  N   UNL A   1      44.770  26.375  28.873  1.00  0.00    -0.248 NA
ATOM     42  C   UNL A   1      45.415  24.239  28.181  1.00  0.00     0.031 C 
ATOM     43  C   UNL A   1      40.544  25.440  27.773  1.00  0.00     0.029 A 
ATOM     44  N   UNL A   1      41.930  27.007  28.562  1.00  0.00    -0.354 N 
ATOM     45  C   UNL A   1      46.133  26.214  29.090  1.00  0.00     0.074 A 
ATOM     46  C   UNL A   1      46.466  24.862  28.694  1.00  0.00     0.031 C 
ATOM     47  C   UNL A   1      39.810  26.534  28.029  1.00  0.00     0.029 A 
ATOM     48  C   UNL A   1      40.676  27.567  28.585  1.00  0.00     0.049 A 
ATOM     49  H   UNL A   1      42.741  27.485  28.851  1.00  0.00     0.167 HD
ATOM     50  C   UNL A   1      47.027  27.114  29.565  1.00  0.00     0.031 A 
ATOM     51  C   UNL A   1      40.261  28.772  29.024  1.00  0.00     0.031 A 
ATOM     52  C   UNL A   1      46.694  28.456  29.964  1.00  0.00     0.049 A 
ATOM     53  C   UNL A   1      41.267  29.732  29.594  1.00  0.00     0.074 A 
ATOM     54  C   UNL A   1      47.542  29.459  30.404  1.00  0.00     0.029 A 
ATOM     55  N   UNL A   1      45.412  28.981  29.984  1.00  0.00    -0.354 N 
ATOM     56  N   UNL A   1      42.563  29.589  29.725  1.00  0.00    -0.248 NA
ATOM     57  C   UNL A   1      40.750  31.021  30.075  1.00  0.00     0.031 C 
ATOM     58  C   UNL A   1      46.764  30.568  30.753  1.00  0.00     0.029 A 
ATOM     59  C   UNL A   1      45.439  30.279  30.469  1.00  0.00     0.049 A 
ATOM     60  H   UNL A   1      44.601  28.502  29.697  1.00  0.00     0.167 HD
ATOM     61  C   UNL A   1      43.020  30.776  30.284  1.00  0.00     0.074 A 
ATOM     62  C   UNL A   1      41.866  31.635  30.445  1.00  0.00     0.031 C 
ATOM     63  C   UNL A   1      44.282  31.120  30.636  1.00  0.00     0.031 A 
BRANCH  50  64
ATOM     64  C   UNL A   1      48.458  26.669  29.695  1.00  0.00    -0.014 A 
ATOM     65  C   UNL A   1      48.919  26.026  30.855  1.00  0.00     0.009 A 
ATOM     66  C   UNL A   1      49.347  26.854  28.623  1.00  0.00     0.009 A 
ATOM     67  C   UNL A   1      50.249  25.609  30.952  1.00  0.00     0.001 A 
ATOM     68  C   UNL A   1      50.667  26.409  28.712  1.00  0.00     0.001 A 
ATOM     69  C   UNL A   1      51.119  25.796  29.879  1.00  0.00     0.000 A 
ENDBRANCH  50  64
BRANCH  51  70
ATOM     70  C   UNL A   1      38.821  29.134  28.956  1.00  0.00    -0.014 A 
ATOM     71  C   UNL A   1      37.991  28.968  30.076  1.00  0.00     0.009 A 
ATOM     72  C   UNL A   1      38.265  29.636  27.769  1.00  0.00     0.009 A 
ATOM     73  C   UNL A   1      36.630  29.273  29.999  1.00  0.00     0.001 A 
ATOM     74  C   UNL A   1      36.911  29.969  27.704  1.00  0.00     0.001 A 
ATOM     75  C   UNL A   1      36.092  29.777  28.815  1.00  0.00     0.000 A 
ENDBRANCH  51  70
BRANCH  63  76
ATOM     76  C   UNL A   1      44.484  32.493  31.213  1.00  0.00    -0.014 A 
ATOM     77  C   UNL A   1      44.734  33.600  30.386  1.00  0.00     0.009 A 
ATOM     78  C   UNL A   1      44.382  32.689  32.599  1.00  0.00     0.009 A 
ATOM     79  C   UNL A   1      44.910  34.870  30.940  1.00  0.00     0.001 A 
ATOM     80  C   UNL A   1      44.527  33.965  33.147  1.00  0.00     0.001 A 
ATOM     81  C   UNL A   1      44.800  35.052  32.318  1.00  0.00     0.000 A 
ENDBRANCH  63  76
ENDBRANCH  37  38
ENDBRANCH  29  32
ENDBRANCH  27  28
ENDBRANCH  26  27
ENDBRANCH   1  26
TORSDOF 14
ENDMDL
