MODEL 1
REMARK VINA RESULT:     -12.9      0.000      0.000
REMARK SMILES O=C(NCCCNC(=O)c1ccc(-c2c3nc(c(-c4ccccc4)c4ccc([nH]4)c(-c4ccccc4)c4nc(c(-c5ccccc5)c5ccc2[nH]5)C=C4)C=C3)cc1)C1=Cc2c(ccc(Cl)c2Oc2ccccc2)O[C@H]1C(F)(F)F
REMARK SMILES IDX 5 1 4 2 3 3 1 4 2 5 58 7 59 8 75 9 60 10 74 11 61 12 66 13
REMARK SMILES IDX 62 14 64 15 63 16 65 17 76 18 77 19 78 20 79 21 67 22 68 23
REMARK SMILES IDX 69 24 73 25 70 26 72 27 71 28 6 29 7 30 8 31 9 33 10 34
REMARK SMILES IDX 11 35 57 36 12 37 56 38 13 39 14 40 15 41 50 42 16 43 55 44
REMARK SMILES IDX 49 45 51 46 17 47 54 48 48 49 47 50 18 52 40 53 25 54 39 55
REMARK SMILES IDX 26 56 29 57 38 58 52 59 27 60 28 61 37 63 53 64 30 65 19 66
REMARK SMILES IDX 20 67 24 68 21 69 23 70 22 71 41 72 42 73 46 74 43 75 45 76
REMARK SMILES IDX 44 77 31 78 32 79 36 80 33 81 35 82 34 83
REMARK H PARENT 3 6 7 32 51 51 29 62
REMARK Flexibility Score: inf
ROOT
ATOM      1  C   UNL A   1      31.768  28.154  27.137  1.00  0.00     0.042 C 
ENDROOT
BRANCH   1   2
ATOM      2  C   UNL A   1      31.667  26.917  26.268  1.00  0.00     0.118 C 
BRANCH   2   3
ATOM      3  N   UNL A   1      31.572  25.675  27.006  1.00  0.00    -0.352 N 
ATOM      4  O   UNL A   1      31.406  23.467  27.364  1.00  0.00    -0.270 OA
ATOM      5  C   UNL A   1      31.585  24.383  26.565  1.00  0.00     0.251 C 
ATOM      6  H   UNL A   1      31.483  25.778  27.981  1.00  0.00     0.163 HD
BRANCH   5   7
ATOM      7  C   UNL A   1      31.767  24.059  25.137  1.00  0.00     0.067 C 
ATOM      8  C   UNL A   1      32.008  22.819  24.695  1.00  0.00     0.029 C 
ATOM      9  C   UNL A   1      31.967  25.167  24.160  1.00  0.00     0.314 C 
ATOM     10  C   UNL A   1      33.429  22.702  24.289  1.00  0.00     0.061 A 
ATOM     11  O   UNL A   1      33.271  25.036  23.492  1.00  0.00    -0.475 OA
ATOM     12  C   UNL A   1      33.995  23.877  23.727  1.00  0.00     0.131 A 
ATOM     13  C   UNL A   1      34.247  21.609  24.678  1.00  0.00     0.156 A 
ATOM     14  C   UNL A   1      35.371  23.970  23.547  1.00  0.00     0.049 A 
ATOM     15  C   UNL A   1      35.637  21.755  24.524  1.00  0.00     0.084 A 
ATOM     16  C   UNL A   1      36.191  22.920  23.970  1.00  0.00     0.028 A 
ATOM     17  Cl  UNL A   1      36.736  20.558  25.119  1.00  0.00    -0.080 Cl
BRANCH   9  18
ATOM     18  C   UNL A   1      30.815  25.227  23.135  1.00  0.00     0.429 C 
ATOM     19  F   UNL A   1      30.129  24.061  23.048  1.00  0.00    -0.167 F 
ATOM     20  F   UNL A   1      29.919  26.187  23.458  1.00  0.00    -0.167 F 
ATOM     21  F   UNL A   1      31.269  25.498  21.887  1.00  0.00    -0.167 F 
ENDBRANCH   9  18
BRANCH  13  22
ATOM     22  O   UNL A   1      33.837  20.450  25.341  1.00  0.00    -0.455 OA
BRANCH  22  23
ATOM     23  C   UNL A   1      33.536  19.333  24.599  1.00  0.00     0.127 A 
ATOM     24  C   UNL A   1      32.456  19.379  23.712  1.00  0.00     0.047 A 
ATOM     25  C   UNL A   1      34.381  18.222  24.643  1.00  0.00     0.047 A 
ATOM     26  C   UNL A   1      32.329  18.383  22.742  1.00  0.00     0.004 A 
ATOM     27  C   UNL A   1      34.244  17.227  23.674  1.00  0.00     0.004 A 
ATOM     28  C   UNL A   1      33.242  17.326  22.704  1.00  0.00     0.000 A 
ENDBRANCH  22  23
ENDBRANCH  13  22
ENDBRANCH   5   7
ENDBRANCH   2   3
ENDBRANCH   1   2
BRANCH   1  29
ATOM     29  C   UNL A   1      33.186  28.681  27.242  1.00  0.00     0.118 C 
BRANCH  29  30
ATOM     30  N   UNL A   1      33.297  30.073  27.675  1.00  0.00    -0.352 N 
ATOM     31  C   UNL A   1      34.382  30.777  28.150  1.00  0.00     0.251 C 
ATOM     32  H   UNL A   1      32.462  30.591  27.617  1.00  0.00     0.163 HD
ATOM     33  O   UNL A   1      34.250  31.955  28.473  1.00  0.00    -0.269 OA
BRANCH  31  34
ATOM     34  C   UNL A   1      35.693  30.115  28.336  1.00  0.00     0.039 A 
ATOM     35  C   UNL A   1      36.634  30.166  27.303  1.00  0.00     0.014 A 
ATOM     36  C   UNL A   1      36.025  29.489  29.535  1.00  0.00     0.014 A 
ATOM     37  C   UNL A   1      37.928  29.683  27.520  1.00  0.00     0.010 A 
ATOM     38  C   UNL A   1      37.346  29.168  29.804  1.00  0.00     0.010 A 
ATOM     39  C   UNL A   1      38.312  29.235  28.794  1.00  0.00    -0.014 A 
BRANCH  39  40
ATOM     40  C   UNL A   1      39.702  28.800  29.086  1.00  0.00     0.031 A 
ATOM     41  C   UNL A   1      40.643  29.725  29.815  1.00  0.00     0.074 A 
ATOM     42  C   UNL A   1      40.138  27.605  28.639  1.00  0.00     0.049 A 
ATOM     43  N   UNL A   1      41.903  29.547  30.125  1.00  0.00    -0.248 NA
ATOM     44  C   UNL A   1      40.117  31.044  30.209  1.00  0.00     0.031 C 
ATOM     45  C   UNL A   1      39.351  26.649  27.854  1.00  0.00     0.029 A 
ATOM     46  N   UNL A   1      41.353  26.986  28.789  1.00  0.00    -0.354 N 
ATOM     47  C   UNL A   1      42.317  30.736  30.715  1.00  0.00     0.074 A 
ATOM     48  C   UNL A   1      41.206  31.655  30.647  1.00  0.00     0.031 C 
ATOM     49  C   UNL A   1      40.082  25.543  27.645  1.00  0.00     0.029 A 
ATOM     50  C   UNL A   1      41.400  25.726  28.241  1.00  0.00     0.049 A 
ATOM     51  H   UNL A   1      42.119  27.405  29.244  1.00  0.00     0.167 HD
ATOM     52  C   UNL A   1      43.502  31.029  31.300  1.00  0.00     0.031 A 
ATOM     53  C   UNL A   1      42.392  24.816  28.233  1.00  0.00     0.031 A 
ATOM     54  C   UNL A   1      44.596  30.101  31.399  1.00  0.00     0.049 A 
ATOM     55  C   UNL A   1      43.687  25.149  28.920  1.00  0.00     0.074 A 
ATOM     56  C   UNL A   1      45.816  30.267  32.027  1.00  0.00     0.029 A 
ATOM     57  N   UNL A   1      44.591  28.825  30.857  1.00  0.00    -0.354 N 
ATOM     58  N   UNL A   1      44.034  26.250  29.542  1.00  0.00    -0.248 NA
ATOM     59  C   UNL A   1      44.718  24.102  28.922  1.00  0.00     0.031 C 
ATOM     60  C   UNL A   1      46.570  29.107  31.825  1.00  0.00     0.029 A 
ATOM     61  C   UNL A   1      45.795  28.196  31.124  1.00  0.00     0.049 A 
ATOM     62  H   UNL A   1      43.843  28.425  30.358  1.00  0.00     0.167 HD
ATOM     63  C   UNL A   1      45.312  26.019  30.034  1.00  0.00     0.074 A 
ATOM     64  C   UNL A   1      45.663  24.664  29.659  1.00  0.00     0.031 C 
ATOM     65  C   UNL A   1      46.125  26.850  30.732  1.00  0.00     0.031 A 
BRANCH  52  66
ATOM     66  C   UNL A   1      43.664  32.409  31.881  1.00  0.00    -0.014 A 
ATOM     67  C   UNL A   1      44.147  33.476  31.105  1.00  0.00     0.009 A 
ATOM     68  C   UNL A   1      43.321  32.648  33.221  1.00  0.00     0.009 A 
ATOM     69  C   UNL A   1      44.329  34.741  31.671  1.00  0.00     0.001 A 
ATOM     70  C   UNL A   1      43.470  33.923  33.774  1.00  0.00     0.001 A 
ATOM     71  C   UNL A   1      43.985  34.963  33.003  1.00  0.00     0.000 A 
ENDBRANCH  52  66
BRANCH  53  72
ATOM     72  C   UNL A   1      42.187  23.488  27.596  1.00  0.00    -0.014 A 
ATOM     73  C   UNL A   1      41.572  22.445  28.307  1.00  0.00     0.009 A 
ATOM     74  C   UNL A   1      42.607  23.251  26.278  1.00  0.00     0.009 A 
ATOM     75  C   UNL A   1      41.413  21.185  27.725  1.00  0.00     0.001 A 
ATOM     76  C   UNL A   1      42.418  21.999  25.687  1.00  0.00     0.001 A 
ATOM     77  C   UNL A   1      41.832  20.964  26.414  1.00  0.00     0.000 A 
ENDBRANCH  53  72
BRANCH  65  78
ATOM     78  C   UNL A   1      47.454  26.296  31.161  1.00  0.00    -0.014 A 
ATOM     79  C   UNL A   1      48.567  26.320  30.306  1.00  0.00     0.009 A 
ATOM     80  C   UNL A   1      47.595  25.751  32.446  1.00  0.00     0.009 A 
ATOM     81  C   UNL A   1      49.779  25.757  30.711  1.00  0.00     0.001 A 
ATOM     82  C   UNL A   1      48.817  25.223  32.862  1.00  0.00     0.001 A 
ATOM     83  C   UNL A   1      49.904  25.212  31.989  1.00  0.00     0.000 A 
ENDBRANCH  65  78
ENDBRANCH  39  40
ENDBRANCH  31  34
ENDBRANCH  29  30
ENDBRANCH   1  29
TORSDOF 13
ENDMDL
MODEL 2
REMARK VINA RESULT:     -12.8      2.517      7.711
REMARK SMILES O=C(NCCCNC(=O)c1ccc(-c2c3nc(c(-c4ccccc4)c4ccc([nH]4)c(-c4ccccc4)c4nc(c(-c5ccccc5)c5ccc2[nH]5)C=C4)C=C3)cc1)C1=Cc2c(ccc(Cl)c2Oc2ccccc2)O[C@H]1C(F)(F)F
REMARK SMILES IDX 5 1 4 2 3 3 1 4 2 5 58 7 59 8 75 9 60 10 74 11 61 12 66 13
REMARK SMILES IDX 62 14 64 15 63 16 65 17 76 18 77 19 78 20 79 21 67 22 68 23
REMARK SMILES IDX 69 24 73 25 70 26 72 27 71 28 6 29 7 30 8 31 9 33 10 34
REMARK SMILES IDX 11 35 57 36 12 37 56 38 13 39 14 40 15 41 50 42 16 43 55 44
REMARK SMILES IDX 49 45 51 46 17 47 54 48 48 49 47 50 18 52 40 53 25 54 39 55
REMARK SMILES IDX 26 56 29 57 38 58 52 59 27 60 28 61 37 63 53 64 30 65 19 66
REMARK SMILES IDX 20 67 24 68 21 69 23 70 22 71 41 72 42 73 46 74 43 75 45 76
REMARK SMILES IDX 44 77 31 78 32 79 36 80 33 81 35 82 34 83
REMARK H PARENT 3 6 7 32 51 51 29 62
REMARK Flexibility Score: inf
ROOT
ATOM      1  C   UNL A   1      37.777  20.170  24.785  1.00  0.00     0.042 C 
ENDROOT
BRANCH   1   2
ATOM      2  C   UNL A   1      37.010  21.436  24.466  1.00  0.00     0.118 C 
BRANCH   2   3
ATOM      3  N   UNL A   1      36.491  22.128  25.627  1.00  0.00    -0.352 N 
ATOM      4  O   UNL A   1      34.979  23.043  27.009  1.00  0.00    -0.270 OA
ATOM      5  C   UNL A   1      35.202  22.351  26.018  1.00  0.00     0.251 C 
ATOM      6  H   UNL A   1      37.176  22.497  26.231  1.00  0.00     0.163 HD
BRANCH   5   7
ATOM      7  C   UNL A   1      34.061  21.816  25.251  1.00  0.00     0.067 C 
ATOM      8  C   UNL A   1      33.490  22.476  24.236  1.00  0.00     0.029 C 
ATOM      9  C   UNL A   1      33.324  20.631  25.776  1.00  0.00     0.314 C 
ATOM     10  C   UNL A   1      32.178  23.017  24.668  1.00  0.00     0.061 A 
ATOM     11  O   UNL A   1      31.915  20.970  26.028  1.00  0.00    -0.475 OA
ATOM     12  C   UNL A   1      31.470  22.211  25.600  1.00  0.00     0.131 A 
ATOM     13  C   UNL A   1      31.778  24.352  24.402  1.00  0.00     0.156 A 
ATOM     14  C   UNL A   1      30.364  22.726  26.266  1.00  0.00     0.049 A 
ATOM     15  C   UNL A   1      30.683  24.856  25.126  1.00  0.00     0.084 A 
ATOM     16  C   UNL A   1      29.989  24.055  26.047  1.00  0.00     0.028 A 
ATOM     17  Cl  UNL A   1      30.215  26.517  25.005  1.00  0.00    -0.080 Cl
BRANCH   9  18
ATOM     18  C   UNL A   1      33.449  19.425  24.822  1.00  0.00     0.429 C 
ATOM     19  F   UNL A   1      34.724  19.204  24.419  1.00  0.00    -0.167 F 
ATOM     20  F   UNL A   1      33.020  18.286  25.412  1.00  0.00    -0.167 F 
ATOM     21  F   UNL A   1      32.716  19.599  23.695  1.00  0.00    -0.167 F 
ENDBRANCH   9  18
BRANCH  13  22
ATOM     22  O   UNL A   1      32.444  25.283  23.602  1.00  0.00    -0.455 OA
BRANCH  22  23
ATOM     23  C   UNL A   1      33.137  26.303  24.207  1.00  0.00     0.127 A 
ATOM     24  C   UNL A   1      33.218  27.543  23.564  1.00  0.00     0.047 A 
ATOM     25  C   UNL A   1      33.635  26.134  25.501  1.00  0.00     0.047 A 
ATOM     26  C   UNL A   1      33.640  28.659  24.288  1.00  0.00     0.004 A 
ATOM     27  C   UNL A   1      34.060  27.253  26.217  1.00  0.00     0.004 A 
ATOM     28  C   UNL A   1      34.029  28.518  25.622  1.00  0.00     0.000 A 
ENDBRANCH  22  23
ENDBRANCH  13  22
ENDBRANCH   5   7
ENDBRANCH   2   3
ENDBRANCH   1   2
BRANCH   1  29
ATOM     29  C   UNL A   1      38.891  20.396  25.787  1.00  0.00     0.118 C 
BRANCH  29  30
ATOM     30  N   UNL A   1      39.999  19.444  25.705  1.00  0.00    -0.352 N 
ATOM     31  C   UNL A   1      41.319  19.577  26.074  1.00  0.00     0.251 C 
ATOM     32  H   UNL A   1      39.762  18.568  25.325  1.00  0.00     0.163 HD
ATOM     33  O   UNL A   1      42.097  18.640  25.904  1.00  0.00    -0.269 OA
BRANCH  31  34
ATOM     34  C   UNL A   1      41.831  20.856  26.616  1.00  0.00     0.039 A 
ATOM     35  C   UNL A   1      42.223  21.863  25.729  1.00  0.00     0.014 A 
ATOM     36  C   UNL A   1      41.883  21.093  27.987  1.00  0.00     0.014 A 
ATOM     37  C   UNL A   1      42.560  23.127  26.220  1.00  0.00     0.010 A 
ATOM     38  C   UNL A   1      42.052  22.386  28.459  1.00  0.00     0.010 A 
ATOM     39  C   UNL A   1      42.418  23.416  27.587  1.00  0.00    -0.014 A 
BRANCH  39  40
ATOM     40  C   UNL A   1      42.679  24.773  28.132  1.00  0.00     0.031 A 
ATOM     41  C   UNL A   1      44.078  25.165  28.540  1.00  0.00     0.074 A 
ATOM     42  C   UNL A   1      41.654  25.627  28.322  1.00  0.00     0.049 A 
ATOM     43  N   UNL A   1      44.500  26.284  29.074  1.00  0.00    -0.248 NA
ATOM     44  C   UNL A   1      45.135  24.153  28.370  1.00  0.00     0.031 C 
ATOM     45  C   UNL A   1      40.243  25.343  28.041  1.00  0.00     0.029 A 
ATOM     46  N   UNL A   1      41.642  26.917  28.791  1.00  0.00    -0.354 N 
ATOM     47  C   UNL A   1      45.853  26.092  29.327  1.00  0.00     0.074 A 
ATOM     48  C   UNL A   1      46.165  24.729  28.968  1.00  0.00     0.031 C 
ATOM     49  C   UNL A   1      39.515  26.443  28.286  1.00  0.00     0.029 A 
ATOM     50  C   UNL A   1      40.396  27.495  28.780  1.00  0.00     0.049 A 
ATOM     51  H   UNL A   1      42.450  27.382  29.107  1.00  0.00     0.167 HD
ATOM     52  C   UNL A   1      46.770  26.979  29.781  1.00  0.00     0.031 A 
ATOM     53  C   UNL A   1      40.009  28.739  29.118  1.00  0.00     0.031 A 
ATOM     54  C   UNL A   1      46.465  28.346  30.105  1.00  0.00     0.049 A 
ATOM     55  C   UNL A   1      41.049  29.719  29.585  1.00  0.00     0.074 A 
ATOM     56  C   UNL A   1      47.325  29.351  30.508  1.00  0.00     0.029 A 
ATOM     57  N   UNL A   1      45.196  28.900  30.051  1.00  0.00    -0.354 N 
ATOM     58  N   UNL A   1      42.339  29.544  29.744  1.00  0.00    -0.248 NA
ATOM     59  C   UNL A   1      40.580  31.076  29.896  1.00  0.00     0.031 C 
ATOM     60  C   UNL A   1      46.567  30.503  30.745  1.00  0.00     0.029 A 
ATOM     61  C   UNL A   1      45.246  30.231  30.429  1.00  0.00     0.049 A 
ATOM     62  H   UNL A   1      44.379  28.419  29.783  1.00  0.00     0.167 HD
ATOM     63  C   UNL A   1      42.840  30.775  30.147  1.00  0.00     0.074 A 
ATOM     64  C   UNL A   1      41.718  31.691  30.180  1.00  0.00     0.031 C 
ATOM     65  C   UNL A   1      44.114  31.120  30.463  1.00  0.00     0.031 A 
BRANCH  52  66
ATOM     66  C   UNL A   1      48.185  26.491  29.943  1.00  0.00    -0.014 A 
ATOM     67  C   UNL A   1      49.120  26.603  28.899  1.00  0.00     0.009 A 
ATOM     68  C   UNL A   1      48.593  25.917  31.157  1.00  0.00     0.009 A 
ATOM     69  C   UNL A   1      50.417  26.109  29.052  1.00  0.00     0.001 A 
ATOM     70  C   UNL A   1      49.901  25.456  31.318  1.00  0.00     0.001 A 
ATOM     71  C   UNL A   1      50.808  25.541  30.262  1.00  0.00     0.000 A 
ENDBRANCH  52  66
BRANCH  53  72
ATOM     72  C   UNL A   1      38.584  29.145  28.985  1.00  0.00    -0.014 A 
ATOM     73  C   UNL A   1      38.094  29.629  27.761  1.00  0.00     0.009 A 
ATOM     74  C   UNL A   1      37.708  29.058  30.077  1.00  0.00     0.009 A 
ATOM     75  C   UNL A   1      36.766  30.047  27.643  1.00  0.00     0.001 A 
ATOM     76  C   UNL A   1      36.372  29.447  29.947  1.00  0.00     0.001 A 
ATOM     77  C   UNL A   1      35.905  29.952  28.735  1.00  0.00     0.000 A 
ENDBRANCH  53  72
BRANCH  65  78
ATOM     78  C   UNL A   1      44.355  32.556  30.834  1.00  0.00    -0.014 A 
ATOM     79  C   UNL A   1      44.658  33.522  29.862  1.00  0.00     0.009 A 
ATOM     80  C   UNL A   1      44.267  32.947  32.179  1.00  0.00     0.009 A 
ATOM     81  C   UNL A   1      44.923  34.841  30.238  1.00  0.00     0.001 A 
ATOM     82  C   UNL A   1      44.496  34.273  32.548  1.00  0.00     0.001 A 
ATOM     83  C   UNL A   1      44.839  35.215  31.579  1.00  0.00     0.000 A 
ENDBRANCH  65  78
ENDBRANCH  39  40
ENDBRANCH  31  34
ENDBRANCH  29  30
ENDBRANCH   1  29
TORSDOF 13
ENDMDL
MODEL 3
REMARK VINA RESULT:     -12.8      0.795      5.787
REMARK SMILES O=C(NCCCNC(=O)c1ccc(-c2c3nc(c(-c4ccccc4)c4ccc([nH]4)c(-c4ccccc4)c4nc(c(-c5ccccc5)c5ccc2[nH]5)C=C4)C=C3)cc1)C1=Cc2c(ccc(Cl)c2Oc2ccccc2)O[C@H]1C(F)(F)F
REMARK SMILES IDX 5 1 4 2 3 3 1 4 2 5 58 7 59 8 75 9 60 10 74 11 61 12 66 13
REMARK SMILES IDX 62 14 64 15 63 16 65 17 76 18 77 19 78 20 79 21 67 22 68 23
REMARK SMILES IDX 69 24 73 25 70 26 72 27 71 28 6 29 7 30 8 31 9 33 10 34
REMARK SMILES IDX 11 35 57 36 12 37 56 38 13 39 14 40 15 41 50 42 16 43 55 44
REMARK SMILES IDX 49 45 51 46 17 47 54 48 48 49 47 50 18 52 40 53 25 54 39 55
REMARK SMILES IDX 26 56 29 57 38 58 52 59 27 60 28 61 37 63 53 64 30 65 19 66
REMARK SMILES IDX 20 67 24 68 21 69 23 70 22 71 41 72 42 73 46 74 43 75 45 76
REMARK SMILES IDX 44 77 31 78 32 79 36 80 33 81 35 82 34 83
REMARK H PARENT 3 6 7 32 51 51 29 62
REMARK Flexibility Score: inf
ROOT
ATOM      1  C   UNL A   1      32.090  28.038  27.103  1.00  0.00     0.042 C 
ENDROOT
BRANCH   1   2
ATOM      2  C   UNL A   1      32.026  26.797  26.238  1.00  0.00     0.118 C 
BRANCH   2   3
ATOM      3  N   UNL A   1      31.784  25.571  26.969  1.00  0.00    -0.352 N 
ATOM      4  O   UNL A   1      31.391  23.390  27.315  1.00  0.00    -0.270 OA
ATOM      5  C   UNL A   1      31.686  24.284  26.525  1.00  0.00     0.251 C 
ATOM      6  H   UNL A   1      31.673  25.683  27.941  1.00  0.00     0.163 HD
BRANCH   5   7
ATOM      7  C   UNL A   1      31.884  23.942  25.103  1.00  0.00     0.067 C 
ATOM      8  C   UNL A   1      32.138  22.698  24.680  1.00  0.00     0.029 C 
ATOM      9  C   UNL A   1      32.085  25.038  24.114  1.00  0.00     0.314 C 
ATOM     10  C   UNL A   1      33.564  22.586  24.289  1.00  0.00     0.061 A 
ATOM     11  O   UNL A   1      33.397  24.908  23.460  1.00  0.00    -0.475 OA
ATOM     12  C   UNL A   1      34.127  23.758  23.717  1.00  0.00     0.131 A 
ATOM     13  C   UNL A   1      34.385  21.504  24.700  1.00  0.00     0.156 A 
ATOM     14  C   UNL A   1      35.503  23.859  23.548  1.00  0.00     0.049 A 
ATOM     15  C   UNL A   1      35.776  21.658  24.557  1.00  0.00     0.084 A 
ATOM     16  C   UNL A   1      36.326  22.820  23.994  1.00  0.00     0.028 A 
ATOM     17  Cl  UNL A   1      36.877  20.477  25.179  1.00  0.00    -0.080 Cl
BRANCH   9  18
ATOM     18  C   UNL A   1      30.943  25.077  23.077  1.00  0.00     0.429 C 
ATOM     19  F   UNL A   1      30.239  23.919  23.030  1.00  0.00    -0.167 F 
ATOM     20  F   UNL A   1      30.060  26.063  23.354  1.00  0.00    -0.167 F 
ATOM     21  F   UNL A   1      31.411  25.291  21.823  1.00  0.00    -0.167 F 
ENDBRANCH   9  18
BRANCH  13  22
ATOM     22  O   UNL A   1      33.977  20.351  25.374  1.00  0.00    -0.455 OA
BRANCH  22  23
ATOM     23  C   UNL A   1      33.661  19.232  24.643  1.00  0.00     0.127 A 
ATOM     24  C   UNL A   1      32.529  19.254  23.823  1.00  0.00     0.047 A 
ATOM     25  C   UNL A   1      34.537  18.144  24.624  1.00  0.00     0.047 A 
ATOM     26  C   UNL A   1      32.368  18.263  22.855  1.00  0.00     0.004 A 
ATOM     27  C   UNL A   1      34.368  17.153  23.657  1.00  0.00     0.004 A 
ATOM     28  C   UNL A   1      33.306  17.231  22.752  1.00  0.00     0.000 A 
ENDBRANCH  22  23
ENDBRANCH  13  22
ENDBRANCH   5   7
ENDBRANCH   2   3
ENDBRANCH   1   2
BRANCH   1  29
ATOM     29  C   UNL A   1      33.499  28.578  27.250  1.00  0.00     0.118 C 
BRANCH  29  30
ATOM     30  N   UNL A   1      33.588  29.935  27.787  1.00  0.00    -0.352 N 
ATOM     31  C   UNL A   1      34.670  30.632  28.278  1.00  0.00     0.251 C 
ATOM     32  H   UNL A   1      32.738  30.430  27.800  1.00  0.00     0.163 HD
ATOM     33  O   UNL A   1      34.519  31.777  28.698  1.00  0.00    -0.269 OA
BRANCH  31  34
ATOM     34  C   UNL A   1      36.005  29.998  28.366  1.00  0.00     0.039 A 
ATOM     35  C   UNL A   1      36.878  30.094  27.278  1.00  0.00     0.014 A 
ATOM     36  C   UNL A   1      36.426  29.352  29.526  1.00  0.00     0.014 A 
ATOM     37  C   UNL A   1      38.193  29.637  27.401  1.00  0.00     0.010 A 
ATOM     38  C   UNL A   1      37.768  29.056  29.704  1.00  0.00     0.010 A 
ATOM     39  C   UNL A   1      38.666  29.169  28.638  1.00  0.00    -0.014 A 
BRANCH  39  40
ATOM     40  C   UNL A   1      40.081  28.761  28.831  1.00  0.00     0.031 A 
ATOM     41  C   UNL A   1      40.521  27.366  28.460  1.00  0.00     0.074 A 
ATOM     42  C   UNL A   1      40.953  29.617  29.399  1.00  0.00     0.049 A 
ATOM     43  N   UNL A   1      41.698  26.808  28.593  1.00  0.00    -0.248 NA
ATOM     44  C   UNL A   1      39.494  26.462  27.912  1.00  0.00     0.031 C 
ATOM     45  C   UNL A   1      40.637  30.968  29.874  1.00  0.00     0.029 A 
ATOM     46  N   UNL A   1      42.292  29.480  29.667  1.00  0.00    -0.354 N 
ATOM     47  C   UNL A   1      41.538  25.492  28.175  1.00  0.00     0.074 A 
ATOM     48  C   UNL A   1      40.141  25.309  27.865  1.00  0.00     0.031 C 
ATOM     49  C   UNL A   1      41.761  31.553  30.318  1.00  0.00     0.029 A 
ATOM     50  C   UNL A   1      42.866  30.610  30.200  1.00  0.00     0.049 A 
ATOM     51  H   UNL A   1      42.794  28.650  29.496  1.00  0.00     0.167 HD
ATOM     52  C   UNL A   1      42.476  24.526  28.024  1.00  0.00     0.031 A 
ATOM     53  C   UNL A   1      44.143  30.861  30.542  1.00  0.00     0.031 A 
ATOM     54  C   UNL A   1      43.873  24.719  28.299  1.00  0.00     0.049 A 
ATOM     55  C   UNL A   1      45.174  29.786  30.330  1.00  0.00     0.074 A 
ATOM     56  C   UNL A   1      44.920  23.835  28.118  1.00  0.00     0.029 A 
ATOM     57  N   UNL A   1      44.417  25.889  28.808  1.00  0.00    -0.354 N 
ATOM     58  N   UNL A   1      45.019  28.572  29.861  1.00  0.00    -0.248 NA
ATOM     59  C   UNL A   1      46.560  30.129  30.676  1.00  0.00     0.031 C 
ATOM     60  C   UNL A   1      46.094  24.453  28.563  1.00  0.00     0.029 A 
ATOM     61  C   UNL A   1      45.785  25.744  28.963  1.00  0.00     0.049 A 
ATOM     62  H   UNL A   1      43.906  26.702  29.027  1.00  0.00     0.167 HD
ATOM     63  C   UNL A   1      46.290  28.015  29.828  1.00  0.00     0.074 A 
ATOM     64  C   UNL A   1      47.205  29.035  30.300  1.00  0.00     0.031 C 
ATOM     65  C   UNL A   1      46.672  26.771  29.443  1.00  0.00     0.031 A 
BRANCH  52  66
ATOM     66  C   UNL A   1      42.011  23.182  27.530  1.00  0.00    -0.014 A 
ATOM     67  C   UNL A   1      42.001  22.871  26.159  1.00  0.00     0.009 A 
ATOM     68  C   UNL A   1      41.583  22.209  28.447  1.00  0.00     0.009 A 
ATOM     69  C   UNL A   1      41.528  21.634  25.715  1.00  0.00     0.001 A 
ATOM     70  C   UNL A   1      41.145  20.959  28.001  1.00  0.00     0.001 A 
ATOM     71  C   UNL A   1      41.106  20.678  26.636  1.00  0.00     0.000 A 
ENDBRANCH  52  66
BRANCH  53  72
ATOM     72  C   UNL A   1      44.530  32.194  31.074  1.00  0.00    -0.014 A 
ATOM     73  C   UNL A   1      44.510  32.441  32.456  1.00  0.00     0.009 A 
ATOM     74  C   UNL A   1      44.916  33.228  30.208  1.00  0.00     0.009 A 
ATOM     75  C   UNL A   1      44.836  33.705  32.957  1.00  0.00     0.001 A 
ATOM     76  C   UNL A   1      45.272  34.482  30.714  1.00  0.00     0.001 A 
ATOM     77  C   UNL A   1      45.221  34.722  32.086  1.00  0.00     0.000 A 
ENDBRANCH  53  72
BRANCH  65  78
ATOM     78  C   UNL A   1      48.143  26.469  29.487  1.00  0.00    -0.014 A 
ATOM     79  C   UNL A   1      48.976  26.727  28.387  1.00  0.00     0.009 A 
ATOM     80  C   UNL A   1      48.704  25.926  30.654  1.00  0.00     0.009 A 
ATOM     81  C   UNL A   1      50.332  26.395  28.437  1.00  0.00     0.001 A 
ATOM     82  C   UNL A   1      50.066  25.630  30.713  1.00  0.00     0.001 A 
ATOM     83  C   UNL A   1      50.875  25.850  29.600  1.00  0.00     0.000 A 
ENDBRANCH  65  78
ENDBRANCH  39  40
ENDBRANCH  31  34
ENDBRANCH  29  30
ENDBRANCH   1  29
TORSDOF 13
ENDMDL
