MODEL 1
REMARK VINA RESULT:     -11.9      0.000      0.000
REMARK SMILES Cc1nn(C)c(=O)c(C(=O)N2CCCC[C@H]2C(=O)NCCCNC(=O)c2ccc(-c3c4nc(c(-c5ccccc5)c5ccc([nH]5)c(-c5ccccc5)c5nc(c(-c6ccccc6)c6ccc3[nH]6)C=C5)C=C4)cc2)c1C
REMARK SMILES IDX 21 1 20 2 19 3 17 4 18 5 16 7 11 8 12 9 13 10 15 11 14 12
REMARK SMILES IDX 9 13 10 14 8 15 1 16 2 17 3 18 74 19 4 20 75 21 5 22 6 23
REMARK SMILES IDX 7 24 22 25 23 26 24 27 25 29 26 30 27 31 73 32 28 33 72 34
REMARK SMILES IDX 29 35 30 36 31 37 66 38 32 39 71 40 65 41 67 42 33 43 70 44
REMARK SMILES IDX 64 45 63 46 34 48 56 49 41 50 55 51 42 52 45 53 54 54 68 55
REMARK SMILES IDX 43 56 44 57 53 59 69 60 46 61 35 62 36 63 40 64 37 65 39 66
REMARK SMILES IDX 38 67 57 68 58 69 62 70 59 71 61 72 60 73 47 74 48 75 52 76
REMARK SMILES IDX 49 77 51 78 50 79
REMARK H PARENT 19 6 23 28 67 47 45 58
REMARK Flexibility Score: inf
ROOT
ATOM      1  C   UNL A   1      37.953  19.593  24.913  1.00  0.00     0.042 C 
ENDROOT
BRANCH   1   2
ATOM      2  C   UNL A   1      36.646  20.362  25.011  1.00  0.00     0.117 C 
BRANCH   2   3
ATOM      3  N   UNL A   1      35.467  19.537  25.158  1.00  0.00    -0.354 N 
ATOM      4  C   UNL A   1      34.218  19.799  24.667  1.00  0.00     0.242 C 
ATOM      5  O   UNL A   1      33.675  18.861  24.071  1.00  0.00    -0.273 OA
ATOM      6  H   UNL A   1      35.574  18.699  25.664  1.00  0.00     0.163 HD
BRANCH   4   7
ATOM      7  C   UNL A   1      33.470  21.169  24.802  1.00  0.00     0.174 C 
ATOM      8  N   UNL A   1      34.288  22.396  24.892  1.00  0.00    -0.326 N 
ATOM      9  C   UNL A   1      34.805  22.895  23.636  1.00  0.00     0.120 C 
ATOM     10  C   UNL A   1      33.700  23.244  22.657  1.00  0.00     0.022 C 
ATOM     11  C   UNL A   1      32.317  21.350  23.795  1.00  0.00     0.035 C 
ATOM     12  C   UNL A   1      32.579  22.212  22.551  1.00  0.00     0.004 C 
BRANCH   8  13
ATOM     13  C   UNL A   1      34.260  23.326  25.932  1.00  0.00     0.260 C 
ATOM     14  O   UNL A   1      35.217  23.371  26.712  1.00  0.00    -0.269 OA
BRANCH  13  15
ATOM     15  C   UNL A   1      33.054  24.180  26.237  1.00  0.00     0.111 A 
ATOM     16  C   UNL A   1      31.294  27.496  25.720  1.00  0.00     0.069 C 
ATOM     17  C   UNL A   1      31.494  26.017  25.980  1.00  0.00     0.062 A 
ATOM     18  N   UNL A   1      30.463  25.373  26.412  1.00  0.00    -0.175 NA
ATOM     19  C   UNL A   1      32.830  25.401  25.706  1.00  0.00    -0.010 A 
ATOM     20  N   UNL A   1      30.642  24.073  26.770  1.00  0.00    -0.232 N 
ATOM     21  C   UNL A   1      33.689  26.180  24.763  1.00  0.00     0.047 C 
ATOM     22  C   UNL A   1      29.432  23.370  27.167  1.00  0.00     0.178 C 
ATOM     23  C   UNL A   1      31.894  23.482  26.916  1.00  0.00     0.279 A 
ATOM     24  O   UNL A   1      32.049  22.429  27.531  1.00  0.00    -0.267 OA
ENDBRANCH  13  15
ENDBRANCH   8  13
ENDBRANCH   4   7
ENDBRANCH   2   3
ENDBRANCH   1   2
BRANCH   1  25
ATOM     25  C   UNL A   1      39.079  20.215  25.714  1.00  0.00     0.118 C 
BRANCH  25  26
ATOM     26  N   UNL A   1      40.211  19.312  25.868  1.00  0.00    -0.352 N 
ATOM     27  C   UNL A   1      41.539  19.571  26.114  1.00  0.00     0.251 C 
ATOM     28  H   UNL A   1      39.989  18.357  25.781  1.00  0.00     0.163 HD
ATOM     29  O   UNL A   1      42.368  18.683  25.952  1.00  0.00    -0.269 OA
BRANCH  27  30
ATOM     30  C   UNL A   1      41.972  20.914  26.555  1.00  0.00     0.039 A 
ATOM     31  C   UNL A   1      42.318  21.873  25.598  1.00  0.00     0.014 A 
ATOM     32  C   UNL A   1      42.069  21.221  27.911  1.00  0.00     0.014 A 
ATOM     33  C   UNL A   1      42.701  23.153  26.009  1.00  0.00     0.010 A 
ATOM     34  C   UNL A   1      42.314  22.525  28.313  1.00  0.00     0.010 A 
ATOM     35  C   UNL A   1      42.670  23.496  27.369  1.00  0.00    -0.014 A 
BRANCH  35  36
ATOM     36  C   UNL A   1      43.076  24.838  27.849  1.00  0.00     0.031 A 
ATOM     37  C   UNL A   1      42.022  25.877  28.123  1.00  0.00     0.074 A 
ATOM     38  C   UNL A   1      44.380  25.140  27.985  1.00  0.00     0.049 A 
ATOM     39  N   UNL A   1      42.166  27.127  28.482  1.00  0.00    -0.248 NA
ATOM     40  C   UNL A   1      40.619  25.466  27.936  1.00  0.00     0.031 C 
ATOM     41  C   UNL A   1      45.494  24.226  27.722  1.00  0.00     0.029 A 
ATOM     42  N   UNL A   1      44.988  26.302  28.383  1.00  0.00    -0.354 N 
ATOM     43  C   UNL A   1      40.880  27.647  28.544  1.00  0.00     0.074 A 
ATOM     44  C   UNL A   1      39.976  26.610  28.108  1.00  0.00     0.031 C 
ATOM     45  C   UNL A   1      46.647  24.847  28.017  1.00  0.00     0.029 A 
ATOM     46  C   UNL A   1      46.357  26.213  28.442  1.00  0.00     0.049 A 
ATOM     47  H   UNL A   1      44.491  27.122  28.606  1.00  0.00     0.167 HD
ATOM     48  C   UNL A   1      40.479  28.870  28.964  1.00  0.00     0.031 A 
ATOM     49  C   UNL A   1      47.274  27.129  28.804  1.00  0.00     0.031 A 
ATOM     50  C   UNL A   1      41.380  29.896  29.411  1.00  0.00     0.049 A 
ATOM     51  C   UNL A   1      46.814  28.494  29.228  1.00  0.00     0.074 A 
ATOM     52  C   UNL A   1      41.080  31.156  29.893  1.00  0.00     0.029 A 
ATOM     53  N   UNL A   1      42.762  29.775  29.427  1.00  0.00    -0.354 N 
ATOM     54  N   UNL A   1      45.592  28.960  29.329  1.00  0.00    -0.248 NA
ATOM     55  C   UNL A   1      47.859  29.460  29.594  1.00  0.00     0.031 C 
ATOM     56  C   UNL A   1      42.284  31.819  30.148  1.00  0.00     0.029 A 
ATOM     57  C   UNL A   1      43.332  30.949  29.886  1.00  0.00     0.049 A 
ATOM     58  H   UNL A   1      43.262  28.972  29.154  1.00  0.00     0.167 HD
ATOM     59  C   UNL A   1      45.718  30.265  29.786  1.00  0.00     0.074 A 
ATOM     60  C   UNL A   1      47.135  30.509  29.962  1.00  0.00     0.031 C 
ATOM     61  C   UNL A   1      44.747  31.178  30.039  1.00  0.00     0.031 A 
BRANCH  48  62
ATOM     62  C   UNL A   1      39.001  29.148  28.960  1.00  0.00    -0.014 A 
ATOM     63  C   UNL A   1      38.362  29.671  27.822  1.00  0.00     0.009 A 
ATOM     64  C   UNL A   1      38.232  28.881  30.103  1.00  0.00     0.009 A 
ATOM     65  C   UNL A   1      36.997  29.964  27.846  1.00  0.00     0.001 A 
ATOM     66  C   UNL A   1      36.861  29.142  30.112  1.00  0.00     0.001 A 
ATOM     67  C   UNL A   1      36.247  29.695  28.990  1.00  0.00     0.000 A 
ENDBRANCH  48  62
BRANCH  49  68
ATOM     68  C   UNL A   1      48.712  26.754  28.825  1.00  0.00    -0.014 A 
ATOM     69  C   UNL A   1      49.290  26.248  29.998  1.00  0.00     0.009 A 
ATOM     70  C   UNL A   1      49.497  26.842  27.664  1.00  0.00     0.009 A 
ATOM     71  C   UNL A   1      50.627  25.841  30.011  1.00  0.00     0.001 A 
ATOM     72  C   UNL A   1      50.825  26.409  27.673  1.00  0.00     0.001 A 
ATOM     73  C   UNL A   1      51.389  25.911  28.846  1.00  0.00     0.000 A 
ENDBRANCH  49  68
BRANCH  61  74
ATOM     74  C   UNL A   1      45.180  32.528  30.536  1.00  0.00    -0.014 A 
ATOM     75  C   UNL A   1      45.413  33.587  29.645  1.00  0.00     0.009 A 
ATOM     76  C   UNL A   1      45.279  32.764  31.916  1.00  0.00     0.009 A 
ATOM     77  C   UNL A   1      45.760  34.851  30.127  1.00  0.00     0.001 A 
ATOM     78  C   UNL A   1      45.595  34.036  32.395  1.00  0.00     0.001 A 
ATOM     79  C   UNL A   1      45.842  35.076  31.501  1.00  0.00     0.000 A 
ENDBRANCH  61  74
ENDBRANCH  35  36
ENDBRANCH  27  30
ENDBRANCH  25  26
ENDBRANCH   1  25
TORSDOF 12
ENDMDL
MODEL 2
REMARK VINA RESULT:     -11.9      2.114      7.404
REMARK SMILES Cc1nn(C)c(=O)c(C(=O)N2CCCC[C@H]2C(=O)NCCCNC(=O)c2ccc(-c3c4nc(c(-c5ccccc5)c5ccc([nH]5)c(-c5ccccc5)c5nc(c(-c6ccccc6)c6ccc3[nH]6)C=C5)C=C4)cc2)c1C
REMARK SMILES IDX 21 1 20 2 19 3 17 4 18 5 16 7 11 8 12 9 13 10 15 11 14 12
REMARK SMILES IDX 9 13 10 14 8 15 1 16 2 17 3 18 74 19 4 20 75 21 5 22 6 23
REMARK SMILES IDX 7 24 22 25 23 26 24 27 25 29 26 30 27 31 73 32 28 33 72 34
REMARK SMILES IDX 29 35 30 36 31 37 66 38 32 39 71 40 65 41 67 42 33 43 70 44
REMARK SMILES IDX 64 45 63 46 34 48 56 49 41 50 55 51 42 52 45 53 54 54 68 55
REMARK SMILES IDX 43 56 44 57 53 59 69 60 46 61 35 62 36 63 40 64 37 65 39 66
REMARK SMILES IDX 38 67 57 68 58 69 62 70 59 71 61 72 60 73 47 74 48 75 52 76
REMARK SMILES IDX 49 77 51 78 50 79
REMARK H PARENT 19 6 23 28 67 47 45 58
REMARK Flexibility Score: inf
ROOT
ATOM      1  C   UNL A   1      33.858  27.958  25.920  1.00  0.00     0.042 C 
ENDROOT
BRANCH   1   2
ATOM      2  C   UNL A   1      32.780  28.091  24.857  1.00  0.00     0.117 C 
BRANCH   2   3
ATOM      3  N   UNL A   1      31.476  27.607  25.252  1.00  0.00    -0.354 N 
ATOM      4  C   UNL A   1      31.182  26.373  25.764  1.00  0.00     0.242 C 
ATOM      5  O   UNL A   1      30.471  26.375  26.778  1.00  0.00    -0.273 OA
ATOM      6  H   UNL A   1      30.722  28.230  25.144  1.00  0.00     0.163 HD
BRANCH   4   7
ATOM      7  C   UNL A   1      31.682  25.013  25.169  1.00  0.00     0.174 C 
ATOM      8  N   UNL A   1      33.070  24.601  25.461  1.00  0.00    -0.326 N 
ATOM      9  C   UNL A   1      33.285  24.016  26.767  1.00  0.00     0.120 C 
ATOM     10  C   UNL A   1      32.462  22.759  26.978  1.00  0.00     0.022 C 
ATOM     11  C   UNL A   1      30.703  23.842  25.387  1.00  0.00     0.035 C 
ATOM     12  C   UNL A   1      31.006  22.856  26.526  1.00  0.00     0.004 C 
BRANCH   8  13
ATOM     13  C   UNL A   1      34.058  24.322  24.517  1.00  0.00     0.260 C 
ATOM     14  O   UNL A   1      34.188  25.083  23.552  1.00  0.00    -0.269 OA
BRANCH  13  15
ATOM     15  C   UNL A   1      34.881  23.057  24.539  1.00  0.00     0.111 A 
ATOM     16  C   UNL A   1      38.171  21.420  25.466  1.00  0.00     0.069 C 
ATOM     17  C   UNL A   1      36.691  21.580  25.184  1.00  0.00     0.062 A 
ATOM     18  N   UNL A   1      36.016  20.487  25.059  1.00  0.00    -0.175 NA
ATOM     19  C   UNL A   1      36.108  22.955  25.092  1.00  0.00    -0.010 A 
ATOM     20  N   UNL A   1      34.713  20.594  24.686  1.00  0.00    -0.232 N 
ATOM     21  C   UNL A   1      36.925  24.018  25.753  1.00  0.00     0.047 C 
ATOM     22  C   UNL A   1      33.977  19.341  24.645  1.00  0.00     0.178 C 
ATOM     23  C   UNL A   1      34.144  21.774  24.214  1.00  0.00     0.279 A 
ATOM     24  O   UNL A   1      33.082  21.783  23.596  1.00  0.00    -0.267 OA
ENDBRANCH  13  15
ENDBRANCH   8  13
ENDBRANCH   4   7
ENDBRANCH   2   3
ENDBRANCH   1   2
BRANCH   1  25
ATOM     25  C   UNL A   1      33.401  28.389  27.299  1.00  0.00     0.118 C 
BRANCH  25  26
ATOM     26  N   UNL A   1      33.430  29.835  27.463  1.00  0.00    -0.352 N 
ATOM     27  C   UNL A   1      34.386  30.657  28.013  1.00  0.00     0.251 C 
ATOM     28  H   UNL A   1      32.633  30.303  27.124  1.00  0.00     0.163 HD
ATOM     29  O   UNL A   1      34.102  31.818  28.284  1.00  0.00    -0.269 OA
BRANCH  27  30
ATOM     30  C   UNL A   1      35.744  30.144  28.293  1.00  0.00     0.039 A 
ATOM     31  C   UNL A   1      36.725  30.218  27.299  1.00  0.00     0.014 A 
ATOM     32  C   UNL A   1      36.047  29.562  29.523  1.00  0.00     0.014 A 
ATOM     33  C   UNL A   1      38.018  29.761  27.567  1.00  0.00     0.010 A 
ATOM     34  C   UNL A   1      37.358  29.237  29.835  1.00  0.00     0.010 A 
ATOM     35  C   UNL A   1      38.350  29.297  28.849  1.00  0.00    -0.014 A 
BRANCH  35  36
ATOM     36  C   UNL A   1      39.706  28.796  29.175  1.00  0.00     0.031 A 
ATOM     37  C   UNL A   1      40.651  29.670  29.955  1.00  0.00     0.074 A 
ATOM     38  C   UNL A   1      40.105  27.592  28.728  1.00  0.00     0.049 A 
ATOM     39  N   UNL A   1      41.898  29.450  30.285  1.00  0.00    -0.248 NA
ATOM     40  C   UNL A   1      40.137  30.979  30.394  1.00  0.00     0.031 C 
ATOM     41  C   UNL A   1      39.289  26.667  27.938  1.00  0.00     0.029 A 
ATOM     42  N   UNL A   1      41.300  26.937  28.879  1.00  0.00    -0.354 N 
ATOM     43  C   UNL A   1      42.315  30.597  30.950  1.00  0.00     0.074 A 
ATOM     44  C   UNL A   1      41.222  31.539  30.906  1.00  0.00     0.031 C 
ATOM     45  C   UNL A   1      39.991  25.543  27.720  1.00  0.00     0.029 A 
ATOM     46  C   UNL A   1      41.317  25.687  28.311  1.00  0.00     0.049 A 
ATOM     47  H   UNL A   1      42.072  27.326  29.351  1.00  0.00     0.167 HD
ATOM     48  C   UNL A   1      43.491  30.834  31.578  1.00  0.00     0.031 A 
ATOM     49  C   UNL A   1      42.292  24.760  28.276  1.00  0.00     0.031 A 
ATOM     50  C   UNL A   1      44.571  29.888  31.632  1.00  0.00     0.049 A 
ATOM     51  C   UNL A   1      43.605  25.055  28.943  1.00  0.00     0.074 A 
ATOM     52  C   UNL A   1      45.790  30.009  32.273  1.00  0.00     0.029 A 
ATOM     53  N   UNL A   1      44.558  28.645  31.019  1.00  0.00    -0.354 N 
ATOM     54  N   UNL A   1      43.970  26.124  29.610  1.00  0.00    -0.248 NA
ATOM     55  C   UNL A   1      44.639  24.015  28.857  1.00  0.00     0.031 C 
ATOM     56  C   UNL A   1      46.538  28.860  31.999  1.00  0.00     0.029 A 
ATOM     57  C   UNL A   1      45.760  27.997  31.242  1.00  0.00     0.049 A 
ATOM     58  H   UNL A   1      43.805  28.277  30.502  1.00  0.00     0.167 HD
ATOM     59  C   UNL A   1      45.268  25.880  30.039  1.00  0.00     0.074 A 
ATOM     60  C   UNL A   1      45.618  24.553  29.574  1.00  0.00     0.031 C 
ATOM     61  C   UNL A   1      46.094  26.682  30.755  1.00  0.00     0.031 A 
BRANCH  48  62
ATOM     62  C   UNL A   1      43.652  32.167  32.255  1.00  0.00    -0.014 A 
ATOM     63  C   UNL A   1      43.277  32.352  33.597  1.00  0.00     0.009 A 
ATOM     64  C   UNL A   1      44.189  33.253  31.548  1.00  0.00     0.009 A 
ATOM     65  C   UNL A   1      43.391  33.606  34.199  1.00  0.00     0.001 A 
ATOM     66  C   UNL A   1      44.335  34.498  32.164  1.00  0.00     0.001 A 
ATOM     67  C   UNL A   1      43.925  34.677  33.484  1.00  0.00     0.000 A 
ENDBRANCH  48  62
BRANCH  49  68
ATOM     68  C   UNL A   1      42.030  23.449  27.626  1.00  0.00    -0.014 A 
ATOM     69  C   UNL A   1      42.465  23.215  26.313  1.00  0.00     0.009 A 
ATOM     70  C   UNL A   1      41.401  22.408  28.328  1.00  0.00     0.009 A 
ATOM     71  C   UNL A   1      42.273  21.968  25.715  1.00  0.00     0.001 A 
ATOM     72  C   UNL A   1      41.235  21.154  27.737  1.00  0.00     0.001 A 
ATOM     73  C   UNL A   1      41.669  20.935  26.430  1.00  0.00     0.000 A 
ENDBRANCH  49  68
BRANCH  61  74
ATOM     74  C   UNL A   1      47.460  26.149  31.085  1.00  0.00    -0.014 A 
ATOM     75  C   UNL A   1      48.509  26.218  30.154  1.00  0.00     0.009 A 
ATOM     76  C   UNL A   1      47.721  25.645  32.368  1.00  0.00     0.009 A 
ATOM     77  C   UNL A   1      49.786  25.770  30.496  1.00  0.00     0.001 A 
ATOM     78  C   UNL A   1      49.006  25.228  32.717  1.00  0.00     0.001 A 
ATOM     79  C   UNL A   1      50.035  25.284  31.779  1.00  0.00     0.000 A 
ENDBRANCH  61  74
ENDBRANCH  35  36
ENDBRANCH  27  30
ENDBRANCH  25  26
ENDBRANCH   1  25
TORSDOF 12
ENDMDL
MODEL 3
REMARK VINA RESULT:     -11.8      0.627      5.986
REMARK SMILES Cc1nn(C)c(=O)c(C(=O)N2CCCC[C@H]2C(=O)NCCCNC(=O)c2ccc(-c3c4nc(c(-c5ccccc5)c5ccc([nH]5)c(-c5ccccc5)c5nc(c(-c6ccccc6)c6ccc3[nH]6)C=C5)C=C4)cc2)c1C
REMARK SMILES IDX 21 1 20 2 19 3 17 4 18 5 16 7 11 8 12 9 13 10 15 11 14 12
REMARK SMILES IDX 9 13 10 14 8 15 1 16 2 17 3 18 74 19 4 20 75 21 5 22 6 23
REMARK SMILES IDX 7 24 22 25 23 26 24 27 25 29 26 30 27 31 73 32 28 33 72 34
REMARK SMILES IDX 29 35 30 36 31 37 66 38 32 39 71 40 65 41 67 42 33 43 70 44
REMARK SMILES IDX 64 45 63 46 34 48 56 49 41 50 55 51 42 52 45 53 54 54 68 55
REMARK SMILES IDX 43 56 44 57 53 59 69 60 46 61 35 62 36 63 40 64 37 65 39 66
REMARK SMILES IDX 38 67 57 68 58 69 62 70 59 71 61 72 60 73 47 74 48 75 52 76
REMARK SMILES IDX 49 77 51 78 50 79
REMARK H PARENT 19 6 23 28 67 47 45 58
REMARK Flexibility Score: inf
ROOT
ATOM      1  C   UNL A   1      37.927  19.363  24.981  1.00  0.00     0.042 C 
ENDROOT
BRANCH   1   2
ATOM      2  C   UNL A   1      36.624  20.145  24.958  1.00  0.00     0.117 C 
BRANCH   2   3
ATOM      3  N   UNL A   1      35.429  19.336  25.049  1.00  0.00    -0.354 N 
ATOM      4  C   UNL A   1      34.195  19.639  24.543  1.00  0.00     0.242 C 
ATOM      5  O   UNL A   1      33.649  18.734  23.899  1.00  0.00    -0.273 OA
ATOM      6  H   UNL A   1      35.512  18.477  25.522  1.00  0.00     0.163 HD
BRANCH   4   7
ATOM      7  C   UNL A   1      33.467  21.015  24.718  1.00  0.00     0.174 C 
ATOM      8  N   UNL A   1      34.300  22.234  24.773  1.00  0.00    -0.326 N 
ATOM      9  C   UNL A   1      34.762  22.732  23.495  1.00  0.00     0.120 C 
ATOM     10  C   UNL A   1      33.615  23.095  22.571  1.00  0.00     0.022 C 
ATOM     11  C   UNL A   1      32.270  21.210  23.767  1.00  0.00     0.035 C 
ATOM     12  C   UNL A   1      32.481  22.074  22.514  1.00  0.00     0.004 C 
BRANCH   8  13
ATOM     13  C   UNL A   1      34.330  23.160  25.816  1.00  0.00     0.260 C 
ATOM     14  O   UNL A   1      35.340  23.222  26.525  1.00  0.00    -0.269 OA
BRANCH  13  15
ATOM     15  C   UNL A   1      33.133  23.990  26.212  1.00  0.00     0.111 A 
ATOM     16  C   UNL A   1      31.330  27.310  25.920  1.00  0.00     0.069 C 
ATOM     17  C   UNL A   1      31.551  25.823  26.105  1.00  0.00     0.062 A 
ATOM     18  N   UNL A   1      30.545  25.151  26.554  1.00  0.00    -0.175 NA
ATOM     19  C   UNL A   1      32.878  25.231  25.746  1.00  0.00    -0.010 A 
ATOM     20  N   UNL A   1      30.748  23.838  26.846  1.00  0.00    -0.232 N 
ATOM     21  C   UNL A   1      33.688  26.057  24.801  1.00  0.00     0.047 C 
ATOM     22  C   UNL A   1      29.563  23.109  27.265  1.00  0.00     0.178 C 
ATOM     23  C   UNL A   1      32.009  23.252  26.910  1.00  0.00     0.279 A 
ATOM     24  O   UNL A   1      32.199  22.175  27.470  1.00  0.00    -0.267 OA
ENDBRANCH  13  15
ENDBRANCH   8  13
ENDBRANCH   4   7
ENDBRANCH   2   3
ENDBRANCH   1   2
BRANCH   1  25
ATOM     25  C   UNL A   1      39.073  20.117  25.625  1.00  0.00     0.118 C 
BRANCH  25  26
ATOM     26  N   UNL A   1      40.262  19.292  25.774  1.00  0.00    -0.352 N 
ATOM     27  C   UNL A   1      41.559  19.633  26.079  1.00  0.00     0.251 C 
ATOM     28  H   UNL A   1      40.115  18.329  25.633  1.00  0.00     0.163 HD
ATOM     29  O   UNL A   1      42.456  18.817  25.904  1.00  0.00    -0.269 OA
BRANCH  27  30
ATOM     30  C   UNL A   1      41.877  20.980  26.601  1.00  0.00     0.039 A 
ATOM     31  C   UNL A   1      42.257  21.989  25.710  1.00  0.00     0.014 A 
ATOM     32  C   UNL A   1      41.834  21.242  27.969  1.00  0.00     0.014 A 
ATOM     33  C   UNL A   1      42.532  23.271  26.194  1.00  0.00     0.010 A 
ATOM     34  C   UNL A   1      41.971  22.542  28.432  1.00  0.00     0.010 A 
ATOM     35  C   UNL A   1      42.359  23.563  27.556  1.00  0.00    -0.014 A 
BRANCH  35  36
ATOM     36  C   UNL A   1      42.647  24.905  28.113  1.00  0.00     0.031 A 
ATOM     37  C   UNL A   1      44.055  25.255  28.513  1.00  0.00     0.074 A 
ATOM     38  C   UNL A   1      41.646  25.782  28.310  1.00  0.00     0.049 A 
ATOM     39  N   UNL A   1      44.507  26.345  29.080  1.00  0.00    -0.248 NA
ATOM     40  C   UNL A   1      45.088  24.232  28.276  1.00  0.00     0.031 C 
ATOM     41  C   UNL A   1      40.236  25.547  27.988  1.00  0.00     0.029 A 
ATOM     42  N   UNL A   1      41.663  27.053  28.824  1.00  0.00    -0.354 N 
ATOM     43  C   UNL A   1      45.864  26.125  29.279  1.00  0.00     0.074 A 
ATOM     44  C   UNL A   1      46.147  24.776  28.852  1.00  0.00     0.031 C 
ATOM     45  C   UNL A   1      39.534  26.658  28.265  1.00  0.00     0.029 A 
ATOM     46  C   UNL A   1      40.433  27.662  28.826  1.00  0.00     0.049 A 
ATOM     47  H   UNL A   1      42.480  27.487  29.160  1.00  0.00     0.167 HD
ATOM     48  C   UNL A   1      46.803  26.984  29.741  1.00  0.00     0.031 A 
ATOM     49  C   UNL A   1      40.071  28.894  29.229  1.00  0.00     0.031 A 
ATOM     50  C   UNL A   1      46.521  28.331  30.153  1.00  0.00     0.049 A 
ATOM     51  C   UNL A   1      41.120  29.819  29.777  1.00  0.00     0.074 A 
ATOM     52  C   UNL A   1      47.401  29.298  30.600  1.00  0.00     0.029 A 
ATOM     53  N   UNL A   1      45.255  28.899  30.165  1.00  0.00    -0.354 N 
ATOM     54  N   UNL A   1      42.409  29.617  29.916  1.00  0.00    -0.248 NA
ATOM     55  C   UNL A   1      40.666  31.144  30.220  1.00  0.00     0.031 C 
ATOM     56  C   UNL A   1      46.660  30.434  30.938  1.00  0.00     0.029 A 
ATOM     57  C   UNL A   1      45.327  30.196  30.640  1.00  0.00     0.049 A 
ATOM     58  H   UNL A   1      44.429  28.446  29.878  1.00  0.00     0.167 HD
ATOM     59  C   UNL A   1      42.923  30.794  30.444  1.00  0.00     0.074 A 
ATOM     60  C   UNL A   1      41.810  31.711  30.582  1.00  0.00     0.031 C 
ATOM     61  C   UNL A   1      44.203  31.088  30.784  1.00  0.00     0.031 A 
BRANCH  48  62
ATOM     62  C   UNL A   1      48.218  26.479  29.816  1.00  0.00    -0.014 A 
ATOM     63  C   UNL A   1      48.701  25.832  30.966  1.00  0.00     0.009 A 
ATOM     64  C   UNL A   1      49.082  26.645  28.722  1.00  0.00     0.009 A 
ATOM     65  C   UNL A   1      50.029  25.407  31.038  1.00  0.00     0.001 A 
ATOM     66  C   UNL A   1      50.399  26.188  28.783  1.00  0.00     0.001 A 
ATOM     67  C   UNL A   1      50.876  25.581  29.944  1.00  0.00     0.000 A 
ENDBRANCH  48  62
BRANCH  49  68
ATOM     68  C   UNL A   1      38.658  29.328  29.075  1.00  0.00    -0.014 A 
ATOM     69  C   UNL A   1      38.197  29.798  27.837  1.00  0.00     0.009 A 
ATOM     70  C   UNL A   1      37.750  29.220  30.142  1.00  0.00     0.009 A 
ATOM     71  C   UNL A   1      36.857  30.155  27.669  1.00  0.00     0.001 A 
ATOM     72  C   UNL A   1      36.405  29.551  29.963  1.00  0.00     0.001 A 
ATOM     73  C   UNL A   1      35.960  30.021  28.728  1.00  0.00     0.000 A 
ENDBRANCH  49  68
BRANCH  61  74
ATOM     74  C   UNL A   1      44.474  32.459  31.336  1.00  0.00    -0.014 A 
ATOM     75  C   UNL A   1      44.456  32.700  32.718  1.00  0.00     0.009 A 
ATOM     76  C   UNL A   1      44.830  33.503  30.467  1.00  0.00     0.009 A 
ATOM     77  C   UNL A   1      44.766  33.966  33.217  1.00  0.00     0.001 A 
ATOM     78  C   UNL A   1      45.169  34.759  30.971  1.00  0.00     0.001 A 
ATOM     79  C   UNL A   1      45.130  34.991  32.345  1.00  0.00     0.000 A 
ENDBRANCH  61  74
ENDBRANCH  35  36
ENDBRANCH  27  30
ENDBRANCH  25  26
ENDBRANCH   1  25
TORSDOF 12
ENDMDL
