MODEL 1
REMARK VINA RESULT:     -12.7      0.000      0.000
REMARK SMILES O=C(CC[NH+]1CCC(n2nccc2NC(=O)c2ccccc2Cl)CC1)NCCCNC(=O)c1ccc(-c2c3nc(c(-c4ccccc4)c4ccc([nH]4)c(-c4ccccc4)c4nc(c(-c5ccccc5)c5ccc2[nH]5)C=C4)C=C3)cc1
REMARK SMILES IDX 1 1 2 2 26 3 3 5 4 6 5 7 6 8 25 9 7 11 24 12 8 13 9 14 10 15
REMARK SMILES IDX 13 16 11 17 12 18 14 19 15 20 16 22 17 23 18 24 22 25 19 26
REMARK SMILES IDX 21 27 23 28 20 29 27 30 28 31 29 32 30 33 31 34 32 36 33 37
REMARK SMILES IDX 34 38 80 39 35 40 79 41 36 42 37 43 38 44 73 45 39 46 78 47
REMARK SMILES IDX 72 48 74 49 40 50 77 51 71 52 70 53 41 55 63 56 48 57 62 58
REMARK SMILES IDX 49 59 52 60 61 61 75 62 50 63 51 64 60 66 76 67 53 68 42 69
REMARK SMILES IDX 43 70 47 71 44 72 46 73 45 74 64 75 65 76 69 77 66 78 68 79
REMARK SMILES IDX 67 80 54 81 55 82 59 83 56 84 58 85 57 86
REMARK H PARENT 26 4 5 10 14 21 30 35 74 54 52 65
REMARK Flexibility Score: inf
ROOT
ATOM      1  O   UNL A   1      34.793  34.359  29.582  1.00  0.00    -0.275 OA
ATOM      2  C   UNL A   1      34.568  33.164  29.417  1.00  0.00     0.225 C 
ATOM      3  N   UNL A   1      34.403  32.288  30.480  1.00  0.00    -0.356 N 
ATOM      4  H   UNL A   1      33.999  31.402  30.334  1.00  0.00     0.163 HD
ENDROOT
BRANCH   2   5
ATOM      5  C   UNL A   1      34.579  32.530  28.032  1.00  0.00     0.161 C 
BRANCH   5   6
ATOM      6  C   UNL A   1      35.047  31.055  28.123  1.00  0.00     0.272 C 
BRANCH   6   7
ATOM      7  N   UNL A   1      34.089  29.959  27.778  1.00  0.00    -0.334 N 
ATOM      8  C   UNL A   1      32.841  30.548  27.246  1.00  0.00     0.264 C 
ATOM      9  C   UNL A   1      34.638  28.979  26.857  1.00  0.00     0.264 C 
ATOM     10  H   UNL A   1      33.892  29.445  28.638  1.00  0.00     0.348 HD
ATOM     11  C   UNL A   1      31.815  29.505  26.786  1.00  0.00     0.089 C 
ATOM     12  C   UNL A   1      33.656  27.902  26.438  1.00  0.00     0.089 C 
ATOM     13  C   UNL A   1      32.427  28.511  25.781  1.00  0.00     0.121 C 
BRANCH  13  14
ATOM     14  N   UNL A   1      31.440  27.559  25.267  1.00  0.00    -0.246 N 
ATOM     15  N   UNL A   1      30.824  27.898  24.110  1.00  0.00    -0.179 NA
ATOM     16  C   UNL A   1      30.965  26.356  25.764  1.00  0.00     0.131 A 
ATOM     17  C   UNL A   1      29.849  27.003  23.980  1.00  0.00     0.137 A 
ATOM     18  C   UNL A   1      29.844  26.064  25.021  1.00  0.00     0.069 A 
BRANCH  16  19
ATOM     19  N   UNL A   1      31.483  25.551  26.769  1.00  0.00    -0.307 N 
ATOM     20  C   UNL A   1      31.417  24.137  26.677  1.00  0.00     0.258 C 
ATOM     21  H   UNL A   1      31.903  25.967  27.557  1.00  0.00     0.171 HD
ATOM     22  O   UNL A   1      30.458  23.655  27.255  1.00  0.00    -0.269 OA
BRANCH  20  23
ATOM     23  C   UNL A   1      32.471  23.292  26.067  1.00  0.00     0.058 A 
ATOM     24  C   UNL A   1      33.561  23.008  26.919  1.00  0.00     0.015 A 
ATOM     25  C   UNL A   1      32.506  22.805  24.755  1.00  0.00     0.053 A 
ATOM     26  C   UNL A   1      34.622  22.209  26.499  1.00  0.00     0.001 A 
ATOM     27  C   UNL A   1      33.563  21.978  24.349  1.00  0.00     0.021 A 
ATOM     28  Cl  UNL A   1      31.352  23.191  23.534  1.00  0.00    -0.083 Cl
ATOM     29  C   UNL A   1      34.610  21.673  25.219  1.00  0.00     0.002 A 
ENDBRANCH  20  23
ENDBRANCH  16  19
ENDBRANCH  13  14
ENDBRANCH   6   7
ENDBRANCH   5   6
ENDBRANCH   2   5
BRANCH   3  30
ATOM     30  C   UNL A   1      34.832  32.692  31.820  1.00  0.00     0.117 C 
BRANCH  30  31
ATOM     31  C   UNL A   1      36.025  31.923  32.406  1.00  0.00     0.042 C 
BRANCH  31  32
ATOM     32  C   UNL A   1      37.333  32.690  32.340  1.00  0.00     0.118 C 
BRANCH  32  33
ATOM     33  N   UNL A   1      37.558  33.511  31.158  1.00  0.00    -0.352 N 
ATOM     34  C   UNL A   1      38.490  33.327  30.154  1.00  0.00     0.251 C 
ATOM     35  H   UNL A   1      36.971  34.295  31.062  1.00  0.00     0.163 HD
ATOM     36  O   UNL A   1      38.730  34.243  29.369  1.00  0.00    -0.269 OA
BRANCH  34  37
ATOM     37  C   UNL A   1      39.155  32.015  29.937  1.00  0.00     0.039 A 
ATOM     38  C   UNL A   1      38.405  30.877  29.618  1.00  0.00     0.014 A 
ATOM     39  C   UNL A   1      40.512  31.861  30.206  1.00  0.00     0.014 A 
ATOM     40  C   UNL A   1      39.025  29.623  29.623  1.00  0.00     0.010 A 
ATOM     41  C   UNL A   1      41.150  30.658  30.100  1.00  0.00     0.010 A 
ATOM     42  C   UNL A   1      40.396  29.523  29.914  1.00  0.00    -0.014 A 
BRANCH  42  43
ATOM     43  C   UNL A   1      41.118  28.259  29.863  1.00  0.00     0.031 A 
ATOM     44  C   UNL A   1      41.859  28.018  31.112  1.00  0.00     0.074 A 
ATOM     45  C   UNL A   1      40.928  27.293  28.935  1.00  0.00     0.049 A 
ATOM     46  N   UNL A   1      43.135  28.059  31.290  1.00  0.00    -0.248 NA
ATOM     47  C   UNL A   1      41.065  27.935  32.354  1.00  0.00     0.031 C 
ATOM     48  C   UNL A   1      39.927  27.288  27.859  1.00  0.00     0.029 A 
ATOM     49  N   UNL A   1      41.508  26.060  28.808  1.00  0.00    -0.354 N 
ATOM     50  C   UNL A   1      43.301  27.723  32.626  1.00  0.00     0.074 A 
ATOM     51  C   UNL A   1      42.032  27.943  33.271  1.00  0.00     0.031 C 
ATOM     52  C   UNL A   1      39.853  26.064  27.301  1.00  0.00     0.029 A 
ATOM     53  C   UNL A   1      40.867  25.221  27.901  1.00  0.00     0.049 A 
ATOM     54  H   UNL A   1      42.307  25.790  29.315  1.00  0.00     0.167 HD
ATOM     55  C   UNL A   1      44.309  26.893  32.999  1.00  0.00     0.031 A 
ATOM     56  C   UNL A   1      41.111  23.914  27.644  1.00  0.00     0.031 A 
ATOM     57  C   UNL A   1      45.304  26.766  31.966  1.00  0.00     0.049 A 
ATOM     58  C   UNL A   1      42.465  23.597  28.139  1.00  0.00     0.074 A 
ATOM     59  C   UNL A   1      46.290  27.562  31.428  1.00  0.00     0.029 A 
ATOM     60  N   UNL A   1      45.063  25.751  31.077  1.00  0.00    -0.354 N 
ATOM     61  N   UNL A   1      43.549  24.067  27.591  1.00  0.00    -0.248 NA
ATOM     62  C   UNL A   1      42.636  23.024  29.469  1.00  0.00     0.031 C 
ATOM     63  C   UNL A   1      46.527  27.070  30.110  1.00  0.00     0.029 A 
ATOM     64  C   UNL A   1      45.698  25.974  29.883  1.00  0.00     0.049 A 
ATOM     65  H   UNL A   1      44.506  24.963  31.271  1.00  0.00     0.167 HD
ATOM     66  C   UNL A   1      44.413  24.249  28.652  1.00  0.00     0.074 A 
ATOM     67  C   UNL A   1      43.880  23.431  29.731  1.00  0.00     0.031 C 
ATOM     68  C   UNL A   1      45.278  25.301  28.672  1.00  0.00     0.031 A 
BRANCH  55  69
ATOM     69  C   UNL A   1      44.114  25.803  34.028  1.00  0.00    -0.014 A 
ATOM     70  C   UNL A   1      44.908  25.824  35.183  1.00  0.00     0.009 A 
ATOM     71  C   UNL A   1      43.391  24.617  33.778  1.00  0.00     0.009 A 
ATOM     72  C   UNL A   1      44.992  24.708  36.025  1.00  0.00     0.001 A 
ATOM     73  C   UNL A   1      43.439  23.517  34.636  1.00  0.00     0.001 A 
ATOM     74  C   UNL A   1      44.259  23.556  35.752  1.00  0.00     0.000 A 
ENDBRANCH  55  69
BRANCH  56  75
ATOM     75  C   UNL A   1      40.210  22.886  27.082  1.00  0.00    -0.014 A 
ATOM     76  C   UNL A   1      38.972  23.237  26.521  1.00  0.00     0.009 A 
ATOM     77  C   UNL A   1      40.666  21.570  26.886  1.00  0.00     0.009 A 
ATOM     78  C   UNL A   1      38.242  22.316  25.758  1.00  0.00     0.001 A 
ATOM     79  C   UNL A   1      39.933  20.647  26.134  1.00  0.00     0.001 A 
ATOM     80  C   UNL A   1      38.729  21.027  25.553  1.00  0.00     0.000 A 
ENDBRANCH  56  75
BRANCH  68  81
ATOM     81  C   UNL A   1      45.661  25.902  27.350  1.00  0.00    -0.014 A 
ATOM     82  C   UNL A   1      46.704  25.416  26.545  1.00  0.00     0.009 A 
ATOM     83  C   UNL A   1      44.900  26.983  26.882  1.00  0.00     0.009 A 
ATOM     84  C   UNL A   1      46.991  26.017  25.315  1.00  0.00     0.001 A 
ATOM     85  C   UNL A   1      45.173  27.568  25.645  1.00  0.00     0.001 A 
ATOM     86  C   UNL A   1      46.221  27.089  24.865  1.00  0.00     0.000 A 
ENDBRANCH  68  81
ENDBRANCH  42  43
ENDBRANCH  34  37
ENDBRANCH  32  33
ENDBRANCH  31  32
ENDBRANCH  30  31
ENDBRANCH   3  30
TORSDOF 15
ENDMDL
MODEL 2
REMARK VINA RESULT:     -12.4      1.433      2.924
REMARK SMILES O=C(CC[NH+]1CCC(n2nccc2NC(=O)c2ccccc2Cl)CC1)NCCCNC(=O)c1ccc(-c2c3nc(c(-c4ccccc4)c4ccc([nH]4)c(-c4ccccc4)c4nc(c(-c5ccccc5)c5ccc2[nH]5)C=C4)C=C3)cc1
REMARK SMILES IDX 1 1 2 2 26 3 3 5 4 6 5 7 6 8 25 9 7 11 24 12 8 13 9 14 10 15
REMARK SMILES IDX 13 16 11 17 12 18 14 19 15 20 16 22 17 23 18 24 22 25 19 26
REMARK SMILES IDX 21 27 23 28 20 29 27 30 28 31 29 32 30 33 31 34 32 36 33 37
REMARK SMILES IDX 34 38 80 39 35 40 79 41 36 42 37 43 38 44 73 45 39 46 78 47
REMARK SMILES IDX 72 48 74 49 40 50 77 51 71 52 70 53 41 55 63 56 48 57 62 58
REMARK SMILES IDX 49 59 52 60 61 61 75 62 50 63 51 64 60 66 76 67 53 68 42 69
REMARK SMILES IDX 43 70 47 71 44 72 46 73 45 74 64 75 65 76 69 77 66 78 68 79
REMARK SMILES IDX 67 80 54 81 55 82 59 83 56 84 58 85 57 86
REMARK H PARENT 26 4 5 10 14 21 30 35 74 54 52 65
REMARK Flexibility Score: inf
ROOT
ATOM      1  O   UNL A   1      36.166  33.838  29.389  1.00  0.00    -0.275 OA
ATOM      2  C   UNL A   1      35.519  32.801  29.500  1.00  0.00     0.225 C 
ATOM      3  N   UNL A   1      34.933  32.418  30.697  1.00  0.00    -0.356 N 
ATOM      4  H   UNL A   1      34.238  31.721  30.708  1.00  0.00     0.163 HD
ENDROOT
BRANCH   2   5
ATOM      5  C   UNL A   1      35.417  31.794  28.361  1.00  0.00     0.161 C 
BRANCH   5   6
ATOM      6  C   UNL A   1      33.957  31.714  27.848  1.00  0.00     0.272 C 
BRANCH   6   7
ATOM      7  N   UNL A   1      33.559  30.593  26.941  1.00  0.00    -0.334 N 
ATOM      8  C   UNL A   1      34.294  29.368  27.324  1.00  0.00     0.264 C 
ATOM      9  C   UNL A   1      32.126  30.354  26.910  1.00  0.00     0.264 C 
ATOM     10  H   UNL A   1      33.810  30.867  25.990  1.00  0.00     0.348 HD
ATOM     11  C   UNL A   1      33.901  28.133  26.503  1.00  0.00     0.089 C 
ATOM     12  C   UNL A   1      31.712  29.172  26.054  1.00  0.00     0.089 C 
ATOM     13  C   UNL A   1      32.380  27.893  26.530  1.00  0.00     0.121 C 
BRANCH  13  14
ATOM     14  N   UNL A   1      31.996  26.670  25.823  1.00  0.00    -0.246 N 
ATOM     15  N   UNL A   1      31.612  25.625  26.593  1.00  0.00    -0.179 NA
ATOM     16  C   UNL A   1      31.982  26.342  24.477  1.00  0.00     0.131 A 
ATOM     17  C   UNL A   1      31.530  24.602  25.746  1.00  0.00     0.137 A 
ATOM     18  C   UNL A   1      31.823  24.976  24.428  1.00  0.00     0.069 A 
BRANCH  16  19
ATOM     19  N   UNL A   1      32.071  27.171  23.366  1.00  0.00    -0.307 N 
ATOM     20  C   UNL A   1      30.998  27.268  22.443  1.00  0.00     0.258 C 
ATOM     21  H   UNL A   1      32.888  27.699  23.218  1.00  0.00     0.171 HD
ATOM     22  O   UNL A   1      31.118  26.533  21.478  1.00  0.00    -0.269 OA
BRANCH  20  23
ATOM     23  C   UNL A   1      29.900  28.258  22.543  1.00  0.00     0.058 A 
ATOM     24  C   UNL A   1      30.215  29.537  22.033  1.00  0.00     0.015 A 
ATOM     25  C   UNL A   1      28.639  28.062  23.118  1.00  0.00     0.053 A 
ATOM     26  C   UNL A   1      29.281  30.570  22.037  1.00  0.00     0.001 A 
ATOM     27  C   UNL A   1      27.695  29.098  23.092  1.00  0.00     0.021 A 
ATOM     28  Cl  UNL A   1      28.146  26.626  23.935  1.00  0.00    -0.083 Cl
ATOM     29  C   UNL A   1      28.010  30.342  22.545  1.00  0.00     0.002 A 
ENDBRANCH  20  23
ENDBRANCH  16  19
ENDBRANCH  13  14
ENDBRANCH   6   7
ENDBRANCH   5   6
ENDBRANCH   2   5
BRANCH   3  30
ATOM     30  C   UNL A   1      35.355  33.059  31.943  1.00  0.00     0.117 C 
BRANCH  30  31
ATOM     31  C   UNL A   1      36.338  32.260  32.812  1.00  0.00     0.042 C 
BRANCH  31  32
ATOM     32  C   UNL A   1      37.724  32.875  32.884  1.00  0.00     0.118 C 
BRANCH  32  33
ATOM     33  N   UNL A   1      38.096  33.790  31.813  1.00  0.00    -0.352 N 
ATOM     34  C   UNL A   1      39.066  33.622  30.842  1.00  0.00     0.251 C 
ATOM     35  H   UNL A   1      37.592  34.635  31.775  1.00  0.00     0.163 HD
ATOM     36  O   UNL A   1      39.438  34.587  30.177  1.00  0.00    -0.269 OA
BRANCH  34  37
ATOM     37  C   UNL A   1      39.617  32.280  30.515  1.00  0.00     0.039 A 
ATOM     38  C   UNL A   1      38.765  31.199  30.258  1.00  0.00     0.014 A 
ATOM     39  C   UNL A   1      40.984  32.037  30.616  1.00  0.00     0.014 A 
ATOM     40  C   UNL A   1      39.301  29.911  30.157  1.00  0.00     0.010 A 
ATOM     41  C   UNL A   1      41.529  30.802  30.405  1.00  0.00     0.010 A 
ATOM     42  C   UNL A   1      40.687  29.720  30.281  1.00  0.00    -0.014 A 
BRANCH  42  43
ATOM     43  C   UNL A   1      41.318  28.418  30.112  1.00  0.00     0.031 A 
ATOM     44  C   UNL A   1      42.096  28.044  31.305  1.00  0.00     0.074 A 
ATOM     45  C   UNL A   1      41.021  27.533  29.134  1.00  0.00     0.049 A 
ATOM     46  N   UNL A   1      43.378  27.990  31.422  1.00  0.00    -0.248 NA
ATOM     47  C   UNL A   1      41.355  27.930  32.577  1.00  0.00     0.031 C 
ATOM     48  C   UNL A   1      39.975  27.667  28.110  1.00  0.00     0.029 A 
ATOM     49  N   UNL A   1      41.508  26.276  28.899  1.00  0.00    -0.354 N 
ATOM     50  C   UNL A   1      43.580  27.553  32.724  1.00  0.00     0.074 A 
ATOM     51  C   UNL A   1      42.360  27.811  33.444  1.00  0.00     0.031 C 
ATOM     52  C   UNL A   1      39.791  26.491  27.479  1.00  0.00     0.029 A 
ATOM     53  C   UNL A   1      40.770  25.544  27.972  1.00  0.00     0.049 A 
ATOM     54  H   UNL A   1      42.308  25.919  29.348  1.00  0.00     0.167 HD
ATOM     55  C   UNL A   1      44.545  26.634  32.992  1.00  0.00     0.031 A 
ATOM     56  C   UNL A   1      40.912  24.244  27.619  1.00  0.00     0.031 A 
ATOM     57  C   UNL A   1      45.481  26.513  31.905  1.00  0.00     0.049 A 
ATOM     58  C   UNL A   1      42.262  23.806  28.025  1.00  0.00     0.074 A 
ATOM     59  C   UNL A   1      46.495  27.277  31.371  1.00  0.00     0.029 A 
ATOM     60  N   UNL A   1      45.131  25.580  30.965  1.00  0.00    -0.354 N 
ATOM     61  N   UNL A   1      43.350  24.240  27.456  1.00  0.00    -0.248 NA
ATOM     62  C   UNL A   1      42.452  23.134  29.305  1.00  0.00     0.031 C 
ATOM     63  C   UNL A   1      46.637  26.862  30.015  1.00  0.00     0.029 A 
ATOM     64  C   UNL A   1      45.726  25.841  29.758  1.00  0.00     0.049 A 
ATOM     65  H   UNL A   1      44.530  24.818  31.134  1.00  0.00     0.167 HD
ATOM     66  C   UNL A   1      44.271  24.292  28.483  1.00  0.00     0.074 A 
ATOM     67  C   UNL A   1      43.732  23.439  29.531  1.00  0.00     0.031 C 
ATOM     68  C   UNL A   1      45.207  25.281  28.528  1.00  0.00     0.031 A 
BRANCH  55  69
ATOM     69  C   UNL A   1      44.321  25.492  33.956  1.00  0.00    -0.014 A 
ATOM     70  C   UNL A   1      44.954  25.539  35.206  1.00  0.00     0.009 A 
ATOM     71  C   UNL A   1      43.751  24.257  33.581  1.00  0.00     0.009 A 
ATOM     72  C   UNL A   1      45.032  24.403  36.022  1.00  0.00     0.001 A 
ATOM     73  C   UNL A   1      43.790  23.133  34.408  1.00  0.00     0.001 A 
ATOM     74  C   UNL A   1      44.452  23.202  35.623  1.00  0.00     0.000 A 
ENDBRANCH  55  69
BRANCH  56  75
ATOM     75  C   UNL A   1      39.918  23.319  27.036  1.00  0.00    -0.014 A 
ATOM     76  C   UNL A   1      38.653  23.775  26.632  1.00  0.00     0.009 A 
ATOM     77  C   UNL A   1      40.292  22.016  26.661  1.00  0.00     0.009 A 
ATOM     78  C   UNL A   1      37.817  22.971  25.846  1.00  0.00     0.001 A 
ATOM     79  C   UNL A   1      39.454  21.210  25.886  1.00  0.00     0.001 A 
ATOM     80  C   UNL A   1      38.223  21.696  25.462  1.00  0.00     0.000 A 
ENDBRANCH  56  75
BRANCH  68  81
ATOM     81  C   UNL A   1      45.570  25.944  27.231  1.00  0.00    -0.014 A 
ATOM     82  C   UNL A   1      46.452  25.387  26.290  1.00  0.00     0.009 A 
ATOM     83  C   UNL A   1      44.957  27.169  26.932  1.00  0.00     0.009 A 
ATOM     84  C   UNL A   1      46.728  26.055  25.093  1.00  0.00     0.001 A 
ATOM     85  C   UNL A   1      45.217  27.826  25.729  1.00  0.00     0.001 A 
ATOM     86  C   UNL A   1      46.106  27.271  24.812  1.00  0.00     0.000 A 
ENDBRANCH  68  81
ENDBRANCH  42  43
ENDBRANCH  34  37
ENDBRANCH  32  33
ENDBRANCH  31  32
ENDBRANCH  30  31
ENDBRANCH   3  30
TORSDOF 15
ENDMDL
MODEL 3
REMARK VINA RESULT:     -12.3      3.574      8.720
REMARK SMILES O=C(CC[NH+]1CCC(n2nccc2NC(=O)c2ccccc2Cl)CC1)NCCCNC(=O)c1ccc(-c2c3nc(c(-c4ccccc4)c4ccc([nH]4)c(-c4ccccc4)c4nc(c(-c5ccccc5)c5ccc2[nH]5)C=C4)C=C3)cc1
REMARK SMILES IDX 1 1 2 2 26 3 3 5 4 6 5 7 6 8 25 9 7 11 24 12 8 13 9 14 10 15
REMARK SMILES IDX 13 16 11 17 12 18 14 19 15 20 16 22 17 23 18 24 22 25 19 26
REMARK SMILES IDX 21 27 23 28 20 29 27 30 28 31 29 32 30 33 31 34 32 36 33 37
REMARK SMILES IDX 34 38 80 39 35 40 79 41 36 42 37 43 38 44 73 45 39 46 78 47
REMARK SMILES IDX 72 48 74 49 40 50 77 51 71 52 70 53 41 55 63 56 48 57 62 58
REMARK SMILES IDX 49 59 52 60 61 61 75 62 50 63 51 64 60 66 76 67 53 68 42 69
REMARK SMILES IDX 43 70 47 71 44 72 46 73 45 74 64 75 65 76 69 77 66 78 68 79
REMARK SMILES IDX 67 80 54 81 55 82 59 83 56 84 58 85 57 86
REMARK H PARENT 26 4 5 10 14 21 30 35 74 54 52 65
REMARK Flexibility Score: inf
ROOT
ATOM      1  O   UNL A   1      40.761  21.078  28.042  1.00  0.00    -0.275 OA
ATOM      2  C   UNL A   1      40.753  20.851  26.835  1.00  0.00     0.225 C 
ATOM      3  N   UNL A   1      41.425  19.772  26.281  1.00  0.00    -0.356 N 
ATOM      4  H   UNL A   1      41.218  19.477  25.365  1.00  0.00     0.163 HD
ENDROOT
BRANCH   2   5
ATOM      5  C   UNL A   1      40.107  21.810  25.843  1.00  0.00     0.161 C 
BRANCH   5   6
ATOM      6  C   UNL A   1      39.035  22.673  26.556  1.00  0.00     0.272 C 
BRANCH   6   7
ATOM      7  N   UNL A   1      37.591  22.471  26.222  1.00  0.00    -0.334 N 
ATOM      8  C   UNL A   1      37.016  23.747  25.743  1.00  0.00     0.264 C 
ATOM      9  C   UNL A   1      37.361  21.403  25.265  1.00  0.00     0.264 C 
ATOM     10  H   UNL A   1      37.119  22.177  27.078  1.00  0.00     0.348 HD
ATOM     11  C   UNL A   1      35.552  23.633  25.298  1.00  0.00     0.089 C 
ATOM     12  C   UNL A   1      35.910  21.234  24.859  1.00  0.00     0.089 C 
ATOM     13  C   UNL A   1      35.360  22.517  24.255  1.00  0.00     0.121 C 
BRANCH  13  14
ATOM     14  N   UNL A   1      33.985  22.449  23.756  1.00  0.00    -0.246 N 
ATOM     15  N   UNL A   1      33.244  21.398  24.178  1.00  0.00    -0.179 NA
ATOM     16  C   UNL A   1      33.277  23.251  22.876  1.00  0.00     0.131 A 
ATOM     17  C   UNL A   1      32.144  21.448  23.432  1.00  0.00     0.137 A 
ATOM     18  C   UNL A   1      32.145  22.539  22.551  1.00  0.00     0.069 A 
BRANCH  16  19
ATOM     19  N   UNL A   1      33.574  24.526  22.411  1.00  0.00    -0.307 N 
ATOM     20  C   UNL A   1      32.789  25.643  22.798  1.00  0.00     0.258 C 
ATOM     21  H   UNL A   1      34.339  24.656  21.805  1.00  0.00     0.171 HD
ATOM     22  O   UNL A   1      31.915  25.925  21.997  1.00  0.00    -0.269 OA
BRANCH  20  23
ATOM     23  C   UNL A   1      33.073  26.490  23.981  1.00  0.00     0.058 A 
ATOM     24  C   UNL A   1      32.590  25.972  25.203  1.00  0.00     0.015 A 
ATOM     25  C   UNL A   1      33.712  27.735  23.990  1.00  0.00     0.053 A 
ATOM     26  C   UNL A   1      32.795  26.642  26.406  1.00  0.00     0.001 A 
ATOM     27  C   UNL A   1      33.940  28.390  25.210  1.00  0.00     0.021 A 
ATOM     28  Cl  UNL A   1      34.212  28.593  22.581  1.00  0.00    -0.083 Cl
ATOM     29  C   UNL A   1      33.494  27.842  26.412  1.00  0.00     0.002 A 
ENDBRANCH  20  23
ENDBRANCH  16  19
ENDBRANCH  13  14
ENDBRANCH   6   7
ENDBRANCH   5   6
ENDBRANCH   2   5
BRANCH   3  30
ATOM     30  C   UNL A   1      42.443  19.075  27.069  1.00  0.00     0.117 C 
BRANCH  30  31
ATOM     31  C   UNL A   1      43.253  18.002  26.325  1.00  0.00     0.042 C 
BRANCH  31  32
ATOM     32  C   UNL A   1      44.629  18.472  25.891  1.00  0.00     0.118 C 
BRANCH  32  33
ATOM     33  N   UNL A   1      44.798  18.811  24.485  1.00  0.00    -0.352 N 
ATOM     34  C   UNL A   1      44.658  20.046  23.879  1.00  0.00     0.251 C 
ATOM     35  H   UNL A   1      45.045  18.066  23.890  1.00  0.00     0.163 HD
ATOM     36  O   UNL A   1      44.576  20.119  22.654  1.00  0.00    -0.269 OA
BRANCH  34  37
ATOM     37  C   UNL A   1      44.691  21.308  24.664  1.00  0.00     0.039 A 
ATOM     38  C   UNL A   1      45.729  21.562  25.568  1.00  0.00     0.014 A 
ATOM     39  C   UNL A   1      43.610  22.184  24.634  1.00  0.00     0.014 A 
ATOM     40  C   UNL A   1      45.631  22.652  26.439  1.00  0.00     0.010 A 
ATOM     41  C   UNL A   1      43.559  23.315  25.399  1.00  0.00     0.010 A 
ATOM     42  C   UNL A   1      44.511  23.497  26.375  1.00  0.00    -0.014 A 
BRANCH  42  43
ATOM     43  C   UNL A   1      44.381  24.690  27.200  1.00  0.00     0.031 A 
ATOM     44  C   UNL A   1      45.547  25.575  27.046  1.00  0.00     0.074 A 
ATOM     45  C   UNL A   1      43.242  25.091  27.810  1.00  0.00     0.049 A 
ATOM     46  N   UNL A   1      46.480  25.804  27.906  1.00  0.00    -0.248 NA
ATOM     47  C   UNL A   1      45.815  26.097  25.691  1.00  0.00     0.031 C 
ATOM     48  C   UNL A   1      41.917  24.463  27.706  1.00  0.00     0.029 A 
ATOM     49  N   UNL A   1      42.987  26.202  28.567  1.00  0.00    -0.354 N 
ATOM     50  C   UNL A   1      47.300  26.729  27.275  1.00  0.00     0.074 A 
ATOM     51  C   UNL A   1      47.016  26.645  25.866  1.00  0.00     0.031 C 
ATOM     52  C   UNL A   1      40.977  25.276  28.226  1.00  0.00     0.029 A 
ATOM     53  C   UNL A   1      41.633  26.436  28.794  1.00  0.00     0.049 A 
ATOM     54  H   UNL A   1      43.697  26.785  28.919  1.00  0.00     0.167 HD
ATOM     55  C   UNL A   1      47.811  27.774  27.977  1.00  0.00     0.031 A 
ATOM     56  C   UNL A   1      41.051  27.505  29.389  1.00  0.00     0.031 A 
ATOM     57  C   UNL A   1      47.714  27.561  29.397  1.00  0.00     0.049 A 
ATOM     58  C   UNL A   1      42.081  28.203  30.182  1.00  0.00     0.074 A 
ATOM     59  C   UNL A   1      48.331  26.760  30.331  1.00  0.00     0.029 A 
ATOM     60  N   UNL A   1      46.546  28.016  29.953  1.00  0.00    -0.354 N 
ATOM     61  N   UNL A   1      42.612  27.698  31.258  1.00  0.00    -0.248 NA
ATOM     62  C   UNL A   1      42.797  29.335  29.605  1.00  0.00     0.031 C 
ATOM     63  C   UNL A   1      47.415  26.629  31.415  1.00  0.00     0.029 A 
ATOM     64  C   UNL A   1      46.271  27.370  31.130  1.00  0.00     0.049 A 
ATOM     65  H   UNL A   1      45.978  28.717  29.558  1.00  0.00     0.167 HD
ATOM     66  C   UNL A   1      43.918  28.144  31.233  1.00  0.00     0.074 A 
ATOM     67  C   UNL A   1      43.925  29.276  30.318  1.00  0.00     0.031 C 
ATOM     68  C   UNL A   1      44.932  27.352  31.681  1.00  0.00     0.031 A 
BRANCH  55  69
ATOM     69  C   UNL A   1      47.878  29.171  27.403  1.00  0.00    -0.014 A 
ATOM     70  C   UNL A   1      49.101  29.856  27.452  1.00  0.00     0.009 A 
ATOM     71  C   UNL A   1      46.737  29.935  27.079  1.00  0.00     0.009 A 
ATOM     72  C   UNL A   1      49.168  31.235  27.215  1.00  0.00     0.001 A 
ATOM     73  C   UNL A   1      46.806  31.301  26.801  1.00  0.00     0.001 A 
ATOM     74  C   UNL A   1      48.022  31.956  26.891  1.00  0.00     0.000 A 
ENDBRANCH  55  69
BRANCH  56  75
ATOM     75  C   UNL A   1      39.675  28.024  29.242  1.00  0.00    -0.014 A 
ATOM     76  C   UNL A   1      38.810  28.108  30.344  1.00  0.00     0.009 A 
ATOM     77  C   UNL A   1      39.277  28.656  28.050  1.00  0.00     0.009 A 
ATOM     78  C   UNL A   1      37.615  28.835  30.266  1.00  0.00     0.001 A 
ATOM     79  C   UNL A   1      38.079  29.372  27.968  1.00  0.00     0.001 A 
ATOM     80  C   UNL A   1      37.257  29.478  29.083  1.00  0.00     0.000 A 
ENDBRANCH  56  75
BRANCH  68  81
ATOM     81  C   UNL A   1      44.581  26.280  32.672  1.00  0.00    -0.014 A 
ATOM     82  C   UNL A   1      44.531  24.912  32.356  1.00  0.00     0.009 A 
ATOM     83  C   UNL A   1      44.332  26.673  33.995  1.00  0.00     0.009 A 
ATOM     84  C   UNL A   1      44.214  23.968  33.339  1.00  0.00     0.001 A 
ATOM     85  C   UNL A   1      44.036  25.729  34.979  1.00  0.00     0.001 A 
ATOM     86  C   UNL A   1      43.972  24.378  34.650  1.00  0.00     0.000 A 
ENDBRANCH  68  81
ENDBRANCH  42  43
ENDBRANCH  34  37
ENDBRANCH  32  33
ENDBRANCH  31  32
ENDBRANCH  30  31
ENDBRANCH   3  30
TORSDOF 15
ENDMDL
