MODEL 1
REMARK VINA RESULT:      -9.2      0.000      0.000
REMARK SMILES O=C(COc1ncc(C(F)(F)F)cc1Cl)NCCCNC(=O)c1ccc(-c2c3nc(c(-c4ccccc4)c4ccc([nH]4)c(-c4ccccc4)c4nc(c(-c5ccccc5)c5ccc2[nH]5)C=C4)C=C3)cc1
REMARK SMILES IDX 17 1 16 2 1 3 2 4 3 6 4 7 5 8 6 9 14 10 7 11 13 12 15 13
REMARK SMILES IDX 8 14 9 15 10 16 11 17 12 18 18 19 19 20 20 21 21 22 22 24
REMARK SMILES IDX 23 25 24 26 70 27 25 28 69 29 26 30 27 31 28 32 63 33 29 34
REMARK SMILES IDX 68 35 62 36 64 37 30 38 67 39 61 40 60 41 31 43 53 44 38 45
REMARK SMILES IDX 52 46 39 47 42 48 51 49 65 50 40 51 41 52 50 54 66 55 43 56
REMARK SMILES IDX 32 57 33 58 37 59 34 60 36 61 35 62 54 63 55 64 59 65 56 66
REMARK SMILES IDX 58 67 57 68 44 69 45 70 49 71 46 72 48 73 47 74
REMARK H PARENT 16 5 20 23 64 42 42 53
REMARK Flexibility Score: inf
ROOT
ATOM      1  C   UNL A   1      45.198  19.711  23.775  1.00  0.00     0.117 C 
ENDROOT
BRANCH   1   2
ATOM      2  N   UNL A   1      45.903  20.871  24.282  1.00  0.00    -0.353 N 
ATOM      3  O   UNL A   1      44.469  22.466  23.440  1.00  0.00    -0.271 OA
ATOM      4  C   UNL A   1      45.398  22.154  24.178  1.00  0.00     0.258 C 
ATOM      5  H   UNL A   1      46.776  20.740  24.718  1.00  0.00     0.163 HD
BRANCH   4   6
ATOM      6  C   UNL A   1      46.105  23.160  25.088  1.00  0.00     0.331 C 
BRANCH   6   7
ATOM      7  O   UNL A   1      46.570  24.273  24.315  1.00  0.00    -0.467 OA
BRANCH   7   8
ATOM      8  C   UNL A   1      46.357  25.447  24.999  1.00  0.00     0.233 A 
ATOM      9  N   UNL A   1      45.078  25.890  25.018  1.00  0.00    -0.220 NA
ATOM     10  C   UNL A   1      47.424  26.172  25.521  1.00  0.00     0.103 A 
ATOM     11  C   UNL A   1      44.856  27.094  25.603  1.00  0.00     0.128 A 
ATOM     12  C   UNL A   1      47.153  27.369  26.175  1.00  0.00     0.041 A 
ATOM     13  Cl  UNL A   1      49.066  25.712  25.347  1.00  0.00    -0.078 Cl
ATOM     14  C   UNL A   1      45.844  27.857  26.211  1.00  0.00     0.076 A 
BRANCH  14  15
ATOM     15  C   UNL A   1      45.533  29.196  26.804  1.00  0.00     0.417 C 
ATOM     16  F   UNL A   1      46.476  29.590  27.701  1.00  0.00    -0.166 F 
ATOM     17  F   UNL A   1      45.453  30.187  25.877  1.00  0.00    -0.166 F 
ATOM     18  F   UNL A   1      44.348  29.215  27.476  1.00  0.00    -0.166 F 
ENDBRANCH  14  15
ENDBRANCH   7   8
ENDBRANCH   6   7
ENDBRANCH   4   6
ENDBRANCH   1   2
BRANCH   1  19
ATOM     19  C   UNL A   1      44.912  18.658  24.827  1.00  0.00     0.042 C 
BRANCH  19  20
ATOM     20  C   UNL A   1      43.988  19.107  25.951  1.00  0.00     0.118 C 
BRANCH  20  21
ATOM     21  N   UNL A   1      42.579  18.802  25.734  1.00  0.00    -0.352 N 
ATOM     22  C   UNL A   1      41.457  19.566  25.980  1.00  0.00     0.251 C 
ATOM     23  H   UNL A   1      42.400  17.913  25.352  1.00  0.00     0.163 HD
ATOM     24  O   UNL A   1      40.345  19.099  25.789  1.00  0.00    -0.269 OA
BRANCH  22  25
ATOM     25  C   UNL A   1      41.597  20.940  26.517  1.00  0.00     0.039 A 
ATOM     26  C   UNL A   1      41.435  21.144  27.891  1.00  0.00     0.014 A 
ATOM     27  C   UNL A   1      41.903  22.017  25.685  1.00  0.00     0.014 A 
ATOM     28  C   UNL A   1      41.666  22.411  28.436  1.00  0.00     0.010 A 
ATOM     29  C   UNL A   1      42.236  23.248  26.240  1.00  0.00     0.010 A 
ATOM     30  C   UNL A   1      42.112  23.463  27.621  1.00  0.00    -0.014 A 
BRANCH  30  31
ATOM     31  C   UNL A   1      42.435  24.800  28.183  1.00  0.00     0.031 A 
ATOM     32  C   UNL A   1      43.839  25.107  28.633  1.00  0.00     0.074 A 
ATOM     33  C   UNL A   1      41.460  25.715  28.354  1.00  0.00     0.049 A 
ATOM     34  N   UNL A   1      44.305  26.185  29.211  1.00  0.00    -0.248 NA
ATOM     35  C   UNL A   1      44.845  24.050  28.438  1.00  0.00     0.031 C 
ATOM     36  C   UNL A   1      40.050  25.532  28.003  1.00  0.00     0.029 A 
ATOM     37  N   UNL A   1      41.509  26.985  28.872  1.00  0.00    -0.354 N 
ATOM     38  C   UNL A   1      45.646  25.925  29.467  1.00  0.00     0.074 A 
ATOM     39  C   UNL A   1      45.905  24.569  29.039  1.00  0.00     0.031 C 
ATOM     40  C   UNL A   1      39.377  26.660  28.284  1.00  0.00     0.029 A 
ATOM     41  C   UNL A   1      40.295  27.629  28.873  1.00  0.00     0.049 A 
ATOM     42  H   UNL A   1      42.337  27.397  29.211  1.00  0.00     0.167 HD
ATOM     43  C   UNL A   1      46.588  26.747  29.987  1.00  0.00     0.031 A 
ATOM     44  C   UNL A   1      39.957  28.860  29.302  1.00  0.00     0.031 A 
ATOM     45  C   UNL A   1      46.339  28.103  30.395  1.00  0.00     0.049 A 
ATOM     46  C   UNL A   1      41.020  29.752  29.882  1.00  0.00     0.074 A 
ATOM     47  C   UNL A   1      47.239  29.036  30.880  1.00  0.00     0.029 A 
ATOM     48  N   UNL A   1      45.099  28.720  30.366  1.00  0.00    -0.354 N 
ATOM     49  N   UNL A   1      42.298  29.515  30.052  1.00  0.00    -0.248 NA
ATOM     50  C   UNL A   1      40.592  31.090  30.317  1.00  0.00     0.031 C 
ATOM     51  C   UNL A   1      46.532  30.202  31.192  1.00  0.00     0.029 A 
ATOM     52  C   UNL A   1      45.204  30.014  30.844  1.00  0.00     0.049 A 
ATOM     53  H   UNL A   1      44.265  28.299  30.052  1.00  0.00     0.167 HD
ATOM     54  C   UNL A   1      42.833  30.684  30.581  1.00  0.00     0.074 A 
ATOM     55  C   UNL A   1      41.743  31.631  30.689  1.00  0.00     0.031 C 
ATOM     56  C   UNL A   1      44.112  30.948  30.942  1.00  0.00     0.031 A 
BRANCH  43  57
ATOM     57  C   UNL A   1      47.978  26.194  30.143  1.00  0.00    -0.014 A 
ATOM     58  C   UNL A   1      48.440  25.724  31.384  1.00  0.00     0.009 A 
ATOM     59  C   UNL A   1      48.830  26.118  29.030  1.00  0.00     0.009 A 
ATOM     60  C   UNL A   1      49.740  25.232  31.515  1.00  0.00     0.001 A 
ATOM     61  C   UNL A   1      50.117  25.595  29.157  1.00  0.00     0.001 A 
ATOM     62  C   UNL A   1      50.576  25.164  30.401  1.00  0.00     0.000 A 
ENDBRANCH  43  57
BRANCH  44  63
ATOM     63  C   UNL A   1      38.554  29.336  29.180  1.00  0.00    -0.014 A 
ATOM     64  C   UNL A   1      38.101  29.918  27.986  1.00  0.00     0.009 A 
ATOM     65  C   UNL A   1      37.663  29.227  30.260  1.00  0.00     0.009 A 
ATOM     66  C   UNL A   1      36.797  30.406  27.885  1.00  0.00     0.001 A 
ATOM     67  C   UNL A   1      36.350  29.689  30.146  1.00  0.00     0.001 A 
ATOM     68  C   UNL A   1      35.921  30.288  28.963  1.00  0.00     0.000 A 
ENDBRANCH  44  63
BRANCH  56  69
ATOM     69  C   UNL A   1      44.415  32.331  31.446  1.00  0.00    -0.014 A 
ATOM     70  C   UNL A   1      44.360  32.641  32.814  1.00  0.00     0.009 A 
ATOM     71  C   UNL A   1      44.802  33.329  30.536  1.00  0.00     0.009 A 
ATOM     72  C   UNL A   1      44.654  33.933  33.256  1.00  0.00     0.001 A 
ATOM     73  C   UNL A   1      45.125  34.609  30.985  1.00  0.00     0.001 A 
ATOM     74  C   UNL A   1      45.040  34.914  32.342  1.00  0.00     0.000 A 
ENDBRANCH  56  69
ENDBRANCH  30  31
ENDBRANCH  22  25
ENDBRANCH  20  21
ENDBRANCH  19  20
ENDBRANCH   1  19
TORSDOF 13
ENDMDL
MODEL 2
REMARK VINA RESULT:      -9.0      0.386      6.132
REMARK SMILES O=C(COc1ncc(C(F)(F)F)cc1Cl)NCCCNC(=O)c1ccc(-c2c3nc(c(-c4ccccc4)c4ccc([nH]4)c(-c4ccccc4)c4nc(c(-c5ccccc5)c5ccc2[nH]5)C=C4)C=C3)cc1
REMARK SMILES IDX 17 1 16 2 1 3 2 4 3 6 4 7 5 8 6 9 14 10 7 11 13 12 15 13
REMARK SMILES IDX 8 14 9 15 10 16 11 17 12 18 18 19 19 20 20 21 21 22 22 24
REMARK SMILES IDX 23 25 24 26 70 27 25 28 69 29 26 30 27 31 28 32 63 33 29 34
REMARK SMILES IDX 68 35 62 36 64 37 30 38 67 39 61 40 60 41 31 43 53 44 38 45
REMARK SMILES IDX 52 46 39 47 42 48 51 49 65 50 40 51 41 52 50 54 66 55 43 56
REMARK SMILES IDX 32 57 33 58 37 59 34 60 36 61 35 62 54 63 55 64 59 65 56 66
REMARK SMILES IDX 58 67 57 68 44 69 45 70 49 71 46 72 48 73 47 74
REMARK H PARENT 16 5 20 23 64 42 42 53
REMARK Flexibility Score: inf
ROOT
ATOM      1  C   UNL A   1      45.279  19.746  23.638  1.00  0.00     0.117 C 
ENDROOT
BRANCH   1   2
ATOM      2  N   UNL A   1      45.734  20.982  24.242  1.00  0.00    -0.353 N 
ATOM      3  O   UNL A   1      44.299  22.390  23.116  1.00  0.00    -0.271 OA
ATOM      4  C   UNL A   1      45.105  22.194  24.019  1.00  0.00     0.258 C 
ATOM      5  H   UNL A   1      46.519  20.958  24.835  1.00  0.00     0.163 HD
BRANCH   4   6
ATOM      6  C   UNL A   1      45.504  23.277  25.022  1.00  0.00     0.331 C 
BRANCH   6   7
ATOM      7  O   UNL A   1      46.447  24.173  24.421  1.00  0.00    -0.467 OA
BRANCH   7   8
ATOM      8  C   UNL A   1      46.356  25.417  25.002  1.00  0.00     0.233 A 
ATOM      9  N   UNL A   1      45.101  25.906  25.143  1.00  0.00    -0.220 NA
ATOM     10  C   UNL A   1      47.500  26.151  25.300  1.00  0.00     0.103 A 
ATOM     11  C   UNL A   1      44.988  27.170  25.624  1.00  0.00     0.128 A 
ATOM     12  C   UNL A   1      47.346  27.417  25.855  1.00  0.00     0.041 A 
ATOM     13  Cl  UNL A   1      49.092  25.617  24.958  1.00  0.00    -0.078 Cl
ATOM     14  C   UNL A   1      46.066  27.953  26.014  1.00  0.00     0.076 A 
BRANCH  14  15
ATOM     15  C   UNL A   1      45.868  29.355  26.500  1.00  0.00     0.417 C 
ATOM     16  F   UNL A   1      44.622  29.548  27.008  1.00  0.00    -0.166 F 
ATOM     17  F   UNL A   1      46.738  29.709  27.482  1.00  0.00    -0.166 F 
ATOM     18  F   UNL A   1      46.017  30.283  25.514  1.00  0.00    -0.166 F 
ENDBRANCH  14  15
ENDBRANCH   7   8
ENDBRANCH   6   7
ENDBRANCH   4   6
ENDBRANCH   1   2
BRANCH   1  19
ATOM     19  C   UNL A   1      44.870  18.686  24.642  1.00  0.00     0.042 C 
BRANCH  19  20
ATOM     20  C   UNL A   1      44.004  19.190  25.789  1.00  0.00     0.118 C 
BRANCH  20  21
ATOM     21  N   UNL A   1      42.581  18.910  25.641  1.00  0.00    -0.352 N 
ATOM     22  C   UNL A   1      41.485  19.679  25.975  1.00  0.00     0.251 C 
ATOM     23  H   UNL A   1      42.368  18.037  25.240  1.00  0.00     0.163 HD
ATOM     24  O   UNL A   1      40.357  19.233  25.830  1.00  0.00    -0.269 OA
BRANCH  22  25
ATOM     25  C   UNL A   1      41.674  21.032  26.549  1.00  0.00     0.039 A 
ATOM     26  C   UNL A   1      41.670  21.179  27.940  1.00  0.00     0.014 A 
ATOM     27  C   UNL A   1      41.873  22.146  25.733  1.00  0.00     0.014 A 
ATOM     28  C   UNL A   1      41.951  22.425  28.507  1.00  0.00     0.010 A 
ATOM     29  C   UNL A   1      42.257  23.358  26.297  1.00  0.00     0.010 A 
ATOM     30  C   UNL A   1      42.291  23.515  27.691  1.00  0.00    -0.014 A 
BRANCH  30  31
ATOM     31  C   UNL A   1      42.666  24.833  28.267  1.00  0.00     0.031 A 
ATOM     32  C   UNL A   1      41.617  25.897  28.454  1.00  0.00     0.074 A 
ATOM     33  C   UNL A   1      43.954  25.101  28.560  1.00  0.00     0.049 A 
ATOM     34  N   UNL A   1      41.754  27.129  28.875  1.00  0.00    -0.248 NA
ATOM     35  C   UNL A   1      40.236  25.539  28.090  1.00  0.00     0.031 C 
ATOM     36  C   UNL A   1      45.077  24.177  28.386  1.00  0.00     0.029 A 
ATOM     37  N   UNL A   1      44.537  26.237  29.064  1.00  0.00    -0.354 N 
ATOM     38  C   UNL A   1      40.487  27.695  28.802  1.00  0.00     0.074 A 
ATOM     39  C   UNL A   1      39.607  26.695  28.241  1.00  0.00     0.031 C 
ATOM     40  C   UNL A   1      46.205  24.771  28.808  1.00  0.00     0.029 A 
ATOM     41  C   UNL A   1      45.894  26.129  29.243  1.00  0.00     0.049 A 
ATOM     42  H   UNL A   1      44.028  27.053  29.279  1.00  0.00     0.167 HD
ATOM     43  C   UNL A   1      40.081  28.927  29.190  1.00  0.00     0.031 A 
ATOM     44  C   UNL A   1      46.791  27.023  29.701  1.00  0.00     0.031 A 
ATOM     45  C   UNL A   1      40.950  29.917  29.767  1.00  0.00     0.049 A 
ATOM     46  C   UNL A   1      46.318  28.388  30.121  1.00  0.00     0.074 A 
ATOM     47  C   UNL A   1      40.625  31.174  30.247  1.00  0.00     0.029 A 
ATOM     48  N   UNL A   1      42.316  29.762  29.943  1.00  0.00    -0.354 N 
ATOM     49  N   UNL A   1      45.104  28.883  30.111  1.00  0.00    -0.248 NA
ATOM     50  C   UNL A   1      47.341  29.313  30.629  1.00  0.00     0.031 C 
ATOM     51  C   UNL A   1      41.804  31.798  30.667  1.00  0.00     0.029 A 
ATOM     52  C   UNL A   1      42.852  30.907  30.504  1.00  0.00     0.049 A 
ATOM     53  H   UNL A   1      42.828  28.956  29.704  1.00  0.00     0.167 HD
ATOM     54  C   UNL A   1      45.212  30.162  30.641  1.00  0.00     0.074 A 
ATOM     55  C   UNL A   1      46.607  30.361  30.976  1.00  0.00     0.031 C 
ATOM     56  C   UNL A   1      44.242  31.089  30.836  1.00  0.00     0.031 A 
BRANCH  43  57
ATOM     57  C   UNL A   1      38.629  29.269  28.999  1.00  0.00    -0.014 A 
ATOM     58  C   UNL A   1      38.148  29.744  27.768  1.00  0.00     0.009 A 
ATOM     59  C   UNL A   1      37.724  29.092  30.058  1.00  0.00     0.009 A 
ATOM     60  C   UNL A   1      36.800  30.076  27.615  1.00  0.00     0.001 A 
ATOM     61  C   UNL A   1      36.371  29.392  29.891  1.00  0.00     0.001 A 
ATOM     62  C   UNL A   1      35.913  29.895  28.675  1.00  0.00     0.000 A 
ENDBRANCH  43  57
BRANCH  44  63
ATOM     63  C   UNL A   1      48.227  26.654  29.813  1.00  0.00    -0.014 A 
ATOM     64  C   UNL A   1      49.118  26.940  28.766  1.00  0.00     0.009 A 
ATOM     65  C   UNL A   1      48.713  26.000  30.956  1.00  0.00     0.009 A 
ATOM     66  C   UNL A   1      50.457  26.553  28.850  1.00  0.00     0.001 A 
ATOM     67  C   UNL A   1      50.059  25.641  31.050  1.00  0.00     0.001 A 
ATOM     68  C   UNL A   1      50.928  25.908  29.993  1.00  0.00     0.000 A 
ENDBRANCH  44  63
BRANCH  56  69
ATOM     69  C   UNL A   1      44.645  32.386  31.481  1.00  0.00    -0.014 A 
ATOM     70  C   UNL A   1      44.650  32.540  32.875  1.00  0.00     0.009 A 
ATOM     71  C   UNL A   1      45.066  33.456  30.676  1.00  0.00     0.009 A 
ATOM     72  C   UNL A   1      45.035  33.753  33.449  1.00  0.00     0.001 A 
ATOM     73  C   UNL A   1      45.481  34.656  31.253  1.00  0.00     0.001 A 
ATOM     74  C   UNL A   1      45.455  34.808  32.638  1.00  0.00     0.000 A 
ENDBRANCH  56  69
ENDBRANCH  30  31
ENDBRANCH  22  25
ENDBRANCH  20  21
ENDBRANCH  19  20
ENDBRANCH   1  19
TORSDOF 13
ENDMDL
MODEL 3
REMARK VINA RESULT:      -8.5      5.461      7.361
REMARK SMILES O=C(COc1ncc(C(F)(F)F)cc1Cl)NCCCNC(=O)c1ccc(-c2c3nc(c(-c4ccccc4)c4ccc([nH]4)c(-c4ccccc4)c4nc(c(-c5ccccc5)c5ccc2[nH]5)C=C4)C=C3)cc1
REMARK SMILES IDX 17 1 16 2 1 3 2 4 3 6 4 7 5 8 6 9 14 10 7 11 13 12 15 13
REMARK SMILES IDX 8 14 9 15 10 16 11 17 12 18 18 19 19 20 20 21 21 22 22 24
REMARK SMILES IDX 23 25 24 26 70 27 25 28 69 29 26 30 27 31 28 32 63 33 29 34
REMARK SMILES IDX 68 35 62 36 64 37 30 38 67 39 61 40 60 41 31 43 53 44 38 45
REMARK SMILES IDX 52 46 39 47 42 48 51 49 65 50 40 51 41 52 50 54 66 55 43 56
REMARK SMILES IDX 32 57 33 58 37 59 34 60 36 61 35 62 54 63 55 64 59 65 56 66
REMARK SMILES IDX 58 67 57 68 44 69 45 70 49 71 46 72 48 73 47 74
REMARK H PARENT 16 5 20 23 64 42 42 53
REMARK Flexibility Score: inf
ROOT
ATOM      1  C   UNL A   1      37.338  21.474  24.879  1.00  0.00     0.117 C 
ENDROOT
BRANCH   1   2
ATOM      2  N   UNL A   1      36.305  21.565  25.891  1.00  0.00    -0.353 N 
ATOM      3  O   UNL A   1      35.712  23.756  25.493  1.00  0.00    -0.271 OA
ATOM      4  C   UNL A   1      35.485  22.672  26.020  1.00  0.00     0.258 C 
ATOM      5  H   UNL A   1      36.180  20.809  26.509  1.00  0.00     0.163 HD
BRANCH   4   6
ATOM      6  C   UNL A   1      34.249  22.414  26.882  1.00  0.00     0.331 C 
BRANCH   6   7
ATOM      7  O   UNL A   1      33.070  22.469  26.070  1.00  0.00    -0.467 OA
BRANCH   7   8
ATOM      8  C   UNL A   1      32.948  21.314  25.332  1.00  0.00     0.233 A 
ATOM      9  N   UNL A   1      33.305  20.173  25.966  1.00  0.00    -0.220 NA
ATOM     10  C   UNL A   1      32.597  21.362  23.986  1.00  0.00     0.103 A 
ATOM     11  C   UNL A   1      33.286  19.032  25.231  1.00  0.00     0.128 A 
ATOM     12  C   UNL A   1      32.521  20.166  23.280  1.00  0.00     0.041 A 
ATOM     13  Cl  UNL A   1      32.318  22.817  23.123  1.00  0.00    -0.078 Cl
ATOM     14  C   UNL A   1      32.883  18.970  23.903  1.00  0.00     0.076 A 
BRANCH  14  15
ATOM     15  C   UNL A   1      32.925  17.681  23.143  1.00  0.00     0.417 C 
ATOM     16  F   UNL A   1      32.110  17.704  22.055  1.00  0.00    -0.166 F 
ATOM     17  F   UNL A   1      34.166  17.371  22.682  1.00  0.00    -0.166 F 
ATOM     18  F   UNL A   1      32.524  16.614  23.888  1.00  0.00    -0.166 F 
ENDBRANCH  14  15
ENDBRANCH   7   8
ENDBRANCH   6   7
ENDBRANCH   4   6
ENDBRANCH   1   2
BRANCH   1  19
ATOM     19  C   UNL A   1      38.150  20.195  24.944  1.00  0.00     0.042 C 
BRANCH  19  20
ATOM     20  C   UNL A   1      39.102  20.099  26.128  1.00  0.00     0.118 C 
BRANCH  20  21
ATOM     21  N   UNL A   1      40.241  19.213  25.919  1.00  0.00    -0.352 N 
ATOM     22  C   UNL A   1      41.593  19.462  26.036  1.00  0.00     0.251 C 
ATOM     23  H   UNL A   1      40.009  18.294  25.653  1.00  0.00     0.163 HD
ATOM     24  O   UNL A   1      42.402  18.593  25.749  1.00  0.00    -0.269 OA
BRANCH  22  25
ATOM     25  C   UNL A   1      42.068  20.796  26.469  1.00  0.00     0.039 A 
ATOM     26  C   UNL A   1      42.391  21.745  25.494  1.00  0.00     0.014 A 
ATOM     27  C   UNL A   1      42.178  21.124  27.821  1.00  0.00     0.014 A 
ATOM     28  C   UNL A   1      42.740  23.043  25.876  1.00  0.00     0.010 A 
ATOM     29  C   UNL A   1      42.421  22.442  28.196  1.00  0.00     0.010 A 
ATOM     30  C   UNL A   1      42.713  23.415  27.230  1.00  0.00    -0.014 A 
BRANCH  30  31
ATOM     31  C   UNL A   1      43.009  24.806  27.661  1.00  0.00     0.031 A 
ATOM     32  C   UNL A   1      44.436  25.251  27.840  1.00  0.00     0.074 A 
ATOM     33  C   UNL A   1      42.000  25.650  27.957  1.00  0.00     0.049 A 
ATOM     34  N   UNL A   1      44.897  26.397  28.274  1.00  0.00    -0.248 NA
ATOM     35  C   UNL A   1      45.483  24.267  27.520  1.00  0.00     0.031 C 
ATOM     36  C   UNL A   1      40.573  25.334  27.871  1.00  0.00     0.029 A 
ATOM     37  N   UNL A   1      42.025  26.950  28.398  1.00  0.00    -0.354 N 
ATOM     38  C   UNL A   1      46.280  26.260  28.300  1.00  0.00     0.074 A 
ATOM     39  C   UNL A   1      46.580  24.905  27.898  1.00  0.00     0.031 C 
ATOM     40  C   UNL A   1      39.860  26.421  28.213  1.00  0.00     0.029 A 
ATOM     41  C   UNL A   1      40.777  27.495  28.582  1.00  0.00     0.049 A 
ATOM     42  H   UNL A   1      42.859  27.447  28.564  1.00  0.00     0.167 HD
ATOM     43  C   UNL A   1      47.221  27.185  28.605  1.00  0.00     0.031 A 
ATOM     44  C   UNL A   1      40.410  28.719  29.005  1.00  0.00     0.031 A 
ATOM     45  C   UNL A   1      46.926  28.540  28.985  1.00  0.00     0.049 A 
ATOM     46  C   UNL A   1      41.473  29.727  29.345  1.00  0.00     0.074 A 
ATOM     47  C   UNL A   1      47.810  29.570  29.257  1.00  0.00     0.029 A 
ATOM     48  N   UNL A   1      45.650  29.053  29.147  1.00  0.00    -0.354 N 
ATOM     49  N   UNL A   1      42.778  29.604  29.297  1.00  0.00    -0.248 NA
ATOM     50  C   UNL A   1      41.010  31.052  29.784  1.00  0.00     0.031 C 
ATOM     51  C   UNL A   1      47.067  30.693  29.633  1.00  0.00     0.029 A 
ATOM     52  C   UNL A   1      45.721  30.380  29.536  1.00  0.00     0.049 A 
ATOM     53  H   UNL A   1      44.815  28.549  29.006  1.00  0.00     0.167 HD
ATOM     54  C   UNL A   1      43.289  30.841  29.666  1.00  0.00     0.074 A 
ATOM     55  C   UNL A   1      42.155  31.705  29.920  1.00  0.00     0.031 C 
ATOM     56  C   UNL A   1      44.583  31.228  29.782  1.00  0.00     0.031 A 
BRANCH  43  57
ATOM     57  C   UNL A   1      48.660  26.754  28.539  1.00  0.00    -0.014 A 
ATOM     58  C   UNL A   1      49.320  26.240  29.667  1.00  0.00     0.009 A 
ATOM     59  C   UNL A   1      49.361  26.841  27.325  1.00  0.00     0.009 A 
ATOM     60  C   UNL A   1      50.662  25.863  29.593  1.00  0.00     0.001 A 
ATOM     61  C   UNL A   1      50.693  26.433  27.246  1.00  0.00     0.001 A 
ATOM     62  C   UNL A   1      51.346  25.956  28.381  1.00  0.00     0.000 A 
ENDBRANCH  43  57
BRANCH  44  63
ATOM     63  C   UNL A   1      38.970  29.074  29.112  1.00  0.00    -0.014 A 
ATOM     64  C   UNL A   1      38.280  29.586  28.002  1.00  0.00     0.009 A 
ATOM     65  C   UNL A   1      38.281  28.919  30.325  1.00  0.00     0.009 A 
ATOM     66  C   UNL A   1      36.939  29.962  28.112  1.00  0.00     0.001 A 
ATOM     67  C   UNL A   1      36.932  29.268  30.424  1.00  0.00     0.001 A 
ATOM     68  C   UNL A   1      36.265  29.799  29.322  1.00  0.00     0.000 A 
ENDBRANCH  44  63
BRANCH  56  69
ATOM     69  C   UNL A   1      44.844  32.660  30.157  1.00  0.00    -0.014 A 
ATOM     70  C   UNL A   1      45.012  33.048  31.495  1.00  0.00     0.009 A 
ATOM     71  C   UNL A   1      44.965  33.628  29.147  1.00  0.00     0.009 A 
ATOM     72  C   UNL A   1      45.261  34.384  31.816  1.00  0.00     0.001 A 
ATOM     73  C   UNL A   1      45.246  34.956  29.469  1.00  0.00     0.001 A 
ATOM     74  C   UNL A   1      45.382  35.335  30.803  1.00  0.00     0.000 A 
ENDBRANCH  56  69
ENDBRANCH  30  31
ENDBRANCH  22  25
ENDBRANCH  20  21
ENDBRANCH  19  20
ENDBRANCH   1  19
TORSDOF 13
ENDMDL
