MODEL 1
REMARK VINA RESULT:     -12.3      0.000      0.000
REMARK SMILES C[C@](Nc1ccc(C(N)=O)nn1)(C(=O)NCCCNC(=O)c1ccc(-c2c3nc(c(-c4ccccc4)c4ccc([nH]4)c(-c4ccccc4)c4nc(c(-c5ccccc5)c5ccc2[nH]5)C=C4)C=C3)cc1)c1ccccc1
REMARK SMILES IDX 16 1 15 2 13 3 14 4 2 6 1 7 70 8 71 9 75 10 72 11 74 12
REMARK SMILES IDX 73 13 3 14 4 16 5 17 12 18 6 19 11 20 7 21 8 22 9 23 10 24
REMARK SMILES IDX 17 27 18 28 19 29 20 30 21 32 22 33 23 34 69 35 24 36 68 37
REMARK SMILES IDX 25 38 26 39 27 40 62 41 28 42 67 43 61 44 63 45 29 46 66 47
REMARK SMILES IDX 60 48 59 49 30 51 52 52 37 53 51 54 38 55 41 56 50 57 64 58
REMARK SMILES IDX 39 59 40 60 49 62 65 63 42 64 31 65 32 66 36 67 33 68 35 69
REMARK SMILES IDX 34 70 53 71 54 72 58 73 55 74 57 75 56 76 43 77 44 78 48 79
REMARK SMILES IDX 45 80 47 81 46 82
REMARK H PARENT 15 5 3 15 9 25 9 26 19 31 63 50 41 61
REMARK Flexibility Score: inf
ROOT
ATOM      1  C   UNL A   1      36.595  21.299  24.758  1.00  0.00     0.117 C 
ENDROOT
BRANCH   1   2
ATOM      2  N   UNL A   1      35.894  21.466  26.022  1.00  0.00    -0.354 N 
ATOM      3  C   UNL A   1      34.561  21.528  26.338  1.00  0.00     0.250 C 
ATOM      4  O   UNL A   1      34.322  21.461  27.548  1.00  0.00    -0.272 OA
ATOM      5  H   UNL A   1      36.492  21.552  26.800  1.00  0.00     0.163 HD
BRANCH   3   6
ATOM      6  C   UNL A   1      33.434  21.647  25.208  1.00  0.00     0.140 C 
ATOM      7  C   UNL A   1      32.105  21.540  26.009  1.00  0.00     0.051 C 
BRANCH   6   8
ATOM      8  C   UNL A   1      33.561  22.972  24.409  1.00  0.00    -0.013 A 
ATOM      9  C   UNL A   1      33.225  23.036  23.041  1.00  0.00     0.007 A 
ATOM     10  C   UNL A   1      33.958  24.186  25.010  1.00  0.00     0.007 A 
ATOM     11  C   UNL A   1      33.348  24.223  22.308  1.00  0.00     0.000 A 
ATOM     12  C   UNL A   1      34.041  25.380  24.290  1.00  0.00     0.000 A 
ATOM     13  C   UNL A   1      33.754  25.396  22.932  1.00  0.00     0.000 A 
ENDBRANCH   6   8
BRANCH   6  14
ATOM     14  N   UNL A   1      33.639  20.511  24.266  1.00  0.00    -0.351 N 
ATOM     15  H   UNL A   1      33.856  20.717  23.327  1.00  0.00     0.163 HD
BRANCH  14  16
ATOM     16  C   UNL A   1      33.540  19.187  24.637  1.00  0.00     0.149 A 
ATOM     17  C   UNL A   1      34.566  18.274  24.471  1.00  0.00     0.051 A 
ATOM     18  N   UNL A   1      32.356  18.777  25.146  1.00  0.00    -0.132 NA
ATOM     19  C   UNL A   1      34.353  16.927  24.744  1.00  0.00     0.040 A 
ATOM     20  N   UNL A   1      32.123  17.445  25.421  1.00  0.00    -0.143 NA
ATOM     21  C   UNL A   1      33.108  16.545  25.199  1.00  0.00     0.150 A 
BRANCH  21  22
ATOM     22  C   UNL A   1      32.800  15.110  25.444  1.00  0.00     0.269 C 
ATOM     23  N   UNL A   1      31.486  14.788  25.643  1.00  0.00    -0.364 N 
ATOM     24  O   UNL A   1      33.677  14.253  25.459  1.00  0.00    -0.268 OA
ATOM     25  H   UNL A   1      30.799  15.493  25.628  1.00  0.00     0.160 HD
ATOM     26  H   UNL A   1      31.228  13.851  25.803  1.00  0.00     0.160 HD
ENDBRANCH  21  22
ENDBRANCH  14  16
ENDBRANCH   6  14
ENDBRANCH   3   6
ENDBRANCH   1   2
BRANCH   1  27
ATOM     27  C   UNL A   1      37.672  20.230  24.826  1.00  0.00     0.042 C 
BRANCH  27  28
ATOM     28  C   UNL A   1      38.802  20.546  25.795  1.00  0.00     0.118 C 
BRANCH  28  29
ATOM     29  N   UNL A   1      39.842  19.526  25.811  1.00  0.00    -0.352 N 
ATOM     30  C   UNL A   1      41.183  19.638  26.086  1.00  0.00     0.251 C 
ATOM     31  H   UNL A   1      39.536  18.616  25.589  1.00  0.00     0.163 HD
ATOM     32  O   UNL A   1      41.935  18.690  25.878  1.00  0.00    -0.269 OA
BRANCH  30  33
ATOM     33  C   UNL A   1      41.727  20.911  26.604  1.00  0.00     0.039 A 
ATOM     34  C   UNL A   1      42.264  21.834  25.704  1.00  0.00     0.014 A 
ATOM     35  C   UNL A   1      41.686  21.202  27.969  1.00  0.00     0.014 A 
ATOM     36  C   UNL A   1      42.671  23.088  26.163  1.00  0.00     0.010 A 
ATOM     37  C   UNL A   1      42.005  22.480  28.410  1.00  0.00     0.010 A 
ATOM     38  C   UNL A   1      42.494  23.440  27.512  1.00  0.00    -0.014 A 
BRANCH  38  39
ATOM     39  C   UNL A   1      42.787  24.811  28.002  1.00  0.00     0.031 A 
ATOM     40  C   UNL A   1      44.182  25.181  28.423  1.00  0.00     0.074 A 
ATOM     41  C   UNL A   1      41.781  25.695  28.149  1.00  0.00     0.049 A 
ATOM     42  N   UNL A   1      44.612  26.293  28.964  1.00  0.00    -0.248 NA
ATOM     43  C   UNL A   1      45.225  24.161  28.236  1.00  0.00     0.031 C 
ATOM     44  C   UNL A   1      40.376  25.447  27.812  1.00  0.00     0.029 A 
ATOM     45  N   UNL A   1      41.782  26.979  28.634  1.00  0.00    -0.354 N 
ATOM     46  C   UNL A   1      45.968  26.099  29.198  1.00  0.00     0.074 A 
ATOM     47  C   UNL A   1      46.278  24.746  28.787  1.00  0.00     0.031 C 
ATOM     48  C   UNL A   1      39.659  26.552  28.075  1.00  0.00     0.029 A 
ATOM     49  C   UNL A   1      40.539  27.565  28.647  1.00  0.00     0.049 A 
ATOM     50  H   UNL A   1      42.597  27.437  28.942  1.00  0.00     0.167 HD
ATOM     51  C   UNL A   1      46.876  26.972  29.692  1.00  0.00     0.031 A 
ATOM     52  C   UNL A   1      40.147  28.777  29.086  1.00  0.00     0.031 A 
ATOM     53  C   UNL A   1      46.567  28.317  30.098  1.00  0.00     0.049 A 
ATOM     54  C   UNL A   1      41.169  29.712  29.668  1.00  0.00     0.074 A 
ATOM     55  C   UNL A   1      47.430  29.296  30.559  1.00  0.00     0.029 A 
ATOM     56  N   UNL A   1      45.297  28.869  30.099  1.00  0.00    -0.354 N 
ATOM     57  N   UNL A   1      42.460  29.538  29.814  1.00  0.00    -0.248 NA
ATOM     58  C   UNL A   1      40.679  31.015  30.139  1.00  0.00     0.031 C 
ATOM     59  C   UNL A   1      46.672  30.420  30.898  1.00  0.00     0.029 A 
ATOM     60  C   UNL A   1      45.346  30.165  30.585  1.00  0.00     0.049 A 
ATOM     61  H   UNL A   1      44.479  28.409  29.798  1.00  0.00     0.167 HD
ATOM     62  C   UNL A   1      42.941  30.718  30.370  1.00  0.00     0.074 A 
ATOM     63  C   UNL A   1      41.805  31.605  30.518  1.00  0.00     0.031 C 
ATOM     64  C   UNL A   1      44.209  31.036  30.728  1.00  0.00     0.031 A 
BRANCH  51  65
ATOM     65  C   UNL A   1      48.295  26.490  29.833  1.00  0.00    -0.014 A 
ATOM     66  C   UNL A   1      49.236  26.680  28.809  1.00  0.00     0.009 A 
ATOM     67  C   UNL A   1      48.706  25.871  31.024  1.00  0.00     0.009 A 
ATOM     68  C   UNL A   1      50.547  26.226  28.958  1.00  0.00     0.001 A 
ATOM     69  C   UNL A   1      50.026  25.446  31.184  1.00  0.00     0.001 A 
ATOM     70  C   UNL A   1      50.943  25.615  30.148  1.00  0.00     0.000 A 
ENDBRANCH  51  65
BRANCH  52  71
ATOM     71  C   UNL A   1      38.718  29.177  28.995  1.00  0.00    -0.014 A 
ATOM     72  C   UNL A   1      38.199  29.701  27.802  1.00  0.00     0.009 A 
ATOM     73  C   UNL A   1      37.866  29.048  30.105  1.00  0.00     0.009 A 
ATOM     74  C   UNL A   1      36.867  30.115  27.729  1.00  0.00     0.001 A 
ATOM     75  C   UNL A   1      36.526  29.432  30.019  1.00  0.00     0.001 A 
ATOM     76  C   UNL A   1      36.030  29.975  28.835  1.00  0.00     0.000 A 
ENDBRANCH  52  71
BRANCH  64  77
ATOM     77  C   UNL A   1      44.443  32.412  31.284  1.00  0.00    -0.014 A 
ATOM     78  C   UNL A   1      44.716  33.503  30.444  1.00  0.00     0.009 A 
ATOM     79  C   UNL A   1      44.341  32.629  32.668  1.00  0.00     0.009 A 
ATOM     80  C   UNL A   1      44.909  34.777  30.982  1.00  0.00     0.001 A 
ATOM     81  C   UNL A   1      44.502  33.908  33.200  1.00  0.00     0.001 A 
ATOM     82  C   UNL A   1      44.795  34.980  32.357  1.00  0.00     0.000 A 
ENDBRANCH  64  77
ENDBRANCH  38  39
ENDBRANCH  30  33
ENDBRANCH  28  29
ENDBRANCH  27  28
ENDBRANCH   1  27
TORSDOF 14
ENDMDL
MODEL 2
REMARK VINA RESULT:     -12.3      0.413      5.989
REMARK SMILES C[C@](Nc1ccc(C(N)=O)nn1)(C(=O)NCCCNC(=O)c1ccc(-c2c3nc(c(-c4ccccc4)c4ccc([nH]4)c(-c4ccccc4)c4nc(c(-c5ccccc5)c5ccc2[nH]5)C=C4)C=C3)cc1)c1ccccc1
REMARK SMILES IDX 16 1 15 2 13 3 14 4 2 6 1 7 70 8 71 9 75 10 72 11 74 12
REMARK SMILES IDX 73 13 3 14 4 16 5 17 12 18 6 19 11 20 7 21 8 22 9 23 10 24
REMARK SMILES IDX 17 27 18 28 19 29 20 30 21 32 22 33 23 34 69 35 24 36 68 37
REMARK SMILES IDX 25 38 26 39 27 40 62 41 28 42 67 43 61 44 63 45 29 46 66 47
REMARK SMILES IDX 60 48 59 49 30 51 52 52 37 53 51 54 38 55 41 56 50 57 64 58
REMARK SMILES IDX 39 59 40 60 49 62 65 63 42 64 31 65 32 66 36 67 33 68 35 69
REMARK SMILES IDX 34 70 53 71 54 72 58 73 55 74 57 75 56 76 43 77 44 78 48 79
REMARK SMILES IDX 45 80 47 81 46 82
REMARK H PARENT 15 5 3 15 9 25 9 26 19 31 63 50 41 61
REMARK Flexibility Score: inf
ROOT
ATOM      1  C   UNL A   1      36.422  21.677  24.943  1.00  0.00     0.117 C 
ENDROOT
BRANCH   1   2
ATOM      2  N   UNL A   1      35.645  21.673  26.172  1.00  0.00    -0.354 N 
ATOM      3  C   UNL A   1      34.296  21.626  26.412  1.00  0.00     0.250 C 
ATOM      4  O   UNL A   1      33.996  21.423  27.593  1.00  0.00    -0.272 OA
ATOM      5  H   UNL A   1      36.193  21.714  26.990  1.00  0.00     0.163 HD
BRANCH   3   6
ATOM      6  C   UNL A   1      33.226  21.795  25.234  1.00  0.00     0.140 C 
ATOM      7  C   UNL A   1      31.859  21.691  25.967  1.00  0.00     0.051 C 
BRANCH   6   8
ATOM      8  C   UNL A   1      33.413  23.139  24.478  1.00  0.00    -0.013 A 
ATOM      9  C   UNL A   1      33.774  24.318  25.160  1.00  0.00     0.007 A 
ATOM     10  C   UNL A   1      33.292  23.243  23.076  1.00  0.00     0.007 A 
ATOM     11  C   UNL A   1      33.932  25.538  24.491  1.00  0.00     0.000 A 
ATOM     12  C   UNL A   1      33.491  24.451  22.400  1.00  0.00     0.000 A 
ATOM     13  C   UNL A   1      33.793  25.603  23.110  1.00  0.00     0.000 A 
ENDBRANCH   6   8
BRANCH   6  14
ATOM     14  N   UNL A   1      33.458  20.681  24.271  1.00  0.00    -0.351 N 
ATOM     15  H   UNL A   1      33.649  20.908  23.333  1.00  0.00     0.163 HD
BRANCH  14  16
ATOM     16  C   UNL A   1      33.416  19.349  24.625  1.00  0.00     0.149 A 
ATOM     17  C   UNL A   1      34.473  18.479  24.429  1.00  0.00     0.051 A 
ATOM     18  N   UNL A   1      32.258  18.886  25.149  1.00  0.00    -0.132 NA
ATOM     19  C   UNL A   1      34.317  17.121  24.686  1.00  0.00     0.040 A 
ATOM     20  N   UNL A   1      32.081  17.543  25.408  1.00  0.00    -0.143 NA
ATOM     21  C   UNL A   1      33.096  16.685  25.157  1.00  0.00     0.150 A 
BRANCH  21  22
ATOM     22  C   UNL A   1      32.848  15.236  25.386  1.00  0.00     0.269 C 
ATOM     23  N   UNL A   1      31.546  14.853  25.554  1.00  0.00    -0.364 N 
ATOM     24  O   UNL A   1      33.762  14.419  25.415  1.00  0.00    -0.268 OA
ATOM     25  H   UNL A   1      30.828  15.527  25.527  1.00  0.00     0.160 HD
ATOM     26  H   UNL A   1      31.327  13.905  25.703  1.00  0.00     0.160 HD
ENDBRANCH  21  22
ENDBRANCH  14  16
ENDBRANCH   6  14
ENDBRANCH   3   6
ENDBRANCH   1   2
BRANCH   1  27
ATOM     27  C   UNL A   1      37.474  20.581  24.916  1.00  0.00     0.042 C 
BRANCH  27  28
ATOM     28  C   UNL A   1      38.730  20.905  25.713  1.00  0.00     0.118 C 
BRANCH  28  29
ATOM     29  N   UNL A   1      39.709  19.825  25.699  1.00  0.00    -0.352 N 
ATOM     30  C   UNL A   1      41.049  19.847  25.998  1.00  0.00     0.251 C 
ATOM     31  H   UNL A   1      39.354  18.946  25.434  1.00  0.00     0.163 HD
ATOM     32  O   UNL A   1      41.748  18.867  25.759  1.00  0.00    -0.269 OA
BRANCH  30  33
ATOM     33  C   UNL A   1      41.657  21.063  26.579  1.00  0.00     0.039 A 
ATOM     34  C   UNL A   1      42.191  22.028  25.722  1.00  0.00     0.014 A 
ATOM     35  C   UNL A   1      41.679  21.260  27.960  1.00  0.00     0.014 A 
ATOM     36  C   UNL A   1      42.660  23.234  26.249  1.00  0.00     0.010 A 
ATOM     37  C   UNL A   1      42.060  22.493  28.474  1.00  0.00     0.010 A 
ATOM     38  C   UNL A   1      42.547  23.496  27.624  1.00  0.00    -0.014 A 
BRANCH  38  39
ATOM     39  C   UNL A   1      42.907  24.819  28.194  1.00  0.00     0.031 A 
ATOM     40  C   UNL A   1      41.848  25.865  28.408  1.00  0.00     0.074 A 
ATOM     41  C   UNL A   1      44.201  25.110  28.437  1.00  0.00     0.049 A 
ATOM     42  N   UNL A   1      41.982  27.105  28.804  1.00  0.00    -0.248 NA
ATOM     43  C   UNL A   1      40.460  25.473  28.116  1.00  0.00     0.031 C 
ATOM     44  C   UNL A   1      45.329  24.197  28.236  1.00  0.00     0.029 A 
ATOM     45  N   UNL A   1      44.787  26.264  28.894  1.00  0.00    -0.354 N 
ATOM     46  C   UNL A   1      40.702  27.645  28.791  1.00  0.00     0.074 A 
ATOM     47  C   UNL A   1      39.813  26.614  28.300  1.00  0.00     0.031 C 
ATOM     48  C   UNL A   1      46.465  24.817  28.593  1.00  0.00     0.029 A 
ATOM     49  C   UNL A   1      46.155  26.184  28.997  1.00  0.00     0.049 A 
ATOM     50  H   UNL A   1      44.276  27.072  29.127  1.00  0.00     0.167 HD
ATOM     51  C   UNL A   1      40.299  28.881  29.169  1.00  0.00     0.031 A 
ATOM     52  C   UNL A   1      47.062  27.111  29.360  1.00  0.00     0.031 A 
ATOM     53  C   UNL A   1      41.183  29.904  29.659  1.00  0.00     0.049 A 
ATOM     54  C   UNL A   1      46.592  28.488  29.737  1.00  0.00     0.074 A 
ATOM     55  C   UNL A   1      40.862  31.169  30.120  1.00  0.00     0.029 A 
ATOM     56  N   UNL A   1      42.560  29.784  29.744  1.00  0.00    -0.354 N 
ATOM     57  N   UNL A   1      45.370  28.959  29.787  1.00  0.00    -0.248 NA
ATOM     58  C   UNL A   1      47.629  29.460  30.113  1.00  0.00     0.031 C 
ATOM     59  C   UNL A   1      42.052  31.837  30.425  1.00  0.00     0.029 A 
ATOM     60  C   UNL A   1      43.109  30.964  30.218  1.00  0.00     0.049 A 
ATOM     61  H   UNL A   1      43.074  28.979  29.503  1.00  0.00     0.167 HD
ATOM     62  C   UNL A   1      45.488  30.273  30.226  1.00  0.00     0.074 A 
ATOM     63  C   UNL A   1      46.899  30.517  30.443  1.00  0.00     0.031 C 
ATOM     64  C   UNL A   1      44.515  31.194  30.428  1.00  0.00     0.031 A 
BRANCH  51  65
ATOM     65  C   UNL A   1      38.832  29.197  29.055  1.00  0.00    -0.014 A 
ATOM     66  C   UNL A   1      37.969  29.066  30.154  1.00  0.00     0.009 A 
ATOM     67  C   UNL A   1      38.313  29.670  27.839  1.00  0.00     0.009 A 
ATOM     68  C   UNL A   1      36.611  29.364  30.028  1.00  0.00     0.001 A 
ATOM     69  C   UNL A   1      36.961  29.998  27.724  1.00  0.00     0.001 A 
ATOM     70  C   UNL A   1      36.110  29.835  28.815  1.00  0.00     0.000 A 
ENDBRANCH  51  65
BRANCH  52  71
ATOM     71  C   UNL A   1      48.510  26.772  29.383  1.00  0.00    -0.014 A 
ATOM     72  C   UNL A   1      49.090  26.204  30.527  1.00  0.00     0.009 A 
ATOM     73  C   UNL A   1      49.322  27.023  28.266  1.00  0.00     0.009 A 
ATOM     74  C   UNL A   1      50.458  25.922  30.563  1.00  0.00     0.001 A 
ATOM     75  C   UNL A   1      50.683  26.711  28.293  1.00  0.00     0.001 A 
ATOM     76  C   UNL A   1      51.252  26.170  29.445  1.00  0.00     0.000 A 
ENDBRANCH  52  71
BRANCH  64  77
ATOM     77  C   UNL A   1      44.937  32.542  30.940  1.00  0.00    -0.014 A 
ATOM     78  C   UNL A   1      45.053  32.798  32.314  1.00  0.00     0.009 A 
ATOM     79  C   UNL A   1      45.271  33.557  30.029  1.00  0.00     0.009 A 
ATOM     80  C   UNL A   1      45.469  34.053  32.766  1.00  0.00     0.001 A 
ATOM     81  C   UNL A   1      45.716  34.799  30.481  1.00  0.00     0.001 A 
ATOM     82  C   UNL A   1      45.807  35.049  31.850  1.00  0.00     0.000 A 
ENDBRANCH  64  77
ENDBRANCH  38  39
ENDBRANCH  30  33
ENDBRANCH  28  29
ENDBRANCH  27  28
ENDBRANCH   1  27
TORSDOF 14
ENDMDL
MODEL 3
REMARK VINA RESULT:     -12.0      5.379     10.087
REMARK SMILES C[C@](Nc1ccc(C(N)=O)nn1)(C(=O)NCCCNC(=O)c1ccc(-c2c3nc(c(-c4ccccc4)c4ccc([nH]4)c(-c4ccccc4)c4nc(c(-c5ccccc5)c5ccc2[nH]5)C=C4)C=C3)cc1)c1ccccc1
REMARK SMILES IDX 16 1 15 2 13 3 14 4 2 6 1 7 70 8 71 9 75 10 72 11 74 12
REMARK SMILES IDX 73 13 3 14 4 16 5 17 12 18 6 19 11 20 7 21 8 22 9 23 10 24
REMARK SMILES IDX 17 27 18 28 19 29 20 30 21 32 22 33 23 34 69 35 24 36 68 37
REMARK SMILES IDX 25 38 26 39 27 40 62 41 28 42 67 43 61 44 63 45 29 46 66 47
REMARK SMILES IDX 60 48 59 49 30 51 52 52 37 53 51 54 38 55 41 56 50 57 64 58
REMARK SMILES IDX 39 59 40 60 49 62 65 63 42 64 31 65 32 66 36 67 33 68 35 69
REMARK SMILES IDX 34 70 53 71 54 72 58 73 55 74 57 75 56 76 43 77 44 78 48 79
REMARK SMILES IDX 45 80 47 81 46 82
REMARK H PARENT 15 5 3 15 9 25 9 26 19 31 63 50 41 61
REMARK Flexibility Score: inf
ROOT
ATOM      1  C   UNL A   1      32.083  29.685  26.195  1.00  0.00     0.117 C 
ENDROOT
BRANCH   1   2
ATOM      2  N   UNL A   1      32.884  29.644  24.981  1.00  0.00    -0.354 N 
ATOM      3  C   UNL A   1      32.740  28.959  23.802  1.00  0.00     0.250 C 
ATOM      4  O   UNL A   1      33.500  29.330  22.902  1.00  0.00    -0.272 OA
ATOM      5  H   UNL A   1      33.684  30.217  25.013  1.00  0.00     0.163 HD
BRANCH   3   6
ATOM      6  C   UNL A   1      31.649  27.801  23.631  1.00  0.00     0.140 C 
ATOM      7  C   UNL A   1      31.827  27.350  22.154  1.00  0.00     0.051 C 
BRANCH   6   8
ATOM      8  C   UNL A   1      31.868  26.651  24.651  1.00  0.00    -0.013 A 
ATOM      9  C   UNL A   1      30.779  25.981  25.244  1.00  0.00     0.007 A 
ATOM     10  C   UNL A   1      33.152  26.177  24.996  1.00  0.00     0.007 A 
ATOM     11  C   UNL A   1      30.965  24.952  26.175  1.00  0.00     0.000 A 
ATOM     12  C   UNL A   1      33.340  25.121  25.893  1.00  0.00     0.000 A 
ATOM     13  C   UNL A   1      32.246  24.520  26.498  1.00  0.00     0.000 A 
ENDBRANCH   6   8
BRANCH   6  14
ATOM     14  N   UNL A   1      30.317  28.413  23.897  1.00  0.00    -0.351 N 
ATOM     15  H   UNL A   1      29.757  28.023  24.606  1.00  0.00     0.163 HD
BRANCH  14  16
ATOM     16  C   UNL A   1      29.825  29.497  23.200  1.00  0.00     0.149 A 
ATOM     17  C   UNL A   1      29.466  30.687  23.806  1.00  0.00     0.051 A 
ATOM     18  N   UNL A   1      29.657  29.348  21.866  1.00  0.00    -0.132 NA
ATOM     19  C   UNL A   1      28.853  31.691  23.063  1.00  0.00     0.040 A 
ATOM     20  N   UNL A   1      29.049  30.331  21.112  1.00  0.00    -0.143 NA
ATOM     21  C   UNL A   1      28.642  31.468  21.718  1.00  0.00     0.150 A 
BRANCH  21  22
ATOM     22  C   UNL A   1      27.932  32.478  20.887  1.00  0.00     0.269 C 
ATOM     23  N   UNL A   1      27.623  32.112  19.606  1.00  0.00    -0.364 N 
ATOM     24  O   UNL A   1      27.628  33.581  21.327  1.00  0.00    -0.268 OA
ATOM     25  H   UNL A   1      27.876  31.221  19.274  1.00  0.00     0.160 HD
ATOM     26  H   UNL A   1      27.147  32.741  19.016  1.00  0.00     0.160 HD
ENDBRANCH  21  22
ENDBRANCH  14  16
ENDBRANCH   6  14
ENDBRANCH   3   6
ENDBRANCH   1   2
BRANCH   1  27
ATOM     27  C   UNL A   1      31.744  31.104  26.620  1.00  0.00     0.042 C 
BRANCH  27  28
ATOM     28  C   UNL A   1      32.905  31.859  27.250  1.00  0.00     0.118 C 
BRANCH  28  29
ATOM     29  N   UNL A   1      32.578  33.242  27.573  1.00  0.00    -0.352 N 
ATOM     30  C   UNL A   1      33.204  34.121  28.424  1.00  0.00     0.251 C 
ATOM     31  H   UNL A   1      31.786  33.601  27.110  1.00  0.00     0.163 HD
ATOM     32  O   UNL A   1      32.675  35.194  28.696  1.00  0.00    -0.269 OA
BRANCH  30  33
ATOM     33  C   UNL A   1      34.499  33.759  29.036  1.00  0.00     0.039 A 
ATOM     34  C   UNL A   1      34.509  32.930  30.160  1.00  0.00     0.014 A 
ATOM     35  C   UNL A   1      35.699  34.217  28.490  1.00  0.00     0.014 A 
ATOM     36  C   UNL A   1      35.728  32.485  30.677  1.00  0.00     0.010 A 
ATOM     37  C   UNL A   1      36.906  33.701  28.946  1.00  0.00     0.010 A 
ATOM     38  C   UNL A   1      36.933  32.823  30.040  1.00  0.00    -0.014 A 
BRANCH  38  39
ATOM     39  C   UNL A   1      38.231  32.253  30.481  1.00  0.00     0.031 A 
ATOM     40  C   UNL A   1      38.724  30.956  29.901  1.00  0.00     0.074 A 
ATOM     41  C   UNL A   1      38.924  32.859  31.466  1.00  0.00     0.049 A 
ATOM     42  N   UNL A   1      39.781  30.256  30.228  1.00  0.00    -0.248 NA
ATOM     43  C   UNL A   1      37.910  30.355  28.834  1.00  0.00     0.031 C 
ATOM     44  C   UNL A   1      38.536  34.102  32.137  1.00  0.00     0.029 A 
ATOM     45  N   UNL A   1      40.097  32.501  32.084  1.00  0.00    -0.354 N 
ATOM     46  C   UNL A   1      39.748  29.126  29.420  1.00  0.00     0.074 A 
ATOM     47  C   UNL A   1      38.542  29.208  28.625  1.00  0.00     0.031 C 
ATOM     48  C   UNL A   1      39.466  34.415  33.054  1.00  0.00     0.029 A 
ATOM     49  C   UNL A   1      40.487  33.373  33.072  1.00  0.00     0.049 A 
ATOM     50  H   UNL A   1      40.610  31.698  31.841  1.00  0.00     0.167 HD
ATOM     51  C   UNL A   1      40.649  28.119  29.334  1.00  0.00     0.031 A 
ATOM     52  C   UNL A   1      41.539  33.331  33.912  1.00  0.00     0.031 A 
ATOM     53  C   UNL A   1      41.850  28.039  30.123  1.00  0.00     0.049 A 
ATOM     54  C   UNL A   1      42.503  32.181  33.823  1.00  0.00     0.074 A 
ATOM     55  C   UNL A   1      42.853  27.087  30.069  1.00  0.00     0.029 A 
ATOM     56  N   UNL A   1      42.205  28.940  31.114  1.00  0.00    -0.354 N 
ATOM     57  N   UNL A   1      42.495  31.158  33.003  1.00  0.00    -0.248 NA
ATOM     58  C   UNL A   1      43.625  32.185  34.772  1.00  0.00     0.031 C 
ATOM     59  C   UNL A   1      43.784  27.377  31.070  1.00  0.00     0.029 A 
ATOM     60  C   UNL A   1      43.395  28.548  31.703  1.00  0.00     0.049 A 
ATOM     61  H   UNL A   1      41.688  29.740  31.363  1.00  0.00     0.167 HD
ATOM     62  C   UNL A   1      43.623  30.410  33.320  1.00  0.00     0.074 A 
ATOM     63  C   UNL A   1      44.300  31.108  34.395  1.00  0.00     0.031 C 
ATOM     64  C   UNL A   1      44.057  29.250  32.772  1.00  0.00     0.031 A 
BRANCH  51  65
ATOM     65  C   UNL A   1      40.361  27.012  28.357  1.00  0.00    -0.014 A 
ATOM     66  C   UNL A   1      40.878  27.038  27.051  1.00  0.00     0.009 A 
ATOM     67  C   UNL A   1      39.591  25.909  28.759  1.00  0.00     0.009 A 
ATOM     68  C   UNL A   1      40.599  26.002  26.159  1.00  0.00     0.001 A 
ATOM     69  C   UNL A   1      39.341  24.859  27.874  1.00  0.00     0.001 A 
ATOM     70  C   UNL A   1      39.836  24.911  26.572  1.00  0.00     0.000 A 
ENDBRANCH  51  65
BRANCH  52  71
ATOM     71  C   UNL A   1      41.739  34.411  34.914  1.00  0.00    -0.014 A 
ATOM     72  C   UNL A   1      41.167  34.313  36.192  1.00  0.00     0.009 A 
ATOM     73  C   UNL A   1      42.492  35.553  34.595  1.00  0.00     0.009 A 
ATOM     74  C   UNL A   1      41.322  35.346  37.119  1.00  0.00     0.001 A 
ATOM     75  C   UNL A   1      42.671  36.570  35.535  1.00  0.00     0.001 A 
ATOM     76  C   UNL A   1      42.077  36.471  36.793  1.00  0.00     0.000 A 
ENDBRANCH  52  71
BRANCH  64  77
ATOM     77  C   UNL A   1      45.341  28.675  33.300  1.00  0.00    -0.014 A 
ATOM     78  C   UNL A   1      46.586  29.087  32.800  1.00  0.00     0.009 A 
ATOM     79  C   UNL A   1      45.305  27.743  34.350  1.00  0.00     0.009 A 
ATOM     80  C   UNL A   1      47.767  28.555  33.323  1.00  0.00     0.001 A 
ATOM     81  C   UNL A   1      46.487  27.237  34.892  1.00  0.00     0.001 A 
ATOM     82  C   UNL A   1      47.717  27.637  34.371  1.00  0.00     0.000 A 
ENDBRANCH  64  77
ENDBRANCH  38  39
ENDBRANCH  30  33
ENDBRANCH  28  29
ENDBRANCH  27  28
ENDBRANCH   1  27
TORSDOF 14
ENDMDL
