MODEL 1
REMARK VINA RESULT:     -12.3      0.000      0.000
REMARK SMILES Cc1ccccc1CNc1ccc(C(=O)NCCCNC(=O)c2ccc(-c3c4nc(c(-c5ccccc5)c5ccc([nH]5)c(-c5ccccc5)c5nc(c(-c6ccccc6)c6ccc3[nH]6)C=C5)C=C4)cc2)c(F)c1F
REMARK SMILES IDX 17 1 16 2 14 3 15 4 13 6 10 7 11 8 73 9 12 10 71 11 74 12
REMARK SMILES IDX 72 13 9 14 8 16 7 17 1 18 2 19 3 20 4 21 6 22 5 23 18 24
REMARK SMILES IDX 19 25 20 26 21 27 22 29 23 30 24 31 70 32 25 33 69 34 26 35
REMARK SMILES IDX 27 36 28 37 63 38 29 39 68 40 62 41 64 42 30 43 67 44 61 45
REMARK SMILES IDX 60 46 31 48 53 49 38 50 52 51 39 52 42 53 51 54 65 55 40 56
REMARK SMILES IDX 41 57 50 59 66 60 43 61 32 62 33 63 37 64 34 65 36 66 35 67
REMARK SMILES IDX 54 68 55 69 59 70 56 71 58 72 57 73 44 74 45 75 49 76 46 77
REMARK SMILES IDX 48 78 47 79
REMARK H PARENT 16 5 9 15 20 28 64 47 42 58
REMARK Flexibility Score: inf
ROOT
ATOM      1  C   UNL A   1      37.791  21.553  25.443  1.00  0.00     0.118 C 
ENDROOT
BRANCH   1   2
ATOM      2  N   UNL A   1      37.400  22.024  24.123  1.00  0.00    -0.352 N 
ATOM      3  C   UNL A   1      36.353  22.788  23.654  1.00  0.00     0.254 C 
ATOM      4  O   UNL A   1      36.367  23.029  22.447  1.00  0.00    -0.269 OA
ATOM      5  H   UNL A   1      38.017  21.736  23.411  1.00  0.00     0.163 HD
BRANCH   3   6
ATOM      6  C   UNL A   1      35.237  23.314  24.498  1.00  0.00     0.078 A 
ATOM      7  C   UNL A   1      33.049  24.224  26.091  1.00  0.00     0.074 A 
ATOM      8  C   UNL A   1      34.093  25.074  25.751  1.00  0.00     0.030 A 
ATOM      9  C   UNL A   1      33.144  22.893  25.670  1.00  0.00     0.182 A 
ATOM     10  C   UNL A   1      35.160  24.626  24.970  1.00  0.00     0.019 A 
ATOM     11  C   UNL A   1      34.209  22.443  24.884  1.00  0.00     0.173 A 
ATOM     12  F   UNL A   1      32.157  22.038  25.988  1.00  0.00    -0.201 F 
ATOM     13  F   UNL A   1      34.191  21.160  24.489  1.00  0.00    -0.203 F 
BRANCH   7  14
ATOM     14  N   UNL A   1      31.924  24.684  26.754  1.00  0.00    -0.379 N 
ATOM     15  H   UNL A   1      31.840  24.535  27.723  1.00  0.00     0.161 HD
BRANCH  14  16
ATOM     16  C   UNL A   1      30.863  25.385  26.045  1.00  0.00     0.149 C 
BRANCH  16  17
ATOM     17  C   UNL A   1      31.175  26.865  25.993  1.00  0.00    -0.026 A 
ATOM     18  C   UNL A   1      30.676  27.112  23.478  1.00  0.00     0.044 C 
ATOM     19  C   UNL A   1      31.082  27.646  24.825  1.00  0.00    -0.046 A 
ATOM     20  C   UNL A   1      31.420  29.011  24.893  1.00  0.00     0.004 A 
ATOM     21  C   UNL A   1      31.807  29.605  26.094  1.00  0.00     0.000 A 
ATOM     22  C   UNL A   1      31.541  27.494  27.204  1.00  0.00     0.006 A 
ATOM     23  C   UNL A   1      31.860  28.848  27.255  1.00  0.00     0.000 A 
ENDBRANCH  16  17
ENDBRANCH  14  16
ENDBRANCH   7  14
ENDBRANCH   3   6
ENDBRANCH   1   2
BRANCH   1  24
ATOM     24  C   UNL A   1      39.016  22.299  25.978  1.00  0.00     0.042 C 
BRANCH  24  25
ATOM     25  C   UNL A   1      39.917  21.453  26.856  1.00  0.00     0.118 C 
BRANCH  25  26
ATOM     26  N   UNL A   1      40.849  20.613  26.110  1.00  0.00    -0.352 N 
ATOM     27  C   UNL A   1      42.220  20.763  25.972  1.00  0.00     0.251 C 
ATOM     28  H   UNL A   1      40.453  19.840  25.644  1.00  0.00     0.163 HD
ATOM     29  O   UNL A   1      42.876  19.975  25.318  1.00  0.00    -0.269 OA
BRANCH  27  30
ATOM     30  C   UNL A   1      42.882  21.828  26.762  1.00  0.00     0.039 A 
ATOM     31  C   UNL A   1      42.815  21.727  28.154  1.00  0.00     0.014 A 
ATOM     32  C   UNL A   1      43.284  23.013  26.151  1.00  0.00     0.014 A 
ATOM     33  C   UNL A   1      42.884  22.889  28.916  1.00  0.00     0.010 A 
ATOM     34  C   UNL A   1      43.252  24.178  26.892  1.00  0.00     0.010 A 
ATOM     35  C   UNL A   1      42.979  24.118  28.260  1.00  0.00    -0.014 A 
BRANCH  35  36
ATOM     36  C   UNL A   1      42.723  25.383  28.932  1.00  0.00     0.031 A 
ATOM     37  C   UNL A   1      41.566  26.197  28.532  1.00  0.00     0.074 A 
ATOM     38  C   UNL A   1      43.558  25.858  29.884  1.00  0.00     0.049 A 
ATOM     39  N   UNL A   1      41.571  27.488  28.501  1.00  0.00    -0.248 NA
ATOM     40  C   UNL A   1      40.317  25.601  28.082  1.00  0.00     0.031 C 
ATOM     41  C   UNL A   1      43.356  27.038  30.720  1.00  0.00     0.029 A 
ATOM     42  N   UNL A   1      44.887  25.506  30.113  1.00  0.00    -0.354 N 
ATOM     43  C   UNL A   1      40.266  27.884  28.348  1.00  0.00     0.074 A 
ATOM     44  C   UNL A   1      39.544  26.685  27.981  1.00  0.00     0.031 C 
ATOM     45  C   UNL A   1      44.557  27.502  31.096  1.00  0.00     0.029 A 
ATOM     46  C   UNL A   1      45.564  26.697  30.427  1.00  0.00     0.049 A 
ATOM     47  H   UNL A   1      45.274  24.602  30.066  1.00  0.00     0.167 HD
ATOM     48  C   UNL A   1      39.890  29.143  28.708  1.00  0.00     0.031 A 
ATOM     49  C   UNL A   1      46.630  27.164  29.714  1.00  0.00     0.031 A 
ATOM     50  C   UNL A   1      41.007  29.944  29.209  1.00  0.00     0.049 A 
ATOM     51  C   UNL A   1      46.411  28.546  29.126  1.00  0.00     0.074 A 
ATOM     52  C   UNL A   1      41.403  30.349  30.475  1.00  0.00     0.029 A 
ATOM     53  N   UNL A   1      42.074  30.220  28.371  1.00  0.00    -0.354 N 
ATOM     54  N   UNL A   1      45.313  29.237  29.256  1.00  0.00    -0.248 NA
ATOM     55  C   UNL A   1      47.367  29.198  28.230  1.00  0.00     0.031 C 
ATOM     56  C   UNL A   1      42.712  30.896  30.382  1.00  0.00     0.029 A 
ATOM     57  C   UNL A   1      43.109  30.826  29.060  1.00  0.00     0.049 A 
ATOM     58  H   UNL A   1      42.094  30.010  27.409  1.00  0.00     0.167 HD
ATOM     59  C   UNL A   1      45.368  30.349  28.455  1.00  0.00     0.074 A 
ATOM     60  C   UNL A   1      46.677  30.281  27.833  1.00  0.00     0.031 C 
ATOM     61  C   UNL A   1      44.311  31.205  28.333  1.00  0.00     0.031 A 
BRANCH  48  62
ATOM     62  C   UNL A   1      38.442  29.538  28.871  1.00  0.00    -0.014 A 
ATOM     63  C   UNL A   1      37.841  29.481  30.141  1.00  0.00     0.009 A 
ATOM     64  C   UNL A   1      37.608  29.932  27.811  1.00  0.00     0.009 A 
ATOM     65  C   UNL A   1      36.467  29.684  30.322  1.00  0.00     0.001 A 
ATOM     66  C   UNL A   1      36.225  30.090  27.973  1.00  0.00     0.001 A 
ATOM     67  C   UNL A   1      35.652  29.952  29.230  1.00  0.00     0.000 A 
ENDBRANCH  48  62
BRANCH  49  68
ATOM     68  C   UNL A   1      47.424  26.084  29.067  1.00  0.00    -0.014 A 
ATOM     69  C   UNL A   1      47.110  25.746  27.735  1.00  0.00     0.009 A 
ATOM     70  C   UNL A   1      48.680  25.723  29.574  1.00  0.00     0.009 A 
ATOM     71  C   UNL A   1      48.077  25.194  26.892  1.00  0.00     0.001 A 
ATOM     72  C   UNL A   1      49.639  25.154  28.730  1.00  0.00     0.001 A 
ATOM     73  C   UNL A   1      49.354  24.931  27.382  1.00  0.00     0.000 A 
ENDBRANCH  49  68
BRANCH  61  74
ATOM     74  C   UNL A   1      44.280  32.462  27.495  1.00  0.00    -0.014 A 
ATOM     75  C   UNL A   1      44.326  32.472  26.095  1.00  0.00     0.009 A 
ATOM     76  C   UNL A   1      44.314  33.724  28.131  1.00  0.00     0.009 A 
ATOM     77  C   UNL A   1      44.321  33.675  25.373  1.00  0.00     0.001 A 
ATOM     78  C   UNL A   1      44.333  34.925  27.418  1.00  0.00     0.001 A 
ATOM     79  C   UNL A   1      44.319  34.900  26.033  1.00  0.00     0.000 A 
ENDBRANCH  61  74
ENDBRANCH  35  36
ENDBRANCH  27  30
ENDBRANCH  25  26
ENDBRANCH  24  25
ENDBRANCH   1  24
TORSDOF 13
ENDMDL
MODEL 2
REMARK VINA RESULT:     -12.2      2.614      4.092
REMARK SMILES Cc1ccccc1CNc1ccc(C(=O)NCCCNC(=O)c2ccc(-c3c4nc(c(-c5ccccc5)c5ccc([nH]5)c(-c5ccccc5)c5nc(c(-c6ccccc6)c6ccc3[nH]6)C=C5)C=C4)cc2)c(F)c1F
REMARK SMILES IDX 17 1 16 2 14 3 15 4 13 6 10 7 11 8 73 9 12 10 71 11 74 12
REMARK SMILES IDX 72 13 9 14 8 16 7 17 1 18 2 19 3 20 4 21 6 22 5 23 18 24
REMARK SMILES IDX 19 25 20 26 21 27 22 29 23 30 24 31 70 32 25 33 69 34 26 35
REMARK SMILES IDX 27 36 28 37 63 38 29 39 68 40 62 41 64 42 30 43 67 44 61 45
REMARK SMILES IDX 60 46 31 48 53 49 38 50 52 51 39 52 42 53 51 54 65 55 40 56
REMARK SMILES IDX 41 57 50 59 66 60 43 61 32 62 33 63 37 64 34 65 36 66 35 67
REMARK SMILES IDX 54 68 55 69 59 70 56 71 58 72 57 73 44 74 45 75 49 76 46 77
REMARK SMILES IDX 48 78 47 79
REMARK H PARENT 16 5 9 15 20 28 64 47 42 58
REMARK Flexibility Score: inf
ROOT
ATOM      1  C   UNL A   1      37.150  21.795  24.813  1.00  0.00     0.118 C 
ENDROOT
BRANCH   1   2
ATOM      2  N   UNL A   1      36.375  20.563  24.854  1.00  0.00    -0.352 N 
ATOM      3  C   UNL A   1      35.025  20.284  24.846  1.00  0.00     0.254 C 
ATOM      4  O   UNL A   1      34.727  19.090  24.849  1.00  0.00    -0.269 OA
ATOM      5  H   UNL A   1      36.936  19.755  24.897  1.00  0.00     0.163 HD
BRANCH   3   6
ATOM      6  C   UNL A   1      33.943  21.315  24.842  1.00  0.00     0.078 A 
ATOM      7  C   UNL A   1      31.882  23.290  24.947  1.00  0.00     0.074 A 
ATOM      8  C   UNL A   1      32.168  22.610  23.770  1.00  0.00     0.030 A 
ATOM      9  C   UNL A   1      32.683  23.007  26.060  1.00  0.00     0.182 A 
ATOM     10  C   UNL A   1      33.174  21.644  23.724  1.00  0.00     0.019 A 
ATOM     11  C   UNL A   1      33.689  22.036  26.017  1.00  0.00     0.173 A 
ATOM     12  F   UNL A   1      32.444  23.652  27.214  1.00  0.00    -0.201 F 
ATOM     13  F   UNL A   1      34.374  21.803  27.147  1.00  0.00    -0.203 F 
BRANCH   7  14
ATOM     14  N   UNL A   1      30.807  24.155  25.044  1.00  0.00    -0.379 N 
ATOM     15  H   UNL A   1      29.994  23.864  25.515  1.00  0.00     0.161 HD
BRANCH  14  16
ATOM     16  C   UNL A   1      30.857  25.490  24.463  1.00  0.00     0.149 C 
BRANCH  16  17
ATOM     17  C   UNL A   1      31.675  26.403  25.349  1.00  0.00    -0.026 A 
ATOM     18  C   UNL A   1      33.835  26.187  23.964  1.00  0.00     0.044 C 
ATOM     19  C   UNL A   1      33.027  26.721  25.114  1.00  0.00    -0.046 A 
ATOM     20  C   UNL A   1      33.692  27.567  26.022  1.00  0.00     0.004 A 
ATOM     21  C   UNL A   1      33.032  28.118  27.120  1.00  0.00     0.000 A 
ATOM     22  C   UNL A   1      31.019  26.996  26.452  1.00  0.00     0.006 A 
ATOM     23  C   UNL A   1      31.690  27.838  27.333  1.00  0.00     0.000 A 
ENDBRANCH  16  17
ENDBRANCH  14  16
ENDBRANCH   7  14
ENDBRANCH   3   6
ENDBRANCH   1   2
BRANCH   1  24
ATOM     24  C   UNL A   1      38.495  21.649  25.530  1.00  0.00     0.042 C 
BRANCH  24  25
ATOM     25  C   UNL A   1      38.854  22.829  26.410  1.00  0.00     0.118 C 
BRANCH  25  26
ATOM     26  N   UNL A   1      40.292  23.034  26.567  1.00  0.00    -0.352 N 
ATOM     27  C   UNL A   1      40.966  24.210  26.852  1.00  0.00     0.251 C 
ATOM     28  H   UNL A   1      40.855  22.233  26.454  1.00  0.00     0.163 HD
ATOM     29  O   UNL A   1      42.178  24.229  26.960  1.00  0.00    -0.269 OA
BRANCH  27  30
ATOM     30  C   UNL A   1      40.159  25.413  27.165  1.00  0.00     0.039 A 
ATOM     31  C   UNL A   1      40.499  26.599  26.510  1.00  0.00     0.014 A 
ATOM     32  C   UNL A   1      39.311  25.425  28.269  1.00  0.00     0.014 A 
ATOM     33  C   UNL A   1      40.212  27.812  27.126  1.00  0.00     0.010 A 
ATOM     34  C   UNL A   1      39.112  26.620  28.933  1.00  0.00     0.010 A 
ATOM     35  C   UNL A   1      39.629  27.801  28.394  1.00  0.00    -0.014 A 
BRANCH  35  36
ATOM     36  C   UNL A   1      39.597  28.978  29.250  1.00  0.00     0.031 A 
ATOM     37  C   UNL A   1      38.596  30.026  29.007  1.00  0.00     0.074 A 
ATOM     38  C   UNL A   1      40.505  29.158  30.235  1.00  0.00     0.049 A 
ATOM     39  N   UNL A   1      38.823  31.288  29.162  1.00  0.00    -0.248 NA
ATOM     40  C   UNL A   1      37.261  29.724  28.511  1.00  0.00     0.031 C 
ATOM     41  C   UNL A   1      40.513  30.219  31.239  1.00  0.00     0.029 A 
ATOM     42  N   UNL A   1      41.755  28.556  30.372  1.00  0.00    -0.354 N 
ATOM     43  C   UNL A   1      37.605  31.918  29.108  1.00  0.00     0.074 A 
ATOM     44  C   UNL A   1      36.686  30.927  28.592  1.00  0.00     0.031 C 
ATOM     45  C   UNL A   1      41.778  30.411  31.643  1.00  0.00     0.029 A 
ATOM     46  C   UNL A   1      42.629  29.554  30.835  1.00  0.00     0.049 A 
ATOM     47  H   UNL A   1      41.980  27.616  30.183  1.00  0.00     0.167 HD
ATOM     48  C   UNL A   1      37.454  33.156  29.656  1.00  0.00     0.031 A 
ATOM     49  C   UNL A   1      43.756  29.934  30.166  1.00  0.00     0.031 A 
ATOM     50  C   UNL A   1      38.693  33.672  30.235  1.00  0.00     0.049 A 
ATOM     51  C   UNL A   1      43.775  31.405  29.791  1.00  0.00     0.074 A 
ATOM     52  C   UNL A   1      39.159  33.813  31.534  1.00  0.00     0.029 A 
ATOM     53  N   UNL A   1      39.789  33.883  29.414  1.00  0.00    -0.354 N 
ATOM     54  N   UNL A   1      42.813  32.245  30.052  1.00  0.00    -0.248 NA
ATOM     55  C   UNL A   1      44.826  32.010  28.971  1.00  0.00     0.031 C 
ATOM     56  C   UNL A   1      40.542  34.137  31.482  1.00  0.00     0.029 A 
ATOM     57  C   UNL A   1      40.915  34.197  30.153  1.00  0.00     0.049 A 
ATOM     58  H   UNL A   1      39.768  33.818  28.433  1.00  0.00     0.167 HD
ATOM     59  C   UNL A   1      43.056  33.438  29.419  1.00  0.00     0.074 A 
ATOM     60  C   UNL A   1      44.331  33.241  28.755  1.00  0.00     0.031 C 
ATOM     61  C   UNL A   1      42.162  34.469  29.454  1.00  0.00     0.031 A 
BRANCH  48  62
ATOM     62  C   UNL A   1      36.096  33.762  29.918  1.00  0.00    -0.014 A 
ATOM     63  C   UNL A   1      35.351  34.294  28.851  1.00  0.00     0.009 A 
ATOM     64  C   UNL A   1      35.516  33.876  31.193  1.00  0.00     0.009 A 
ATOM     65  C   UNL A   1      34.162  35.006  29.059  1.00  0.00     0.001 A 
ATOM     66  C   UNL A   1      34.354  34.627  31.416  1.00  0.00     0.001 A 
ATOM     67  C   UNL A   1      33.684  35.204  30.347  1.00  0.00     0.000 A 
ENDBRANCH  48  62
BRANCH  49  68
ATOM     68  C   UNL A   1      44.349  28.843  29.346  1.00  0.00    -0.014 A 
ATOM     69  C   UNL A   1      45.089  27.847  30.014  1.00  0.00     0.009 A 
ATOM     70  C   UNL A   1      43.853  28.566  28.063  1.00  0.00     0.009 A 
ATOM     71  C   UNL A   1      45.204  26.563  29.477  1.00  0.00     0.001 A 
ATOM     72  C   UNL A   1      43.988  27.283  27.523  1.00  0.00     0.001 A 
ATOM     73  C   UNL A   1      44.622  26.272  28.246  1.00  0.00     0.000 A 
ENDBRANCH  49  68
BRANCH  61  74
ATOM     74  C   UNL A   1      42.344  35.823  28.807  1.00  0.00    -0.014 A 
ATOM     75  C   UNL A   1      41.886  36.148  27.524  1.00  0.00     0.009 A 
ATOM     76  C   UNL A   1      43.112  36.811  29.466  1.00  0.00     0.009 A 
ATOM     77  C   UNL A   1      42.110  37.416  26.968  1.00  0.00     0.001 A 
ATOM     78  C   UNL A   1      43.359  38.068  28.908  1.00  0.00     0.001 A 
ATOM     79  C   UNL A   1      42.841  38.377  27.661  1.00  0.00     0.000 A 
ENDBRANCH  61  74
ENDBRANCH  35  36
ENDBRANCH  27  30
ENDBRANCH  25  26
ENDBRANCH  24  25
ENDBRANCH   1  24
TORSDOF 13
ENDMDL
MODEL 3
REMARK VINA RESULT:     -12.1      3.575      8.513
REMARK SMILES Cc1ccccc1CNc1ccc(C(=O)NCCCNC(=O)c2ccc(-c3c4nc(c(-c5ccccc5)c5ccc([nH]5)c(-c5ccccc5)c5nc(c(-c6ccccc6)c6ccc3[nH]6)C=C5)C=C4)cc2)c(F)c1F
REMARK SMILES IDX 17 1 16 2 14 3 15 4 13 6 10 7 11 8 73 9 12 10 71 11 74 12
REMARK SMILES IDX 72 13 9 14 8 16 7 17 1 18 2 19 3 20 4 21 6 22 5 23 18 24
REMARK SMILES IDX 19 25 20 26 21 27 22 29 23 30 24 31 70 32 25 33 69 34 26 35
REMARK SMILES IDX 27 36 28 37 63 38 29 39 68 40 62 41 64 42 30 43 67 44 61 45
REMARK SMILES IDX 60 46 31 48 53 49 38 50 52 51 39 52 42 53 51 54 65 55 40 56
REMARK SMILES IDX 41 57 50 59 66 60 43 61 32 62 33 63 37 64 34 65 36 66 35 67
REMARK SMILES IDX 54 68 55 69 59 70 56 71 58 72 57 73 44 74 45 75 49 76 46 77
REMARK SMILES IDX 48 78 47 79
REMARK H PARENT 16 5 9 15 20 28 64 47 42 58
REMARK Flexibility Score: inf
ROOT
ATOM      1  C   UNL A   1      32.699  29.901  25.363  1.00  0.00     0.118 C 
ENDROOT
BRANCH   1   2
ATOM      2  N   UNL A   1      31.432  30.076  24.668  1.00  0.00    -0.352 N 
ATOM      3  C   UNL A   1      30.638  29.243  23.909  1.00  0.00     0.254 C 
ATOM      4  O   UNL A   1      29.584  29.734  23.504  1.00  0.00    -0.269 OA
ATOM      5  H   UNL A   1      31.062  30.983  24.762  1.00  0.00     0.163 HD
BRANCH   3   6
ATOM      6  C   UNL A   1      30.978  27.831  23.555  1.00  0.00     0.078 A 
ATOM      7  C   UNL A   1      31.701  25.173  22.804  1.00  0.00     0.074 A 
ATOM      8  C   UNL A   1      30.611  25.415  23.629  1.00  0.00     0.030 A 
ATOM      9  C   UNL A   1      32.461  26.279  22.404  1.00  0.00     0.182 A 
ATOM     10  C   UNL A   1      30.259  26.717  23.992  1.00  0.00     0.019 A 
ATOM     11  C   UNL A   1      32.107  27.583  22.763  1.00  0.00     0.173 A 
ATOM     12  F   UNL A   1      33.529  26.083  21.613  1.00  0.00    -0.201 F 
ATOM     13  F   UNL A   1      32.870  28.583  22.295  1.00  0.00    -0.203 F 
BRANCH   7  14
ATOM     14  N   UNL A   1      31.987  23.903  22.331  1.00  0.00    -0.379 N 
ATOM     15  H   UNL A   1      32.206  23.780  21.380  1.00  0.00     0.161 HD
BRANCH  14  16
ATOM     16  C   UNL A   1      31.970  22.747  23.216  1.00  0.00     0.149 C 
BRANCH  16  17
ATOM     17  C   UNL A   1      33.384  22.397  23.626  1.00  0.00    -0.026 A 
ATOM     18  C   UNL A   1      32.702  20.396  25.097  1.00  0.00     0.044 C 
ATOM     19  C   UNL A   1      33.711  21.322  24.476  1.00  0.00    -0.046 A 
ATOM     20  C   UNL A   1      35.063  21.107  24.806  1.00  0.00     0.004 A 
ATOM     21  C   UNL A   1      36.076  21.908  24.282  1.00  0.00     0.000 A 
ATOM     22  C   UNL A   1      34.430  23.177  23.083  1.00  0.00     0.006 A 
ATOM     23  C   UNL A   1      35.761  22.942  23.412  1.00  0.00     0.000 A 
ENDBRANCH  16  17
ENDBRANCH  14  16
ENDBRANCH   7  14
ENDBRANCH   3   6
ENDBRANCH   1   2
BRANCH   1  24
ATOM     24  C   UNL A   1      32.590  30.250  26.850  1.00  0.00     0.042 C 
BRANCH  24  25
ATOM     25  C   UNL A   1      33.812  29.872  27.662  1.00  0.00     0.118 C 
BRANCH  25  26
ATOM     26  N   UNL A   1      34.402  30.989  28.396  1.00  0.00    -0.352 N 
ATOM     27  C   UNL A   1      35.664  31.074  28.962  1.00  0.00     0.251 C 
ATOM     28  H   UNL A   1      33.830  31.784  28.502  1.00  0.00     0.163 HD
ATOM     29  O   UNL A   1      36.025  32.080  29.544  1.00  0.00    -0.269 OA
BRANCH  27  30
ATOM     30  C   UNL A   1      36.611  29.961  28.713  1.00  0.00     0.039 A 
ATOM     31  C   UNL A   1      36.961  29.164  29.805  1.00  0.00     0.014 A 
ATOM     32  C   UNL A   1      37.338  29.906  27.526  1.00  0.00     0.014 A 
ATOM     33  C   UNL A   1      38.195  28.522  29.799  1.00  0.00     0.010 A 
ATOM     34  C   UNL A   1      38.603  29.355  27.556  1.00  0.00     0.010 A 
ATOM     35  C   UNL A   1      39.055  28.728  28.719  1.00  0.00    -0.014 A 
BRANCH  35  36
ATOM     36  C   UNL A   1      40.469  28.384  28.770  1.00  0.00     0.031 A 
ATOM     37  C   UNL A   1      40.919  27.083  28.255  1.00  0.00     0.074 A 
ATOM     38  C   UNL A   1      41.377  29.214  29.332  1.00  0.00     0.049 A 
ATOM     39  N   UNL A   1      41.871  26.390  28.785  1.00  0.00    -0.248 NA
ATOM     40  C   UNL A   1      40.280  26.436  27.118  1.00  0.00     0.031 C 
ATOM     41  C   UNL A   1      42.829  29.053  29.336  1.00  0.00     0.029 A 
ATOM     42  N   UNL A   1      41.150  30.249  30.236  1.00  0.00    -0.354 N 
ATOM     43  C   UNL A   1      42.179  25.395  27.890  1.00  0.00     0.074 A 
ATOM     44  C   UNL A   1      41.097  25.397  26.930  1.00  0.00     0.031 C 
ATOM     45  C   UNL A   1      43.322  29.694  30.407  1.00  0.00     0.029 A 
ATOM     46  C   UNL A   1      42.195  30.193  31.175  1.00  0.00     0.049 A 
ATOM     47  H   UNL A   1      40.405  30.893  30.221  1.00  0.00     0.167 HD
ATOM     48  C   UNL A   1      43.394  24.782  27.947  1.00  0.00     0.031 A 
ATOM     49  C   UNL A   1      41.993  30.029  32.514  1.00  0.00     0.031 A 
ATOM     50  C   UNL A   1      44.231  25.286  29.036  1.00  0.00     0.049 A 
ATOM     51  C   UNL A   1      42.670  28.796  33.086  1.00  0.00     0.074 A 
ATOM     52  C   UNL A   1      45.328  26.132  29.088  1.00  0.00     0.029 A 
ATOM     53  N   UNL A   1      43.803  25.139  30.345  1.00  0.00    -0.354 N 
ATOM     54  N   UNL A   1      43.367  27.946  32.385  1.00  0.00    -0.248 NA
ATOM     55  C   UNL A   1      42.497  28.356  34.471  1.00  0.00     0.031 C 
ATOM     56  C   UNL A   1      45.570  26.471  30.447  1.00  0.00     0.029 A 
ATOM     57  C   UNL A   1      44.622  25.828  31.220  1.00  0.00     0.049 A 
ATOM     58  H   UNL A   1      43.017  24.613  30.616  1.00  0.00     0.167 HD
ATOM     59  C   UNL A   1      43.679  26.856  33.157  1.00  0.00     0.074 A 
ATOM     60  C   UNL A   1      43.112  27.161  34.458  1.00  0.00     0.031 C 
ATOM     61  C   UNL A   1      44.334  25.772  32.645  1.00  0.00     0.031 A 
BRANCH  48  62
ATOM     62  C   UNL A   1      43.920  23.925  26.820  1.00  0.00    -0.014 A 
ATOM     63  C   UNL A   1      44.787  24.483  25.865  1.00  0.00     0.009 A 
ATOM     64  C   UNL A   1      43.565  22.580  26.621  1.00  0.00     0.009 A 
ATOM     65  C   UNL A   1      45.177  23.781  24.717  1.00  0.00     0.001 A 
ATOM     66  C   UNL A   1      43.911  21.886  25.454  1.00  0.00     0.001 A 
ATOM     67  C   UNL A   1      44.707  22.494  24.494  1.00  0.00     0.000 A 
ENDBRANCH  48  62
BRANCH  49  68
ATOM     68  C   UNL A   1      40.691  30.575  32.985  1.00  0.00    -0.014 A 
ATOM     69  C   UNL A   1      40.494  31.968  32.899  1.00  0.00     0.009 A 
ATOM     70  C   UNL A   1      39.569  29.742  33.096  1.00  0.00     0.009 A 
ATOM     71  C   UNL A   1      39.207  32.500  32.782  1.00  0.00     0.001 A 
ATOM     72  C   UNL A   1      38.282  30.283  32.996  1.00  0.00     0.001 A 
ATOM     73  C   UNL A   1      38.103  31.652  32.794  1.00  0.00     0.000 A 
ENDBRANCH  49  68
BRANCH  61  74
ATOM     74  C   UNL A   1      44.736  24.536  33.414  1.00  0.00    -0.014 A 
ATOM     75  C   UNL A   1      46.048  24.255  33.818  1.00  0.00     0.009 A 
ATOM     76  C   UNL A   1      43.775  23.529  33.667  1.00  0.00     0.009 A 
ATOM     77  C   UNL A   1      46.363  23.074  34.507  1.00  0.00     0.001 A 
ATOM     78  C   UNL A   1      44.087  22.341  34.332  1.00  0.00     0.001 A 
ATOM     79  C   UNL A   1      45.383  22.121  34.769  1.00  0.00     0.000 A 
ENDBRANCH  61  74
ENDBRANCH  35  36
ENDBRANCH  27  30
ENDBRANCH  25  26
ENDBRANCH  24  25
ENDBRANCH   1  24
TORSDOF 13
ENDMDL
