MODEL 1
REMARK VINA RESULT:     -10.0      0.000      0.000
REMARK SMILES CN(CCOCC1CC1)c1nccnc1C(=O)NCCCNC(=O)c1ccc(-c2c3nc(c(-c4ccccc4)c4ccc([nH]4)c(-c4ccccc4)c4nc(c(-c5ccccc5)c5ccc2[nH]5)C=C4)C=C3)cc1
REMARK SMILES IDX 16 1 17 2 18 3 15 5 10 6 11 7 12 8 14 9 13 10 2 11 1 12 3 13
REMARK SMILES IDX 4 14 5 15 6 16 7 17 8 18 9 19 19 20 20 21 21 22 22 23 23 24
REMARK SMILES IDX 24 26 25 27 26 28 72 29 27 30 71 31 28 32 29 33 30 34 65 35
REMARK SMILES IDX 31 36 70 37 64 38 66 39 32 40 69 41 63 42 62 43 33 45 55 46
REMARK SMILES IDX 40 47 54 48 41 49 44 50 53 51 67 52 42 53 43 54 52 56 68 57
REMARK SMILES IDX 45 58 34 59 35 60 39 61 36 62 38 63 37 64 56 65 57 66 61 67
REMARK SMILES IDX 58 68 60 69 59 70 46 71 47 72 51 73 48 74 50 75 49 76
REMARK H PARENT 18 4 22 25 66 44 44 55
REMARK Flexibility Score: inf
ROOT
ATOM      1  C   UNL A   1      31.747  25.188  26.514  1.00  0.00     0.273 C 
ATOM      2  O   UNL A   1      31.043  24.374  27.131  1.00  0.00    -0.267 OA
ATOM      3  N   UNL A   1      31.233  26.541  26.556  1.00  0.00    -0.351 N 
ATOM      4  H   UNL A   1      30.415  26.717  26.038  1.00  0.00     0.163 HD
ENDROOT
BRANCH   1   5
ATOM      5  C   UNL A   1      32.721  24.565  25.423  1.00  0.00     0.170 A 
ATOM      6  C   UNL A   1      32.746  24.585  23.969  1.00  0.00     0.160 A 
ATOM      7  N   UNL A   1      33.817  24.017  23.320  1.00  0.00    -0.235 NA
ATOM      8  C   UNL A   1      34.801  23.441  24.017  1.00  0.00     0.133 A 
ATOM      9  N   UNL A   1      33.754  23.943  26.105  1.00  0.00    -0.246 NA
ATOM     10  C   UNL A   1      34.767  23.406  25.384  1.00  0.00     0.132 A 
BRANCH   6  11
ATOM     11  N   UNL A   1      31.825  24.982  23.020  1.00  0.00    -0.355 N 
ATOM     12  C   UNL A   1      30.451  24.447  23.127  1.00  0.00     0.145 C 
BRANCH  11  13
ATOM     13  C   UNL A   1      31.879  26.147  22.196  1.00  0.00     0.146 C 
BRANCH  13  14
ATOM     14  C   UNL A   1      31.751  27.378  23.071  1.00  0.00     0.181 C 
BRANCH  14  15
ATOM     15  O   UNL A   1      30.535  27.828  23.729  1.00  0.00    -0.379 OA
BRANCH  15  16
ATOM     16  C   UNL A   1      29.987  29.126  23.372  1.00  0.00     0.163 C 
BRANCH  16  17
ATOM     17  C   UNL A   1      28.645  29.136  22.659  1.00  0.00     0.015 C 
ATOM     18  C   UNL A   1      27.644  30.196  23.126  1.00  0.00     0.006 C 
ATOM     19  C   UNL A   1      28.129  30.233  21.724  1.00  0.00     0.006 C 
ENDBRANCH  16  17
ENDBRANCH  15  16
ENDBRANCH  14  15
ENDBRANCH  13  14
ENDBRANCH  11  13
ENDBRANCH   6  11
ENDBRANCH   1   5
BRANCH   3  20
ATOM     20  C   UNL A   1      31.812  27.698  27.303  1.00  0.00     0.118 C 
BRANCH  20  21
ATOM     21  C   UNL A   1      32.028  29.105  26.747  1.00  0.00     0.042 C 
BRANCH  21  22
ATOM     22  C   UNL A   1      33.437  29.716  26.914  1.00  0.00     0.118 C 
BRANCH  22  23
ATOM     23  N   UNL A   1      33.642  30.739  27.942  1.00  0.00    -0.352 N 
ATOM     24  C   UNL A   1      34.716  31.139  28.736  1.00  0.00     0.251 C 
ATOM     25  H   UNL A   1      32.831  31.270  28.113  1.00  0.00     0.163 HD
ATOM     26  O   UNL A   1      34.569  32.101  29.449  1.00  0.00    -0.269 OA
BRANCH  24  27
ATOM     27  C   UNL A   1      36.013  30.399  28.772  1.00  0.00     0.039 A 
ATOM     28  C   UNL A   1      36.822  30.382  27.623  1.00  0.00     0.014 A 
ATOM     29  C   UNL A   1      36.452  29.719  29.895  1.00  0.00     0.014 A 
ATOM     30  C   UNL A   1      38.096  29.791  27.656  1.00  0.00     0.010 A 
ATOM     31  C   UNL A   1      37.769  29.286  29.983  1.00  0.00     0.010 A 
ATOM     32  C   UNL A   1      38.612  29.299  28.863  1.00  0.00    -0.014 A 
BRANCH  32  33
ATOM     33  C   UNL A   1      39.996  28.763  29.009  1.00  0.00     0.031 A 
ATOM     34  C   UNL A   1      41.115  29.687  29.435  1.00  0.00     0.074 A 
ATOM     35  C   UNL A   1      40.284  27.501  28.630  1.00  0.00     0.049 A 
ATOM     36  N   UNL A   1      42.410  29.497  29.399  1.00  0.00    -0.248 NA
ATOM     37  C   UNL A   1      40.725  31.032  29.894  1.00  0.00     0.031 C 
ATOM     38  C   UNL A   1      39.321  26.513  28.134  1.00  0.00     0.029 A 
ATOM     39  N   UNL A   1      41.485  26.834  28.589  1.00  0.00    -0.354 N 
ATOM     40  C   UNL A   1      42.978  30.716  29.757  1.00  0.00     0.074 A 
ATOM     41  C   UNL A   1      41.893  31.652  29.937  1.00  0.00     0.031 C 
ATOM     42  C   UNL A   1      39.959  25.359  27.883  1.00  0.00     0.029 A 
ATOM     43  C   UNL A   1      41.382  25.536  28.145  1.00  0.00     0.049 A 
ATOM     44  H   UNL A   1      42.338  27.246  28.853  1.00  0.00     0.167 HD
ATOM     45  C   UNL A   1      44.281  31.026  29.955  1.00  0.00     0.031 A 
ATOM     46  C   UNL A   1      42.329  24.596  27.965  1.00  0.00     0.031 A 
ATOM     47  C   UNL A   1      45.351  30.071  29.862  1.00  0.00     0.049 A 
ATOM     48  C   UNL A   1      43.763  24.938  28.260  1.00  0.00     0.074 A 
ATOM     49  C   UNL A   1      46.693  30.248  30.145  1.00  0.00     0.029 A 
ATOM     50  N   UNL A   1      45.189  28.748  29.479  1.00  0.00    -0.354 N 
ATOM     51  N   UNL A   1      44.276  26.078  28.656  1.00  0.00    -0.248 NA
ATOM     52  C   UNL A   1      44.747  23.859  28.096  1.00  0.00     0.031 C 
ATOM     53  C   UNL A   1      47.351  29.038  29.902  1.00  0.00     0.029 A 
ATOM     54  C   UNL A   1      46.410  28.099  29.512  1.00  0.00     0.049 A 
ATOM     55  H   UNL A   1      44.334  28.334  29.222  1.00  0.00     0.167 HD
ATOM     56  C   UNL A   1      45.636  25.846  28.814  1.00  0.00     0.074 A 
ATOM     57  C   UNL A   1      45.865  24.454  28.489  1.00  0.00     0.031 C 
ATOM     58  C   UNL A   1      46.610  26.709  29.194  1.00  0.00     0.031 A 
BRANCH  45  59
ATOM     59  C   UNL A   1      44.611  32.449  30.316  1.00  0.00    -0.014 A 
ATOM     60  C   UNL A   1      44.652  32.874  31.656  1.00  0.00     0.009 A 
ATOM     61  C   UNL A   1      44.898  33.379  29.305  1.00  0.00     0.009 A 
ATOM     62  C   UNL A   1      44.917  34.208  31.970  1.00  0.00     0.001 A 
ATOM     63  C   UNL A   1      45.198  34.705  29.624  1.00  0.00     0.001 A 
ATOM     64  C   UNL A   1      45.195  35.122  30.955  1.00  0.00     0.000 A 
ENDBRANCH  45  59
BRANCH  46  65
ATOM     65  C   UNL A   1      41.951  23.228  27.519  1.00  0.00    -0.014 A 
ATOM     66  C   UNL A   1      42.051  22.876  26.164  1.00  0.00     0.009 A 
ATOM     67  C   UNL A   1      41.492  22.269  28.434  1.00  0.00     0.009 A 
ATOM     68  C   UNL A   1      41.673  21.603  25.730  1.00  0.00     0.001 A 
ATOM     69  C   UNL A   1      41.142  20.987  28.002  1.00  0.00     0.001 A 
ATOM     70  C   UNL A   1      41.222  20.658  26.650  1.00  0.00     0.000 A 
ENDBRANCH  46  65
BRANCH  58  71
ATOM     71  C   UNL A   1      48.001  26.160  29.318  1.00  0.00    -0.014 A 
ATOM     72  C   UNL A   1      48.844  26.052  28.202  1.00  0.00     0.009 A 
ATOM     73  C   UNL A   1      48.490  25.796  30.583  1.00  0.00     0.009 A 
ATOM     74  C   UNL A   1      50.141  25.559  28.345  1.00  0.00     0.001 A 
ATOM     75  C   UNL A   1      49.797  25.330  30.726  1.00  0.00     0.001 A 
ATOM     76  C   UNL A   1      50.618  25.203  29.607  1.00  0.00     0.000 A 
ENDBRANCH  58  71
ENDBRANCH  32  33
ENDBRANCH  24  27
ENDBRANCH  22  23
ENDBRANCH  21  22
ENDBRANCH  20  21
ENDBRANCH   3  20
TORSDOF 16
ENDMDL
MODEL 2
REMARK VINA RESULT:      -9.8      2.905      7.221
REMARK SMILES CN(CCOCC1CC1)c1nccnc1C(=O)NCCCNC(=O)c1ccc(-c2c3nc(c(-c4ccccc4)c4ccc([nH]4)c(-c4ccccc4)c4nc(c(-c5ccccc5)c5ccc2[nH]5)C=C4)C=C3)cc1
REMARK SMILES IDX 16 1 17 2 18 3 15 5 10 6 11 7 12 8 14 9 13 10 2 11 1 12 3 13
REMARK SMILES IDX 4 14 5 15 6 16 7 17 8 18 9 19 19 20 20 21 21 22 22 23 23 24
REMARK SMILES IDX 24 26 25 27 26 28 72 29 27 30 71 31 28 32 29 33 30 34 65 35
REMARK SMILES IDX 31 36 70 37 64 38 66 39 32 40 69 41 63 42 62 43 33 45 55 46
REMARK SMILES IDX 40 47 54 48 41 49 44 50 53 51 67 52 42 53 43 54 52 56 68 57
REMARK SMILES IDX 45 58 34 59 35 60 39 61 36 62 38 63 37 64 56 65 57 66 61 67
REMARK SMILES IDX 58 68 60 69 59 70 46 71 47 72 51 73 48 74 50 75 49 76
REMARK H PARENT 18 4 22 25 66 44 44 55
REMARK Flexibility Score: inf
ROOT
ATOM      1  C   UNL A   1      33.357  24.706  22.699  1.00  0.00     0.273 C 
ATOM      2  O   UNL A   1      33.631  25.446  21.742  1.00  0.00    -0.267 OA
ATOM      3  N   UNL A   1      33.980  23.402  22.616  1.00  0.00    -0.351 N 
ATOM      4  H   UNL A   1      33.632  22.791  21.926  1.00  0.00     0.163 HD
ENDROOT
BRANCH   1   5
ATOM      5  C   UNL A   1      32.047  25.094  23.513  1.00  0.00     0.170 A 
ATOM      6  C   UNL A   1      31.447  24.604  24.744  1.00  0.00     0.160 A 
ATOM      7  N   UNL A   1      30.336  25.248  25.237  1.00  0.00    -0.235 NA
ATOM      8  C   UNL A   1      29.811  26.287  24.582  1.00  0.00     0.133 A 
ATOM      9  N   UNL A   1      31.461  26.164  22.857  1.00  0.00    -0.246 NA
ATOM     10  C   UNL A   1      30.365  26.734  23.413  1.00  0.00     0.132 A 
BRANCH   6  11
ATOM     11  N   UNL A   1      31.694  23.499  25.534  1.00  0.00    -0.355 N 
ATOM     12  C   UNL A   1      32.279  23.725  26.873  1.00  0.00     0.145 C 
BRANCH  11  13
ATOM     13  C   UNL A   1      31.092  22.208  25.427  1.00  0.00     0.146 C 
BRANCH  13  14
ATOM     14  C   UNL A   1      32.074  21.259  24.768  1.00  0.00     0.181 C 
BRANCH  14  15
ATOM     15  O   UNL A   1      32.925  20.305  25.458  1.00  0.00    -0.379 OA
BRANCH  15  16
ATOM     16  C   UNL A   1      33.687  19.350  24.671  1.00  0.00     0.163 C 
BRANCH  16  17
ATOM     17  C   UNL A   1      32.955  18.102  24.205  1.00  0.00     0.015 C 
ATOM     18  C   UNL A   1      32.597  18.050  22.717  1.00  0.00     0.006 C 
ATOM     19  C   UNL A   1      33.515  17.024  23.272  1.00  0.00     0.006 C 
ENDBRANCH  16  17
ENDBRANCH  15  16
ENDBRANCH  14  15
ENDBRANCH  13  14
ENDBRANCH  11  13
ENDBRANCH   6  11
ENDBRANCH   1   5
BRANCH   3  20
ATOM     20  C   UNL A   1      35.095  22.884  23.464  1.00  0.00     0.118 C 
BRANCH  20  21
ATOM     21  C   UNL A   1      35.385  23.291  24.908  1.00  0.00     0.042 C 
BRANCH  21  22
ATOM     22  C   UNL A   1      35.787  22.164  25.886  1.00  0.00     0.118 C 
BRANCH  22  23
ATOM     23  N   UNL A   1      36.926  21.309  25.542  1.00  0.00    -0.352 N 
ATOM     24  C   UNL A   1      38.302  21.367  25.755  1.00  0.00     0.251 C 
ATOM     25  H   UNL A   1      36.657  20.504  25.045  1.00  0.00     0.163 HD
ATOM     26  O   UNL A   1      38.973  20.429  25.400  1.00  0.00    -0.269 OA
BRANCH  24  27
ATOM     27  C   UNL A   1      38.978  22.557  26.354  1.00  0.00     0.039 A 
ATOM     28  C   UNL A   1      40.104  22.362  27.173  1.00  0.00     0.014 A 
ATOM     29  C   UNL A   1      38.535  23.851  26.142  1.00  0.00     0.014 A 
ATOM     30  C   UNL A   1      40.828  23.462  27.663  1.00  0.00     0.010 A 
ATOM     31  C   UNL A   1      39.341  24.932  26.480  1.00  0.00     0.010 A 
ATOM     32  C   UNL A   1      40.493  24.761  27.259  1.00  0.00    -0.014 A 
BRANCH  32  33
ATOM     33  C   UNL A   1      41.280  25.970  27.638  1.00  0.00     0.031 A 
ATOM     34  C   UNL A   1      40.655  27.021  28.528  1.00  0.00     0.074 A 
ATOM     35  C   UNL A   1      42.489  26.201  27.085  1.00  0.00     0.049 A 
ATOM     36  N   UNL A   1      41.059  28.239  28.788  1.00  0.00    -0.248 NA
ATOM     37  C   UNL A   1      39.362  26.680  29.149  1.00  0.00     0.031 C 
ATOM     38  C   UNL A   1      43.190  25.310  26.156  1.00  0.00     0.029 A 
ATOM     39  N   UNL A   1      43.338  27.273  27.213  1.00  0.00    -0.354 N 
ATOM     40  C   UNL A   1      40.040  28.822  29.534  1.00  0.00     0.074 A 
ATOM     41  C   UNL A   1      38.973  27.852  29.625  1.00  0.00     0.031 C 
ATOM     42  C   UNL A   1      44.378  25.850  25.836  1.00  0.00     0.029 A 
ATOM     43  C   UNL A   1      44.501  27.148  26.489  1.00  0.00     0.049 A 
ATOM     44  H   UNL A   1      43.134  28.058  27.770  1.00  0.00     0.167 HD
ATOM     45  C   UNL A   1      40.003  30.040  30.124  1.00  0.00     0.031 A 
ATOM     46  C   UNL A   1      45.546  27.986  26.361  1.00  0.00     0.031 A 
ATOM     47  C   UNL A   1      41.099  30.968  30.108  1.00  0.00     0.049 A 
ATOM     48  C   UNL A   1      45.517  29.304  27.084  1.00  0.00     0.074 A 
ATOM     49  C   UNL A   1      41.213  32.183  30.759  1.00  0.00     0.029 A 
ATOM     50  N   UNL A   1      42.286  30.766  29.421  1.00  0.00    -0.354 N 
ATOM     51  N   UNL A   1      44.572  29.814  27.834  1.00  0.00    -0.248 NA
ATOM     52  C   UNL A   1      46.708  30.157  26.951  1.00  0.00     0.031 C 
ATOM     53  C   UNL A   1      42.458  32.732  30.439  1.00  0.00     0.029 A 
ATOM     54  C   UNL A   1      43.136  31.838  29.627  1.00  0.00     0.049 A 
ATOM     55  H   UNL A   1      42.493  29.977  28.868  1.00  0.00     0.167 HD
ATOM     56  C   UNL A   1      45.062  31.033  28.285  1.00  0.00     0.074 A 
ATOM     57  C   UNL A   1      46.395  31.177  27.738  1.00  0.00     0.031 C 
ATOM     58  C   UNL A   1      44.462  31.953  29.080  1.00  0.00     0.031 A 
BRANCH  45  59
ATOM     59  C   UNL A   1      38.744  30.421  30.856  1.00  0.00    -0.014 A 
ATOM     60  C   UNL A   1      38.576  30.135  32.222  1.00  0.00     0.009 A 
ATOM     61  C   UNL A   1      37.712  31.086  30.175  1.00  0.00     0.009 A 
ATOM     62  C   UNL A   1      37.385  30.456  32.874  1.00  0.00     0.001 A 
ATOM     63  C   UNL A   1      36.535  31.439  30.839  1.00  0.00     0.001 A 
ATOM     64  C   UNL A   1      36.366  31.112  32.184  1.00  0.00     0.000 A 
ENDBRANCH  45  59
BRANCH  46  65
ATOM     65  C   UNL A   1      46.729  27.591  25.550  1.00  0.00    -0.014 A 
ATOM     66  C   UNL A   1      46.759  27.860  24.172  1.00  0.00     0.009 A 
ATOM     67  C   UNL A   1      47.829  26.948  26.137  1.00  0.00     0.009 A 
ATOM     68  C   UNL A   1      47.852  27.468  23.395  1.00  0.00     0.001 A 
ATOM     69  C   UNL A   1      48.934  26.583  25.363  1.00  0.00     0.001 A 
ATOM     70  C   UNL A   1      48.940  26.834  23.991  1.00  0.00     0.000 A 
ENDBRANCH  46  65
BRANCH  58  71
ATOM     71  C   UNL A   1      45.259  33.172  29.438  1.00  0.00    -0.014 A 
ATOM     72  C   UNL A   1      46.264  33.124  30.417  1.00  0.00     0.009 A 
ATOM     73  C   UNL A   1      45.035  34.373  28.748  1.00  0.00     0.009 A 
ATOM     74  C   UNL A   1      47.008  34.265  30.719  1.00  0.00     0.001 A 
ATOM     75  C   UNL A   1      45.800  35.505  29.032  1.00  0.00     0.001 A 
ATOM     76  C   UNL A   1      46.779  35.452  30.022  1.00  0.00     0.000 A 
ENDBRANCH  58  71
ENDBRANCH  32  33
ENDBRANCH  24  27
ENDBRANCH  22  23
ENDBRANCH  21  22
ENDBRANCH  20  21
ENDBRANCH   3  20
TORSDOF 16
ENDMDL
MODEL 3
REMARK VINA RESULT:      -9.7      2.663      6.600
REMARK SMILES CN(CCOCC1CC1)c1nccnc1C(=O)NCCCNC(=O)c1ccc(-c2c3nc(c(-c4ccccc4)c4ccc([nH]4)c(-c4ccccc4)c4nc(c(-c5ccccc5)c5ccc2[nH]5)C=C4)C=C3)cc1
REMARK SMILES IDX 16 1 17 2 18 3 15 5 10 6 11 7 12 8 14 9 13 10 2 11 1 12 3 13
REMARK SMILES IDX 4 14 5 15 6 16 7 17 8 18 9 19 19 20 20 21 21 22 22 23 23 24
REMARK SMILES IDX 24 26 25 27 26 28 72 29 27 30 71 31 28 32 29 33 30 34 65 35
REMARK SMILES IDX 31 36 70 37 64 38 66 39 32 40 69 41 63 42 62 43 33 45 55 46
REMARK SMILES IDX 40 47 54 48 41 49 44 50 53 51 67 52 42 53 43 54 52 56 68 57
REMARK SMILES IDX 45 58 34 59 35 60 39 61 36 62 38 63 37 64 56 65 57 66 61 67
REMARK SMILES IDX 58 68 60 69 59 70 46 71 47 72 51 73 48 74 50 75 49 76
REMARK H PARENT 18 4 22 25 66 44 44 55
REMARK Flexibility Score: inf
ROOT
ATOM      1  C   UNL A   1      33.628  25.834  23.057  1.00  0.00     0.273 C 
ATOM      2  O   UNL A   1      33.649  26.004  21.829  1.00  0.00    -0.267 OA
ATOM      3  N   UNL A   1      33.854  24.460  23.453  1.00  0.00    -0.351 N 
ATOM      4  H   UNL A   1      33.130  23.822  23.261  1.00  0.00     0.163 HD
ENDROOT
BRANCH   1   5
ATOM      5  C   UNL A   1      32.882  26.963  23.893  1.00  0.00     0.170 A 
ATOM      6  C   UNL A   1      31.612  27.017  24.600  1.00  0.00     0.160 A 
ATOM      7  N   UNL A   1      31.309  28.145  25.326  1.00  0.00    -0.235 NA
ATOM      8  C   UNL A   1      32.159  29.175  25.361  1.00  0.00     0.133 A 
ATOM      9  N   UNL A   1      33.726  28.060  23.942  1.00  0.00    -0.246 NA
ATOM     10  C   UNL A   1      33.345  29.131  24.680  1.00  0.00     0.132 A 
BRANCH   6  11
ATOM     11  N   UNL A   1      30.516  26.177  24.627  1.00  0.00    -0.355 N 
ATOM     12  C   UNL A   1      30.161  25.548  25.917  1.00  0.00     0.145 C 
BRANCH  11  13
ATOM     13  C   UNL A   1      29.429  26.145  23.702  1.00  0.00     0.146 C 
BRANCH  13  14
ATOM     14  C   UNL A   1      29.055  27.566  23.328  1.00  0.00     0.181 C 
BRANCH  14  15
ATOM     15  O   UNL A   1      29.706  28.373  22.310  1.00  0.00    -0.379 OA
BRANCH  15  16
ATOM     16  C   UNL A   1      29.337  29.774  22.187  1.00  0.00     0.163 C 
BRANCH  16  17
ATOM     17  C   UNL A   1      28.543  30.380  23.332  1.00  0.00     0.015 C 
ATOM     18  C   UNL A   1      29.040  31.730  23.854  1.00  0.00     0.006 C 
ATOM     19  C   UNL A   1      27.682  31.645  23.261  1.00  0.00     0.006 C 
ENDBRANCH  16  17
ENDBRANCH  15  16
ENDBRANCH  14  15
ENDBRANCH  13  14
ENDBRANCH  11  13
ENDBRANCH   6  11
ENDBRANCH   1   5
BRANCH   3  20
ATOM     20  C   UNL A   1      35.070  23.908  24.122  1.00  0.00     0.118 C 
BRANCH  20  21
ATOM     21  C   UNL A   1      35.594  22.479  23.988  1.00  0.00     0.042 C 
BRANCH  21  22
ATOM     22  C   UNL A   1      36.023  21.765  25.290  1.00  0.00     0.118 C 
BRANCH  22  23
ATOM     23  N   UNL A   1      37.145  20.824  25.239  1.00  0.00    -0.352 N 
ATOM     24  C   UNL A   1      38.471  20.847  25.666  1.00  0.00     0.251 C 
ATOM     25  H   UNL A   1      36.906  19.977  24.800  1.00  0.00     0.163 HD
ATOM     26  O   UNL A   1      39.128  19.843  25.536  1.00  0.00    -0.269 OA
BRANCH  24  27
ATOM     27  C   UNL A   1      39.118  22.070  26.227  1.00  0.00     0.039 A 
ATOM     28  C   UNL A   1      40.236  21.927  27.069  1.00  0.00     0.014 A 
ATOM     29  C   UNL A   1      38.658  23.348  25.958  1.00  0.00     0.014 A 
ATOM     30  C   UNL A   1      40.934  23.057  27.525  1.00  0.00     0.010 A 
ATOM     31  C   UNL A   1      39.441  24.454  26.264  1.00  0.00     0.010 A 
ATOM     32  C   UNL A   1      40.584  24.334  27.065  1.00  0.00    -0.014 A 
BRANCH  32  33
ATOM     33  C   UNL A   1      41.346  25.569  27.408  1.00  0.00     0.031 A 
ATOM     34  C   UNL A   1      40.729  26.597  28.329  1.00  0.00     0.074 A 
ATOM     35  C   UNL A   1      42.517  25.843  26.796  1.00  0.00     0.049 A 
ATOM     36  N   UNL A   1      41.102  27.829  28.571  1.00  0.00    -0.248 NA
ATOM     37  C   UNL A   1      39.481  26.211  29.013  1.00  0.00     0.031 C 
ATOM     38  C   UNL A   1      43.203  24.978  25.832  1.00  0.00     0.029 A 
ATOM     39  N   UNL A   1      43.334  26.945  26.884  1.00  0.00    -0.354 N 
ATOM     40  C   UNL A   1      40.101  28.375  29.368  1.00  0.00     0.074 A 
ATOM     41  C   UNL A   1      39.075  27.368  29.509  1.00  0.00     0.031 C 
ATOM     42  C   UNL A   1      44.354  25.559  25.455  1.00  0.00     0.029 A 
ATOM     43  C   UNL A   1      44.463  26.860  26.103  1.00  0.00     0.049 A 
ATOM     44  H   UNL A   1      43.129  27.721  27.452  1.00  0.00     0.167 HD
ATOM     45  C   UNL A   1      40.050  29.592  29.961  1.00  0.00     0.031 A 
ATOM     46  C   UNL A   1      45.470  27.735  25.926  1.00  0.00     0.031 A 
ATOM     47  C   UNL A   1      41.111  30.558  29.892  1.00  0.00     0.049 A 
ATOM     48  C   UNL A   1      45.431  29.051  26.651  1.00  0.00     0.074 A 
ATOM     49  C   UNL A   1      41.214  31.776  30.540  1.00  0.00     0.029 A 
ATOM     50  N   UNL A   1      42.269  30.398  29.147  1.00  0.00    -0.354 N 
ATOM     51  N   UNL A   1      44.506  29.527  27.448  1.00  0.00    -0.248 NA
ATOM     52  C   UNL A   1      46.582  29.945  26.461  1.00  0.00     0.031 C 
ATOM     53  C   UNL A   1      42.421  32.369  30.160  1.00  0.00     0.029 A 
ATOM     54  C   UNL A   1      43.090  31.499  29.314  1.00  0.00     0.049 A 
ATOM     55  H   UNL A   1      42.476  29.617  28.584  1.00  0.00     0.167 HD
ATOM     56  C   UNL A   1      44.975  30.762  27.877  1.00  0.00     0.074 A 
ATOM     57  C   UNL A   1      46.273  30.953  27.265  1.00  0.00     0.031 C 
ATOM     58  C   UNL A   1      44.382  31.661  28.702  1.00  0.00     0.031 A 
BRANCH  45  59
ATOM     59  C   UNL A   1      38.816  29.928  30.755  1.00  0.00    -0.014 A 
ATOM     60  C   UNL A   1      37.740  30.624  30.176  1.00  0.00     0.009 A 
ATOM     61  C   UNL A   1      38.719  29.533  32.098  1.00  0.00     0.009 A 
ATOM     62  C   UNL A   1      36.622  30.964  30.938  1.00  0.00     0.001 A 
ATOM     63  C   UNL A   1      37.584  29.844  32.849  1.00  0.00     0.001 A 
ATOM     64  C   UNL A   1      36.542  30.571  32.273  1.00  0.00     0.000 A 
ENDBRANCH  45  59
BRANCH  46  65
ATOM     65  C   UNL A   1      46.624  27.381  25.056  1.00  0.00    -0.014 A 
ATOM     66  C   UNL A   1      47.583  26.456  25.500  1.00  0.00     0.009 A 
ATOM     67  C   UNL A   1      46.778  27.957  23.786  1.00  0.00     0.009 A 
ATOM     68  C   UNL A   1      48.685  26.137  24.703  1.00  0.00     0.001 A 
ATOM     69  C   UNL A   1      47.866  27.614  22.979  1.00  0.00     0.001 A 
ATOM     70  C   UNL A   1      48.824  26.713  23.442  1.00  0.00     0.000 A 
ENDBRANCH  46  65
BRANCH  58  71
ATOM     71  C   UNL A   1      45.153  32.907  29.023  1.00  0.00    -0.014 A 
ATOM     72  C   UNL A   1      45.128  34.019  28.168  1.00  0.00     0.009 A 
ATOM     73  C   UNL A   1      45.872  32.986  30.226  1.00  0.00     0.009 A 
ATOM     74  C   UNL A   1      45.835  35.176  28.497  1.00  0.00     0.001 A 
ATOM     75  C   UNL A   1      46.554  34.154  30.566  1.00  0.00     0.001 A 
ATOM     76  C   UNL A   1      46.543  35.244  29.698  1.00  0.00     0.000 A 
ENDBRANCH  58  71
ENDBRANCH  32  33
ENDBRANCH  24  27
ENDBRANCH  22  23
ENDBRANCH  21  22
ENDBRANCH  20  21
ENDBRANCH   3  20
TORSDOF 16
ENDMDL
