MODEL 1
REMARK VINA RESULT:     -11.6      0.000      0.000
REMARK SMILES [NH3+][C@]1(C(=O)NCCCNC(=O)c2ccc(-c3c4nc(c(-c5ccccc5)c5ccc([nH]5)c(-c5ccccc5)c5nc(c(-c6ccccc6)c6ccc3[nH]6)C=C5)C=C4)cc2)CC[N@H+](Cc2ccccc2O)C1
REMARK SMILES IDX 6 1 5 2 3 3 4 4 2 6 60 7 71 8 61 9 62 10 1 12 63 16 64 17
REMARK SMILES IDX 65 18 69 19 66 20 68 21 67 22 70 23 7 25 8 26 9 27 10 28
REMARK SMILES IDX 11 30 12 31 13 32 59 33 14 34 58 35 15 36 16 37 17 38 52 39
REMARK SMILES IDX 18 40 57 41 51 42 53 43 19 44 56 45 50 46 49 47 20 49 42 50
REMARK SMILES IDX 27 51 41 52 28 53 31 54 40 55 54 56 29 57 30 58 39 60 55 61
REMARK SMILES IDX 32 62 21 63 22 64 26 65 23 66 25 67 24 68 43 69 44 70 48 71
REMARK SMILES IDX 45 72 47 73 46 74 33 75 34 76 38 77 35 78 37 79 36 80
REMARK H PARENT 5 5 62 11 1 13 1 14 1 15 70 24 9 29 53 48 31 59
REMARK Flexibility Score: inf
ROOT
ATOM      1  C   UNL A   1      31.359  30.738  26.387  1.00  0.00     0.118 C 
ENDROOT
BRANCH   1   2
ATOM      2  N   UNL A   1      32.619  30.118  26.754  1.00  0.00    -0.350 N 
ATOM      3  C   UNL A   1      33.485  29.316  26.072  1.00  0.00     0.287 C 
ATOM      4  O   UNL A   1      34.532  29.022  26.665  1.00  0.00    -0.268 OA
ATOM      5  H   UNL A   1      32.902  30.314  27.676  1.00  0.00     0.163 HD
BRANCH   3   6
ATOM      6  C   UNL A   1      33.156  28.659  24.706  1.00  0.00     0.228 C 
ATOM      7  C   UNL A   1      33.722  27.274  24.444  1.00  0.00     0.146 C 
ATOM      8  C   UNL A   1      31.628  28.372  24.611  1.00  0.00     0.342 C 
ATOM      9  C   UNL A   1      32.789  26.654  23.435  1.00  0.00     0.270 C 
ATOM     10  N   UNL A   1      31.473  27.150  23.798  1.00  0.00    -0.325 N 
ATOM     11  H   UNL A   1      31.013  26.462  24.394  1.00  0.00     0.348 HD
BRANCH   6  12
ATOM     12  N   UNL A   1      33.577  29.617  23.644  1.00  0.00    -0.340 N 
ATOM     13  H   UNL A   1      33.069  30.494  23.756  1.00  0.00     0.345 HD
ATOM     14  H   UNL A   1      33.372  29.219  22.727  1.00  0.00     0.345 HD
ATOM     15  H   UNL A   1      34.578  29.792  23.721  1.00  0.00     0.345 HD
ENDBRANCH   6  12
BRANCH  10  16
ATOM     16  C   UNL A   1      30.487  27.177  22.719  1.00  0.00     0.303 C 
BRANCH  16  17
ATOM     17  C   UNL A   1      29.586  28.395  22.661  1.00  0.00     0.048 A 
ATOM     18  C   UNL A   1      28.267  28.266  23.140  1.00  0.00     0.013 A 
ATOM     19  C   UNL A   1      29.987  29.658  22.204  1.00  0.00     0.124 A 
ATOM     20  C   UNL A   1      27.416  29.368  23.226  1.00  0.00     0.001 A 
ATOM     21  C   UNL A   1      29.155  30.770  22.333  1.00  0.00     0.046 A 
ATOM     22  C   UNL A   1      27.871  30.627  22.848  1.00  0.00     0.004 A 
BRANCH  19  23
ATOM     23  O   UNL A   1      31.192  29.906  21.609  1.00  0.00    -0.507 OA
ATOM     24  H   UNL A   1      31.312  29.720  20.698  1.00  0.00     0.293 HD
ENDBRANCH  19  23
ENDBRANCH  16  17
ENDBRANCH  10  16
ENDBRANCH   3   6
ENDBRANCH   1   2
BRANCH   1  25
ATOM     25  C   UNL A   1      31.384  32.255  26.468  1.00  0.00     0.042 C 
BRANCH  25  26
ATOM     26  C   UNL A   1      32.552  32.785  27.290  1.00  0.00     0.118 C 
BRANCH  26  27
ATOM     27  N   UNL A   1      32.404  34.205  27.608  1.00  0.00    -0.352 N 
ATOM     28  C   UNL A   1      32.984  34.972  28.581  1.00  0.00     0.251 C 
ATOM     29  H   UNL A   1      31.782  34.693  27.020  1.00  0.00     0.163 HD
ATOM     30  O   UNL A   1      32.510  36.080  28.848  1.00  0.00    -0.269 OA
BRANCH  28  31
ATOM     31  C   UNL A   1      34.169  34.489  29.314  1.00  0.00     0.039 A 
ATOM     32  C   UNL A   1      34.008  33.922  30.582  1.00  0.00     0.014 A 
ATOM     33  C   UNL A   1      35.445  34.623  28.764  1.00  0.00     0.014 A 
ATOM     34  C   UNL A   1      35.120  33.422  31.260  1.00  0.00     0.010 A 
ATOM     35  C   UNL A   1      36.534  34.037  29.394  1.00  0.00     0.010 A 
ATOM     36  C   UNL A   1      36.384  33.434  30.650  1.00  0.00    -0.014 A 
BRANCH  36  37
ATOM     37  C   UNL A   1      37.563  32.808  31.295  1.00  0.00     0.031 A 
ATOM     38  C   UNL A   1      38.216  31.605  30.672  1.00  0.00     0.074 A 
ATOM     39  C   UNL A   1      37.984  33.271  32.488  1.00  0.00     0.049 A 
ATOM     40  N   UNL A   1      39.199  30.873  31.129  1.00  0.00    -0.248 NA
ATOM     41  C   UNL A   1      37.675  31.146  29.382  1.00  0.00     0.031 C 
ATOM     42  C   UNL A   1      37.395  34.397  33.217  1.00  0.00     0.029 A 
ATOM     43  N   UNL A   1      39.000  32.844  33.302  1.00  0.00    -0.354 N 
ATOM     44  C   UNL A   1      39.378  29.859  30.197  1.00  0.00     0.074 A 
ATOM     45  C   UNL A   1      38.370  30.037  29.176  1.00  0.00     0.031 C 
ATOM     46  C   UNL A   1      38.080  34.590  34.354  1.00  0.00     0.029 A 
ATOM     47  C   UNL A   1      39.122  33.576  34.458  1.00  0.00     0.049 A 
ATOM     48  H   UNL A   1      39.586  32.084  33.081  1.00  0.00     0.167 HD
ATOM     49  C   UNL A   1      40.312  28.878  30.182  1.00  0.00     0.031 A 
ATOM     50  C   UNL A   1      39.972  33.438  35.492  1.00  0.00     0.031 A 
ATOM     51  C   UNL A   1      41.320  28.712  31.194  1.00  0.00     0.049 A 
ATOM     52  C   UNL A   1      40.990  32.334  35.457  1.00  0.00     0.074 A 
ATOM     53  C   UNL A   1      42.355  27.795  31.236  1.00  0.00     0.029 A 
ATOM     54  N   UNL A   1      41.415  29.479  32.345  1.00  0.00    -0.354 N 
ATOM     55  N   UNL A   1      41.199  31.433  34.528  1.00  0.00    -0.248 NA
ATOM     56  C   UNL A   1      41.894  32.234  36.611  1.00  0.00     0.031 C 
ATOM     57  C   UNL A   1      43.043  27.970  32.442  1.00  0.00     0.029 A 
ATOM     58  C   UNL A   1      42.472  29.034  33.121  1.00  0.00     0.049 A 
ATOM     59  H   UNL A   1      40.819  30.227  32.576  1.00  0.00     0.167 HD
ATOM     60  C   UNL A   1      42.268  30.669  34.976  1.00  0.00     0.074 A 
ATOM     61  C   UNL A   1      42.679  31.229  36.247  1.00  0.00     0.031 C 
ATOM     62  C   UNL A   1      42.856  29.599  34.389  1.00  0.00     0.031 A 
BRANCH  49  63
ATOM     63  C   UNL A   1      40.277  27.905  29.036  1.00  0.00    -0.014 A 
ATOM     64  C   UNL A   1      40.973  28.159  27.842  1.00  0.00     0.009 A 
ATOM     65  C   UNL A   1      39.565  26.702  29.162  1.00  0.00     0.009 A 
ATOM     66  C   UNL A   1      40.925  27.246  26.787  1.00  0.00     0.001 A 
ATOM     67  C   UNL A   1      39.543  25.777  28.116  1.00  0.00     0.001 A 
ATOM     68  C   UNL A   1      40.215  26.054  26.926  1.00  0.00     0.000 A 
ENDBRANCH  49  63
BRANCH  50  69
ATOM     69  C   UNL A   1      39.902  34.376  36.643  1.00  0.00    -0.014 A 
ATOM     70  C   UNL A   1      40.589  35.598  36.607  1.00  0.00     0.009 A 
ATOM     71  C   UNL A   1      39.145  34.057  37.781  1.00  0.00     0.009 A 
ATOM     72  C   UNL A   1      40.541  36.470  37.697  1.00  0.00     0.001 A 
ATOM     73  C   UNL A   1      39.075  34.944  38.858  1.00  0.00     0.001 A 
ATOM     74  C   UNL A   1      39.781  36.145  38.819  1.00  0.00     0.000 A 
ENDBRANCH  50  69
BRANCH  62  75
ATOM     75  C   UNL A   1      44.016  28.974  35.112  1.00  0.00    -0.014 A 
ATOM     76  C   UNL A   1      45.329  29.424  34.900  1.00  0.00     0.009 A 
ATOM     77  C   UNL A   1      43.788  27.949  36.042  1.00  0.00     0.009 A 
ATOM     78  C   UNL A   1      46.394  28.835  35.584  1.00  0.00     0.001 A 
ATOM     79  C   UNL A   1      44.851  27.384  36.747  1.00  0.00     0.001 A 
ATOM     80  C   UNL A   1      46.154  27.820  36.510  1.00  0.00     0.000 A 
ENDBRANCH  62  75
ENDBRANCH  36  37
ENDBRANCH  28  31
ENDBRANCH  26  27
ENDBRANCH  25  26
ENDBRANCH   1  25
TORSDOF 14
ENDMDL
MODEL 2
REMARK VINA RESULT:     -11.6      4.558      8.775
REMARK SMILES [NH3+][C@]1(C(=O)NCCCNC(=O)c2ccc(-c3c4nc(c(-c5ccccc5)c5ccc([nH]5)c(-c5ccccc5)c5nc(c(-c6ccccc6)c6ccc3[nH]6)C=C5)C=C4)cc2)CC[N@H+](Cc2ccccc2O)C1
REMARK SMILES IDX 6 1 5 2 3 3 4 4 2 6 60 7 71 8 61 9 62 10 1 12 63 16 64 17
REMARK SMILES IDX 65 18 69 19 66 20 68 21 67 22 70 23 7 25 8 26 9 27 10 28
REMARK SMILES IDX 11 30 12 31 13 32 59 33 14 34 58 35 15 36 16 37 17 38 52 39
REMARK SMILES IDX 18 40 57 41 51 42 53 43 19 44 56 45 50 46 49 47 20 49 42 50
REMARK SMILES IDX 27 51 41 52 28 53 31 54 40 55 54 56 29 57 30 58 39 60 55 61
REMARK SMILES IDX 32 62 21 63 22 64 26 65 23 66 25 67 24 68 43 69 44 70 48 71
REMARK SMILES IDX 45 72 47 73 46 74 33 75 34 76 38 77 35 78 37 79 36 80
REMARK H PARENT 5 5 62 11 1 13 1 14 1 15 70 24 9 29 53 48 31 59
REMARK Flexibility Score: inf
ROOT
ATOM      1  C   UNL A   1      32.663  26.330  26.103  1.00  0.00     0.118 C 
ENDROOT
BRANCH   1   2
ATOM      2  N   UNL A   1      31.731  25.402  26.716  1.00  0.00    -0.350 N 
ATOM      3  C   UNL A   1      31.505  24.070  26.539  1.00  0.00     0.287 C 
ATOM      4  O   UNL A   1      30.673  23.556  27.300  1.00  0.00    -0.268 OA
ATOM      5  H   UNL A   1      31.148  25.817  27.393  1.00  0.00     0.163 HD
BRANCH   3   6
ATOM      6  C   UNL A   1      32.104  23.243  25.371  1.00  0.00     0.228 C 
ATOM      7  C   UNL A   1      33.607  23.027  25.369  1.00  0.00     0.146 C 
ATOM      8  C   UNL A   1      31.598  21.772  25.451  1.00  0.00     0.342 C 
ATOM      9  C   UNL A   1      33.819  21.757  24.585  1.00  0.00     0.270 C 
ATOM     10  N   UNL A   1      32.683  20.919  24.929  1.00  0.00    -0.325 N 
ATOM     11  H   UNL A   1      32.952  20.294  25.690  1.00  0.00     0.348 HD
BRANCH   6  12
ATOM     12  N   UNL A   1      31.654  23.884  24.101  1.00  0.00    -0.340 N 
ATOM     13  H   UNL A   1      32.002  23.347  23.308  1.00  0.00     0.345 HD
ATOM     14  H   UNL A   1      32.019  24.836  24.054  1.00  0.00     0.345 HD
ATOM     15  H   UNL A   1      30.635  23.910  24.076  1.00  0.00     0.345 HD
ENDBRANCH   6  12
BRANCH  10  16
ATOM     16  C   UNL A   1      32.327  19.899  23.944  1.00  0.00     0.303 C 
BRANCH  16  17
ATOM     17  C   UNL A   1      32.883  18.509  24.184  1.00  0.00     0.048 A 
ATOM     18  C   UNL A   1      33.332  17.774  23.069  1.00  0.00     0.013 A 
ATOM     19  C   UNL A   1      33.023  17.918  25.448  1.00  0.00     0.124 A 
ATOM     20  C   UNL A   1      33.960  16.538  23.222  1.00  0.00     0.001 A 
ATOM     21  C   UNL A   1      33.692  16.704  25.606  1.00  0.00     0.046 A 
ATOM     22  C   UNL A   1      34.166  16.016  24.494  1.00  0.00     0.004 A 
BRANCH  19  23
ATOM     23  O   UNL A   1      32.530  18.459  26.602  1.00  0.00    -0.507 OA
ATOM     24  H   UNL A   1      31.851  18.018  27.073  1.00  0.00     0.293 HD
ENDBRANCH  19  23
ENDBRANCH  16  17
ENDBRANCH  10  16
ENDBRANCH   3   6
ENDBRANCH   1   2
BRANCH   1  25
ATOM     25  C   UNL A   1      32.802  27.640  26.860  1.00  0.00     0.042 C 
BRANCH  25  26
ATOM     26  C   UNL A   1      34.013  28.452  26.419  1.00  0.00     0.118 C 
BRANCH  26  27
ATOM     27  N   UNL A   1      33.853  29.879  26.701  1.00  0.00    -0.352 N 
ATOM     28  C   UNL A   1      34.545  30.711  27.538  1.00  0.00     0.251 C 
ATOM     29  H   UNL A   1      33.124  30.315  26.202  1.00  0.00     0.163 HD
ATOM     30  O   UNL A   1      34.069  31.811  27.833  1.00  0.00    -0.269 OA
BRANCH  28  31
ATOM     31  C   UNL A   1      35.851  30.308  28.089  1.00  0.00     0.039 A 
ATOM     32  C   UNL A   1      35.913  29.752  29.370  1.00  0.00     0.014 A 
ATOM     33  C   UNL A   1      37.022  30.508  27.356  1.00  0.00     0.014 A 
ATOM     34  C   UNL A   1      37.141  29.326  29.879  1.00  0.00     0.010 A 
ATOM     35  C   UNL A   1      38.225  29.995  27.820  1.00  0.00     0.010 A 
ATOM     36  C   UNL A   1      38.298  29.403  29.088  1.00  0.00    -0.014 A 
BRANCH  36  37
ATOM     37  C   UNL A   1      39.594  28.856  29.554  1.00  0.00     0.031 A 
ATOM     38  C   UNL A   1      40.466  29.660  30.478  1.00  0.00     0.074 A 
ATOM     39  C   UNL A   1      40.023  27.674  29.071  1.00  0.00     0.049 A 
ATOM     40  N   UNL A   1      41.665  29.387  30.926  1.00  0.00    -0.248 NA
ATOM     41  C   UNL A   1      39.935  30.955  30.936  1.00  0.00     0.031 C 
ATOM     42  C   UNL A   1      39.290  26.827  28.126  1.00  0.00     0.029 A 
ATOM     43  N   UNL A   1      41.185  26.984  29.300  1.00  0.00    -0.354 N 
ATOM     44  C   UNL A   1      42.037  30.481  31.696  1.00  0.00     0.074 A 
ATOM     45  C   UNL A   1      40.963  31.445  31.613  1.00  0.00     0.031 C 
ATOM     46  C   UNL A   1      40.006  25.719  27.882  1.00  0.00     0.029 A 
ATOM     47  C   UNL A   1      41.265  25.798  28.613  1.00  0.00     0.049 A 
ATOM     48  H   UNL A   1      41.895  27.308  29.900  1.00  0.00     0.167 HD
ATOM     49  C   UNL A   1      43.166  30.659  32.423  1.00  0.00     0.031 A 
ATOM     50  C   UNL A   1      42.248  24.880  28.567  1.00  0.00     0.031 A 
ATOM     51  C   UNL A   1      44.227  29.693  32.511  1.00  0.00     0.049 A 
ATOM     52  C   UNL A   1      43.495  25.108  29.373  1.00  0.00     0.074 A 
ATOM     53  C   UNL A   1      45.379  29.746  33.275  1.00  0.00     0.029 A 
ATOM     54  N   UNL A   1      44.267  28.500  31.805  1.00  0.00    -0.354 N 
ATOM     55  N   UNL A   1      43.797  26.111  30.161  1.00  0.00    -0.248 NA
ATOM     56  C   UNL A   1      44.534  24.072  29.287  1.00  0.00     0.031 C 
ATOM     57  C   UNL A   1      46.144  28.610  32.988  1.00  0.00     0.029 A 
ATOM     58  C   UNL A   1      45.440  27.823  32.091  1.00  0.00     0.049 A 
ATOM     59  H   UNL A   1      43.566  28.182  31.192  1.00  0.00     0.167 HD
ATOM     60  C   UNL A   1      45.052  25.820  30.679  1.00  0.00     0.074 A 
ATOM     61  C   UNL A   1      45.442  24.535  30.134  1.00  0.00     0.031 C 
ATOM     62  C   UNL A   1      45.814  26.551  31.528  1.00  0.00     0.031 A 
BRANCH  49  63
ATOM     63  C   UNL A   1      43.309  31.954  33.174  1.00  0.00    -0.014 A 
ATOM     64  C   UNL A   1      43.917  33.076  32.586  1.00  0.00     0.009 A 
ATOM     65  C   UNL A   1      42.799  32.066  34.477  1.00  0.00     0.009 A 
ATOM     66  C   UNL A   1      44.045  34.268  33.300  1.00  0.00     0.001 A 
ATOM     67  C   UNL A   1      42.902  33.269  35.178  1.00  0.00     0.001 A 
ATOM     68  C   UNL A   1      43.533  34.366  34.593  1.00  0.00     0.000 A 
ENDBRANCH  49  63
BRANCH  50  69
ATOM     69  C   UNL A   1      42.089  23.660  27.734  1.00  0.00    -0.014 A 
ATOM     70  C   UNL A   1      41.486  22.511  28.266  1.00  0.00     0.009 A 
ATOM     71  C   UNL A   1      42.535  23.637  26.404  1.00  0.00     0.009 A 
ATOM     72  C   UNL A   1      41.355  21.356  27.492  1.00  0.00     0.001 A 
ATOM     73  C   UNL A   1      42.376  22.491  25.622  1.00  0.00     0.001 A 
ATOM     74  C   UNL A   1      41.796  21.349  26.169  1.00  0.00     0.000 A 
ENDBRANCH  50  69
BRANCH  62  75
ATOM     75  C   UNL A   1      47.140  25.969  31.929  1.00  0.00    -0.014 A 
ATOM     76  C   UNL A   1      48.284  26.155  31.137  1.00  0.00     0.009 A 
ATOM     77  C   UNL A   1      47.253  25.258  33.133  1.00  0.00     0.009 A 
ATOM     78  C   UNL A   1      49.508  25.611  31.529  1.00  0.00     0.001 A 
ATOM     79  C   UNL A   1      48.485  24.742  33.538  1.00  0.00     0.001 A 
ATOM     80  C   UNL A   1      49.609  24.910  32.730  1.00  0.00     0.000 A 
ENDBRANCH  62  75
ENDBRANCH  36  37
ENDBRANCH  28  31
ENDBRANCH  26  27
ENDBRANCH  25  26
ENDBRANCH   1  25
TORSDOF 14
ENDMDL
MODEL 3
REMARK VINA RESULT:     -11.5      0.379      6.082
REMARK SMILES [NH3+][C@]1(C(=O)NCCCNC(=O)c2ccc(-c3c4nc(c(-c5ccccc5)c5ccc([nH]5)c(-c5ccccc5)c5nc(c(-c6ccccc6)c6ccc3[nH]6)C=C5)C=C4)cc2)CC[N@H+](Cc2ccccc2O)C1
REMARK SMILES IDX 6 1 5 2 3 3 4 4 2 6 60 7 71 8 61 9 62 10 1 12 63 16 64 17
REMARK SMILES IDX 65 18 69 19 66 20 68 21 67 22 70 23 7 25 8 26 9 27 10 28
REMARK SMILES IDX 11 30 12 31 13 32 59 33 14 34 58 35 15 36 16 37 17 38 52 39
REMARK SMILES IDX 18 40 57 41 51 42 53 43 19 44 56 45 50 46 49 47 20 49 42 50
REMARK SMILES IDX 27 51 41 52 28 53 31 54 40 55 54 56 29 57 30 58 39 60 55 61
REMARK SMILES IDX 32 62 21 63 22 64 26 65 23 66 25 67 24 68 43 69 44 70 48 71
REMARK SMILES IDX 45 72 47 73 46 74 33 75 34 76 38 77 35 78 37 79 36 80
REMARK H PARENT 5 5 62 11 1 13 1 14 1 15 70 24 9 29 53 48 31 59
REMARK Flexibility Score: inf
ROOT
ATOM      1  C   UNL A   1      31.387  31.103  26.150  1.00  0.00     0.118 C 
ENDROOT
BRANCH   1   2
ATOM      2  N   UNL A   1      32.571  30.415  26.628  1.00  0.00    -0.350 N 
ATOM      3  C   UNL A   1      33.408  29.508  26.048  1.00  0.00     0.287 C 
ATOM      4  O   UNL A   1      34.395  29.176  26.719  1.00  0.00    -0.268 OA
ATOM      5  H   UNL A   1      32.819  30.649  27.552  1.00  0.00     0.163 HD
BRANCH   3   6
ATOM      6  C   UNL A   1      33.103  28.790  24.707  1.00  0.00     0.228 C 
ATOM      7  C   UNL A   1      33.660  27.389  24.524  1.00  0.00     0.146 C 
ATOM      8  C   UNL A   1      31.575  28.514  24.590  1.00  0.00     0.342 C 
ATOM      9  C   UNL A   1      32.744  26.731  23.524  1.00  0.00     0.270 C 
ATOM     10  N   UNL A   1      31.426  27.257  23.831  1.00  0.00    -0.325 N 
ATOM     11  H   UNL A   1      30.944  26.603  24.449  1.00  0.00     0.348 HD
BRANCH   6  12
ATOM     12  N   UNL A   1      33.560  29.693  23.611  1.00  0.00    -0.340 N 
ATOM     13  H   UNL A   1      33.669  29.156  22.752  1.00  0.00     0.345 HD
ATOM     14  H   UNL A   1      34.454  30.113  23.867  1.00  0.00     0.345 HD
ATOM     15  H   UNL A   1      32.869  30.428  23.467  1.00  0.00     0.345 HD
ENDBRANCH   6  12
BRANCH  10  16
ATOM     16  C   UNL A   1      30.465  27.243  22.730  1.00  0.00     0.303 C 
BRANCH  16  17
ATOM     17  C   UNL A   1      29.502  28.412  22.661  1.00  0.00     0.048 A 
ATOM     18  C   UNL A   1      28.187  28.213  23.125  1.00  0.00     0.013 A 
ATOM     19  C   UNL A   1      29.841  29.694  22.208  1.00  0.00     0.124 A 
ATOM     20  C   UNL A   1      27.278  29.269  23.202  1.00  0.00     0.001 A 
ATOM     21  C   UNL A   1      28.950  30.761  22.326  1.00  0.00     0.046 A 
ATOM     22  C   UNL A   1      27.669  30.551  22.828  1.00  0.00     0.004 A 
BRANCH  19  23
ATOM     23  O   UNL A   1      31.038  30.005  21.625  1.00  0.00    -0.507 OA
ATOM     24  H   UNL A   1      31.692  30.464  22.114  1.00  0.00     0.293 HD
ENDBRANCH  19  23
ENDBRANCH  16  17
ENDBRANCH  10  16
ENDBRANCH   3   6
ENDBRANCH   1   2
BRANCH   1  25
ATOM     25  C   UNL A   1      31.358  32.580  26.505  1.00  0.00     0.042 C 
BRANCH  25  26
ATOM     26  C   UNL A   1      32.606  33.033  27.251  1.00  0.00     0.118 C 
BRANCH  26  27
ATOM     27  N   UNL A   1      32.508  34.423  27.697  1.00  0.00    -0.352 N 
ATOM     28  C   UNL A   1      33.094  35.070  28.750  1.00  0.00     0.251 C 
ATOM     29  H   UNL A   1      31.923  34.990  27.144  1.00  0.00     0.163 HD
ATOM     30  O   UNL A   1      32.659  36.169  29.109  1.00  0.00    -0.269 OA
BRANCH  28  31
ATOM     31  C   UNL A   1      34.238  34.471  29.461  1.00  0.00     0.039 A 
ATOM     32  C   UNL A   1      34.025  33.824  30.682  1.00  0.00     0.014 A 
ATOM     33  C   UNL A   1      35.529  34.574  28.939  1.00  0.00     0.014 A 
ATOM     34  C   UNL A   1      35.097  33.215  31.336  1.00  0.00     0.010 A 
ATOM     35  C   UNL A   1      36.574  33.884  29.538  1.00  0.00     0.010 A 
ATOM     36  C   UNL A   1      36.371  33.201  30.744  1.00  0.00    -0.014 A 
BRANCH  36  37
ATOM     37  C   UNL A   1      37.502  32.466  31.356  1.00  0.00     0.031 A 
ATOM     38  C   UNL A   1      38.119  32.956  32.637  1.00  0.00     0.074 A 
ATOM     39  C   UNL A   1      38.030  31.410  30.707  1.00  0.00     0.049 A 
ATOM     40  N   UNL A   1      39.163  32.498  33.277  1.00  0.00    -0.248 NA
ATOM     41  C   UNL A   1      37.499  34.135  33.266  1.00  0.00     0.031 C 
ATOM     42  C   UNL A   1      37.553  30.874  29.430  1.00  0.00     0.029 A 
ATOM     43  N   UNL A   1      39.092  30.604  31.029  1.00  0.00    -0.354 N 
ATOM     44  C   UNL A   1      39.337  33.342  34.367  1.00  0.00     0.074 A 
ATOM     45  C   UNL A   1      38.325  34.371  34.274  1.00  0.00     0.031 C 
ATOM     46  C   UNL A   1      38.300  29.810  29.094  1.00  0.00     0.029 A 
ATOM     47  C   UNL A   1      39.334  29.620  30.103  1.00  0.00     0.049 A 
ATOM     48  H   UNL A   1      39.630  30.721  31.845  1.00  0.00     0.167 HD
ATOM     49  C   UNL A   1      40.247  33.257  35.366  1.00  0.00     0.031 A 
ATOM     50  C   UNL A   1      40.290  28.673  30.066  1.00  0.00     0.031 A 
ATOM     51  C   UNL A   1      41.244  32.225  35.461  1.00  0.00     0.049 A 
ATOM     52  C   UNL A   1      41.295  28.608  31.181  1.00  0.00     0.074 A 
ATOM     53  C   UNL A   1      42.166  32.008  36.469  1.00  0.00     0.029 A 
ATOM     54  N   UNL A   1      41.452  31.241  34.506  1.00  0.00    -0.354 N 
ATOM     55  N   UNL A   1      41.395  29.365  32.247  1.00  0.00    -0.248 NA
ATOM     56  C   UNL A   1      42.314  27.553  31.090  1.00  0.00     0.031 C 
ATOM     57  C   UNL A   1      42.970  30.925  36.098  1.00  0.00     0.029 A 
ATOM     58  C   UNL A   1      42.510  30.433  34.887  1.00  0.00     0.049 A 
ATOM     59  H   UNL A   1      40.926  31.133  33.682  1.00  0.00     0.167 HD
ATOM     60  C   UNL A   1      42.477  28.867  32.962  1.00  0.00     0.074 A 
ATOM     61  C   UNL A   1      42.982  27.730  32.220  1.00  0.00     0.031 C 
ATOM     62  C   UNL A   1      43.005  29.313  34.128  1.00  0.00     0.031 A 
BRANCH  49  63
ATOM     63  C   UNL A   1      40.205  34.316  36.433  1.00  0.00    -0.014 A 
ATOM     64  C   UNL A   1      40.988  35.478  36.339  1.00  0.00     0.009 A 
ATOM     65  C   UNL A   1      39.346  34.166  37.533  1.00  0.00     0.009 A 
ATOM     66  C   UNL A   1      40.939  36.449  37.341  1.00  0.00     0.001 A 
ATOM     67  C   UNL A   1      39.277  35.152  38.519  1.00  0.00     0.001 A 
ATOM     68  C   UNL A   1      40.081  36.288  38.428  1.00  0.00     0.000 A 
ENDBRANCH  49  63
BRANCH  50  69
ATOM     69  C   UNL A   1      40.338  27.707  28.938  1.00  0.00    -0.014 A 
ATOM     70  C   UNL A   1      41.072  28.003  27.780  1.00  0.00     0.009 A 
ATOM     71  C   UNL A   1      39.653  26.485  29.012  1.00  0.00     0.009 A 
ATOM     72  C   UNL A   1      41.099  27.106  26.709  1.00  0.00     0.001 A 
ATOM     73  C   UNL A   1      39.705  25.576  27.952  1.00  0.00     0.001 A 
ATOM     74  C   UNL A   1      40.420  25.892  26.799  1.00  0.00     0.000 A 
ENDBRANCH  50  69
BRANCH  62  75
ATOM     75  C   UNL A   1      44.182  28.558  34.677  1.00  0.00    -0.014 A 
ATOM     76  C   UNL A   1      44.002  27.436  35.502  1.00  0.00     0.009 A 
ATOM     77  C   UNL A   1      45.484  28.953  34.337  1.00  0.00     0.009 A 
ATOM     78  C   UNL A   1      45.108  26.744  36.000  1.00  0.00     0.001 A 
ATOM     79  C   UNL A   1      46.586  28.240  34.810  1.00  0.00     0.001 A 
ATOM     80  C   UNL A   1      46.398  27.143  35.650  1.00  0.00     0.000 A 
ENDBRANCH  62  75
ENDBRANCH  36  37
ENDBRANCH  28  31
ENDBRANCH  26  27
ENDBRANCH  25  26
ENDBRANCH   1  25
TORSDOF 14
ENDMDL
