MODEL 1
REMARK VINA RESULT:     -12.0      0.000      0.000
REMARK SMILES Cc1ccccc1CC(=O)Oc1cccc(C(=O)NCCCNC(=O)c2ccc(-c3c4nc(c(-c5ccccc5)c5ccc([nH]5)c(-c5ccccc5)c5nc(c(-c6ccccc6)c6ccc3[nH]6)C=C5)C=C4)cc2)c1
REMARK SMILES IDX 20 1 19 2 17 3 18 4 16 6 12 7 13 8 74 9 14 10 15 11 11 12
REMARK SMILES IDX 9 13 10 14 8 15 7 16 1 17 2 18 3 19 4 20 6 21 5 22 21 23
REMARK SMILES IDX 22 24 23 25 24 26 25 28 26 29 27 30 73 31 28 32 72 33 29 34
REMARK SMILES IDX 30 35 31 36 66 37 32 38 71 39 65 40 67 41 33 42 70 43 64 44
REMARK SMILES IDX 63 45 34 47 56 48 41 49 55 50 42 51 45 52 54 53 68 54 43 55
REMARK SMILES IDX 44 56 53 58 69 59 46 60 35 61 36 62 40 63 37 64 39 65 38 66
REMARK SMILES IDX 57 67 58 68 62 69 59 70 61 71 60 72 47 73 48 74 52 75 49 76
REMARK SMILES IDX 51 77 50 78
REMARK H PARENT 19 5 23 27 67 46 45 57
REMARK Flexibility Score: inf
ROOT
ATOM      1  C   UNL A   1      36.849  20.816  25.254  1.00  0.00     0.118 C 
ENDROOT
BRANCH   1   2
ATOM      2  N   UNL A   1      36.146  21.809  26.051  1.00  0.00    -0.352 N 
ATOM      3  C   UNL A   1      34.892  22.363  25.946  1.00  0.00     0.251 C 
ATOM      4  O   UNL A   1      34.535  23.110  26.860  1.00  0.00    -0.269 OA
ATOM      5  H   UNL A   1      36.669  22.150  26.813  1.00  0.00     0.163 HD
BRANCH   3   6
ATOM      6  C   UNL A   1      33.946  22.116  24.814  1.00  0.00     0.043 A 
ATOM      7  C   UNL A   1      33.160  22.818  22.628  1.00  0.00     0.131 A 
ATOM      8  C   UNL A   1      32.321  21.711  22.538  1.00  0.00     0.047 A 
ATOM      9  C   UNL A   1      33.984  23.017  23.737  1.00  0.00     0.061 A 
ATOM     10  C   UNL A   1      32.278  20.812  23.592  1.00  0.00     0.005 A 
ATOM     11  C   UNL A   1      33.089  21.013  24.713  1.00  0.00     0.014 A 
BRANCH   7  12
ATOM     12  O   UNL A   1      33.259  23.718  21.563  1.00  0.00    -0.426 OA
BRANCH  12  13
ATOM     13  C   UNL A   1      33.029  25.046  21.911  1.00  0.00     0.315 C 
ATOM     14  O   UNL A   1      33.836  25.968  21.854  1.00  0.00    -0.251 OA
BRANCH  13  15
ATOM     15  C   UNL A   1      31.617  25.202  22.425  1.00  0.00     0.158 C 
BRANCH  15  16
ATOM     16  C   UNL A   1      31.390  26.501  23.162  1.00  0.00    -0.034 A 
ATOM     17  C   UNL A   1      32.038  25.585  25.490  1.00  0.00     0.044 C 
ATOM     18  C   UNL A   1      31.586  26.669  24.548  1.00  0.00    -0.047 A 
ATOM     19  C   UNL A   1      31.343  27.932  25.120  1.00  0.00     0.004 A 
ATOM     20  C   UNL A   1      30.917  29.011  24.347  1.00  0.00     0.000 A 
ATOM     21  C   UNL A   1      30.970  27.609  22.396  1.00  0.00     0.004 A 
ATOM     22  C   UNL A   1      30.730  28.849  22.983  1.00  0.00     0.000 A 
ENDBRANCH  15  16
ENDBRANCH  13  15
ENDBRANCH  12  13
ENDBRANCH   7  12
ENDBRANCH   3   6
ENDBRANCH   1   2
BRANCH   1  23
ATOM     23  C   UNL A   1      38.366  20.971  25.362  1.00  0.00     0.042 C 
BRANCH  23  24
ATOM     24  C   UNL A   1      38.827  22.350  25.805  1.00  0.00     0.118 C 
BRANCH  24  25
ATOM     25  N   UNL A   1      40.248  22.412  26.146  1.00  0.00    -0.352 N 
ATOM     26  C   UNL A   1      40.962  23.493  26.641  1.00  0.00     0.251 C 
ATOM     27  H   UNL A   1      40.760  21.583  26.008  1.00  0.00     0.163 HD
ATOM     28  O   UNL A   1      42.142  23.399  26.924  1.00  0.00    -0.269 OA
BRANCH  26  29
ATOM     29  C   UNL A   1      40.209  24.732  26.935  1.00  0.00     0.039 A 
ATOM     30  C   UNL A   1      40.599  25.887  26.255  1.00  0.00     0.014 A 
ATOM     31  C   UNL A   1      39.409  24.797  28.074  1.00  0.00     0.014 A 
ATOM     32  C   UNL A   1      40.419  27.116  26.874  1.00  0.00     0.010 A 
ATOM     33  C   UNL A   1      39.313  26.008  28.731  1.00  0.00     0.010 A 
ATOM     34  C   UNL A   1      39.901  27.148  28.168  1.00  0.00    -0.014 A 
BRANCH  34  35
ATOM     35  C   UNL A   1      40.111  28.280  29.063  1.00  0.00     0.031 A 
ATOM     36  C   UNL A   1      39.085  29.327  29.207  1.00  0.00     0.074 A 
ATOM     37  C   UNL A   1      41.248  28.355  29.792  1.00  0.00     0.049 A 
ATOM     38  N   UNL A   1      39.324  30.504  29.680  1.00  0.00    -0.248 NA
ATOM     39  C   UNL A   1      37.716  29.164  28.730  1.00  0.00     0.031 C 
ATOM     40  C   UNL A   1      41.536  29.241  30.916  1.00  0.00     0.029 A 
ATOM     41  N   UNL A   1      42.485  27.790  29.470  1.00  0.00    -0.354 N 
ATOM     42  C   UNL A   1      38.116  31.127  29.857  1.00  0.00     0.074 A 
ATOM     43  C   UNL A   1      37.172  30.320  29.123  1.00  0.00     0.031 C 
ATOM     44  C   UNL A   1      42.866  29.378  31.028  1.00  0.00     0.029 A 
ATOM     45  C   UNL A   1      43.470  28.708  29.889  1.00  0.00     0.049 A 
ATOM     46  H   UNL A   1      42.639  26.920  29.036  1.00  0.00     0.167 HD
ATOM     47  C   UNL A   1      38.039  32.181  30.717  1.00  0.00     0.031 A 
ATOM     48  C   UNL A   1      44.300  29.299  28.981  1.00  0.00     0.031 A 
ATOM     49  C   UNL A   1      39.365  32.681  31.094  1.00  0.00     0.049 A 
ATOM     50  C   UNL A   1      44.163  30.807  28.886  1.00  0.00     0.074 A 
ATOM     51  C   UNL A   1      40.124  32.687  32.254  1.00  0.00     0.029 A 
ATOM     52  N   UNL A   1      40.220  33.091  30.081  1.00  0.00    -0.354 N 
ATOM     53  N   UNL A   1      43.313  31.522  29.571  1.00  0.00    -0.248 NA
ATOM     54  C   UNL A   1      44.911  31.616  27.920  1.00  0.00     0.031 C 
ATOM     55  C   UNL A   1      41.451  33.092  31.914  1.00  0.00     0.029 A 
ATOM     56  C   UNL A   1      41.489  33.352  30.558  1.00  0.00     0.049 A 
ATOM     57  H   UNL A   1      39.955  33.184  29.138  1.00  0.00     0.167 HD
ATOM     58  C   UNL A   1      43.348  32.819  29.134  1.00  0.00     0.074 A 
ATOM     59  C   UNL A   1      44.367  32.832  28.101  1.00  0.00     0.031 C 
ATOM     60  C   UNL A   1      42.506  33.782  29.612  1.00  0.00     0.031 A 
BRANCH  47  61
ATOM     61  C   UNL A   1      36.753  32.653  31.363  1.00  0.00    -0.014 A 
ATOM     62  C   UNL A   1      35.898  33.517  30.656  1.00  0.00     0.009 A 
ATOM     63  C   UNL A   1      36.370  32.377  32.689  1.00  0.00     0.009 A 
ATOM     64  C   UNL A   1      34.761  34.092  31.248  1.00  0.00     0.001 A 
ATOM     65  C   UNL A   1      35.229  32.931  33.284  1.00  0.00     0.001 A 
ATOM     66  C   UNL A   1      34.428  33.800  32.565  1.00  0.00     0.000 A 
ENDBRANCH  47  61
BRANCH  48  67
ATOM     67  C   UNL A   1      44.665  28.401  27.848  1.00  0.00    -0.014 A 
ATOM     68  C   UNL A   1      45.494  27.292  28.117  1.00  0.00     0.009 A 
ATOM     69  C   UNL A   1      43.956  28.427  26.641  1.00  0.00     0.009 A 
ATOM     70  C   UNL A   1      45.519  26.190  27.259  1.00  0.00     0.001 A 
ATOM     71  C   UNL A   1      43.995  27.328  25.775  1.00  0.00     0.001 A 
ATOM     72  C   UNL A   1      44.746  26.197  26.102  1.00  0.00     0.000 A 
ENDBRANCH  48  67
BRANCH  60  73
ATOM     73  C   UNL A   1      42.538  35.222  29.174  1.00  0.00    -0.014 A 
ATOM     74  C   UNL A   1      41.864  35.690  28.038  1.00  0.00     0.009 A 
ATOM     75  C   UNL A   1      43.368  36.144  29.847  1.00  0.00     0.009 A 
ATOM     76  C   UNL A   1      41.960  37.029  27.635  1.00  0.00     0.001 A 
ATOM     77  C   UNL A   1      43.487  37.473  29.436  1.00  0.00     0.001 A 
ATOM     78  C   UNL A   1      42.771  37.920  28.334  1.00  0.00     0.000 A 
ENDBRANCH  60  73
ENDBRANCH  34  35
ENDBRANCH  26  29
ENDBRANCH  24  25
ENDBRANCH  23  24
ENDBRANCH   1  23
TORSDOF 14
ENDMDL
MODEL 2
REMARK VINA RESULT:     -12.0      3.400      8.763
REMARK SMILES Cc1ccccc1CC(=O)Oc1cccc(C(=O)NCCCNC(=O)c2ccc(-c3c4nc(c(-c5ccccc5)c5ccc([nH]5)c(-c5ccccc5)c5nc(c(-c6ccccc6)c6ccc3[nH]6)C=C5)C=C4)cc2)c1
REMARK SMILES IDX 20 1 19 2 17 3 18 4 16 6 12 7 13 8 74 9 14 10 15 11 11 12
REMARK SMILES IDX 9 13 10 14 8 15 7 16 1 17 2 18 3 19 4 20 6 21 5 22 21 23
REMARK SMILES IDX 22 24 23 25 24 26 25 28 26 29 27 30 73 31 28 32 72 33 29 34
REMARK SMILES IDX 30 35 31 36 66 37 32 38 71 39 65 40 67 41 33 42 70 43 64 44
REMARK SMILES IDX 63 45 34 47 56 48 41 49 55 50 42 51 45 52 54 53 68 54 43 55
REMARK SMILES IDX 44 56 53 58 69 59 46 60 35 61 36 62 40 63 37 64 39 65 38 66
REMARK SMILES IDX 57 67 58 68 62 69 59 70 61 71 60 72 47 73 48 74 52 75 49 76
REMARK SMILES IDX 51 77 50 78
REMARK H PARENT 19 5 23 27 67 46 45 57
REMARK Flexibility Score: inf
ROOT
ATOM      1  C   UNL A   1      31.790  30.668  26.092  1.00  0.00     0.118 C 
ENDROOT
BRANCH   1   2
ATOM      2  N   UNL A   1      32.794  30.017  25.267  1.00  0.00    -0.352 N 
ATOM      3  C   UNL A   1      32.781  28.850  24.539  1.00  0.00     0.251 C 
ATOM      4  O   UNL A   1      33.768  28.620  23.837  1.00  0.00    -0.269 OA
ATOM      5  H   UNL A   1      33.648  30.505  25.219  1.00  0.00     0.163 HD
BRANCH   3   6
ATOM      6  C   UNL A   1      31.658  27.861  24.541  1.00  0.00     0.043 A 
ATOM      7  C   UNL A   1      30.599  25.986  25.661  1.00  0.00     0.131 A 
ATOM      8  C   UNL A   1      29.534  26.010  24.764  1.00  0.00     0.047 A 
ATOM      9  C   UNL A   1      31.643  26.910  25.574  1.00  0.00     0.061 A 
ATOM     10  C   UNL A   1      29.536  26.948  23.743  1.00  0.00     0.005 A 
ATOM     11  C   UNL A   1      30.586  27.865  23.640  1.00  0.00     0.014 A 
BRANCH   7  12
ATOM     12  O   UNL A   1      30.604  25.083  26.727  1.00  0.00    -0.426 OA
BRANCH  12  13
ATOM     13  C   UNL A   1      31.096  23.821  26.408  1.00  0.00     0.315 C 
ATOM     14  O   UNL A   1      30.468  22.897  25.901  1.00  0.00    -0.251 OA
BRANCH  13  15
ATOM     15  C   UNL A   1      32.546  23.720  26.818  1.00  0.00     0.158 C 
BRANCH  15  16
ATOM     16  C   UNL A   1      33.467  23.368  25.673  1.00  0.00    -0.034 A 
ATOM     17  C   UNL A   1      33.471  20.825  26.124  1.00  0.00     0.044 C 
ATOM     18  C   UNL A   1      33.878  22.056  25.361  1.00  0.00    -0.047 A 
ATOM     19  C   UNL A   1      34.739  21.857  24.265  1.00  0.00     0.004 A 
ATOM     20  C   UNL A   1      35.186  22.923  23.487  1.00  0.00     0.000 A 
ATOM     21  C   UNL A   1      33.923  24.434  24.865  1.00  0.00     0.004 A 
ATOM     22  C   UNL A   1      34.777  24.214  23.788  1.00  0.00     0.000 A 
ENDBRANCH  15  16
ENDBRANCH  13  15
ENDBRANCH  12  13
ENDBRANCH   7  12
ENDBRANCH   3   6
ENDBRANCH   1   2
BRANCH   1  23
ATOM     23  C   UNL A   1      32.420  31.424  27.263  1.00  0.00     0.042 C 
BRANCH  23  24
ATOM     24  C   UNL A   1      33.826  30.971  27.620  1.00  0.00     0.118 C 
BRANCH  24  25
ATOM     25  N   UNL A   1      34.451  31.771  28.672  1.00  0.00    -0.352 N 
ATOM     26  C   UNL A   1      35.617  31.502  29.374  1.00  0.00     0.251 C 
ATOM     27  H   UNL A   1      33.987  32.606  28.912  1.00  0.00     0.163 HD
ATOM     28  O   UNL A   1      36.053  32.277  30.203  1.00  0.00    -0.269 OA
BRANCH  26  29
ATOM     29  C   UNL A   1      36.383  30.296  28.986  1.00  0.00     0.039 A 
ATOM     30  C   UNL A   1      36.596  29.336  29.977  1.00  0.00     0.014 A 
ATOM     31  C   UNL A   1      37.134  30.306  27.814  1.00  0.00     0.014 A 
ATOM     32  C   UNL A   1      37.744  28.559  29.914  1.00  0.00     0.010 A 
ATOM     33  C   UNL A   1      38.322  29.601  27.797  1.00  0.00     0.010 A 
ATOM     34  C   UNL A   1      38.664  28.799  28.893  1.00  0.00    -0.014 A 
BRANCH  34  35
ATOM     35  C   UNL A   1      40.064  28.404  28.998  1.00  0.00     0.031 A 
ATOM     36  C   UNL A   1      40.516  27.094  28.501  1.00  0.00     0.074 A 
ATOM     37  C   UNL A   1      40.964  29.263  29.531  1.00  0.00     0.049 A 
ATOM     38  N   UNL A   1      41.621  26.533  28.863  1.00  0.00    -0.248 NA
ATOM     39  C   UNL A   1      39.703  26.256  27.627  1.00  0.00     0.031 C 
ATOM     40  C   UNL A   1      42.420  29.176  29.490  1.00  0.00     0.029 A 
ATOM     41  N   UNL A   1      40.703  30.277  30.457  1.00  0.00    -0.354 N 
ATOM     42  C   UNL A   1      41.809  25.441  28.056  1.00  0.00     0.074 A 
ATOM     43  C   UNL A   1      40.534  25.231  27.414  1.00  0.00     0.031 C 
ATOM     44  C   UNL A   1      42.924  29.881  30.514  1.00  0.00     0.029 A 
ATOM     45  C   UNL A   1      41.806  30.317  31.333  1.00  0.00     0.049 A 
ATOM     46  H   UNL A   1      39.904  30.852  30.489  1.00  0.00     0.167 HD
ATOM     47  C   UNL A   1      43.064  24.926  27.928  1.00  0.00     0.031 A 
ATOM     48  C   UNL A   1      41.649  30.037  32.660  1.00  0.00     0.031 A 
ATOM     49  C   UNL A   1      43.982  25.456  28.942  1.00  0.00     0.049 A 
ATOM     50  C   UNL A   1      42.407  28.814  33.142  1.00  0.00     0.074 A 
ATOM     51  C   UNL A   1      45.081  26.300  28.933  1.00  0.00     0.029 A 
ATOM     52  N   UNL A   1      43.646  25.287  30.278  1.00  0.00    -0.354 N 
ATOM     53  N   UNL A   1      43.134  28.041  32.383  1.00  0.00    -0.248 NA
ATOM     54  C   UNL A   1      42.310  28.307  34.513  1.00  0.00     0.031 C 
ATOM     55  C   UNL A   1      45.387  26.646  30.285  1.00  0.00     0.029 A 
ATOM     56  C   UNL A   1      44.491  25.994  31.110  1.00  0.00     0.049 A 
ATOM     57  H   UNL A   1      42.899  24.730  30.593  1.00  0.00     0.167 HD
ATOM     58  C   UNL A   1      43.549  26.951  33.101  1.00  0.00     0.074 A 
ATOM     59  C   UNL A   1      43.011  27.162  34.433  1.00  0.00     0.031 C 
ATOM     60  C   UNL A   1      44.259  25.928  32.544  1.00  0.00     0.031 A 
BRANCH  47  61
ATOM     61  C   UNL A   1      43.511  24.068  26.763  1.00  0.00    -0.014 A 
ATOM     62  C   UNL A   1      43.407  22.668  26.852  1.00  0.00     0.009 A 
ATOM     63  C   UNL A   1      44.135  24.553  25.599  1.00  0.00     0.009 A 
ATOM     64  C   UNL A   1      43.925  21.815  25.863  1.00  0.00     0.001 A 
ATOM     65  C   UNL A   1      44.639  23.712  24.597  1.00  0.00     0.001 A 
ATOM     66  C   UNL A   1      44.544  22.339  24.736  1.00  0.00     0.000 A 
ENDBRANCH  47  61
BRANCH  48  67
ATOM     67  C   UNL A   1      40.345  30.506  33.209  1.00  0.00    -0.014 A 
ATOM     68  C   UNL A   1      40.160  31.891  33.396  1.00  0.00     0.009 A 
ATOM     69  C   UNL A   1      39.219  29.675  33.218  1.00  0.00     0.009 A 
ATOM     70  C   UNL A   1      38.878  32.441  33.470  1.00  0.00     0.001 A 
ATOM     71  C   UNL A   1      37.935  30.227  33.308  1.00  0.00     0.001 A 
ATOM     72  C   UNL A   1      37.764  31.610  33.397  1.00  0.00     0.000 A 
ENDBRANCH  48  67
BRANCH  60  73
ATOM     73  C   UNL A   1      44.754  24.730  33.311  1.00  0.00    -0.014 A 
ATOM     74  C   UNL A   1      46.094  24.565  33.687  1.00  0.00     0.009 A 
ATOM     75  C   UNL A   1      43.880  23.655  33.578  1.00  0.00     0.009 A 
ATOM     76  C   UNL A   1      46.525  23.411  34.356  1.00  0.00     0.001 A 
ATOM     77  C   UNL A   1      44.309  22.493  34.224  1.00  0.00     0.001 A 
ATOM     78  C   UNL A   1      45.633  22.377  34.625  1.00  0.00     0.000 A 
ENDBRANCH  60  73
ENDBRANCH  34  35
ENDBRANCH  26  29
ENDBRANCH  24  25
ENDBRANCH  23  24
ENDBRANCH   1  23
TORSDOF 14
ENDMDL
MODEL 3
REMARK VINA RESULT:     -11.8      1.427      1.910
REMARK SMILES Cc1ccccc1CC(=O)Oc1cccc(C(=O)NCCCNC(=O)c2ccc(-c3c4nc(c(-c5ccccc5)c5ccc([nH]5)c(-c5ccccc5)c5nc(c(-c6ccccc6)c6ccc3[nH]6)C=C5)C=C4)cc2)c1
REMARK SMILES IDX 20 1 19 2 17 3 18 4 16 6 12 7 13 8 74 9 14 10 15 11 11 12
REMARK SMILES IDX 9 13 10 14 8 15 7 16 1 17 2 18 3 19 4 20 6 21 5 22 21 23
REMARK SMILES IDX 22 24 23 25 24 26 25 28 26 29 27 30 73 31 28 32 72 33 29 34
REMARK SMILES IDX 30 35 31 36 66 37 32 38 71 39 65 40 67 41 33 42 70 43 64 44
REMARK SMILES IDX 63 45 34 47 56 48 41 49 55 50 42 51 45 52 54 53 68 54 43 55
REMARK SMILES IDX 44 56 53 58 69 59 46 60 35 61 36 62 40 63 37 64 39 65 38 66
REMARK SMILES IDX 57 67 58 68 62 69 59 70 61 71 60 72 47 73 48 74 52 75 49 76
REMARK SMILES IDX 51 77 50 78
REMARK H PARENT 19 5 23 27 67 46 45 57
REMARK Flexibility Score: inf
ROOT
ATOM      1  C   UNL A   1      37.784  22.648  25.736  1.00  0.00     0.118 C 
ENDROOT
BRANCH   1   2
ATOM      2  N   UNL A   1      37.345  22.878  24.368  1.00  0.00    -0.352 N 
ATOM      3  C   UNL A   1      36.144  22.666  23.733  1.00  0.00     0.251 C 
ATOM      4  O   UNL A   1      36.047  23.078  22.575  1.00  0.00    -0.269 OA
ATOM      5  H   UNL A   1      38.041  23.260  23.786  1.00  0.00     0.163 HD
BRANCH   3   6
ATOM      6  C   UNL A   1      34.965  21.984  24.350  1.00  0.00     0.043 A 
ATOM      7  C   UNL A   1      32.629  22.140  24.994  1.00  0.00     0.131 A 
ATOM      8  C   UNL A   1      32.610  20.799  25.369  1.00  0.00     0.047 A 
ATOM      9  C   UNL A   1      33.780  22.730  24.468  1.00  0.00     0.061 A 
ATOM     10  C   UNL A   1      33.771  20.052  25.253  1.00  0.00     0.005 A 
ATOM     11  C   UNL A   1      34.932  20.640  24.743  1.00  0.00     0.014 A 
BRANCH   7  12
ATOM     12  O   UNL A   1      31.464  22.908  25.056  1.00  0.00    -0.426 OA
BRANCH  12  13
ATOM     13  C   UNL A   1      31.491  23.914  26.017  1.00  0.00     0.315 C 
ATOM     14  O   UNL A   1      31.719  23.777  27.214  1.00  0.00    -0.251 OA
BRANCH  13  15
ATOM     15  C   UNL A   1      31.152  25.240  25.378  1.00  0.00     0.158 C 
BRANCH  15  16
ATOM     16  C   UNL A   1      31.891  26.406  25.994  1.00  0.00    -0.034 A 
ATOM     17  C   UNL A   1      34.027  26.130  24.568  1.00  0.00     0.044 C 
ATOM     18  C   UNL A   1      33.190  26.806  25.619  1.00  0.00    -0.047 A 
ATOM     19  C   UNL A   1      33.772  27.913  26.267  1.00  0.00     0.004 A 
ATOM     20  C   UNL A   1      33.093  28.615  27.260  1.00  0.00     0.000 A 
ATOM     21  C   UNL A   1      31.215  27.138  26.994  1.00  0.00     0.004 A 
ATOM     22  C   UNL A   1      31.812  28.227  27.625  1.00  0.00     0.000 A 
ENDBRANCH  15  16
ENDBRANCH  13  15
ENDBRANCH  12  13
ENDBRANCH   7  12
ENDBRANCH   3   6
ENDBRANCH   1   2
BRANCH   1  23
ATOM     23  C   UNL A   1      38.960  21.674  25.798  1.00  0.00     0.042 C 
BRANCH  23  24
ATOM     24  C   UNL A   1      39.973  21.980  26.888  1.00  0.00     0.118 C 
BRANCH  24  25
ATOM     25  N   UNL A   1      41.251  22.478  26.379  1.00  0.00    -0.352 N 
ATOM     26  C   UNL A   1      41.657  23.795  26.227  1.00  0.00     0.251 C 
ATOM     27  H   UNL A   1      41.905  21.791  26.112  1.00  0.00     0.163 HD
ATOM     28  O   UNL A   1      42.772  24.075  25.826  1.00  0.00    -0.269 OA
BRANCH  26  29
ATOM     29  C   UNL A   1      40.731  24.852  26.691  1.00  0.00     0.039 A 
ATOM     30  C   UNL A   1      40.754  26.063  25.997  1.00  0.00     0.014 A 
ATOM     31  C   UNL A   1      40.147  24.750  27.951  1.00  0.00     0.014 A 
ATOM     32  C   UNL A   1      40.440  27.228  26.683  1.00  0.00     0.010 A 
ATOM     33  C   UNL A   1      39.924  25.914  28.660  1.00  0.00     0.010 A 
ATOM     34  C   UNL A   1      40.161  27.151  28.047  1.00  0.00    -0.014 A 
BRANCH  34  35
ATOM     35  C   UNL A   1      40.289  28.302  28.935  1.00  0.00     0.031 A 
ATOM     36  C   UNL A   1      39.233  29.324  29.000  1.00  0.00     0.074 A 
ATOM     37  C   UNL A   1      41.380  28.416  29.729  1.00  0.00     0.049 A 
ATOM     38  N   UNL A   1      39.415  30.514  29.468  1.00  0.00    -0.248 NA
ATOM     39  C   UNL A   1      37.899  29.121  28.446  1.00  0.00     0.031 C 
ATOM     40  C   UNL A   1      41.579  29.324  30.854  1.00  0.00     0.029 A 
ATOM     41  N   UNL A   1      42.647  27.876  29.490  1.00  0.00    -0.354 N 
ATOM     42  C   UNL A   1      38.184  31.110  29.562  1.00  0.00     0.074 A 
ATOM     43  C   UNL A   1      37.305  30.269  28.787  1.00  0.00     0.031 C 
ATOM     44  C   UNL A   1      42.896  29.496  31.042  1.00  0.00     0.029 A 
ATOM     45  C   UNL A   1      43.582  28.824  29.952  1.00  0.00     0.049 A 
ATOM     46  H   UNL A   1      42.846  27.003  29.080  1.00  0.00     0.167 HD
ATOM     47  C   UNL A   1      38.031  32.174  30.399  1.00  0.00     0.031 A 
ATOM     48  C   UNL A   1      44.451  29.421  29.085  1.00  0.00     0.031 A 
ATOM     49  C   UNL A   1      39.320  32.712  30.847  1.00  0.00     0.049 A 
ATOM     50  C   UNL A   1      44.284  30.925  28.958  1.00  0.00     0.074 A 
ATOM     51  C   UNL A   1      40.007  32.754  32.049  1.00  0.00     0.029 A 
ATOM     52  N   UNL A   1      40.224  33.128  29.879  1.00  0.00    -0.354 N 
ATOM     53  N   UNL A   1      43.378  31.628  29.579  1.00  0.00    -0.248 NA
ATOM     54  C   UNL A   1      45.069  31.737  28.025  1.00  0.00     0.031 C 
ATOM     55  C   UNL A   1      41.342  33.186  31.783  1.00  0.00     0.029 A 
ATOM     56  C   UNL A   1      41.456  33.427  30.427  1.00  0.00     0.049 A 
ATOM     57  H   UNL A   1      40.013  33.201  28.921  1.00  0.00     0.167 HD
ATOM     58  C   UNL A   1      43.408  32.920  29.124  1.00  0.00     0.074 A 
ATOM     59  C   UNL A   1      44.486  32.942  28.153  1.00  0.00     0.031 C 
ATOM     60  C   UNL A   1      42.517  33.868  29.536  1.00  0.00     0.031 A 
BRANCH  47  61
ATOM     61  C   UNL A   1      36.698  32.623  30.960  1.00  0.00    -0.014 A 
ATOM     62  C   UNL A   1      35.971  33.630  30.300  1.00  0.00     0.009 A 
ATOM     63  C   UNL A   1      36.147  32.182  32.178  1.00  0.00     0.009 A 
ATOM     64  C   UNL A   1      34.797  34.181  30.840  1.00  0.00     0.001 A 
ATOM     65  C   UNL A   1      34.967  32.711  32.717  1.00  0.00     0.001 A 
ATOM     66  C   UNL A   1      34.296  33.722  32.051  1.00  0.00     0.000 A 
ENDBRANCH  47  61
BRANCH  48  67
ATOM     67  C   UNL A   1      44.904  28.516  27.990  1.00  0.00    -0.014 A 
ATOM     68  C   UNL A   1      43.998  28.219  26.953  1.00  0.00     0.009 A 
ATOM     69  C   UNL A   1      46.262  28.243  27.789  1.00  0.00     0.009 A 
ATOM     70  C   UNL A   1      44.451  27.774  25.709  1.00  0.00     0.001 A 
ATOM     71  C   UNL A   1      46.713  27.781  26.546  1.00  0.00     0.001 A 
ATOM     72  C   UNL A   1      45.813  27.582  25.498  1.00  0.00     0.000 A 
ENDBRANCH  48  67
BRANCH  60  73
ATOM     73  C   UNL A   1      42.541  35.302  29.078  1.00  0.00    -0.014 A 
ATOM     74  C   UNL A   1      41.894  35.743  27.915  1.00  0.00     0.009 A 
ATOM     75  C   UNL A   1      43.336  36.246  29.761  1.00  0.00     0.009 A 
ATOM     76  C   UNL A   1      41.983  37.077  27.495  1.00  0.00     0.001 A 
ATOM     77  C   UNL A   1      43.448  37.571  29.333  1.00  0.00     0.001 A 
ATOM     78  C   UNL A   1      42.759  37.990  28.204  1.00  0.00     0.000 A 
ENDBRANCH  60  73
ENDBRANCH  34  35
ENDBRANCH  26  29
ENDBRANCH  24  25
ENDBRANCH  23  24
ENDBRANCH   1  23
TORSDOF 14
ENDMDL
