MODEL 1
REMARK VINA RESULT:     -11.1      0.000      0.000
REMARK SMILES Cc1csc([C@H](C)Nc2cc(C)c(N)c(C(=O)NCCCNC(=O)c3ccc(-c4c5nc(c(-c6ccccc6)c6ccc([nH]6)c(-c6ccccc6)c6nc(c(-c7ccccc7)c7ccc4[nH]7)C=C6)C=C5)cc3)c2)n1
REMARK SMILES IDX 19 1 18 2 16 3 17 4 15 6 9 7 10 8 73 9 11 10 12 11 13 12
REMARK SMILES IDX 8 13 6 15 7 16 5 17 1 18 2 19 3 20 74 21 4 22 14 23 20 26
REMARK SMILES IDX 21 27 22 28 23 29 24 31 25 32 26 33 72 34 27 35 71 36 28 37
REMARK SMILES IDX 29 38 30 39 65 40 31 41 70 42 64 43 66 44 32 45 69 46 63 47
REMARK SMILES IDX 62 48 33 50 55 51 40 52 54 53 41 54 44 55 53 56 67 57 42 58
REMARK SMILES IDX 43 59 52 61 68 62 45 63 34 64 35 65 39 66 36 67 38 68 37 69
REMARK SMILES IDX 56 70 57 71 61 72 58 73 60 74 59 75 46 76 47 77 51 78 48 79
REMARK SMILES IDX 50 80 49 81
REMARK H PARENT 18 5 8 14 14 24 14 25 22 30 66 49 44 60
REMARK Flexibility Score: inf
ROOT
ATOM      1  C   UNL A   1      33.827  29.143  24.972  1.00  0.00     0.118 C 
ENDROOT
BRANCH   1   2
ATOM      2  N   UNL A   1      34.050  28.652  23.624  1.00  0.00    -0.352 N 
ATOM      3  C   UNL A   1      33.299  27.903  22.750  1.00  0.00     0.253 C 
ATOM      4  O   UNL A   1      33.827  27.670  21.658  1.00  0.00    -0.269 OA
ATOM      5  H   UNL A   1      34.927  28.911  23.257  1.00  0.00     0.163 HD
BRANCH   3   6
ATOM      6  C   UNL A   1      31.913  27.397  23.031  1.00  0.00     0.065 A 
ATOM      7  C   UNL A   1      30.404  25.609  23.762  1.00  0.00     0.036 A 
ATOM      8  C   UNL A   1      29.324  26.470  23.612  1.00  0.00     0.031 A 
ATOM      9  C   UNL A   1      31.680  26.084  23.455  1.00  0.00     0.041 A 
ATOM     10  C   UNL A   1      29.501  27.778  23.123  1.00  0.00    -0.025 A 
ATOM     11  C   UNL A   1      28.289  28.656  22.956  1.00  0.00     0.046 C 
ATOM     12  C   UNL A   1      30.798  28.248  22.812  1.00  0.00     0.047 A 
BRANCH   7  13
ATOM     13  N   UNL A   1      30.312  24.376  24.394  1.00  0.00    -0.376 N 
ATOM     14  H   UNL A   1      29.620  23.741  24.098  1.00  0.00     0.161 HD
BRANCH  13  15
ATOM     15  C   UNL A   1      31.211  23.987  25.491  1.00  0.00     0.135 C 
ATOM     16  C   UNL A   1      30.290  23.668  26.679  1.00  0.00     0.039 C 
BRANCH  15  17
ATOM     17  C   UNL A   1      32.133  22.820  25.136  1.00  0.00     0.115 A 
ATOM     18  C   UNL A   1      32.575  19.255  24.796  1.00  0.00     0.067 C 
ATOM     19  C   UNL A   1      32.805  20.722  24.812  1.00  0.00     0.049 A 
ATOM     20  C   UNL A   1      33.956  21.380  24.431  1.00  0.00     0.090 A 
ATOM     21  N   UNL A   1      31.780  21.551  25.239  1.00  0.00    -0.244 NA
ATOM     22  S   UNL A   1      33.725  23.072  24.524  1.00  0.00    -0.125 S 
ENDBRANCH  15  17
ENDBRANCH  13  15
ENDBRANCH   7  13
BRANCH  12  23
ATOM     23  N   UNL A   1      30.971  29.593  22.457  1.00  0.00    -0.398 N 
ATOM     24  H   UNL A   1      31.712  30.113  22.844  1.00  0.00     0.156 HD
ATOM     25  H   UNL A   1      30.350  30.017  21.821  1.00  0.00     0.156 HD
ENDBRANCH  12  23
ENDBRANCH   3   6
ENDBRANCH   1   2
BRANCH   1  26
ATOM     26  C   UNL A   1      34.029  28.029  26.003  1.00  0.00     0.042 C 
BRANCH  26  27
ATOM     27  C   UNL A   1      33.547  28.402  27.403  1.00  0.00     0.118 C 
BRANCH  27  28
ATOM     28  N   UNL A   1      33.510  29.844  27.599  1.00  0.00    -0.352 N 
ATOM     29  C   UNL A   1      34.448  30.687  28.140  1.00  0.00     0.251 C 
ATOM     30  H   UNL A   1      32.683  30.283  27.295  1.00  0.00     0.163 HD
ATOM     31  O   UNL A   1      34.132  31.840  28.421  1.00  0.00    -0.269 OA
BRANCH  29  32
ATOM     32  C   UNL A   1      35.831  30.226  28.392  1.00  0.00     0.039 A 
ATOM     33  C   UNL A   1      36.162  29.777  29.674  1.00  0.00     0.014 A 
ATOM     34  C   UNL A   1      36.815  30.296  27.402  1.00  0.00     0.014 A 
ATOM     35  C   UNL A   1      37.464  29.356  29.951  1.00  0.00     0.010 A 
ATOM     36  C   UNL A   1      38.098  29.818  27.661  1.00  0.00     0.010 A 
ATOM     37  C   UNL A   1      38.437  29.351  28.940  1.00  0.00    -0.014 A 
BRANCH  37  38
ATOM     38  C   UNL A   1      39.815  28.863  29.203  1.00  0.00     0.031 A 
ATOM     39  C   UNL A   1      40.829  29.765  29.851  1.00  0.00     0.074 A 
ATOM     40  C   UNL A   1      40.169  27.627  28.803  1.00  0.00     0.049 A 
ATOM     41  N   UNL A   1      42.095  29.538  30.102  1.00  0.00    -0.248 NA
ATOM     42  C   UNL A   1      40.368  31.104  30.249  1.00  0.00     0.031 C 
ATOM     43  C   UNL A   1      39.289  26.668  28.134  1.00  0.00     0.029 A 
ATOM     44  N   UNL A   1      41.370  26.969  28.896  1.00  0.00    -0.354 N 
ATOM     45  C   UNL A   1      42.583  30.709  30.666  1.00  0.00     0.074 A 
ATOM     46  C   UNL A   1      41.492  31.658  30.683  1.00  0.00     0.031 C 
ATOM     47  C   UNL A   1      39.973  25.536  27.896  1.00  0.00     0.029 A 
ATOM     48  C   UNL A   1      41.346  25.705  28.360  1.00  0.00     0.049 A 
ATOM     49  H   UNL A   1      42.172  27.365  29.307  1.00  0.00     0.167 HD
ATOM     50  C   UNL A   1      43.826  30.968  31.140  1.00  0.00     0.031 A 
ATOM     51  C   UNL A   1      42.323  24.784  28.246  1.00  0.00     0.031 A 
ATOM     52  C   UNL A   1      44.909  30.021  31.135  1.00  0.00     0.049 A 
ATOM     53  C   UNL A   1      43.692  25.097  28.776  1.00  0.00     0.074 A 
ATOM     54  C   UNL A   1      46.188  30.172  31.642  1.00  0.00     0.029 A 
ATOM     55  N   UNL A   1      44.839  28.748  30.594  1.00  0.00    -0.354 N 
ATOM     56  N   UNL A   1      44.123  26.189  29.360  1.00  0.00    -0.248 NA
ATOM     57  C   UNL A   1      44.710  24.045  28.640  1.00  0.00     0.031 C 
ATOM     58  C   UNL A   1      46.906  29.002  31.369  1.00  0.00     0.029 A 
ATOM     59  C   UNL A   1      46.059  28.107  30.737  1.00  0.00     0.049 A 
ATOM     60  H   UNL A   1      44.041  28.356  30.171  1.00  0.00     0.167 HD
ATOM     61  C   UNL A   1      45.451  25.947  29.684  1.00  0.00     0.074 A 
ATOM     62  C   UNL A   1      45.751  24.599  29.246  1.00  0.00     0.031 C 
ATOM     63  C   UNL A   1      46.341  26.767  30.294  1.00  0.00     0.031 A 
BRANCH  50  64
ATOM     64  C   UNL A   1      44.081  32.341  31.698  1.00  0.00    -0.014 A 
ATOM     65  C   UNL A   1      44.526  33.389  30.876  1.00  0.00     0.009 A 
ATOM     66  C   UNL A   1      43.842  32.599  33.057  1.00  0.00     0.009 A 
ATOM     67  C   UNL A   1      44.763  34.656  31.412  1.00  0.00     0.001 A 
ATOM     68  C   UNL A   1      44.054  33.875  33.584  1.00  0.00     0.001 A 
ATOM     69  C   UNL A   1      44.523  34.899  32.763  1.00  0.00     0.000 A 
ENDBRANCH  50  64
BRANCH  51  70
ATOM     70  C   UNL A   1      42.032  23.470  27.621  1.00  0.00    -0.014 A 
ATOM     71  C   UNL A   1      41.458  22.435  28.375  1.00  0.00     0.009 A 
ATOM     72  C   UNL A   1      42.323  23.242  26.266  1.00  0.00     0.009 A 
ATOM     73  C   UNL A   1      41.202  21.192  27.792  1.00  0.00     0.001 A 
ATOM     74  C   UNL A   1      42.041  22.007  25.680  1.00  0.00     0.001 A 
ATOM     75  C   UNL A   1      41.489  20.980  26.444  1.00  0.00     0.000 A 
ENDBRANCH  51  70
BRANCH  63  76
ATOM     76  C   UNL A   1      47.714  26.216  30.553  1.00  0.00    -0.014 A 
ATOM     77  C   UNL A   1      48.700  26.220  29.554  1.00  0.00     0.009 A 
ATOM     78  C   UNL A   1      48.035  25.725  31.828  1.00  0.00     0.009 A 
ATOM     79  C   UNL A   1      49.973  25.713  29.821  1.00  0.00     0.001 A 
ATOM     80  C   UNL A   1      49.317  25.244  32.099  1.00  0.00     0.001 A 
ATOM     81  C   UNL A   1      50.282  25.230  31.093  1.00  0.00     0.000 A 
ENDBRANCH  63  76
ENDBRANCH  37  38
ENDBRANCH  29  32
ENDBRANCH  27  28
ENDBRANCH  26  27
ENDBRANCH   1  26
TORSDOF 14
ENDMDL
MODEL 2
REMARK VINA RESULT:     -11.1      2.548      7.767
REMARK SMILES Cc1csc([C@H](C)Nc2cc(C)c(N)c(C(=O)NCCCNC(=O)c3ccc(-c4c5nc(c(-c6ccccc6)c6ccc([nH]6)c(-c6ccccc6)c6nc(c(-c7ccccc7)c7ccc4[nH]7)C=C6)C=C5)cc3)c2)n1
REMARK SMILES IDX 19 1 18 2 16 3 17 4 15 6 9 7 10 8 73 9 11 10 12 11 13 12
REMARK SMILES IDX 8 13 6 15 7 16 5 17 1 18 2 19 3 20 74 21 4 22 14 23 20 26
REMARK SMILES IDX 21 27 22 28 23 29 24 31 25 32 26 33 72 34 27 35 71 36 28 37
REMARK SMILES IDX 29 38 30 39 65 40 31 41 70 42 64 43 66 44 32 45 69 46 63 47
REMARK SMILES IDX 62 48 33 50 55 51 40 52 54 53 41 54 44 55 53 56 67 57 42 58
REMARK SMILES IDX 43 59 52 61 68 62 45 63 34 64 35 65 39 66 36 67 38 68 37 69
REMARK SMILES IDX 56 70 57 71 61 72 58 73 60 74 59 75 46 76 47 77 51 78 48 79
REMARK SMILES IDX 50 80 49 81
REMARK H PARENT 18 5 8 14 14 24 14 25 22 30 66 49 44 60
REMARK Flexibility Score: inf
ROOT
ATOM      1  C   UNL A   1      37.193  21.375  24.679  1.00  0.00     0.118 C 
ENDROOT
BRANCH   1   2
ATOM      2  N   UNL A   1      36.313  21.418  25.833  1.00  0.00    -0.352 N 
ATOM      3  C   UNL A   1      34.949  21.350  25.990  1.00  0.00     0.253 C 
ATOM      4  O   UNL A   1      34.542  21.425  27.154  1.00  0.00    -0.269 OA
ATOM      5  H   UNL A   1      36.795  21.518  26.686  1.00  0.00     0.163 HD
BRANCH   3   6
ATOM      6  C   UNL A   1      33.967  21.169  24.868  1.00  0.00     0.065 A 
ATOM      7  C   UNL A   1      32.548  22.109  23.104  1.00  0.00     0.036 A 
ATOM      8  C   UNL A   1      32.176  20.823  22.729  1.00  0.00     0.031 A 
ATOM      9  C   UNL A   1      33.427  22.260  24.178  1.00  0.00     0.041 A 
ATOM     10  C   UNL A   1      32.640  19.698  23.437  1.00  0.00    -0.025 A 
ATOM     11  C   UNL A   1      32.181  18.332  23.000  1.00  0.00     0.046 C 
ATOM     12  C   UNL A   1      33.528  19.863  24.525  1.00  0.00     0.047 A 
BRANCH   7  13
ATOM     13  N   UNL A   1      32.259  23.236  22.346  1.00  0.00    -0.376 N 
ATOM     14  H   UNL A   1      31.805  23.122  21.480  1.00  0.00     0.161 HD
BRANCH  13  15
ATOM     15  C   UNL A   1      32.609  24.592  22.793  1.00  0.00     0.135 C 
ATOM     16  C   UNL A   1      32.866  25.391  21.505  1.00  0.00     0.039 C 
BRANCH  15  17
ATOM     17  C   UNL A   1      31.540  25.237  23.676  1.00  0.00     0.115 A 
ATOM     18  C   UNL A   1      28.236  26.661  23.948  1.00  0.00     0.067 C 
ATOM     19  C   UNL A   1      29.604  26.173  24.255  1.00  0.00     0.049 A 
ATOM     20  C   UNL A   1      30.212  26.146  25.494  1.00  0.00     0.090 A 
ATOM     21  N   UNL A   1      30.381  25.677  23.220  1.00  0.00    -0.244 NA
ATOM     22  S   UNL A   1      31.749  25.408  25.379  1.00  0.00    -0.125 S 
ENDBRANCH  15  17
ENDBRANCH  13  15
ENDBRANCH   7  13
BRANCH  12  23
ATOM     23  N   UNL A   1      34.085  18.728  25.130  1.00  0.00    -0.398 N 
ATOM     24  H   UNL A   1      34.306  17.938  24.585  1.00  0.00     0.156 HD
ATOM     25  H   UNL A   1      34.256  18.721  26.100  1.00  0.00     0.156 HD
ENDBRANCH  12  23
ENDBRANCH   3   6
ENDBRANCH   1   2
BRANCH   1  26
ATOM     26  C   UNL A   1      38.133  20.170  24.749  1.00  0.00     0.042 C 
BRANCH  26  27
ATOM     27  C   UNL A   1      38.930  20.095  26.049  1.00  0.00     0.118 C 
BRANCH  27  28
ATOM     28  N   UNL A   1      40.136  19.295  25.903  1.00  0.00    -0.352 N 
ATOM     29  C   UNL A   1      41.456  19.656  26.001  1.00  0.00     0.251 C 
ATOM     30  H   UNL A   1      39.981  18.343  25.702  1.00  0.00     0.163 HD
ATOM     31  O   UNL A   1      42.325  18.878  25.620  1.00  0.00    -0.269 OA
BRANCH  29  32
ATOM     32  C   UNL A   1      41.845  20.972  26.555  1.00  0.00     0.039 A 
ATOM     33  C   UNL A   1      42.199  21.993  25.668  1.00  0.00     0.014 A 
ATOM     34  C   UNL A   1      41.929  21.186  27.934  1.00  0.00     0.014 A 
ATOM     35  C   UNL A   1      42.592  23.239  26.159  1.00  0.00     0.010 A 
ATOM     36  C   UNL A   1      42.262  22.448  28.423  1.00  0.00     0.010 A 
ATOM     37  C   UNL A   1      42.604  23.485  27.541  1.00  0.00    -0.014 A 
BRANCH  37  38
ATOM     38  C   UNL A   1      42.975  24.817  28.080  1.00  0.00     0.031 A 
ATOM     39  C   UNL A   1      41.917  25.857  28.328  1.00  0.00     0.074 A 
ATOM     40  C   UNL A   1      44.272  25.112  28.291  1.00  0.00     0.049 A 
ATOM     41  N   UNL A   1      42.055  27.095  28.735  1.00  0.00    -0.248 NA
ATOM     42  C   UNL A   1      40.524  25.463  28.064  1.00  0.00     0.031 C 
ATOM     43  C   UNL A   1      45.396  24.202  28.058  1.00  0.00     0.029 A 
ATOM     44  N   UNL A   1      44.864  26.264  28.742  1.00  0.00    -0.354 N 
ATOM     45  C   UNL A   1      40.774  27.630  28.754  1.00  0.00     0.074 A 
ATOM     46  C   UNL A   1      39.876  26.599  28.281  1.00  0.00     0.031 C 
ATOM     47  C   UNL A   1      46.540  24.825  28.388  1.00  0.00     0.029 A 
ATOM     48  C   UNL A   1      46.233  26.185  28.818  1.00  0.00     0.049 A 
ATOM     49  H   UNL A   1      44.356  27.072  28.987  1.00  0.00     0.167 HD
ATOM     50  C   UNL A   1      40.377  28.865  29.145  1.00  0.00     0.031 A 
ATOM     51  C   UNL A   1      47.143  27.107  29.186  1.00  0.00     0.031 A 
ATOM     52  C   UNL A   1      41.266  29.887  29.628  1.00  0.00     0.049 A 
ATOM     53  C   UNL A   1      46.678  28.471  29.610  1.00  0.00     0.074 A 
ATOM     54  C   UNL A   1      40.954  31.151  30.098  1.00  0.00     0.029 A 
ATOM     55  N   UNL A   1      42.644  29.762  29.701  1.00  0.00    -0.354 N 
ATOM     56  N   UNL A   1      45.457  28.942  29.679  1.00  0.00    -0.248 NA
ATOM     57  C   UNL A   1      47.717  29.427  30.018  1.00  0.00     0.031 C 
ATOM     58  C   UNL A   1      42.148  31.807  30.416  1.00  0.00     0.029 A 
ATOM     59  C   UNL A   1      43.199  30.933  30.191  1.00  0.00     0.049 A 
ATOM     60  H   UNL A   1      43.153  28.960  29.443  1.00  0.00     0.167 HD
ATOM     61  C   UNL A   1      45.578  30.239  30.162  1.00  0.00     0.074 A 
ATOM     62  C   UNL A   1      46.990  30.474  30.383  1.00  0.00     0.031 C 
ATOM     63  C   UNL A   1      44.606  31.151  30.404  1.00  0.00     0.031 A 
BRANCH  50  64
ATOM     64  C   UNL A   1      38.909  29.181  29.056  1.00  0.00    -0.014 A 
ATOM     65  C   UNL A   1      38.060  29.008  30.161  1.00  0.00     0.009 A 
ATOM     66  C   UNL A   1      38.374  29.687  27.861  1.00  0.00     0.009 A 
ATOM     67  C   UNL A   1      36.698  29.301  30.059  1.00  0.00     0.001 A 
ATOM     68  C   UNL A   1      37.017  30.005  27.771  1.00  0.00     0.001 A 
ATOM     69  C   UNL A   1      36.179  29.803  28.867  1.00  0.00     0.000 A 
ENDBRANCH  50  64
BRANCH  51  70
ATOM     70  C   UNL A   1      48.587  26.763  29.187  1.00  0.00    -0.014 A 
ATOM     71  C   UNL A   1      49.371  26.982  28.044  1.00  0.00     0.009 A 
ATOM     72  C   UNL A   1      49.192  26.217  30.330  1.00  0.00     0.009 A 
ATOM     73  C   UNL A   1      50.725  26.641  28.038  1.00  0.00     0.001 A 
ATOM     74  C   UNL A   1      50.552  25.902  30.330  1.00  0.00     0.001 A 
ATOM     75  C   UNL A   1      51.316  26.105  29.182  1.00  0.00     0.000 A 
ENDBRANCH  51  70
BRANCH  63  76
ATOM     76  C   UNL A   1      45.034  32.475  30.967  1.00  0.00    -0.014 A 
ATOM     77  C   UNL A   1      45.334  33.561  30.129  1.00  0.00     0.009 A 
ATOM     78  C   UNL A   1      45.099  32.650  32.358  1.00  0.00     0.009 A 
ATOM     79  C   UNL A   1      45.719  34.786  30.676  1.00  0.00     0.001 A 
ATOM     80  C   UNL A   1      45.458  33.884  32.902  1.00  0.00     0.001 A 
ATOM     81  C   UNL A   1      45.776  34.949  32.060  1.00  0.00     0.000 A 
ENDBRANCH  63  76
ENDBRANCH  37  38
ENDBRANCH  29  32
ENDBRANCH  27  28
ENDBRANCH  26  27
ENDBRANCH   1  26
TORSDOF 14
ENDMDL
MODEL 3
REMARK VINA RESULT:     -11.1      2.497      7.822
REMARK SMILES Cc1csc([C@H](C)Nc2cc(C)c(N)c(C(=O)NCCCNC(=O)c3ccc(-c4c5nc(c(-c6ccccc6)c6ccc([nH]6)c(-c6ccccc6)c6nc(c(-c7ccccc7)c7ccc4[nH]7)C=C6)C=C5)cc3)c2)n1
REMARK SMILES IDX 19 1 18 2 16 3 17 4 15 6 9 7 10 8 73 9 11 10 12 11 13 12
REMARK SMILES IDX 8 13 6 15 7 16 5 17 1 18 2 19 3 20 74 21 4 22 14 23 20 26
REMARK SMILES IDX 21 27 22 28 23 29 24 31 25 32 26 33 72 34 27 35 71 36 28 37
REMARK SMILES IDX 29 38 30 39 65 40 31 41 70 42 64 43 66 44 32 45 69 46 63 47
REMARK SMILES IDX 62 48 33 50 55 51 40 52 54 53 41 54 44 55 53 56 67 57 42 58
REMARK SMILES IDX 43 59 52 61 68 62 45 63 34 64 35 65 39 66 36 67 38 68 37 69
REMARK SMILES IDX 56 70 57 71 61 72 58 73 60 74 59 75 46 76 47 77 51 78 48 79
REMARK SMILES IDX 50 80 49 81
REMARK H PARENT 18 5 8 14 14 24 14 25 22 30 66 49 44 60
REMARK Flexibility Score: inf
ROOT
ATOM      1  C   UNL A   1      37.246  21.242  24.600  1.00  0.00     0.118 C 
ENDROOT
BRANCH   1   2
ATOM      2  N   UNL A   1      36.426  21.415  25.786  1.00  0.00    -0.352 N 
ATOM      3  C   UNL A   1      35.070  21.475  26.002  1.00  0.00     0.253 C 
ATOM      4  O   UNL A   1      34.724  21.638  27.176  1.00  0.00    -0.269 OA
ATOM      5  H   UNL A   1      36.954  21.510  26.612  1.00  0.00     0.163 HD
BRANCH   3   6
ATOM      6  C   UNL A   1      34.027  21.331  24.931  1.00  0.00     0.065 A 
ATOM      7  C   UNL A   1      32.457  22.332  23.335  1.00  0.00     0.036 A 
ATOM      8  C   UNL A   1      32.118  21.061  22.885  1.00  0.00     0.031 A 
ATOM      9  C   UNL A   1      33.396  22.444  24.362  1.00  0.00     0.041 A 
ATOM     10  C   UNL A   1      32.674  19.910  23.474  1.00  0.00    -0.025 A 
ATOM     11  C   UNL A   1      32.247  18.560  22.962  1.00  0.00     0.046 C 
ATOM     12  C   UNL A   1      33.623  20.036  24.515  1.00  0.00     0.047 A 
BRANCH   7  13
ATOM     13  N   UNL A   1      32.072  23.497  22.685  1.00  0.00    -0.376 N 
ATOM     14  H   UNL A   1      31.185  23.532  22.259  1.00  0.00     0.161 HD
BRANCH  13  15
ATOM     15  C   UNL A   1      32.944  24.679  22.612  1.00  0.00     0.135 C 
ATOM     16  C   UNL A   1      32.763  25.229  21.188  1.00  0.00     0.039 C 
BRANCH  15  17
ATOM     17  C   UNL A   1      32.642  25.725  23.685  1.00  0.00     0.115 A 
ATOM     18  C   UNL A   1      33.888  27.929  26.257  1.00  0.00     0.067 C 
ATOM     19  C   UNL A   1      32.999  27.190  25.324  1.00  0.00     0.049 A 
ATOM     20  C   UNL A   1      31.635  27.348  25.185  1.00  0.00     0.090 A 
ATOM     21  N   UNL A   1      33.560  26.243  24.483  1.00  0.00    -0.244 NA
ATOM     22  S   UNL A   1      31.054  26.356  23.919  1.00  0.00    -0.125 S 
ENDBRANCH  15  17
ENDBRANCH  13  15
ENDBRANCH   7  13
BRANCH  12  23
ATOM     23  N   UNL A   1      34.266  18.887  24.995  1.00  0.00    -0.398 N 
ATOM     24  H   UNL A   1      34.346  18.736  25.965  1.00  0.00     0.156 HD
ATOM     25  H   UNL A   1      34.638  18.230  24.361  1.00  0.00     0.156 HD
ENDBRANCH  12  23
ENDBRANCH   3   6
ENDBRANCH   1   2
BRANCH   1  26
ATOM     26  C   UNL A   1      38.127  19.996  24.717  1.00  0.00     0.042 C 
BRANCH  26  27
ATOM     27  C   UNL A   1      38.898  19.918  26.032  1.00  0.00     0.118 C 
BRANCH  27  28
ATOM     28  N   UNL A   1      40.148  19.188  25.888  1.00  0.00    -0.352 N 
ATOM     29  C   UNL A   1      41.445  19.625  25.987  1.00  0.00     0.251 C 
ATOM     30  H   UNL A   1      40.048  18.229  25.687  1.00  0.00     0.163 HD
ATOM     31  O   UNL A   1      42.358  18.897  25.606  1.00  0.00    -0.269 OA
BRANCH  29  32
ATOM     32  C   UNL A   1      41.758  20.961  26.540  1.00  0.00     0.039 A 
ATOM     33  C   UNL A   1      42.159  21.971  25.661  1.00  0.00     0.014 A 
ATOM     34  C   UNL A   1      41.724  21.206  27.915  1.00  0.00     0.014 A 
ATOM     35  C   UNL A   1      42.483  23.237  26.153  1.00  0.00     0.010 A 
ATOM     36  C   UNL A   1      41.987  22.486  28.400  1.00  0.00     0.010 A 
ATOM     37  C   UNL A   1      42.377  23.512  27.526  1.00  0.00    -0.014 A 
BRANCH  37  38
ATOM     38  C   UNL A   1      42.671  24.864  28.062  1.00  0.00     0.031 A 
ATOM     39  C   UNL A   1      44.066  25.222  28.495  1.00  0.00     0.074 A 
ATOM     40  C   UNL A   1      41.669  25.750  28.217  1.00  0.00     0.049 A 
ATOM     41  N   UNL A   1      44.502  26.329  29.046  1.00  0.00    -0.248 NA
ATOM     42  C   UNL A   1      45.104  24.197  28.305  1.00  0.00     0.031 C 
ATOM     43  C   UNL A   1      40.267  25.513  27.867  1.00  0.00     0.029 A 
ATOM     44  N   UNL A   1      41.676  27.028  28.716  1.00  0.00    -0.354 N 
ATOM     45  C   UNL A   1      45.854  26.123  29.286  1.00  0.00     0.074 A 
ATOM     46  C   UNL A   1      46.160  24.775  28.860  1.00  0.00     0.031 C 
ATOM     47  C   UNL A   1      39.554  26.618  28.143  1.00  0.00     0.029 A 
ATOM     48  C   UNL A   1      40.439  27.623  28.722  1.00  0.00     0.049 A 
ATOM     49  H   UNL A   1      42.492  27.477  29.040  1.00  0.00     0.167 HD
ATOM     50  C   UNL A   1      46.764  26.984  29.801  1.00  0.00     0.031 A 
ATOM     51  C   UNL A   1      40.055  28.840  29.153  1.00  0.00     0.031 A 
ATOM     52  C   UNL A   1      46.464  28.330  30.214  1.00  0.00     0.049 A 
ATOM     53  C   UNL A   1      41.082  29.775  29.724  1.00  0.00     0.074 A 
ATOM     54  C   UNL A   1      47.329  29.296  30.698  1.00  0.00     0.029 A 
ATOM     55  N   UNL A   1      45.200  28.897  30.191  1.00  0.00    -0.354 N 
ATOM     56  N   UNL A   1      42.369  29.587  29.890  1.00  0.00    -0.248 NA
ATOM     57  C   UNL A   1      40.606  31.095  30.159  1.00  0.00     0.031 C 
ATOM     58  C   UNL A   1      46.579  30.436  31.008  1.00  0.00     0.029 A 
ATOM     59  C   UNL A   1      45.257  30.195  30.671  1.00  0.00     0.049 A 
ATOM     60  H   UNL A   1      44.383  28.444  29.881  1.00  0.00     0.167 HD
ATOM     61  C   UNL A   1      42.860  30.771  30.423  1.00  0.00     0.074 A 
ATOM     62  C   UNL A   1      41.735  31.677  30.539  1.00  0.00     0.031 C 
ATOM     63  C   UNL A   1      44.129  31.082  30.781  1.00  0.00     0.031 A 
BRANCH  50  64
ATOM     64  C   UNL A   1      48.175  26.488  29.957  1.00  0.00    -0.014 A 
ATOM     65  C   UNL A   1      49.128  26.679  28.943  1.00  0.00     0.009 A 
ATOM     66  C   UNL A   1      48.566  25.852  31.145  1.00  0.00     0.009 A 
ATOM     67  C   UNL A   1      50.433  26.207  29.101  1.00  0.00     0.001 A 
ATOM     68  C   UNL A   1      49.880  25.406  31.311  1.00  0.00     0.001 A 
ATOM     69  C   UNL A   1      50.809  25.576  30.286  1.00  0.00     0.000 A 
ENDBRANCH  50  64
BRANCH  51  70
ATOM     70  C   UNL A   1      38.633  29.251  29.040  1.00  0.00    -0.014 A 
ATOM     71  C   UNL A   1      38.132  29.753  27.830  1.00  0.00     0.009 A 
ATOM     72  C   UNL A   1      37.767  29.142  30.141  1.00  0.00     0.009 A 
ATOM     73  C   UNL A   1      36.798  30.157  27.729  1.00  0.00     0.001 A 
ATOM     74  C   UNL A   1      36.429  29.522  30.028  1.00  0.00     0.001 A 
ATOM     75  C   UNL A   1      35.947  30.037  28.827  1.00  0.00     0.000 A 
ENDBRANCH  51  70
BRANCH  63  76
ATOM     76  C   UNL A   1      44.374  32.469  31.300  1.00  0.00    -0.014 A 
ATOM     77  C   UNL A   1      44.313  32.755  32.673  1.00  0.00     0.009 A 
ATOM     78  C   UNL A   1      44.712  33.496  30.404  1.00  0.00     0.009 A 
ATOM     79  C   UNL A   1      44.556  34.050  33.134  1.00  0.00     0.001 A 
ATOM     80  C   UNL A   1      44.981  34.783  30.871  1.00  0.00     0.001 A 
ATOM     81  C   UNL A   1      44.894  35.061  32.234  1.00  0.00     0.000 A 
ENDBRANCH  63  76
ENDBRANCH  37  38
ENDBRANCH  29  32
ENDBRANCH  27  28
ENDBRANCH  26  27
ENDBRANCH   1  26
TORSDOF 14
ENDMDL
