MODEL 1
REMARK VINA RESULT:     -12.0      0.000      0.000
REMARK SMILES CC(C)(C)OC(=O)N[C@@H](Cc1c[nH]c2cccc(Cl)c12)C(=O)NCCCNC(=O)c1ccc(-c2c3nc(c(-c4ccccc4)c4ccc([nH]4)c(-c4ccccc4)c4nc(c(-c5ccccc5)c5ccc2[nH]5)C=C4)C=C3)cc1
REMARK SMILES IDX 24 1 23 2 21 3 22 4 9 6 8 7 6 8 7 9 5 11 2 12 1 13 3 14 4 15
REMARK SMILES IDX 10 16 11 17 12 18 20 19 13 20 14 21 18 22 15 24 17 25 19 26
REMARK SMILES IDX 16 27 25 28 26 29 27 30 28 31 29 33 30 34 31 35 77 36 32 37
REMARK SMILES IDX 76 38 33 39 34 40 35 41 70 42 36 43 75 44 69 45 71 46 37 47
REMARK SMILES IDX 74 48 68 49 67 50 38 52 60 53 45 54 59 55 46 56 49 57 58 58
REMARK SMILES IDX 72 59 47 60 48 61 57 63 73 64 50 65 39 66 40 67 44 68 41 69
REMARK SMILES IDX 43 70 42 71 61 72 62 73 66 74 63 75 65 76 64 77 51 78 52 79
REMARK SMILES IDX 56 80 53 81 55 82 54 83
REMARK H PARENT 23 5 8 10 13 23 27 32 71 51 49 62
REMARK Flexibility Score: inf
ROOT
ATOM      1  C   UNL A   1      37.983  21.411  25.050  1.00  0.00     0.117 C 
ENDROOT
BRANCH   1   2
ATOM      2  N   UNL A   1      37.023  21.965  25.973  1.00  0.00    -0.354 N 
ATOM      3  C   UNL A   1      35.655  21.864  25.866  1.00  0.00     0.243 C 
ATOM      4  O   UNL A   1      35.010  21.838  26.920  1.00  0.00    -0.273 OA
ATOM      5  H   UNL A   1      37.378  22.457  26.748  1.00  0.00     0.163 HD
BRANCH   3   6
ATOM      6  C   UNL A   1      34.943  21.707  24.491  1.00  0.00     0.179 C 
BRANCH   6   7
ATOM      7  N   UNL A   1      33.531  21.393  24.693  1.00  0.00    -0.309 N 
ATOM      8  C   UNL A   1      32.930  20.176  24.788  1.00  0.00     0.408 C 
ATOM      9  O   UNL A   1      31.762  20.100  25.112  1.00  0.00    -0.225 OA
ATOM     10  H   UNL A   1      32.930  22.169  24.773  1.00  0.00     0.167 HD
BRANCH   8  11
ATOM     11  O   UNL A   1      33.740  19.143  24.447  1.00  0.00    -0.444 OA
BRANCH  11  12
ATOM     12  C   UNL A   1      33.148  17.923  23.926  1.00  0.00     0.106 C 
ATOM     13  C   UNL A   1      34.337  17.043  23.507  1.00  0.00     0.056 C 
ATOM     14  C   UNL A   1      32.302  18.213  22.678  1.00  0.00     0.056 C 
ATOM     15  C   UNL A   1      32.347  17.175  24.998  1.00  0.00     0.056 C 
ENDBRANCH  11  12
ENDBRANCH   8  11
ENDBRANCH   6   7
BRANCH   6  16
ATOM     16  C   UNL A   1      35.225  22.828  23.450  1.00  0.00     0.073 C 
BRANCH  16  17
ATOM     17  C   UNL A   1      34.050  23.594  22.880  1.00  0.00    -0.019 A 
ATOM     18  C   UNL A   1      33.334  23.198  21.761  1.00  0.00     0.087 A 
ATOM     19  C   UNL A   1      33.507  24.880  23.277  1.00  0.00     0.021 A 
ATOM     20  N   UNL A   1      32.491  24.211  21.395  1.00  0.00    -0.361 N 
ATOM     21  C   UNL A   1      32.653  25.285  22.237  1.00  0.00     0.047 A 
ATOM     22  C   UNL A   1      33.715  25.821  24.313  1.00  0.00     0.050 A 
ATOM     23  H   UNL A   1      31.860  24.176  20.639  1.00  0.00     0.166 HD
ATOM     24  C   UNL A   1      32.118  26.580  22.142  1.00  0.00     0.027 A 
ATOM     25  C   UNL A   1      33.202  27.119  24.239  1.00  0.00     0.021 A 
ATOM     26  Cl  UNL A   1      34.604  25.326  25.685  1.00  0.00    -0.084 Cl
ATOM     27  C   UNL A   1      32.431  27.498  23.146  1.00  0.00     0.004 A 
ENDBRANCH  16  17
ENDBRANCH   6  16
ENDBRANCH   3   6
ENDBRANCH   1   2
BRANCH   1  28
ATOM     28  C   UNL A   1      38.502  20.008  25.312  1.00  0.00     0.042 C 
BRANCH  28  29
ATOM     29  C   UNL A   1      39.675  20.036  26.262  1.00  0.00     0.118 C 
BRANCH  29  30
ATOM     30  N   UNL A   1      40.818  19.244  25.784  1.00  0.00    -0.352 N 
ATOM     31  C   UNL A   1      42.135  19.648  25.673  1.00  0.00     0.251 C 
ATOM     32  H   UNL A   1      40.623  18.319  25.511  1.00  0.00     0.163 HD
ATOM     33  O   UNL A   1      42.959  18.999  25.044  1.00  0.00    -0.269 OA
BRANCH  31  34
ATOM     34  C   UNL A   1      42.509  20.896  26.351  1.00  0.00     0.039 A 
ATOM     35  C   UNL A   1      42.766  22.068  25.637  1.00  0.00     0.014 A 
ATOM     36  C   UNL A   1      42.445  20.889  27.742  1.00  0.00     0.014 A 
ATOM     37  C   UNL A   1      42.864  23.262  26.342  1.00  0.00     0.010 A 
ATOM     38  C   UNL A   1      42.353  22.080  28.409  1.00  0.00     0.010 A 
ATOM     39  C   UNL A   1      42.624  23.260  27.726  1.00  0.00    -0.014 A 
BRANCH  39  40
ATOM     40  C   UNL A   1      42.588  24.497  28.484  1.00  0.00     0.031 A 
ATOM     41  C   UNL A   1      41.448  25.402  28.184  1.00  0.00     0.074 A 
ATOM     42  C   UNL A   1      43.407  24.717  29.533  1.00  0.00     0.049 A 
ATOM     43  N   UNL A   1      41.496  26.546  27.589  1.00  0.00    -0.248 NA
ATOM     44  C   UNL A   1      40.083  24.938  28.480  1.00  0.00     0.031 C 
ATOM     45  C   UNL A   1      44.361  23.797  30.167  1.00  0.00     0.029 A 
ATOM     46  N   UNL A   1      43.473  25.809  30.332  1.00  0.00    -0.354 N 
ATOM     47  C   UNL A   1      40.196  27.039  27.593  1.00  0.00     0.074 A 
ATOM     48  C   UNL A   1      39.348  25.949  28.010  1.00  0.00     0.031 C 
ATOM     49  C   UNL A   1      44.726  24.284  31.374  1.00  0.00     0.029 A 
ATOM     50  C   UNL A   1      44.188  25.624  31.506  1.00  0.00     0.049 A 
ATOM     51  H   UNL A   1      43.049  26.667  30.097  1.00  0.00     0.167 HD
ATOM     52  C   UNL A   1      39.935  28.371  27.472  1.00  0.00     0.031 A 
ATOM     53  C   UNL A   1      44.301  26.514  32.521  1.00  0.00     0.031 A 
ATOM     54  C   UNL A   1      41.095  29.109  27.051  1.00  0.00     0.049 A 
ATOM     55  C   UNL A   1      43.995  27.847  31.949  1.00  0.00     0.074 A 
ATOM     56  C   UNL A   1      41.903  29.090  25.931  1.00  0.00     0.029 A 
ATOM     57  N   UNL A   1      41.822  29.737  28.035  1.00  0.00    -0.354 N 
ATOM     58  N   UNL A   1      44.731  28.425  31.042  1.00  0.00    -0.248 NA
ATOM     59  C   UNL A   1      42.630  28.337  32.052  1.00  0.00     0.031 C 
ATOM     60  C   UNL A   1      43.225  29.255  26.437  1.00  0.00     0.029 A 
ATOM     61  C   UNL A   1      43.142  29.435  27.820  1.00  0.00     0.049 A 
ATOM     62  H   UNL A   1      41.462  30.299  28.758  1.00  0.00     0.167 HD
ATOM     63  C   UNL A   1      43.827  29.036  30.188  1.00  0.00     0.074 A 
ATOM     64  C   UNL A   1      42.557  29.033  30.914  1.00  0.00     0.031 C 
ATOM     65  C   UNL A   1      44.118  29.232  28.869  1.00  0.00     0.031 A 
BRANCH  52  66
ATOM     66  C   UNL A   1      38.750  29.052  28.097  1.00  0.00    -0.014 A 
ATOM     67  C   UNL A   1      38.528  28.915  29.478  1.00  0.00     0.009 A 
ATOM     68  C   UNL A   1      37.701  29.596  27.332  1.00  0.00     0.009 A 
ATOM     69  C   UNL A   1      37.305  29.276  30.055  1.00  0.00     0.001 A 
ATOM     70  C   UNL A   1      36.493  29.993  27.911  1.00  0.00     0.001 A 
ATOM     71  C   UNL A   1      36.288  29.813  29.272  1.00  0.00     0.000 A 
ENDBRANCH  52  66
BRANCH  53  72
ATOM     72  C   UNL A   1      44.327  26.252  33.977  1.00  0.00    -0.014 A 
ATOM     73  C   UNL A   1      43.454  25.309  34.542  1.00  0.00     0.009 A 
ATOM     74  C   UNL A   1      45.399  26.705  34.769  1.00  0.00     0.009 A 
ATOM     75  C   UNL A   1      43.681  24.791  35.824  1.00  0.00     0.001 A 
ATOM     76  C   UNL A   1      45.623  26.193  36.053  1.00  0.00     0.001 A 
ATOM     77  C   UNL A   1      44.775  25.220  36.571  1.00  0.00     0.000 A 
ENDBRANCH  53  72
BRANCH  65  78
ATOM     78  C   UNL A   1      45.524  28.952  28.396  1.00  0.00    -0.014 A 
ATOM     79  C   UNL A   1      45.946  27.674  27.986  1.00  0.00     0.009 A 
ATOM     80  C   UNL A   1      46.357  30.047  28.130  1.00  0.00     0.009 A 
ATOM     81  C   UNL A   1      47.161  27.505  27.313  1.00  0.00     0.001 A 
ATOM     82  C   UNL A   1      47.563  29.880  27.445  1.00  0.00     0.001 A 
ATOM     83  C   UNL A   1      47.962  28.611  27.030  1.00  0.00     0.000 A 
ENDBRANCH  65  78
ENDBRANCH  39  40
ENDBRANCH  31  34
ENDBRANCH  29  30
ENDBRANCH  28  29
ENDBRANCH   1  28
TORSDOF 15
ENDMDL
MODEL 2
REMARK VINA RESULT:     -12.0      3.080      7.679
REMARK SMILES CC(C)(C)OC(=O)N[C@@H](Cc1c[nH]c2cccc(Cl)c12)C(=O)NCCCNC(=O)c1ccc(-c2c3nc(c(-c4ccccc4)c4ccc([nH]4)c(-c4ccccc4)c4nc(c(-c5ccccc5)c5ccc2[nH]5)C=C4)C=C3)cc1
REMARK SMILES IDX 24 1 23 2 21 3 22 4 9 6 8 7 6 8 7 9 5 11 2 12 1 13 3 14 4 15
REMARK SMILES IDX 10 16 11 17 12 18 20 19 13 20 14 21 18 22 15 24 17 25 19 26
REMARK SMILES IDX 16 27 25 28 26 29 27 30 28 31 29 33 30 34 31 35 77 36 32 37
REMARK SMILES IDX 76 38 33 39 34 40 35 41 70 42 36 43 75 44 69 45 71 46 37 47
REMARK SMILES IDX 74 48 68 49 67 50 38 52 60 53 45 54 59 55 46 56 49 57 58 58
REMARK SMILES IDX 72 59 47 60 48 61 57 63 73 64 50 65 39 66 40 67 44 68 41 69
REMARK SMILES IDX 43 70 42 71 61 72 62 73 66 74 63 75 65 76 64 77 51 78 52 79
REMARK SMILES IDX 56 80 53 81 55 82 54 83
REMARK H PARENT 23 5 8 10 13 23 27 32 71 51 49 62
REMARK Flexibility Score: inf
ROOT
ATOM      1  C   UNL A   1      33.681  29.877  26.813  1.00  0.00     0.117 C 
ENDROOT
BRANCH   1   2
ATOM      2  N   UNL A   1      32.416  29.405  27.320  1.00  0.00    -0.354 N 
ATOM      3  C   UNL A   1      31.898  28.143  27.139  1.00  0.00     0.243 C 
ATOM      4  O   UNL A   1      31.179  27.696  28.038  1.00  0.00    -0.273 OA
ATOM      5  H   UNL A   1      31.877  30.041  27.843  1.00  0.00     0.163 HD
BRANCH   3   6
ATOM      6  C   UNL A   1      32.257  27.274  25.899  1.00  0.00     0.179 C 
BRANCH   6   7
ATOM      7  N   UNL A   1      32.958  26.065  26.324  1.00  0.00    -0.309 N 
ATOM      8  C   UNL A   1      33.799  25.268  25.611  1.00  0.00     0.408 C 
ATOM      9  O   UNL A   1      34.418  24.385  26.171  1.00  0.00    -0.225 OA
ATOM     10  H   UNL A   1      32.801  25.788  27.256  1.00  0.00     0.167 HD
BRANCH   8  11
ATOM     11  O   UNL A   1      33.811  25.542  24.283  1.00  0.00    -0.444 OA
BRANCH  11  12
ATOM     12  C   UNL A   1      33.457  24.495  23.341  1.00  0.00     0.106 C 
ATOM     13  C   UNL A   1      33.177  25.220  22.015  1.00  0.00     0.056 C 
ATOM     14  C   UNL A   1      32.170  23.779  23.777  1.00  0.00     0.056 C 
ATOM     15  C   UNL A   1      34.612  23.511  23.120  1.00  0.00     0.056 C 
ENDBRANCH  11  12
ENDBRANCH   8  11
ENDBRANCH   6   7
BRANCH   6  16
ATOM     16  C   UNL A   1      31.109  27.042  24.876  1.00  0.00     0.073 C 
BRANCH  16  17
ATOM     17  C   UNL A   1      30.991  27.985  23.697  1.00  0.00    -0.019 A 
ATOM     18  C   UNL A   1      32.069  28.618  23.097  1.00  0.00     0.087 A 
ATOM     19  C   UNL A   1      29.802  28.493  23.038  1.00  0.00     0.021 A 
ATOM     20  N   UNL A   1      31.599  29.552  22.216  1.00  0.00    -0.361 N 
ATOM     21  C   UNL A   1      30.225  29.569  22.239  1.00  0.00     0.047 A 
ATOM     22  C   UNL A   1      28.406  28.276  23.101  1.00  0.00     0.050 A 
ATOM     23  H   UNL A   1      32.162  30.127  21.648  1.00  0.00     0.166 HD
ATOM     24  C   UNL A   1      29.336  30.466  21.624  1.00  0.00     0.027 A 
ATOM     25  C   UNL A   1      27.499  29.158  22.505  1.00  0.00     0.021 A 
ATOM     26  Cl  UNL A   1      27.842  26.885  23.915  1.00  0.00    -0.084 Cl
ATOM     27  C   UNL A   1      27.966  30.258  21.795  1.00  0.00     0.004 A 
ENDBRANCH  16  17
ENDBRANCH   6  16
ENDBRANCH   3   6
ENDBRANCH   1   2
BRANCH   1  28
ATOM     28  C   UNL A   1      34.875  29.871  27.749  1.00  0.00     0.042 C 
BRANCH  28  29
ATOM     29  C   UNL A   1      35.577  31.208  27.738  1.00  0.00     0.118 C 
BRANCH  29  30
ATOM     30  N   UNL A   1      35.140  32.093  28.828  1.00  0.00    -0.352 N 
ATOM     31  C   UNL A   1      35.518  32.043  30.156  1.00  0.00     0.251 C 
ATOM     32  H   UNL A   1      34.506  32.805  28.582  1.00  0.00     0.163 HD
ATOM     33  O   UNL A   1      34.919  32.667  31.022  1.00  0.00    -0.269 OA
BRANCH  31  34
ATOM     34  C   UNL A   1      36.678  31.207  30.488  1.00  0.00     0.039 A 
ATOM     35  C   UNL A   1      36.529  29.892  30.934  1.00  0.00     0.014 A 
ATOM     36  C   UNL A   1      37.931  31.739  30.194  1.00  0.00     0.014 A 
ATOM     37  C   UNL A   1      37.658  29.082  30.986  1.00  0.00     0.010 A 
ATOM     38  C   UNL A   1      38.998  30.894  30.067  1.00  0.00     0.010 A 
ATOM     39  C   UNL A   1      38.882  29.586  30.520  1.00  0.00    -0.014 A 
BRANCH  39  40
ATOM     40  C   UNL A   1      40.059  28.740  30.435  1.00  0.00     0.031 A 
ATOM     41  C   UNL A   1      40.797  28.532  31.707  1.00  0.00     0.074 A 
ATOM     42  C   UNL A   1      40.344  28.023  29.328  1.00  0.00     0.049 A 
ATOM     43  N   UNL A   1      41.964  28.987  32.016  1.00  0.00    -0.248 NA
ATOM     44  C   UNL A   1      40.118  27.830  32.809  1.00  0.00     0.031 C 
ATOM     45  C   UNL A   1      39.547  27.855  28.106  1.00  0.00     0.029 A 
ATOM     46  N   UNL A   1      41.391  27.189  29.115  1.00  0.00    -0.354 N 
ATOM     47  C   UNL A   1      42.256  28.482  33.278  1.00  0.00     0.074 A 
ATOM     48  C   UNL A   1      41.030  27.911  33.781  1.00  0.00     0.031 C 
ATOM     49  C   UNL A   1      40.020  26.807  27.396  1.00  0.00     0.029 A 
ATOM     50  C   UNL A   1      41.254  26.360  28.011  1.00  0.00     0.049 A 
ATOM     51  H   UNL A   1      42.186  27.174  29.696  1.00  0.00     0.167 HD
ATOM     52  C   UNL A   1      43.537  28.369  33.726  1.00  0.00     0.031 A 
ATOM     53  C   UNL A   1      42.097  25.363  27.651  1.00  0.00     0.031 A 
ATOM     54  C   UNL A   1      44.462  29.088  32.892  1.00  0.00     0.049 A 
ATOM     55  C   UNL A   1      43.397  25.654  28.302  1.00  0.00     0.074 A 
ATOM     56  C   UNL A   1      44.624  30.413  32.542  1.00  0.00     0.029 A 
ATOM     57  N   UNL A   1      45.140  28.358  31.944  1.00  0.00    -0.354 N 
ATOM     58  N   UNL A   1      44.125  26.696  28.016  1.00  0.00    -0.248 NA
ATOM     59  C   UNL A   1      43.670  25.034  29.589  1.00  0.00     0.031 C 
ATOM     60  C   UNL A   1      44.959  30.383  31.157  1.00  0.00     0.029 A 
ATOM     61  C   UNL A   1      45.052  29.047  30.762  1.00  0.00     0.049 A 
ATOM     62  H   UNL A   1      45.603  27.501  32.087  1.00  0.00     0.167 HD
ATOM     63  C   UNL A   1      44.637  27.116  29.233  1.00  0.00     0.074 A 
ATOM     64  C   UNL A   1      44.406  26.000  30.149  1.00  0.00     0.031 C 
ATOM     65  C   UNL A   1      44.943  28.428  29.458  1.00  0.00     0.031 A 
BRANCH  52  66
ATOM     66  C   UNL A   1      43.998  27.306  34.683  1.00  0.00    -0.014 A 
ATOM     67  C   UNL A   1      43.928  25.956  34.297  1.00  0.00     0.009 A 
ATOM     68  C   UNL A   1      44.246  27.569  36.043  1.00  0.00     0.009 A 
ATOM     69  C   UNL A   1      44.065  24.926  35.235  1.00  0.00     0.001 A 
ATOM     70  C   UNL A   1      44.422  26.544  36.975  1.00  0.00     0.001 A 
ATOM     71  C   UNL A   1      44.311  25.220  36.573  1.00  0.00     0.000 A 
ENDBRANCH  52  66
BRANCH  53  72
ATOM     72  C   UNL A   1      41.767  24.041  27.075  1.00  0.00    -0.014 A 
ATOM     73  C   UNL A   1      42.577  23.484  26.072  1.00  0.00     0.009 A 
ATOM     74  C   UNL A   1      40.836  23.193  27.706  1.00  0.00     0.009 A 
ATOM     75  C   UNL A   1      42.504  22.121  25.758  1.00  0.00     0.001 A 
ATOM     76  C   UNL A   1      40.758  21.833  27.388  1.00  0.00     0.001 A 
ATOM     77  C   UNL A   1      41.607  21.292  26.429  1.00  0.00     0.000 A 
ENDBRANCH  53  72
BRANCH  65  78
ATOM     78  C   UNL A   1      44.903  29.384  28.291  1.00  0.00    -0.014 A 
ATOM     79  C   UNL A   1      43.736  30.075  27.918  1.00  0.00     0.009 A 
ATOM     80  C   UNL A   1      46.122  29.774  27.720  1.00  0.00     0.009 A 
ATOM     81  C   UNL A   1      43.796  31.139  27.009  1.00  0.00     0.001 A 
ATOM     82  C   UNL A   1      46.183  30.845  26.825  1.00  0.00     0.001 A 
ATOM     83  C   UNL A   1      45.023  31.532  26.475  1.00  0.00     0.000 A 
ENDBRANCH  65  78
ENDBRANCH  39  40
ENDBRANCH  31  34
ENDBRANCH  29  30
ENDBRANCH  28  29
ENDBRANCH   1  28
TORSDOF 15
ENDMDL
MODEL 3
REMARK VINA RESULT:     -11.6      2.977      7.203
REMARK SMILES CC(C)(C)OC(=O)N[C@@H](Cc1c[nH]c2cccc(Cl)c12)C(=O)NCCCNC(=O)c1ccc(-c2c3nc(c(-c4ccccc4)c4ccc([nH]4)c(-c4ccccc4)c4nc(c(-c5ccccc5)c5ccc2[nH]5)C=C4)C=C3)cc1
REMARK SMILES IDX 24 1 23 2 21 3 22 4 9 6 8 7 6 8 7 9 5 11 2 12 1 13 3 14 4 15
REMARK SMILES IDX 10 16 11 17 12 18 20 19 13 20 14 21 18 22 15 24 17 25 19 26
REMARK SMILES IDX 16 27 25 28 26 29 27 30 28 31 29 33 30 34 31 35 77 36 32 37
REMARK SMILES IDX 76 38 33 39 34 40 35 41 70 42 36 43 75 44 69 45 71 46 37 47
REMARK SMILES IDX 74 48 68 49 67 50 38 52 60 53 45 54 59 55 46 56 49 57 58 58
REMARK SMILES IDX 72 59 47 60 48 61 57 63 73 64 50 65 39 66 40 67 44 68 41 69
REMARK SMILES IDX 43 70 42 71 61 72 62 73 66 74 63 75 65 76 64 77 51 78 52 79
REMARK SMILES IDX 56 80 53 81 55 82 54 83
REMARK H PARENT 23 5 8 10 13 23 27 32 71 51 49 62
REMARK Flexibility Score: inf
ROOT
ATOM      1  C   UNL A   1      37.158  23.047  25.808  1.00  0.00     0.117 C 
ENDROOT
BRANCH   1   2
ATOM      2  N   UNL A   1      36.860  22.580  24.477  1.00  0.00    -0.354 N 
ATOM      3  C   UNL A   1      35.830  23.027  23.680  1.00  0.00     0.243 C 
ATOM      4  O   UNL A   1      36.017  23.012  22.459  1.00  0.00    -0.273 OA
ATOM      5  H   UNL A   1      37.444  21.881  24.104  1.00  0.00     0.163 HD
BRANCH   3   6
ATOM      6  C   UNL A   1      34.515  23.605  24.278  1.00  0.00     0.179 C 
BRANCH   6   7
ATOM      7  N   UNL A   1      34.398  25.023  23.951  1.00  0.00    -0.309 N 
ATOM      8  C   UNL A   1      33.828  26.025  24.675  1.00  0.00     0.408 C 
ATOM      9  O   UNL A   1      33.958  27.179  24.319  1.00  0.00    -0.225 OA
ATOM     10  H   UNL A   1      34.787  25.294  23.087  1.00  0.00     0.167 HD
BRANCH   8  11
ATOM     11  O   UNL A   1      33.107  25.585  25.735  1.00  0.00    -0.444 OA
BRANCH  11  12
ATOM     12  C   UNL A   1      31.675  25.826  25.766  1.00  0.00     0.106 C 
ATOM     13  C   UNL A   1      31.080  24.631  26.528  1.00  0.00     0.056 C 
ATOM     14  C   UNL A   1      31.090  25.830  24.347  1.00  0.00     0.056 C 
ATOM     15  C   UNL A   1      31.328  27.108  26.531  1.00  0.00     0.056 C 
ENDBRANCH  11  12
ENDBRANCH   8  11
ENDBRANCH   6   7
BRANCH   6  16
ATOM     16  C   UNL A   1      33.229  22.765  24.028  1.00  0.00     0.073 C 
BRANCH  16  17
ATOM     17  C   UNL A   1      33.069  21.454  24.768  1.00  0.00    -0.019 A 
ATOM     18  C   UNL A   1      33.308  21.292  26.124  1.00  0.00     0.087 A 
ATOM     19  C   UNL A   1      32.754  20.135  24.249  1.00  0.00     0.021 A 
ATOM     20  N   UNL A   1      33.278  19.957  26.421  1.00  0.00    -0.361 N 
ATOM     21  C   UNL A   1      33.048  19.227  25.280  1.00  0.00     0.047 A 
ATOM     22  C   UNL A   1      32.382  19.568  23.008  1.00  0.00     0.050 A 
ATOM     23  H   UNL A   1      33.403  19.576  27.321  1.00  0.00     0.166 HD
ATOM     24  C   UNL A   1      33.095  17.835  25.089  1.00  0.00     0.027 A 
ATOM     25  C   UNL A   1      32.428  18.188  22.789  1.00  0.00     0.021 A 
ATOM     26  Cl  UNL A   1      31.848  20.617  21.770  1.00  0.00    -0.084 Cl
ATOM     27  C   UNL A   1      32.807  17.335  23.818  1.00  0.00     0.004 A 
ENDBRANCH  16  17
ENDBRANCH   6  16
ENDBRANCH   3   6
ENDBRANCH   1   2
BRANCH   1  28
ATOM     28  C   UNL A   1      38.404  23.891  26.009  1.00  0.00     0.042 C 
BRANCH  28  29
ATOM     29  C   UNL A   1      39.296  23.293  27.070  1.00  0.00     0.118 C 
BRANCH  29  30
ATOM     30  N   UNL A   1      40.525  22.703  26.520  1.00  0.00    -0.352 N 
ATOM     31  C   UNL A   1      41.676  23.362  26.134  1.00  0.00     0.251 C 
ATOM     32  H   UNL A   1      40.528  21.724  26.414  1.00  0.00     0.163 HD
ATOM     33  O   UNL A   1      42.545  22.812  25.470  1.00  0.00    -0.269 OA
BRANCH  31  34
ATOM     34  C   UNL A   1      41.819  24.760  26.561  1.00  0.00     0.039 A 
ATOM     35  C   UNL A   1      41.435  25.819  25.736  1.00  0.00     0.014 A 
ATOM     36  C   UNL A   1      42.213  24.969  27.880  1.00  0.00     0.014 A 
ATOM     37  C   UNL A   1      41.359  27.092  26.290  1.00  0.00     0.010 A 
ATOM     38  C   UNL A   1      41.957  26.178  28.466  1.00  0.00     0.010 A 
ATOM     39  C   UNL A   1      41.592  27.253  27.665  1.00  0.00    -0.014 A 
BRANCH  39  40
ATOM     40  C   UNL A   1      41.399  28.537  28.314  1.00  0.00     0.031 A 
ATOM     41  C   UNL A   1      42.473  29.540  28.091  1.00  0.00     0.074 A 
ATOM     42  C   UNL A   1      40.232  28.872  28.903  1.00  0.00     0.049 A 
ATOM     43  N   UNL A   1      43.323  29.979  28.958  1.00  0.00    -0.248 NA
ATOM     44  C   UNL A   1      42.704  30.033  26.724  1.00  0.00     0.031 C 
ATOM     45  C   UNL A   1      38.964  28.132  28.924  1.00  0.00     0.029 A 
ATOM     46  N   UNL A   1      39.910  30.030  29.529  1.00  0.00    -0.354 N 
ATOM     47  C   UNL A   1      44.083  30.940  28.302  1.00  0.00     0.074 A 
ATOM     48  C   UNL A   1      43.767  30.821  26.899  1.00  0.00     0.031 C 
ATOM     49  C   UNL A   1      37.966  28.953  29.320  1.00  0.00     0.029 A 
ATOM     50  C   UNL A   1      38.553  30.204  29.759  1.00  0.00     0.049 A 
ATOM     51  H   UNL A   1      40.585  30.693  29.801  1.00  0.00     0.167 HD
ATOM     52  C   UNL A   1      44.748  31.914  28.983  1.00  0.00     0.031 A 
ATOM     53  C   UNL A   1      37.964  31.317  30.256  1.00  0.00     0.031 A 
ATOM     54  C   UNL A   1      44.806  31.640  30.393  1.00  0.00     0.049 A 
ATOM     55  C   UNL A   1      39.021  32.068  30.976  1.00  0.00     0.074 A 
ATOM     56  C   UNL A   1      45.348  30.630  31.163  1.00  0.00     0.029 A 
ATOM     57  N   UNL A   1      43.872  32.264  31.186  1.00  0.00    -0.354 N 
ATOM     58  N   UNL A   1      39.620  31.619  32.043  1.00  0.00    -0.248 NA
ATOM     59  C   UNL A   1      39.729  33.113  30.253  1.00  0.00     0.031 C 
ATOM     60  C   UNL A   1      44.377  30.390  32.179  1.00  0.00     0.029 A 
ATOM     61  C   UNL A   1      43.339  31.310  32.013  1.00  0.00     0.049 A 
ATOM     62  H   UNL A   1      43.630  33.218  31.164  1.00  0.00     0.167 HD
ATOM     63  C   UNL A   1      40.943  32.004  31.895  1.00  0.00     0.074 A 
ATOM     64  C   UNL A   1      40.931  33.004  30.827  1.00  0.00     0.031 C 
ATOM     65  C   UNL A   1      41.959  31.278  32.448  1.00  0.00     0.031 A 
BRANCH  52  66
ATOM     66  C   UNL A   1      45.008  33.289  28.435  1.00  0.00    -0.014 A 
ATOM     67  C   UNL A   1      43.921  34.135  28.156  1.00  0.00     0.009 A 
ATOM     68  C   UNL A   1      46.265  33.679  27.934  1.00  0.00     0.009 A 
ATOM     69  C   UNL A   1      44.082  35.293  27.386  1.00  0.00     0.001 A 
ATOM     70  C   UNL A   1      46.436  34.853  27.199  1.00  0.00     0.001 A 
ATOM     71  C   UNL A   1      45.338  35.651  26.907  1.00  0.00     0.000 A 
ENDBRANCH  52  66
BRANCH  53  72
ATOM     72  C   UNL A   1      36.668  31.921  29.877  1.00  0.00    -0.014 A 
ATOM     73  C   UNL A   1      35.765  32.339  30.869  1.00  0.00     0.009 A 
ATOM     74  C   UNL A   1      36.436  32.359  28.559  1.00  0.00     0.009 A 
ATOM     75  C   UNL A   1      34.712  33.212  30.565  1.00  0.00     0.001 A 
ATOM     76  C   UNL A   1      35.380  33.225  28.254  1.00  0.00     0.001 A 
ATOM     77  C   UNL A   1      34.531  33.668  29.262  1.00  0.00     0.000 A 
ENDBRANCH  53  72
BRANCH  65  78
ATOM     78  C   UNL A   1      41.605  30.157  33.395  1.00  0.00    -0.014 A 
ATOM     79  C   UNL A   1      41.374  28.840  32.957  1.00  0.00     0.009 A 
ATOM     80  C   UNL A   1      41.753  30.388  34.769  1.00  0.00     0.009 A 
ATOM     81  C   UNL A   1      41.310  27.784  33.874  1.00  0.00     0.001 A 
ATOM     82  C   UNL A   1      41.703  29.332  35.682  1.00  0.00     0.001 A 
ATOM     83  C   UNL A   1      41.489  28.030  35.235  1.00  0.00     0.000 A 
ENDBRANCH  65  78
ENDBRANCH  39  40
ENDBRANCH  31  34
ENDBRANCH  29  30
ENDBRANCH  28  29
ENDBRANCH   1  28
TORSDOF 15
ENDMDL
