MODEL 1
REMARK VINA RESULT:     -10.8      0.000      0.000
REMARK SMILES CCC(CC)(CC(=O)Nc1cccc(OC)c1)C(=O)NCCCNC(=O)c1ccc(-c2c3nc(c(-c4ccccc4)c4ccc([nH]4)c(-c4ccccc4)c4nc(c(-c5ccccc5)c5ccc2[nH]5)C=C4)C=C3)cc1
REMARK SMILES IDX 21 1 20 2 18 3 19 4 3 6 2 7 1 8 4 9 5 10 6 11 7 12 8 13 9 14
REMARK SMILES IDX 10 16 11 17 17 18 12 19 14 20 13 21 15 22 16 23 22 24 23 25
REMARK SMILES IDX 24 26 25 27 26 29 27 30 28 31 74 32 29 33 73 34 30 35 31 36
REMARK SMILES IDX 32 37 67 38 33 39 72 40 66 41 68 42 34 43 71 44 65 45 64 46
REMARK SMILES IDX 35 48 57 49 42 50 56 51 43 52 46 53 55 54 69 55 44 56 45 57
REMARK SMILES IDX 54 59 70 60 47 61 36 62 37 63 41 64 38 65 40 66 39 67 58 68
REMARK SMILES IDX 59 69 63 70 60 71 62 72 61 73 48 74 49 75 53 76 50 77 52 78
REMARK SMILES IDX 51 79
REMARK H PARENT 20 5 9 15 24 28 68 47 46 58
REMARK Flexibility Score: inf
ROOT
ATOM      1  C   UNL A   1      35.863  21.850  25.255  1.00  0.00     0.117 C 
ENDROOT
BRANCH   1   2
ATOM      2  N   UNL A   1      34.661  21.537  24.511  1.00  0.00    -0.356 N 
ATOM      3  C   UNL A   1      33.374  21.739  24.886  1.00  0.00     0.226 C 
ATOM      4  O   UNL A   1      32.606  20.794  24.699  1.00  0.00    -0.274 OA
ATOM      5  H   UNL A   1      34.794  21.128  23.626  1.00  0.00     0.163 HD
BRANCH   3   6
ATOM      6  C   UNL A   1      32.904  23.095  25.457  1.00  0.00     0.057 C 
BRANCH   6   7
ATOM      7  C   UNL A   1      33.590  24.156  24.529  1.00  0.00     0.014 C 
ATOM      8  C   UNL A   1      34.347  25.306  25.202  1.00  0.00     0.005 C 
ENDBRANCH   6   7
BRANCH   6   9
ATOM      9  C   UNL A   1      33.430  23.305  26.939  1.00  0.00     0.014 C 
ATOM     10  C   UNL A   1      33.458  22.103  27.884  1.00  0.00     0.005 C 
ENDBRANCH   6   9
BRANCH   6  11
ATOM     11  C   UNL A   1      31.346  23.143  25.395  1.00  0.00     0.117 C 
BRANCH  11  12
ATOM     12  C   UNL A   1      30.588  23.831  26.511  1.00  0.00     0.225 C 
ATOM     13  O   UNL A   1      30.077  23.144  27.403  1.00  0.00    -0.275 OA
ATOM     14  N   UNL A   1      30.504  25.187  26.645  1.00  0.00    -0.326 N 
ATOM     15  H   UNL A   1      30.138  25.448  27.521  1.00  0.00     0.169 HD
BRANCH  14  16
ATOM     16  C   UNL A   1      30.808  26.310  25.844  1.00  0.00     0.044 A 
ATOM     17  C   UNL A   1      31.526  27.340  26.467  1.00  0.00     0.026 A 
ATOM     18  C   UNL A   1      30.390  26.519  24.533  1.00  0.00     0.072 A 
ATOM     19  C   UNL A   1      31.726  28.570  25.829  1.00  0.00     0.006 A 
ATOM     20  C   UNL A   1      30.505  27.774  23.923  1.00  0.00     0.120 A 
ATOM     21  C   UNL A   1      31.189  28.795  24.565  1.00  0.00     0.046 A 
BRANCH  20  22
ATOM     22  O   UNL A   1      30.010  28.043  22.673  1.00  0.00    -0.497 OA
ATOM     23  C   UNL A   1      30.235  29.388  22.247  1.00  0.00     0.278 C 
ENDBRANCH  20  22
ENDBRANCH  14  16
ENDBRANCH  11  12
ENDBRANCH   6  11
ENDBRANCH   3   6
ENDBRANCH   1   2
BRANCH   1  24
ATOM     24  C   UNL A   1      36.993  20.918  24.834  1.00  0.00     0.042 C 
BRANCH  24  25
ATOM     25  C   UNL A   1      38.309  21.206  25.552  1.00  0.00     0.118 C 
BRANCH  25  26
ATOM     26  N   UNL A   1      39.170  20.028  25.631  1.00  0.00    -0.352 N 
ATOM     27  C   UNL A   1      40.496  19.940  25.972  1.00  0.00     0.251 C 
ATOM     28  H   UNL A   1      38.736  19.173  25.407  1.00  0.00     0.163 HD
ATOM     29  O   UNL A   1      41.128  18.909  25.762  1.00  0.00    -0.269 OA
BRANCH  27  30
ATOM     30  C   UNL A   1      41.156  21.113  26.566  1.00  0.00     0.039 A 
ATOM     31  C   UNL A   1      41.770  22.046  25.731  1.00  0.00     0.014 A 
ATOM     32  C   UNL A   1      41.109  21.310  27.948  1.00  0.00     0.014 A 
ATOM     33  C   UNL A   1      42.261  23.230  26.279  1.00  0.00     0.010 A 
ATOM     34  C   UNL A   1      41.504  22.530  28.476  1.00  0.00     0.010 A 
ATOM     35  C   UNL A   1      42.085  23.501  27.647  1.00  0.00    -0.014 A 
BRANCH  35  36
ATOM     36  C   UNL A   1      42.489  24.799  28.236  1.00  0.00     0.031 A 
ATOM     37  C   UNL A   1      41.471  25.887  28.419  1.00  0.00     0.074 A 
ATOM     38  C   UNL A   1      43.785  25.021  28.530  1.00  0.00     0.049 A 
ATOM     39  N   UNL A   1      41.641  27.114  28.843  1.00  0.00    -0.248 NA
ATOM     40  C   UNL A   1      40.082  25.567  28.050  1.00  0.00     0.031 C 
ATOM     41  C   UNL A   1      44.874  24.057  28.355  1.00  0.00     0.029 A 
ATOM     42  N   UNL A   1      44.408  26.135  29.032  1.00  0.00    -0.354 N 
ATOM     43  C   UNL A   1      40.389  27.711  28.775  1.00  0.00     0.074 A 
ATOM     44  C   UNL A   1      39.481  26.735  28.216  1.00  0.00     0.031 C 
ATOM     45  C   UNL A   1      46.024  24.611  28.771  1.00  0.00     0.029 A 
ATOM     46  C   UNL A   1      45.763  25.982  29.195  1.00  0.00     0.049 A 
ATOM     47  H   UNL A   1      43.928  26.967  29.254  1.00  0.00     0.167 HD
ATOM     48  C   UNL A   1      40.024  28.955  29.163  1.00  0.00     0.031 A 
ATOM     49  C   UNL A   1      46.694  26.854  29.626  1.00  0.00     0.031 A 
ATOM     50  C   UNL A   1      40.930  29.922  29.721  1.00  0.00     0.049 A 
ATOM     51  C   UNL A   1      46.267  28.241  30.020  1.00  0.00     0.074 A 
ATOM     52  C   UNL A   1      40.650  31.190  30.198  1.00  0.00     0.029 A 
ATOM     53  N   UNL A   1      42.296  29.730  29.868  1.00  0.00    -0.354 N 
ATOM     54  N   UNL A   1      45.066  28.767  30.023  1.00  0.00    -0.248 NA
ATOM     55  C   UNL A   1      47.325  29.153  30.475  1.00  0.00     0.031 C 
ATOM     56  C   UNL A   1      41.856  31.789  30.576  1.00  0.00     0.029 A 
ATOM     57  C   UNL A   1      42.877  30.869  30.397  1.00  0.00     0.049 A 
ATOM     58  H   UNL A   1      42.779  28.906  29.631  1.00  0.00     0.167 HD
ATOM     59  C   UNL A   1      45.219  30.060  30.503  1.00  0.00     0.074 A 
ATOM     60  C   UNL A   1      46.627  30.232  30.801  1.00  0.00     0.031 C 
ATOM     61  C   UNL A   1      44.281  31.023  30.680  1.00  0.00     0.031 A 
BRANCH  48  62
ATOM     62  C   UNL A   1      38.581  29.340  28.985  1.00  0.00    -0.014 A 
ATOM     63  C   UNL A   1      38.089  29.772  27.743  1.00  0.00     0.009 A 
ATOM     64  C   UNL A   1      37.694  29.243  30.067  1.00  0.00     0.009 A 
ATOM     65  C   UNL A   1      36.749  30.134  27.599  1.00  0.00     0.001 A 
ATOM     66  C   UNL A   1      36.346  29.575  29.912  1.00  0.00     0.001 A 
ATOM     67  C   UNL A   1      35.878  30.031  28.682  1.00  0.00     0.000 A 
ENDBRANCH  48  62
BRANCH  49  68
ATOM     68  C   UNL A   1      48.121  26.444  29.711  1.00  0.00    -0.014 A 
ATOM     69  C   UNL A   1      48.991  26.668  28.633  1.00  0.00     0.009 A 
ATOM     70  C   UNL A   1      48.617  25.816  30.864  1.00  0.00     0.009 A 
ATOM     71  C   UNL A   1      50.322  26.246  28.698  1.00  0.00     0.001 A 
ATOM     72  C   UNL A   1      49.956  25.425  30.938  1.00  0.00     0.001 A 
ATOM     73  C   UNL A   1      50.804  25.630  29.851  1.00  0.00     0.000 A 
ENDBRANCH  49  68
BRANCH  61  74
ATOM     74  C   UNL A   1      44.743  32.336  31.246  1.00  0.00    -0.014 A 
ATOM     75  C   UNL A   1      44.796  32.555  32.632  1.00  0.00     0.009 A 
ATOM     76  C   UNL A   1      45.171  33.355  30.380  1.00  0.00     0.009 A 
ATOM     77  C   UNL A   1      45.235  33.781  33.136  1.00  0.00     0.001 A 
ATOM     78  C   UNL A   1      45.641  34.565  30.887  1.00  0.00     0.001 A 
ATOM     79  C   UNL A   1      45.663  34.781  32.264  1.00  0.00     0.000 A 
ENDBRANCH  61  74
ENDBRANCH  35  36
ENDBRANCH  27  30
ENDBRANCH  25  26
ENDBRANCH  24  25
ENDBRANCH   1  24
TORSDOF 16
ENDMDL
MODEL 2
REMARK VINA RESULT:     -10.7      3.206      8.555
REMARK SMILES CCC(CC)(CC(=O)Nc1cccc(OC)c1)C(=O)NCCCNC(=O)c1ccc(-c2c3nc(c(-c4ccccc4)c4ccc([nH]4)c(-c4ccccc4)c4nc(c(-c5ccccc5)c5ccc2[nH]5)C=C4)C=C3)cc1
REMARK SMILES IDX 21 1 20 2 18 3 19 4 3 6 2 7 1 8 4 9 5 10 6 11 7 12 8 13 9 14
REMARK SMILES IDX 10 16 11 17 17 18 12 19 14 20 13 21 15 22 16 23 22 24 23 25
REMARK SMILES IDX 24 26 25 27 26 29 27 30 28 31 74 32 29 33 73 34 30 35 31 36
REMARK SMILES IDX 32 37 67 38 33 39 72 40 66 41 68 42 34 43 71 44 65 45 64 46
REMARK SMILES IDX 35 48 57 49 42 50 56 51 43 52 46 53 55 54 69 55 44 56 45 57
REMARK SMILES IDX 54 59 70 60 47 61 36 62 37 63 41 64 38 65 40 66 39 67 58 68
REMARK SMILES IDX 59 69 63 70 60 71 62 72 61 73 48 74 49 75 53 76 50 77 52 78
REMARK SMILES IDX 51 79
REMARK H PARENT 20 5 9 15 24 28 68 47 46 58
REMARK Flexibility Score: inf
ROOT
ATOM      1  C   UNL A   1      32.493  29.399  25.758  1.00  0.00     0.117 C 
ENDROOT
BRANCH   1   2
ATOM      2  N   UNL A   1      32.743  29.494  24.335  1.00  0.00    -0.356 N 
ATOM      3  C   UNL A   1      33.281  28.552  23.521  1.00  0.00     0.226 C 
ATOM      4  O   UNL A   1      34.153  28.949  22.745  1.00  0.00    -0.274 OA
ATOM      5  H   UNL A   1      32.492  30.343  23.907  1.00  0.00     0.163 HD
BRANCH   3   6
ATOM      6  C   UNL A   1      32.780  27.092  23.535  1.00  0.00     0.057 C 
BRANCH   6   7
ATOM      7  C   UNL A   1      31.295  27.195  23.045  1.00  0.00     0.014 C 
ATOM      8  C   UNL A   1      30.187  26.990  24.085  1.00  0.00     0.005 C 
ENDBRANCH   6   7
BRANCH   6   9
ATOM      9  C   UNL A   1      32.786  26.499  25.007  1.00  0.00     0.014 C 
ATOM     10  C   UNL A   1      33.972  25.639  25.446  1.00  0.00     0.005 C 
ENDBRANCH   6   9
BRANCH   6  11
ATOM     11  C   UNL A   1      33.683  26.251  22.581  1.00  0.00     0.117 C 
BRANCH  11  12
ATOM     12  C   UNL A   1      33.028  25.351  21.554  1.00  0.00     0.225 C 
ATOM     13  O   UNL A   1      32.944  25.737  20.382  1.00  0.00    -0.275 OA
ATOM     14  N   UNL A   1      32.593  24.085  21.824  1.00  0.00    -0.326 N 
ATOM     15  H   UNL A   1      32.372  23.589  21.003  1.00  0.00     0.169 HD
BRANCH  14  16
ATOM     16  C   UNL A   1      32.379  23.308  22.984  1.00  0.00     0.044 A 
ATOM     17  C   UNL A   1      31.194  23.557  23.689  1.00  0.00     0.026 A 
ATOM     18  C   UNL A   1      33.270  22.387  23.530  1.00  0.00     0.072 A 
ATOM     19  C   UNL A   1      30.963  22.978  24.942  1.00  0.00     0.006 A 
ATOM     20  C   UNL A   1      33.091  21.876  24.820  1.00  0.00     0.120 A 
ATOM     21  C   UNL A   1      31.928  22.158  25.520  1.00  0.00     0.046 A 
BRANCH  20  22
ATOM     22  O   UNL A   1      34.000  21.051  25.428  1.00  0.00    -0.497 OA
ATOM     23  C   UNL A   1      35.334  21.214  24.942  1.00  0.00     0.278 C 
ENDBRANCH  20  22
ENDBRANCH  14  16
ENDBRANCH  11  12
ENDBRANCH   6  11
ENDBRANCH   3   6
ENDBRANCH   1   2
BRANCH   1  24
ATOM     24  C   UNL A   1      31.945  30.723  26.279  1.00  0.00     0.042 C 
BRANCH  24  25
ATOM     25  C   UNL A   1      32.915  31.453  27.204  1.00  0.00     0.118 C 
BRANCH  25  26
ATOM     26  N   UNL A   1      32.549  32.853  27.404  1.00  0.00    -0.352 N 
ATOM     27  C   UNL A   1      33.133  33.800  28.204  1.00  0.00     0.251 C 
ATOM     28  H   UNL A   1      31.768  33.162  26.888  1.00  0.00     0.163 HD
ATOM     29  O   UNL A   1      32.562  34.862  28.436  1.00  0.00    -0.269 OA
BRANCH  27  30
ATOM     30  C   UNL A   1      34.443  33.510  28.807  1.00  0.00     0.039 A 
ATOM     31  C   UNL A   1      34.499  32.884  30.051  1.00  0.00     0.014 A 
ATOM     32  C   UNL A   1      35.613  33.809  28.103  1.00  0.00     0.014 A 
ATOM     33  C   UNL A   1      35.734  32.473  30.552  1.00  0.00     0.010 A 
ATOM     34  C   UNL A   1      36.825  33.309  28.553  1.00  0.00     0.010 A 
ATOM     35  C   UNL A   1      36.898  32.637  29.782  1.00  0.00    -0.014 A 
BRANCH  35  36
ATOM     36  C   UNL A   1      38.205  32.105  30.234  1.00  0.00     0.031 A 
ATOM     37  C   UNL A   1      38.709  30.799  29.691  1.00  0.00     0.074 A 
ATOM     38  C   UNL A   1      38.894  32.760  31.189  1.00  0.00     0.049 A 
ATOM     39  N   UNL A   1      39.787  30.132  30.017  1.00  0.00    -0.248 NA
ATOM     40  C   UNL A   1      37.880  30.140  28.668  1.00  0.00     0.031 C 
ATOM     41  C   UNL A   1      38.486  34.015  31.825  1.00  0.00     0.029 A 
ATOM     42  N   UNL A   1      40.085  32.454  31.797  1.00  0.00    -0.354 N 
ATOM     43  C   UNL A   1      39.754  28.972  29.254  1.00  0.00     0.074 A 
ATOM     44  C   UNL A   1      38.525  28.997  28.494  1.00  0.00     0.031 C 
ATOM     45  C   UNL A   1      39.424  34.385  32.710  1.00  0.00     0.029 A 
ATOM     46  C   UNL A   1      40.473  33.373  32.741  1.00  0.00     0.049 A 
ATOM     47  H   UNL A   1      40.611  31.651  31.578  1.00  0.00     0.167 HD
ATOM     48  C   UNL A   1      40.675  27.984  29.179  1.00  0.00     0.031 A 
ATOM     49  C   UNL A   1      41.548  33.391  33.551  1.00  0.00     0.031 A 
ATOM     50  C   UNL A   1      41.898  27.964  29.936  1.00  0.00     0.049 A 
ATOM     51  C   UNL A   1      42.540  32.264  33.471  1.00  0.00     0.074 A 
ATOM     52  C   UNL A   1      42.924  27.038  29.890  1.00  0.00     0.029 A 
ATOM     53  N   UNL A   1      42.253  28.912  30.883  1.00  0.00    -0.354 N 
ATOM     54  N   UNL A   1      42.535  31.212  32.688  1.00  0.00    -0.248 NA
ATOM     55  C   UNL A   1      43.691  32.330  34.383  1.00  0.00     0.031 C 
ATOM     56  C   UNL A   1      43.872  27.391  30.856  1.00  0.00     0.029 A 
ATOM     57  C   UNL A   1      43.468  28.574  31.454  1.00  0.00     0.049 A 
ATOM     58  H   UNL A   1      41.720  29.707  31.115  1.00  0.00     0.167 HD
ATOM     59  C   UNL A   1      43.690  30.505  32.995  1.00  0.00     0.074 A 
ATOM     60  C   UNL A   1      44.383  31.261  34.019  1.00  0.00     0.031 C 
ATOM     61  C   UNL A   1      44.138  29.335  32.478  1.00  0.00     0.031 A 
BRANCH  48  62
ATOM     62  C   UNL A   1      40.386  26.837  28.249  1.00  0.00    -0.014 A 
ATOM     63  C   UNL A   1      39.595  25.751  28.655  1.00  0.00     0.009 A 
ATOM     64  C   UNL A   1      40.888  26.857  26.939  1.00  0.00     0.009 A 
ATOM     65  C   UNL A   1      39.345  24.691  27.782  1.00  0.00     0.001 A 
ATOM     66  C   UNL A   1      40.610  25.811  26.057  1.00  0.00     0.001 A 
ATOM     67  C   UNL A   1      39.848  24.724  26.483  1.00  0.00     0.000 A 
ENDBRANCH  48  62
BRANCH  49  68
ATOM     68  C   UNL A   1      41.747  34.513  34.507  1.00  0.00    -0.014 A 
ATOM     69  C   UNL A   1      41.232  34.437  35.811  1.00  0.00     0.009 A 
ATOM     70  C   UNL A   1      42.440  35.670  34.118  1.00  0.00     0.009 A 
ATOM     71  C   UNL A   1      41.384  35.508  36.696  1.00  0.00     0.001 A 
ATOM     72  C   UNL A   1      42.618  36.725  35.015  1.00  0.00     0.001 A 
ATOM     73  C   UNL A   1      42.081  36.648  36.299  1.00  0.00     0.000 A 
ENDBRANCH  49  68
BRANCH  61  74
ATOM     74  C   UNL A   1      45.451  28.815  32.992  1.00  0.00    -0.014 A 
ATOM     75  C   UNL A   1      46.666  29.176  32.387  1.00  0.00     0.009 A 
ATOM     76  C   UNL A   1      45.475  27.986  34.124  1.00  0.00     0.009 A 
ATOM     77  C   UNL A   1      47.875  28.686  32.886  1.00  0.00     0.001 A 
ATOM     78  C   UNL A   1      46.686  27.526  34.641  1.00  0.00     0.001 A 
ATOM     79  C   UNL A   1      47.884  27.868  34.015  1.00  0.00     0.000 A 
ENDBRANCH  61  74
ENDBRANCH  35  36
ENDBRANCH  27  30
ENDBRANCH  25  26
ENDBRANCH  24  25
ENDBRANCH   1  24
TORSDOF 16
ENDMDL
MODEL 3
REMARK VINA RESULT:     -10.7      3.674      8.555
REMARK SMILES CCC(CC)(CC(=O)Nc1cccc(OC)c1)C(=O)NCCCNC(=O)c1ccc(-c2c3nc(c(-c4ccccc4)c4ccc([nH]4)c(-c4ccccc4)c4nc(c(-c5ccccc5)c5ccc2[nH]5)C=C4)C=C3)cc1
REMARK SMILES IDX 21 1 20 2 18 3 19 4 3 6 2 7 1 8 4 9 5 10 6 11 7 12 8 13 9 14
REMARK SMILES IDX 10 16 11 17 17 18 12 19 14 20 13 21 15 22 16 23 22 24 23 25
REMARK SMILES IDX 24 26 25 27 26 29 27 30 28 31 74 32 29 33 73 34 30 35 31 36
REMARK SMILES IDX 32 37 67 38 33 39 72 40 66 41 68 42 34 43 71 44 65 45 64 46
REMARK SMILES IDX 35 48 57 49 42 50 56 51 43 52 46 53 55 54 69 55 44 56 45 57
REMARK SMILES IDX 54 59 70 60 47 61 36 62 37 63 41 64 38 65 40 66 39 67 58 68
REMARK SMILES IDX 59 69 63 70 60 71 62 72 61 73 48 74 49 75 53 76 50 77 52 78
REMARK SMILES IDX 51 79
REMARK H PARENT 20 5 9 15 24 28 68 47 46 58
REMARK Flexibility Score: inf
ROOT
ATOM      1  C   UNL A   1      31.895  30.398  25.946  1.00  0.00     0.117 C 
ENDROOT
BRANCH   1   2
ATOM      2  N   UNL A   1      32.246  29.419  26.955  1.00  0.00    -0.356 N 
ATOM      3  C   UNL A   1      31.782  28.152  27.081  1.00  0.00     0.226 C 
ATOM      4  O   UNL A   1      31.447  27.813  28.218  1.00  0.00    -0.274 OA
ATOM      5  H   UNL A   1      32.900  29.709  27.630  1.00  0.00     0.163 HD
BRANCH   3   6
ATOM      6  C   UNL A   1      31.738  27.185  25.877  1.00  0.00     0.057 C 
BRANCH   6   7
ATOM      7  C   UNL A   1      33.107  27.422  25.150  1.00  0.00     0.014 C 
ATOM      8  C   UNL A   1      34.102  26.257  25.111  1.00  0.00     0.005 C 
ENDBRANCH   6   7
BRANCH   6   9
ATOM      9  C   UNL A   1      30.564  27.566  24.881  1.00  0.00     0.014 C 
ATOM     10  C   UNL A   1      30.923  28.155  23.515  1.00  0.00     0.005 C 
ENDBRANCH   6   9
BRANCH   6  11
ATOM     11  C   UNL A   1      31.575  25.731  26.418  1.00  0.00     0.117 C 
BRANCH  11  12
ATOM     12  C   UNL A   1      30.394  24.905  25.954  1.00  0.00     0.225 C 
ATOM     13  O   UNL A   1      29.376  24.865  26.655  1.00  0.00    -0.275 OA
ATOM     14  N   UNL A   1      30.346  24.259  24.752  1.00  0.00    -0.326 N 
ATOM     15  H   UNL A   1      29.440  23.936  24.544  1.00  0.00     0.169 HD
BRANCH  14  16
ATOM     16  C   UNL A   1      31.269  23.937  23.732  1.00  0.00     0.044 A 
ATOM     17  C   UNL A   1      31.866  22.672  23.812  1.00  0.00     0.026 A 
ATOM     18  C   UNL A   1      31.695  24.786  22.714  1.00  0.00     0.072 A 
ATOM     19  C   UNL A   1      32.922  22.316  22.964  1.00  0.00     0.006 A 
ATOM     20  C   UNL A   1      32.808  24.475  21.924  1.00  0.00     0.120 A 
ATOM     21  C   UNL A   1      33.411  23.232  22.038  1.00  0.00     0.046 A 
BRANCH  20  22
ATOM     22  O   UNL A   1      33.318  25.333  20.985  1.00  0.00    -0.497 OA
ATOM     23  C   UNL A   1      32.507  25.447  19.814  1.00  0.00     0.278 C 
ENDBRANCH  20  22
ENDBRANCH  14  16
ENDBRANCH  11  12
ENDBRANCH   6  11
ENDBRANCH   3   6
ENDBRANCH   1   2
BRANCH   1  24
ATOM     24  C   UNL A   1      31.552  31.727  26.609  1.00  0.00     0.042 C 
BRANCH  24  25
ATOM     25  C   UNL A   1      32.750  32.391  27.282  1.00  0.00     0.118 C 
BRANCH  25  26
ATOM     26  N   UNL A   1      32.514  33.802  27.574  1.00  0.00    -0.352 N 
ATOM     27  C   UNL A   1      33.125  34.616  28.493  1.00  0.00     0.251 C 
ATOM     28  H   UNL A   1      31.814  34.234  27.031  1.00  0.00     0.163 HD
ATOM     29  O   UNL A   1      32.650  35.713  28.772  1.00  0.00    -0.269 OA
BRANCH  27  30
ATOM     30  C   UNL A   1      34.346  34.139  29.162  1.00  0.00     0.039 A 
ATOM     31  C   UNL A   1      34.236  33.440  30.364  1.00  0.00     0.014 A 
ATOM     32  C   UNL A   1      35.590  34.337  28.560  1.00  0.00     0.014 A 
ATOM     33  C   UNL A   1      35.375  32.859  30.919  1.00  0.00     0.010 A 
ATOM     34  C   UNL A   1      36.701  33.672  29.057  1.00  0.00     0.010 A 
ATOM     35  C   UNL A   1      36.605  32.927  30.242  1.00  0.00    -0.014 A 
BRANCH  35  36
ATOM     36  C   UNL A   1      37.806  32.220  30.745  1.00  0.00     0.031 A 
ATOM     37  C   UNL A   1      38.598  32.803  31.879  1.00  0.00     0.074 A 
ATOM     38  C   UNL A   1      38.223  31.098  30.126  1.00  0.00     0.049 A 
ATOM     39  N   UNL A   1      39.717  32.378  32.409  1.00  0.00    -0.248 NA
ATOM     40  C   UNL A   1      38.082  34.044  32.481  1.00  0.00     0.031 C 
ATOM     41  C   UNL A   1      37.563  30.459  28.985  1.00  0.00     0.029 A 
ATOM     42  N   UNL A   1      39.312  30.299  30.368  1.00  0.00    -0.354 N 
ATOM     43  C   UNL A   1      40.044  33.305  33.388  1.00  0.00     0.074 A 
ATOM     44  C   UNL A   1      39.041  34.345  33.343  1.00  0.00     0.031 C 
ATOM     45  C   UNL A   1      38.242  29.352  28.647  1.00  0.00     0.029 A 
ATOM     46  C   UNL A   1      39.411  29.230  29.511  1.00  0.00     0.049 A 
ATOM     47  H   UNL A   1      39.961  30.476  31.087  1.00  0.00     0.167 HD
ATOM     48  C   UNL A   1      41.077  33.283  34.262  1.00  0.00     0.031 A 
ATOM     49  C   UNL A   1      40.346  28.266  29.424  1.00  0.00     0.031 A 
ATOM     50  C   UNL A   1      42.072  32.245  34.305  1.00  0.00     0.049 A 
ATOM     51  C   UNL A   1      41.502  28.282  30.386  1.00  0.00     0.074 A 
ATOM     52  C   UNL A   1      43.126  32.100  35.188  1.00  0.00     0.029 A 
ATOM     53  N   UNL A   1      42.139  31.181  33.419  1.00  0.00    -0.354 N 
ATOM     54  N   UNL A   1      41.756  29.123  31.359  1.00  0.00    -0.248 NA
ATOM     55  C   UNL A   1      42.497  27.210  30.240  1.00  0.00     0.031 C 
ATOM     56  C   UNL A   1      43.869  30.980  34.798  1.00  0.00     0.029 A 
ATOM     57  C   UNL A   1      43.237  30.392  33.714  1.00  0.00     0.049 A 
ATOM     58  H   UNL A   1      41.500  31.012  32.690  1.00  0.00     0.167 HD
ATOM     59  C   UNL A   1      42.924  28.670  31.957  1.00  0.00     0.074 A 
ATOM     60  C   UNL A   1      43.316  27.466  31.250  1.00  0.00     0.031 C 
ATOM     61  C   UNL A   1      43.614  29.201  32.995  1.00  0.00     0.031 A 
BRANCH  48  62
ATOM     62  C   UNL A   1      41.185  34.424  35.236  1.00  0.00    -0.014 A 
ATOM     63  C   UNL A   1      41.911  35.584  34.923  1.00  0.00     0.009 A 
ATOM     64  C   UNL A   1      40.528  34.350  36.473  1.00  0.00     0.009 A 
ATOM     65  C   UNL A   1      42.008  36.629  35.843  1.00  0.00     0.001 A 
ATOM     66  C   UNL A   1      40.600  35.410  37.379  1.00  0.00     0.001 A 
ATOM     67  C   UNL A   1      41.348  36.543  37.068  1.00  0.00     0.000 A 
ENDBRANCH  48  62
BRANCH  49  68
ATOM     68  C   UNL A   1      40.230  27.202  28.391  1.00  0.00    -0.014 A 
ATOM     69  C   UNL A   1      40.835  27.361  27.135  1.00  0.00     0.009 A 
ATOM     70  C   UNL A   1      39.505  26.028  28.650  1.00  0.00     0.009 A 
ATOM     71  C   UNL A   1      40.692  26.379  26.150  1.00  0.00     0.001 A 
ATOM     72  C   UNL A   1      39.391  25.035  27.676  1.00  0.00     0.001 A 
ATOM     73  C   UNL A   1      39.975  25.216  26.423  1.00  0.00     0.000 A 
ENDBRANCH  49  68
BRANCH  61  74
ATOM     74  C   UNL A   1      44.847  28.470  33.448  1.00  0.00    -0.014 A 
ATOM     75  C   UNL A   1      46.108  28.763  32.907  1.00  0.00     0.009 A 
ATOM     76  C   UNL A   1      44.748  27.503  34.461  1.00  0.00     0.009 A 
ATOM     77  C   UNL A   1      47.241  28.075  33.347  1.00  0.00     0.001 A 
ATOM     78  C   UNL A   1      45.886  26.842  34.922  1.00  0.00     0.001 A 
ATOM     79  C   UNL A   1      47.130  27.121  34.358  1.00  0.00     0.000 A 
ENDBRANCH  61  74
ENDBRANCH  35  36
ENDBRANCH  27  30
ENDBRANCH  25  26
ENDBRANCH  24  25
ENDBRANCH   1  24
TORSDOF 16
ENDMDL
