MODEL 1
REMARK VINA RESULT:     -11.9      0.000      0.000
REMARK SMILES Cn1cc([C@@H]2CC(NCCCNC(=O)c3ccc(-c4c5nc(c(-c6ccccc6)c6ccc([nH]6)c(-c6ccccc6)c6nc(c(-c7ccccc7)c7ccc4[nH]7)C=C6)C=C5)cc3)=[NH+]c3c2sc(C(=O)[O-])c3-c2ccc(Cl)cc2)cn1
REMARK SMILES IDX 11 1 10 2 9 3 8 4 5 5 6 6 65 7 7 8 64 9 66 10 63 11 71 12
REMARK SMILES IDX 67 13 4 16 1 17 2 18 3 19 80 20 79 21 72 22 73 23 78 24
REMARK SMILES IDX 74 25 77 26 75 27 76 28 68 29 69 30 70 31 12 32 13 33 14 35
REMARK SMILES IDX 15 36 16 37 62 38 17 39 61 40 18 41 19 42 20 43 55 44 21 45
REMARK SMILES IDX 60 46 54 47 56 48 22 49 59 50 53 51 52 52 23 54 45 55 30 56
REMARK SMILES IDX 44 57 31 58 34 59 43 60 57 61 32 62 33 63 42 65 58 66 35 67
REMARK SMILES IDX 24 68 25 69 29 70 26 71 28 72 27 73 46 74 47 75 51 76 48 77
REMARK SMILES IDX 50 78 49 79 36 80 37 81 41 82 38 83 40 84 39 85
REMARK H PARENT 8 14 63 15 12 34 56 53 34 64
REMARK Flexibility Score: inf
ROOT
ATOM      1  C   UNL A   1      35.178  30.743  28.758  1.00  0.00     0.120 C 
ENDROOT
BRANCH   1   2
ATOM      2  C   UNL A   1      36.127  30.170  27.721  1.00  0.00     0.067 C 
BRANCH   2   3
ATOM      3  C   UNL A   1      35.420  29.244  26.730  1.00  0.00     0.235 C 
BRANCH   3   4
ATOM      4  N   UNL A   1      34.171  29.816  26.231  1.00  0.00    -0.278 N 
ATOM      5  C   UNL A   1      30.672  28.897  24.871  1.00  0.00     0.079 C 
ATOM      6  C   UNL A   1      31.823  29.759  25.423  1.00  0.00     0.142 C 
ATOM      7  C   UNL A   1      31.086  27.468  24.765  1.00  0.00     0.061 A 
ATOM      8  C   UNL A   1      33.155  29.047  25.693  1.00  0.00     0.248 C 
ATOM      9  C   UNL A   1      32.334  26.996  25.037  1.00  0.00     0.147 A 
ATOM     10  S   UNL A   1      30.042  26.208  24.305  1.00  0.00    -0.133 S 
ATOM     11  N   UNL A   1      33.387  27.786  25.480  1.00  0.00    -0.243 N 
ATOM     12  C   UNL A   1      32.481  25.585  24.867  1.00  0.00     0.049 A 
ATOM     13  C   UNL A   1      31.285  25.010  24.446  1.00  0.00     0.062 A 
ATOM     14  H   UNL A   1      34.047  30.791  26.281  1.00  0.00     0.304 HD
ATOM     15  H   UNL A   1      34.282  27.401  25.628  1.00  0.00     0.312 HD
BRANCH   5  16
ATOM     16  C   UNL A   1      30.141  29.412  23.560  1.00  0.00    -0.001 A 
ATOM     17  C   UNL A   1      28.147  31.383  21.295  1.00  0.00     0.173 C 
ATOM     18  N   UNL A   1      29.042  30.495  21.994  1.00  0.00    -0.276 N 
ATOM     19  C   UNL A   1      29.024  30.192  23.323  1.00  0.00     0.112 A 
ATOM     20  N   UNL A   1      30.046  29.903  21.325  1.00  0.00    -0.182 NA
ATOM     21  C   UNL A   1      30.731  29.271  22.279  1.00  0.00     0.139 A 
ENDBRANCH   5  16
BRANCH  12  22
ATOM     22  C   UNL A   1      33.704  24.841  25.155  1.00  0.00    -0.012 A 
ATOM     23  C   UNL A   1      33.897  24.207  26.388  1.00  0.00     0.010 A 
ATOM     24  C   UNL A   1      34.686  24.722  24.158  1.00  0.00     0.010 A 
ATOM     25  C   UNL A   1      35.084  23.514  26.642  1.00  0.00     0.021 A 
ATOM     26  C   UNL A   1      35.865  24.017  24.406  1.00  0.00     0.021 A 
ATOM     27  C   UNL A   1      36.065  23.429  25.653  1.00  0.00     0.041 A 
ATOM     28  Cl  UNL A   1      37.533  22.592  25.973  1.00  0.00    -0.084 Cl
ENDBRANCH  12  22
BRANCH  13  29
ATOM     29  C   UNL A   1      30.894  23.645  24.140  1.00  0.00     0.082 C 
ATOM     30  O   UNL A   1      30.721  23.134  23.052  1.00  0.00    -0.544 OA
ATOM     31  O   UNL A   1      30.706  22.892  25.249  1.00  0.00    -0.544 OA
ENDBRANCH  13  29
ENDBRANCH   3   4
ENDBRANCH   2   3
ENDBRANCH   1   2
BRANCH   1  32
ATOM     32  N   UNL A   1      35.529  32.103  29.193  1.00  0.00    -0.352 N 
ATOM     33  C   UNL A   1      36.504  32.491  30.096  1.00  0.00     0.251 C 
ATOM     34  H   UNL A   1      35.002  32.831  28.791  1.00  0.00     0.163 HD
ATOM     35  O   UNL A   1      36.493  33.602  30.610  1.00  0.00    -0.269 OA
BRANCH  33  36
ATOM     36  C   UNL A   1      37.572  31.532  30.421  1.00  0.00     0.039 A 
ATOM     37  C   UNL A   1      37.333  30.341  31.114  1.00  0.00     0.014 A 
ATOM     38  C   UNL A   1      38.841  31.832  29.942  1.00  0.00     0.014 A 
ATOM     39  C   UNL A   1      38.374  29.422  31.238  1.00  0.00     0.010 A 
ATOM     40  C   UNL A   1      39.776  30.844  29.857  1.00  0.00     0.010 A 
ATOM     41  C   UNL A   1      39.590  29.678  30.585  1.00  0.00    -0.014 A 
BRANCH  41  42
ATOM     42  C   UNL A   1      40.682  28.716  30.565  1.00  0.00     0.031 A 
ATOM     43  C   UNL A   1      41.323  28.494  31.883  1.00  0.00     0.074 A 
ATOM     44  C   UNL A   1      40.908  27.906  29.505  1.00  0.00     0.049 A 
ATOM     45  N   UNL A   1      42.503  28.861  32.253  1.00  0.00    -0.248 NA
ATOM     46  C   UNL A   1      40.508  27.924  32.969  1.00  0.00     0.031 C 
ATOM     47  C   UNL A   1      40.104  27.782  28.277  1.00  0.00     0.029 A 
ATOM     48  N   UNL A   1      41.834  26.921  29.349  1.00  0.00    -0.354 N 
ATOM     49  C   UNL A   1      42.667  28.364  33.543  1.00  0.00     0.074 A 
ATOM     50  C   UNL A   1      41.354  27.990  34.000  1.00  0.00     0.031 C 
ATOM     51  C   UNL A   1      40.422  26.637  27.635  1.00  0.00     0.029 A 
ATOM     52  C   UNL A   1      41.582  26.061  28.285  1.00  0.00     0.049 A 
ATOM     53  H   UNL A   1      42.617  26.826  29.939  1.00  0.00     0.167 HD
ATOM     54  C   UNL A   1      43.902  28.011  33.999  1.00  0.00     0.031 A 
ATOM     55  C   UNL A   1      42.284  24.954  27.950  1.00  0.00     0.031 A 
ATOM     56  C   UNL A   1      44.929  28.455  33.092  1.00  0.00     0.049 A 
ATOM     57  C   UNL A   1      43.619  25.082  28.565  1.00  0.00     0.074 A 
ATOM     58  C   UNL A   1      45.519  29.650  32.749  1.00  0.00     0.029 A 
ATOM     59  N   UNL A   1      45.184  27.563  32.080  1.00  0.00    -0.354 N 
ATOM     60  N   UNL A   1      44.473  26.003  28.221  1.00  0.00    -0.248 NA
ATOM     61  C   UNL A   1      43.891  24.418  29.833  1.00  0.00     0.031 C 
ATOM     62  C   UNL A   1      45.929  29.504  31.389  1.00  0.00     0.029 A 
ATOM     63  C   UNL A   1      45.630  28.211  30.960  1.00  0.00     0.049 A 
ATOM     64  H   UNL A   1      45.063  26.589  32.150  1.00  0.00     0.167 HD
ATOM     65  C   UNL A   1      45.106  26.340  29.403  1.00  0.00     0.074 A 
ATOM     66  C   UNL A   1      44.851  25.221  30.303  1.00  0.00     0.031 C 
ATOM     67  C   UNL A   1      45.505  27.622  29.642  1.00  0.00     0.031 A 
BRANCH  54  68
ATOM     68  C   UNL A   1      44.167  26.852  34.936  1.00  0.00    -0.014 A 
ATOM     69  C   UNL A   1      43.907  25.547  34.473  1.00  0.00     0.009 A 
ATOM     70  C   UNL A   1      44.371  26.995  36.322  1.00  0.00     0.009 A 
ATOM     71  C   UNL A   1      43.792  24.465  35.354  1.00  0.00     0.001 A 
ATOM     72  C   UNL A   1      44.292  25.910  37.201  1.00  0.00     0.001 A 
ATOM     73  C   UNL A   1      43.979  24.649  36.720  1.00  0.00     0.000 A 
ENDBRANCH  54  68
BRANCH  55  74
ATOM     74  C   UNL A   1      41.835  23.709  27.300  1.00  0.00    -0.014 A 
ATOM     75  C   UNL A   1      42.507  23.195  26.181  1.00  0.00     0.009 A 
ATOM     76  C   UNL A   1      40.923  22.869  27.966  1.00  0.00     0.009 A 
ATOM     77  C   UNL A   1      42.312  21.868  25.773  1.00  0.00     0.001 A 
ATOM     78  C   UNL A   1      40.733  21.543  27.561  1.00  0.00     0.001 A 
ATOM     79  C   UNL A   1      41.441  21.038  26.475  1.00  0.00     0.000 A 
ENDBRANCH  55  74
BRANCH  67  80
ATOM     80  C   UNL A   1      45.647  28.536  28.455  1.00  0.00    -0.014 A 
ATOM     81  C   UNL A   1      44.625  29.380  27.988  1.00  0.00     0.009 A 
ATOM     82  C   UNL A   1      46.903  28.601  27.835  1.00  0.00     0.009 A 
ATOM     83  C   UNL A   1      44.852  30.246  26.912  1.00  0.00     0.001 A 
ATOM     84  C   UNL A   1      47.136  29.480  26.776  1.00  0.00     0.001 A 
ATOM     85  C   UNL A   1      46.109  30.297  26.311  1.00  0.00     0.000 A 
ENDBRANCH  67  80
ENDBRANCH  41  42
ENDBRANCH  33  36
ENDBRANCH   1  32
TORSDOF 12
ENDMDL
MODEL 2
REMARK VINA RESULT:     -11.8      3.660      8.369
REMARK SMILES Cn1cc([C@@H]2CC(NCCCNC(=O)c3ccc(-c4c5nc(c(-c6ccccc6)c6ccc([nH]6)c(-c6ccccc6)c6nc(c(-c7ccccc7)c7ccc4[nH]7)C=C6)C=C5)cc3)=[NH+]c3c2sc(C(=O)[O-])c3-c2ccc(Cl)cc2)cn1
REMARK SMILES IDX 11 1 10 2 9 3 8 4 5 5 6 6 65 7 7 8 64 9 66 10 63 11 71 12
REMARK SMILES IDX 67 13 4 16 1 17 2 18 3 19 80 20 79 21 72 22 73 23 78 24
REMARK SMILES IDX 74 25 77 26 75 27 76 28 68 29 69 30 70 31 12 32 13 33 14 35
REMARK SMILES IDX 15 36 16 37 62 38 17 39 61 40 18 41 19 42 20 43 55 44 21 45
REMARK SMILES IDX 60 46 54 47 56 48 22 49 59 50 53 51 52 52 23 54 45 55 30 56
REMARK SMILES IDX 44 57 31 58 34 59 43 60 57 61 32 62 33 63 42 65 58 66 35 67
REMARK SMILES IDX 24 68 25 69 29 70 26 71 28 72 27 73 46 74 47 75 51 76 48 77
REMARK SMILES IDX 50 78 49 79 36 80 37 81 41 82 38 83 40 84 39 85
REMARK H PARENT 8 14 63 15 12 34 56 53 34 64
REMARK Flexibility Score: inf
ROOT
ATOM      1  C   UNL A   1      40.121  23.428  27.301  1.00  0.00     0.120 C 
ENDROOT
BRANCH   1   2
ATOM      2  C   UNL A   1      39.221  24.417  26.583  1.00  0.00     0.067 C 
BRANCH   2   3
ATOM      3  C   UNL A   1      37.737  24.139  26.824  1.00  0.00     0.235 C 
BRANCH   3   4
ATOM      4  N   UNL A   1      37.341  22.808  26.366  1.00  0.00    -0.278 N 
ATOM      5  C   UNL A   1      34.758  20.923  24.196  1.00  0.00     0.079 C 
ATOM      6  C   UNL A   1      36.020  21.174  25.044  1.00  0.00     0.142 C 
ATOM      7  C   UNL A   1      33.947  22.169  24.076  1.00  0.00     0.061 A 
ATOM      8  C   UNL A   1      36.184  22.576  25.645  1.00  0.00     0.248 C 
ATOM      9  C   UNL A   1      34.232  23.348  24.695  1.00  0.00     0.147 A 
ATOM     10  S   UNL A   1      32.548  22.303  23.119  1.00  0.00    -0.133 S 
ATOM     11  N   UNL A   1      35.340  23.554  25.505  1.00  0.00    -0.243 N 
ATOM     12  C   UNL A   1      33.306  24.400  24.416  1.00  0.00     0.049 A 
ATOM     13  C   UNL A   1      32.301  23.960  23.560  1.00  0.00     0.062 A 
ATOM     14  H   UNL A   1      37.924  22.044  26.581  1.00  0.00     0.304 HD
ATOM     15  H   UNL A   1      35.483  24.416  25.960  1.00  0.00     0.312 HD
BRANCH   5  16
ATOM     16  C   UNL A   1      33.929  19.779  24.717  1.00  0.00    -0.001 A 
ATOM     17  C   UNL A   1      32.903  16.370  25.278  1.00  0.00     0.173 C 
ATOM     18  N   UNL A   1      33.115  17.793  25.193  1.00  0.00    -0.276 N 
ATOM     19  C   UNL A   1      33.962  18.447  24.349  1.00  0.00     0.112 A 
ATOM     20  N   UNL A   1      32.466  18.613  26.037  1.00  0.00    -0.182 NA
ATOM     21  C   UNL A   1      32.982  19.814  25.771  1.00  0.00     0.139 A 
ENDBRANCH   5  16
BRANCH  12  22
ATOM     22  C   UNL A   1      33.434  25.767  24.914  1.00  0.00    -0.012 A 
ATOM     23  C   UNL A   1      33.955  26.787  24.111  1.00  0.00     0.010 A 
ATOM     24  C   UNL A   1      32.983  26.070  26.209  1.00  0.00     0.010 A 
ATOM     25  C   UNL A   1      34.080  28.085  24.620  1.00  0.00     0.021 A 
ATOM     26  C   UNL A   1      33.093  27.367  26.711  1.00  0.00     0.021 A 
ATOM     27  C   UNL A   1      33.655  28.366  25.918  1.00  0.00     0.041 A 
ATOM     28  Cl  UNL A   1      33.827  29.957  26.549  1.00  0.00    -0.084 Cl
ENDBRANCH  12  22
BRANCH  13  29
ATOM     29  C   UNL A   1      31.144  24.612  22.970  1.00  0.00     0.082 C 
ATOM     30  O   UNL A   1      29.970  24.457  23.239  1.00  0.00    -0.544 OA
ATOM     31  O   UNL A   1      31.477  25.491  21.996  1.00  0.00    -0.544 OA
ENDBRANCH  13  29
ENDBRANCH   3   4
ENDBRANCH   2   3
ENDBRANCH   1   2
BRANCH   1  32
ATOM     32  N   UNL A   1      41.329  23.070  26.542  1.00  0.00    -0.352 N 
ATOM     33  C   UNL A   1      42.263  23.914  25.965  1.00  0.00     0.251 C 
ATOM     34  H   UNL A   1      41.495  22.105  26.430  1.00  0.00     0.163 HD
ATOM     35  O   UNL A   1      43.038  23.515  25.105  1.00  0.00    -0.269 OA
BRANCH  33  36
ATOM     36  C   UNL A   1      42.311  25.312  26.421  1.00  0.00     0.039 A 
ATOM     37  C   UNL A   1      41.819  26.373  25.654  1.00  0.00     0.014 A 
ATOM     38  C   UNL A   1      42.814  25.531  27.696  1.00  0.00     0.014 A 
ATOM     39  C   UNL A   1      41.763  27.641  26.231  1.00  0.00     0.010 A 
ATOM     40  C   UNL A   1      42.541  26.706  28.332  1.00  0.00     0.010 A 
ATOM     41  C   UNL A   1      42.111  27.790  27.583  1.00  0.00    -0.014 A 
BRANCH  41  42
ATOM     42  C   UNL A   1      41.965  29.055  28.290  1.00  0.00     0.031 A 
ATOM     43  C   UNL A   1      43.090  29.998  28.090  1.00  0.00     0.074 A 
ATOM     44  C   UNL A   1      40.794  29.434  28.853  1.00  0.00     0.049 A 
ATOM     45  N   UNL A   1      43.980  30.352  28.953  1.00  0.00    -0.248 NA
ATOM     46  C   UNL A   1      43.345  30.502  26.729  1.00  0.00     0.031 C 
ATOM     47  C   UNL A   1      39.499  28.734  28.797  1.00  0.00     0.029 A 
ATOM     48  N   UNL A   1      40.473  30.593  29.488  1.00  0.00    -0.354 N 
ATOM     49  C   UNL A   1      44.772  31.302  28.313  1.00  0.00     0.074 A 
ATOM     50  C   UNL A   1      44.472  31.196  26.909  1.00  0.00     0.031 C 
ATOM     51  C   UNL A   1      38.506  29.580  29.147  1.00  0.00     0.029 A 
ATOM     52  C   UNL A   1      39.107  30.801  29.646  1.00  0.00     0.049 A 
ATOM     53  H   UNL A   1      41.151  31.231  29.810  1.00  0.00     0.167 HD
ATOM     54  C   UNL A   1      45.368  32.301  29.022  1.00  0.00     0.031 A 
ATOM     55  C   UNL A   1      38.505  31.896  30.164  1.00  0.00     0.031 A 
ATOM     56  C   UNL A   1      45.257  32.060  30.438  1.00  0.00     0.049 A 
ATOM     57  C   UNL A   1      39.513  32.604  30.977  1.00  0.00     0.074 A 
ATOM     58  C   UNL A   1      45.830  31.215  31.362  1.00  0.00     0.029 A 
ATOM     59  N   UNL A   1      44.090  32.536  30.983  1.00  0.00    -0.354 N 
ATOM     60  N   UNL A   1      40.031  32.100  32.060  1.00  0.00    -0.248 NA
ATOM     61  C   UNL A   1      40.237  33.730  30.402  1.00  0.00     0.031 C 
ATOM     62  C   UNL A   1      44.843  31.021  32.375  1.00  0.00     0.029 A 
ATOM     63  C   UNL A   1      43.722  31.794  32.072  1.00  0.00     0.049 A 
ATOM     64  H   UNL A   1      43.587  33.308  30.637  1.00  0.00     0.167 HD
ATOM     65  C   UNL A   1      41.344  32.533  32.044  1.00  0.00     0.074 A 
ATOM     66  C   UNL A   1      41.359  33.665  31.125  1.00  0.00     0.031 C 
ATOM     67  C   UNL A   1      42.347  31.743  32.525  1.00  0.00     0.031 A 
BRANCH  54  68
ATOM     68  C   UNL A   1      45.571  33.710  28.507  1.00  0.00    -0.014 A 
ATOM     69  C   UNL A   1      44.430  34.486  28.221  1.00  0.00     0.009 A 
ATOM     70  C   UNL A   1      46.798  34.195  28.016  1.00  0.00     0.009 A 
ATOM     71  C   UNL A   1      44.508  35.642  27.435  1.00  0.00     0.001 A 
ATOM     72  C   UNL A   1      46.884  35.369  27.260  1.00  0.00     0.001 A 
ATOM     73  C   UNL A   1      45.735  36.079  26.949  1.00  0.00     0.000 A 
ENDBRANCH  54  68
BRANCH  55  74
ATOM     74  C   UNL A   1      37.187  32.485  29.861  1.00  0.00    -0.014 A 
ATOM     75  C   UNL A   1      36.936  33.097  28.624  1.00  0.00     0.009 A 
ATOM     76  C   UNL A   1      36.087  32.179  30.683  1.00  0.00     0.009 A 
ATOM     77  C   UNL A   1      35.624  33.347  28.201  1.00  0.00     0.001 A 
ATOM     78  C   UNL A   1      34.777  32.425  30.257  1.00  0.00     0.001 A 
ATOM     79  C   UNL A   1      34.545  32.993  29.008  1.00  0.00     0.000 A 
ENDBRANCH  55  74
BRANCH  67  80
ATOM     80  C   UNL A   1      41.962  30.624  33.455  1.00  0.00    -0.014 A 
ATOM     81  C   UNL A   1      41.661  29.319  33.029  1.00  0.00     0.009 A 
ATOM     82  C   UNL A   1      41.985  30.888  34.831  1.00  0.00     0.009 A 
ATOM     83  C   UNL A   1      41.368  28.315  33.960  1.00  0.00     0.001 A 
ATOM     84  C   UNL A   1      41.715  29.883  35.760  1.00  0.00     0.001 A 
ATOM     85  C   UNL A   1      41.399  28.599  35.324  1.00  0.00     0.000 A 
ENDBRANCH  67  80
ENDBRANCH  41  42
ENDBRANCH  33  36
ENDBRANCH   1  32
TORSDOF 12
ENDMDL
MODEL 3
REMARK VINA RESULT:     -11.5      3.169      7.796
REMARK SMILES Cn1cc([C@@H]2CC(NCCCNC(=O)c3ccc(-c4c5nc(c(-c6ccccc6)c6ccc([nH]6)c(-c6ccccc6)c6nc(c(-c7ccccc7)c7ccc4[nH]7)C=C6)C=C5)cc3)=[NH+]c3c2sc(C(=O)[O-])c3-c2ccc(Cl)cc2)cn1
REMARK SMILES IDX 11 1 10 2 9 3 8 4 5 5 6 6 65 7 7 8 64 9 66 10 63 11 71 12
REMARK SMILES IDX 67 13 4 16 1 17 2 18 3 19 80 20 79 21 72 22 73 23 78 24
REMARK SMILES IDX 74 25 77 26 75 27 76 28 68 29 69 30 70 31 12 32 13 33 14 35
REMARK SMILES IDX 15 36 16 37 62 38 17 39 61 40 18 41 19 42 20 43 55 44 21 45
REMARK SMILES IDX 60 46 54 47 56 48 22 49 59 50 53 51 52 52 23 54 45 55 30 56
REMARK SMILES IDX 44 57 31 58 34 59 43 60 57 61 32 62 33 63 42 65 58 66 35 67
REMARK SMILES IDX 24 68 25 69 29 70 26 71 28 72 27 73 46 74 47 75 51 76 48 77
REMARK SMILES IDX 50 78 49 79 36 80 37 81 41 82 38 83 40 84 39 85
REMARK H PARENT 8 14 63 15 12 34 56 53 34 64
REMARK Flexibility Score: inf
ROOT
ATOM      1  C   UNL A   1      38.952  22.531  26.357  1.00  0.00     0.120 C 
ENDROOT
BRANCH   1   2
ATOM      2  C   UNL A   1      38.363  21.465  25.451  1.00  0.00     0.067 C 
BRANCH   2   3
ATOM      3  C   UNL A   1      37.417  22.046  24.400  1.00  0.00     0.235 C 
BRANCH   3   4
ATOM      4  N   UNL A   1      37.094  23.448  24.661  1.00  0.00    -0.278 N 
ATOM      5  C   UNL A   1      34.334  25.786  26.024  1.00  0.00     0.079 C 
ATOM      6  C   UNL A   1      35.716  25.327  25.520  1.00  0.00     0.142 C 
ATOM      7  C   UNL A   1      33.371  24.647  26.031  1.00  0.00     0.061 A 
ATOM      8  C   UNL A   1      35.840  23.866  25.070  1.00  0.00     0.248 C 
ATOM      9  C   UNL A   1      33.642  23.392  25.577  1.00  0.00     0.147 A 
ATOM     10  S   UNL A   1      31.784  24.749  26.634  1.00  0.00    -0.133 S 
ATOM     11  N   UNL A   1      34.873  22.997  25.069  1.00  0.00    -0.243 N 
ATOM     12  C   UNL A   1      32.555  22.473  25.697  1.00  0.00     0.049 A 
ATOM     13  C   UNL A   1      31.443  23.092  26.258  1.00  0.00     0.062 A 
ATOM     14  H   UNL A   1      37.799  24.124  24.542  1.00  0.00     0.304 HD
ATOM     15  H   UNL A   1      35.008  22.086  24.719  1.00  0.00     0.312 HD
BRANCH   5  16
ATOM     16  C   UNL A   1      33.794  26.956  25.247  1.00  0.00    -0.001 A 
ATOM     17  C   UNL A   1      32.025  28.722  22.650  1.00  0.00     0.173 C 
ATOM     18  N   UNL A   1      32.787  28.243  23.776  1.00  0.00    -0.276 N 
ATOM     19  C   UNL A   1      33.234  26.971  23.983  1.00  0.00     0.112 A 
ATOM     20  N   UNL A   1      33.086  29.083  24.781  1.00  0.00    -0.182 NA
ATOM     21  C   UNL A   1      33.669  28.296  25.687  1.00  0.00     0.139 A 
ENDBRANCH   5  16
BRANCH  12  22
ATOM     22  C   UNL A   1      32.625  21.060  25.335  1.00  0.00    -0.012 A 
ATOM     23  C   UNL A   1      32.888  20.076  26.294  1.00  0.00     0.010 A 
ATOM     24  C   UNL A   1      32.377  20.678  24.007  1.00  0.00     0.010 A 
ATOM     25  C   UNL A   1      32.964  18.731  25.917  1.00  0.00     0.021 A 
ATOM     26  C   UNL A   1      32.437  19.335  23.632  1.00  0.00     0.021 A 
ATOM     27  C   UNL A   1      32.746  18.369  24.587  1.00  0.00     0.041 A 
ATOM     28  Cl  UNL A   1      32.857  16.717  24.121  1.00  0.00    -0.084 Cl
ENDBRANCH  12  22
BRANCH  13  29
ATOM     29  C   UNL A   1      30.110  22.623  26.598  1.00  0.00     0.082 C 
ATOM     30  O   UNL A   1      29.515  21.659  26.161  1.00  0.00    -0.544 OA
ATOM     31  O   UNL A   1      29.500  23.400  27.522  1.00  0.00    -0.544 OA
ENDBRANCH  13  29
ENDBRANCH   3   4
ENDBRANCH   2   3
ENDBRANCH   1   2
BRANCH   1  32
ATOM     32  N   UNL A   1      39.989  22.026  27.268  1.00  0.00    -0.352 N 
ATOM     33  C   UNL A   1      41.038  22.722  27.846  1.00  0.00     0.251 C 
ATOM     34  H   UNL A   1      39.930  21.071  27.498  1.00  0.00     0.163 HD
ATOM     35  O   UNL A   1      42.004  22.141  28.323  1.00  0.00    -0.269 OA
BRANCH  33  36
ATOM     36  C   UNL A   1      40.961  24.192  27.881  1.00  0.00     0.039 A 
ATOM     37  C   UNL A   1      39.848  24.901  27.420  1.00  0.00     0.014 A 
ATOM     38  C   UNL A   1      42.034  24.853  28.465  1.00  0.00     0.014 A 
ATOM     39  C   UNL A   1      39.798  26.277  27.638  1.00  0.00     0.010 A 
ATOM     40  C   UNL A   1      41.878  26.142  28.884  1.00  0.00     0.010 A 
ATOM     41  C   UNL A   1      40.815  26.885  28.391  1.00  0.00    -0.014 A 
BRANCH  41  42
ATOM     42  C   UNL A   1      40.775  28.291  28.764  1.00  0.00     0.031 A 
ATOM     43  C   UNL A   1      41.874  29.105  28.194  1.00  0.00     0.074 A 
ATOM     44  C   UNL A   1      39.690  28.849  29.350  1.00  0.00     0.049 A 
ATOM     45  N   UNL A   1      42.872  29.627  28.822  1.00  0.00    -0.248 NA
ATOM     46  C   UNL A   1      41.956  29.238  26.728  1.00  0.00     0.031 C 
ATOM     47  C   UNL A   1      38.392  28.214  29.634  1.00  0.00     0.029 A 
ATOM     48  N   UNL A   1      39.466  30.144  29.703  1.00  0.00    -0.354 N 
ATOM     49  C   UNL A   1      43.584  30.350  27.869  1.00  0.00     0.074 A 
ATOM     50  C   UNL A   1      43.104  29.906  26.586  1.00  0.00     0.031 C 
ATOM     51  C   UNL A   1      37.461  29.162  29.875  1.00  0.00     0.029 A 
ATOM     52  C   UNL A   1      38.133  30.443  29.968  1.00  0.00     0.049 A 
ATOM     53  H   UNL A   1      40.185  30.813  29.765  1.00  0.00     0.167 HD
ATOM     54  C   UNL A   1      44.276  31.470  28.221  1.00  0.00     0.031 A 
ATOM     55  C   UNL A   1      37.614  31.658  30.258  1.00  0.00     0.031 A 
ATOM     56  C   UNL A   1      44.346  31.598  29.654  1.00  0.00     0.049 A 
ATOM     57  C   UNL A   1      38.725  32.505  30.734  1.00  0.00     0.074 A 
ATOM     58  C   UNL A   1      45.025  30.990  30.685  1.00  0.00     0.029 A 
ATOM     59  N   UNL A   1      43.265  32.246  30.197  1.00  0.00    -0.354 N 
ATOM     60  N   UNL A   1      39.375  32.268  31.838  1.00  0.00    -0.248 NA
ATOM     61  C   UNL A   1      39.380  33.417  29.807  1.00  0.00     0.031 C 
ATOM     62  C   UNL A   1      44.175  31.100  31.827  1.00  0.00     0.029 A 
ATOM     63  C   UNL A   1      43.032  31.819  31.476  1.00  0.00     0.049 A 
ATOM     64  H   UNL A   1      42.728  32.926  29.729  1.00  0.00     0.167 HD
ATOM     65  C   UNL A   1      40.678  32.627  31.551  1.00  0.00     0.074 A 
ATOM     66  C   UNL A   1      40.586  33.489  30.379  1.00  0.00     0.031 C 
ATOM     67  C   UNL A   1      41.727  31.941  32.092  1.00  0.00     0.031 A 
BRANCH  54  68
ATOM     68  C   UNL A   1      44.425  32.693  27.341  1.00  0.00    -0.014 A 
ATOM     69  C   UNL A   1      43.653  33.831  27.647  1.00  0.00     0.009 A 
ATOM     70  C   UNL A   1      45.049  32.680  26.080  1.00  0.00     0.009 A 
ATOM     71  C   UNL A   1      43.465  34.862  26.717  1.00  0.00     0.001 A 
ATOM     72  C   UNL A   1      44.893  33.723  25.162  1.00  0.00     0.001 A 
ATOM     73  C   UNL A   1      44.081  34.803  25.471  1.00  0.00     0.000 A 
ENDBRANCH  54  68
BRANCH  55  74
ATOM     74  C   UNL A   1      36.274  32.207  29.979  1.00  0.00    -0.014 A 
ATOM     75  C   UNL A   1      35.532  32.845  30.983  1.00  0.00     0.009 A 
ATOM     76  C   UNL A   1      35.853  32.362  28.645  1.00  0.00     0.009 A 
ATOM     77  C   UNL A   1      34.434  33.655  30.660  1.00  0.00     0.001 A 
ATOM     78  C   UNL A   1      34.760  33.174  28.323  1.00  0.00     0.001 A 
ATOM     79  C   UNL A   1      34.061  33.834  29.330  1.00  0.00     0.000 A 
ENDBRANCH  55  74
BRANCH  67  80
ATOM     80  C   UNL A   1      41.454  31.111  33.317  1.00  0.00    -0.014 A 
ATOM     81  C   UNL A   1      41.129  29.744  33.281  1.00  0.00     0.009 A 
ATOM     82  C   UNL A   1      41.615  31.726  34.566  1.00  0.00     0.009 A 
ATOM     83  C   UNL A   1      40.946  29.024  34.467  1.00  0.00     0.001 A 
ATOM     84  C   UNL A   1      41.454  31.004  35.748  1.00  0.00     0.001 A 
ATOM     85  C   UNL A   1      41.113  29.654  35.699  1.00  0.00     0.000 A 
ENDBRANCH  67  80
ENDBRANCH  41  42
ENDBRANCH  33  36
ENDBRANCH   1  32
TORSDOF 12
ENDMDL
