MODEL 1
REMARK VINA RESULT:     -10.9      0.000      0.000
REMARK SMILES COCc1cc(OCC(=O)NCCCNC(=O)c2ccc(-c3c4nc(c(-c5ccccc5)c5ccc([nH]5)c(-c5ccccc5)c5nc(c(-c6ccccc6)c6ccc3[nH]6)C=C5)C=C4)cc2)nc(Nc2cccc(C)c2C)n1
REMARK SMILES IDX 12 1 11 2 9 3 10 4 8 6 7 7 6 8 4 9 5 10 77 11 67 12 66 13
REMARK SMILES IDX 3 14 2 15 1 16 68 17 69 19 70 20 75 21 71 22 73 23 76 24
REMARK SMILES IDX 72 25 74 26 13 27 14 28 15 29 16 30 17 32 18 33 19 34 65 35
REMARK SMILES IDX 20 36 64 37 21 38 22 39 23 40 58 41 24 42 63 43 57 44 59 45
REMARK SMILES IDX 25 46 62 47 56 48 55 49 26 51 48 52 33 53 47 54 34 55 37 56
REMARK SMILES IDX 46 57 60 58 35 59 36 60 45 62 61 63 38 64 27 65 28 66 32 67
REMARK SMILES IDX 29 68 31 69 30 70 49 71 50 72 54 73 51 74 53 75 52 76 39 77
REMARK SMILES IDX 40 78 44 79 41 80 43 81 42 82
REMARK H PARENT 11 5 68 18 15 31 59 50 37 61
REMARK Flexibility Score: inf
ROOT
ATOM      1  C   UNL A   1      32.506  27.473  23.077  1.00  0.00     0.117 C 
ENDROOT
BRANCH   1   2
ATOM      2  N   UNL A   1      32.739  26.949  21.745  1.00  0.00    -0.353 N 
ATOM      3  C   UNL A   1      32.970  25.658  21.372  1.00  0.00     0.258 C 
ATOM      4  O   UNL A   1      33.035  25.390  20.171  1.00  0.00    -0.271 OA
ATOM      5  H   UNL A   1      32.728  27.610  21.015  1.00  0.00     0.163 HD
BRANCH   3   6
ATOM      6  C   UNL A   1      33.123  24.563  22.436  1.00  0.00     0.331 C 
BRANCH   6   7
ATOM      7  O   UNL A   1      34.338  23.835  22.446  1.00  0.00    -0.467 OA
BRANCH   7   8
ATOM      8  C   UNL A   1      34.548  22.934  23.452  1.00  0.00     0.218 A 
ATOM      9  C   UNL A   1      33.974  21.313  25.042  1.00  0.00     0.076 A 
ATOM     10  C   UNL A   1      33.561  22.275  24.147  1.00  0.00     0.095 A 
ATOM     11  N   UNL A   1      35.280  21.091  25.274  1.00  0.00    -0.215 NA
ATOM     12  C   UNL A   1      36.184  21.824  24.611  1.00  0.00     0.230 A 
ATOM     13  N   UNL A   1      35.856  22.744  23.697  1.00  0.00    -0.177 NA
BRANCH   9  14
ATOM     14  C   UNL A   1      32.988  20.494  25.843  1.00  0.00     0.216 C 
BRANCH  14  15
ATOM     15  O   UNL A   1      32.166  19.624  25.061  1.00  0.00    -0.378 OA
ATOM     16  C   UNL A   1      32.652  18.294  24.957  1.00  0.00     0.195 C 
ENDBRANCH  14  15
ENDBRANCH   9  14
BRANCH  12  17
ATOM     17  N   UNL A   1      37.540  21.671  24.891  1.00  0.00    -0.324 N 
ATOM     18  H   UNL A   1      37.985  20.915  24.443  1.00  0.00     0.170 HD
BRANCH  17  19
ATOM     19  C   UNL A   1      38.355  22.451  25.724  1.00  0.00     0.044 A 
ATOM     20  C   UNL A   1      37.967  23.779  25.962  1.00  0.00     0.026 A 
ATOM     21  C   UNL A   1      39.495  21.933  26.390  1.00  0.00    -0.025 A 
ATOM     22  C   UNL A   1      38.661  24.580  26.867  1.00  0.00     0.002 A 
ATOM     23  C   UNL A   1      40.181  22.742  27.328  1.00  0.00    -0.046 A 
ATOM     24  C   UNL A   1      39.994  20.539  26.096  1.00  0.00     0.047 C 
ATOM     25  C   UNL A   1      39.755  24.060  27.550  1.00  0.00     0.004 A 
ATOM     26  C   UNL A   1      41.374  22.262  28.115  1.00  0.00     0.044 C 
ENDBRANCH  17  19
ENDBRANCH  12  17
ENDBRANCH   7   8
ENDBRANCH   6   7
ENDBRANCH   3   6
ENDBRANCH   1   2
BRANCH   1  27
ATOM     27  C   UNL A   1      33.368  28.689  23.399  1.00  0.00     0.042 C 
BRANCH  27  28
ATOM     28  C   UNL A   1      33.583  28.947  24.888  1.00  0.00     0.118 C 
BRANCH  28  29
ATOM     29  N   UNL A   1      32.742  30.015  25.416  1.00  0.00    -0.352 N 
ATOM     30  C   UNL A   1      32.860  30.777  26.553  1.00  0.00     0.251 C 
ATOM     31  H   UNL A   1      31.956  30.227  24.863  1.00  0.00     0.163 HD
ATOM     32  O   UNL A   1      31.938  31.521  26.876  1.00  0.00    -0.269 OA
BRANCH  30  33
ATOM     33  C   UNL A   1      34.068  30.701  27.407  1.00  0.00     0.039 A 
ATOM     34  C   UNL A   1      34.404  29.471  27.983  1.00  0.00     0.014 A 
ATOM     35  C   UNL A   1      34.847  31.828  27.674  1.00  0.00     0.014 A 
ATOM     36  C   UNL A   1      35.561  29.356  28.757  1.00  0.00     0.010 A 
ATOM     37  C   UNL A   1      36.042  31.696  28.380  1.00  0.00     0.010 A 
ATOM     38  C   UNL A   1      36.415  30.458  28.926  1.00  0.00    -0.014 A 
BRANCH  38  39
ATOM     39  C   UNL A   1      37.709  30.326  29.646  1.00  0.00     0.031 A 
ATOM     40  C   UNL A   1      38.859  29.579  29.025  1.00  0.00     0.074 A 
ATOM     41  C   UNL A   1      37.829  30.823  30.893  1.00  0.00     0.049 A 
ATOM     42  N   UNL A   1      40.040  29.316  29.528  1.00  0.00    -0.248 NA
ATOM     43  C   UNL A   1      38.648  29.038  27.673  1.00  0.00     0.031 C 
ATOM     44  C   UNL A   1      36.780  31.535  31.627  1.00  0.00     0.029 A 
ATOM     45  N   UNL A   1      38.887  30.801  31.767  1.00  0.00    -0.354 N 
ATOM     46  C   UNL A   1      40.704  28.569  28.563  1.00  0.00     0.074 A 
ATOM     47  C   UNL A   1      39.778  28.379  27.467  1.00  0.00     0.031 C 
ATOM     48  C   UNL A   1      37.255  31.905  32.826  1.00  0.00     0.029 A 
ATOM     49  C   UNL A   1      38.623  31.420  32.966  1.00  0.00     0.049 A 
ATOM     50  H   UNL A   1      39.753  30.383  31.555  1.00  0.00     0.167 HD
ATOM     51  C   UNL A   1      41.973  28.097  28.579  1.00  0.00     0.031 A 
ATOM     52  C   UNL A   1      39.391  31.570  34.063  1.00  0.00     0.031 A 
ATOM     53  C   UNL A   1      42.897  28.286  29.668  1.00  0.00     0.049 A 
ATOM     54  C   UNL A   1      40.788  31.014  34.064  1.00  0.00     0.074 A 
ATOM     55  C   UNL A   1      44.220  27.893  29.753  1.00  0.00     0.029 A 
ATOM     56  N   UNL A   1      42.589  28.917  30.864  1.00  0.00    -0.354 N 
ATOM     57  N   UNL A   1      41.424  30.373  33.114  1.00  0.00    -0.248 NA
ATOM     58  C   UNL A   1      41.576  31.214  35.290  1.00  0.00     0.031 C 
ATOM     59  C   UNL A   1      44.698  28.234  31.023  1.00  0.00     0.029 A 
ATOM     60  C   UNL A   1      43.690  28.897  31.704  1.00  0.00     0.049 A 
ATOM     61  H   UNL A   1      41.717  29.319  31.083  1.00  0.00     0.167 HD
ATOM     62  C   UNL A   1      42.695  30.118  33.616  1.00  0.00     0.074 A 
ATOM     63  C   UNL A   1      42.744  30.690  34.945  1.00  0.00     0.031 C 
ATOM     64  C   UNL A   1      43.728  29.469  33.026  1.00  0.00     0.031 A 
BRANCH  51  65
ATOM     65  C   UNL A   1      42.439  27.317  27.380  1.00  0.00    -0.014 A 
ATOM     66  C   UNL A   1      42.634  25.928  27.445  1.00  0.00     0.009 A 
ATOM     67  C   UNL A   1      42.645  27.974  26.156  1.00  0.00     0.009 A 
ATOM     68  C   UNL A   1      43.064  25.220  26.320  1.00  0.00     0.001 A 
ATOM     69  C   UNL A   1      43.045  27.258  25.025  1.00  0.00     0.001 A 
ATOM     70  C   UNL A   1      43.264  25.884  25.110  1.00  0.00     0.000 A 
ENDBRANCH  51  65
BRANCH  52  71
ATOM     71  C   UNL A   1      38.861  32.288  35.251  1.00  0.00    -0.014 A 
ATOM     72  C   UNL A   1      38.983  33.683  35.354  1.00  0.00     0.009 A 
ATOM     73  C   UNL A   1      38.240  31.584  36.295  1.00  0.00     0.009 A 
ATOM     74  C   UNL A   1      38.520  34.353  36.490  1.00  0.00     0.001 A 
ATOM     75  C   UNL A   1      37.751  32.260  37.414  1.00  0.00     0.001 A 
ATOM     76  C   UNL A   1      37.901  33.642  37.516  1.00  0.00     0.000 A 
ENDBRANCH  52  71
BRANCH  64  77
ATOM     77  C   UNL A   1      45.014  29.375  33.799  1.00  0.00    -0.014 A 
ATOM     78  C   UNL A   1      45.989  30.382  33.725  1.00  0.00     0.009 A 
ATOM     79  C   UNL A   1      45.234  28.277  34.645  1.00  0.00     0.009 A 
ATOM     80  C   UNL A   1      47.175  30.270  34.454  1.00  0.00     0.001 A 
ATOM     81  C   UNL A   1      46.406  28.184  35.397  1.00  0.00     0.001 A 
ATOM     82  C   UNL A   1      47.379  29.175  35.293  1.00  0.00     0.000 A 
ENDBRANCH  64  77
ENDBRANCH  38  39
ENDBRANCH  30  33
ENDBRANCH  28  29
ENDBRANCH  27  28
ENDBRANCH   1  27
TORSDOF 16
ENDMDL
MODEL 2
REMARK VINA RESULT:     -10.8      3.813      9.224
REMARK SMILES COCc1cc(OCC(=O)NCCCNC(=O)c2ccc(-c3c4nc(c(-c5ccccc5)c5ccc([nH]5)c(-c5ccccc5)c5nc(c(-c6ccccc6)c6ccc3[nH]6)C=C5)C=C4)cc2)nc(Nc2cccc(C)c2C)n1
REMARK SMILES IDX 12 1 11 2 9 3 10 4 8 6 7 7 6 8 4 9 5 10 77 11 67 12 66 13
REMARK SMILES IDX 3 14 2 15 1 16 68 17 69 19 70 20 75 21 71 22 73 23 76 24
REMARK SMILES IDX 72 25 74 26 13 27 14 28 15 29 16 30 17 32 18 33 19 34 65 35
REMARK SMILES IDX 20 36 64 37 21 38 22 39 23 40 58 41 24 42 63 43 57 44 59 45
REMARK SMILES IDX 25 46 62 47 56 48 55 49 26 51 48 52 33 53 47 54 34 55 37 56
REMARK SMILES IDX 46 57 60 58 35 59 36 60 45 62 61 63 38 64 27 65 28 66 32 67
REMARK SMILES IDX 29 68 31 69 30 70 49 71 50 72 54 73 51 74 53 75 52 76 39 77
REMARK SMILES IDX 40 78 44 79 41 80 43 81 42 82
REMARK H PARENT 11 5 68 18 15 31 59 50 37 61
REMARK Flexibility Score: inf
ROOT
ATOM      1  C   UNL A   1      36.698  20.497  25.041  1.00  0.00     0.117 C 
ENDROOT
BRANCH   1   2
ATOM      2  N   UNL A   1      37.023  21.826  25.523  1.00  0.00    -0.353 N 
ATOM      3  C   UNL A   1      36.891  23.018  24.874  1.00  0.00     0.258 C 
ATOM      4  O   UNL A   1      37.118  24.059  25.494  1.00  0.00    -0.271 OA
ATOM      5  H   UNL A   1      37.385  21.874  26.438  1.00  0.00     0.163 HD
BRANCH   3   6
ATOM      6  C   UNL A   1      36.447  23.052  23.406  1.00  0.00     0.331 C 
BRANCH   6   7
ATOM      7  O   UNL A   1      35.196  23.651  23.120  1.00  0.00    -0.467 OA
BRANCH   7   8
ATOM      8  C   UNL A   1      34.093  23.206  23.793  1.00  0.00     0.218 A 
ATOM      9  C   UNL A   1      32.644  21.631  24.744  1.00  0.00     0.076 A 
ATOM     10  C   UNL A   1      33.720  21.889  23.924  1.00  0.00     0.095 A 
ATOM     11  N   UNL A   1      31.952  22.629  25.321  1.00  0.00    -0.215 NA
ATOM     12  C   UNL A   1      32.331  23.892  25.088  1.00  0.00     0.230 A 
ATOM     13  N   UNL A   1      33.391  24.214  24.338  1.00  0.00    -0.177 NA
BRANCH   9  14
ATOM     14  C   UNL A   1      32.156  20.223  24.999  1.00  0.00     0.216 C 
BRANCH  14  15
ATOM     15  O   UNL A   1      32.452  19.293  23.953  1.00  0.00    -0.378 OA
ATOM     16  C   UNL A   1      32.542  17.942  24.378  1.00  0.00     0.195 C 
ENDBRANCH  14  15
ENDBRANCH   9  14
BRANCH  12  17
ATOM     17  N   UNL A   1      31.584  24.947  25.608  1.00  0.00    -0.324 N 
ATOM     18  H   UNL A   1      31.213  24.804  26.508  1.00  0.00     0.170 HD
BRANCH  17  19
ATOM     19  C   UNL A   1      31.292  26.186  25.018  1.00  0.00     0.044 A 
ATOM     20  C   UNL A   1      30.331  26.214  23.995  1.00  0.00     0.026 A 
ATOM     21  C   UNL A   1      31.863  27.405  25.465  1.00  0.00    -0.025 A 
ATOM     22  C   UNL A   1      29.906  27.420  23.441  1.00  0.00     0.002 A 
ATOM     23  C   UNL A   1      31.409  28.629  24.918  1.00  0.00    -0.046 A 
ATOM     24  C   UNL A   1      32.961  27.409  26.502  1.00  0.00     0.047 C 
ATOM     25  C   UNL A   1      30.437  28.618  23.906  1.00  0.00     0.004 A 
ATOM     26  C   UNL A   1      31.926  29.974  25.361  1.00  0.00     0.044 C 
ENDBRANCH  17  19
ENDBRANCH  12  17
ENDBRANCH   7   8
ENDBRANCH   6   7
ENDBRANCH   3   6
ENDBRANCH   1   2
BRANCH   1  27
ATOM     27  C   UNL A   1      37.912  19.580  24.956  1.00  0.00     0.042 C 
BRANCH  27  28
ATOM     28  C   UNL A   1      39.127  20.047  25.753  1.00  0.00     0.118 C 
BRANCH  28  29
ATOM     29  N   UNL A   1      40.195  19.055  25.810  1.00  0.00    -0.352 N 
ATOM     30  C   UNL A   1      41.547  19.196  26.014  1.00  0.00     0.251 C 
ATOM     31  H   UNL A   1      39.897  18.126  25.680  1.00  0.00     0.163 HD
ATOM     32  O   UNL A   1      42.281  18.224  25.865  1.00  0.00    -0.269 OA
BRANCH  30  33
ATOM     33  C   UNL A   1      42.134  20.503  26.388  1.00  0.00     0.039 A 
ATOM     34  C   UNL A   1      42.638  21.325  25.375  1.00  0.00     0.014 A 
ATOM     35  C   UNL A   1      42.228  20.909  27.721  1.00  0.00     0.014 A 
ATOM     36  C   UNL A   1      43.159  22.582  25.690  1.00  0.00     0.010 A 
ATOM     37  C   UNL A   1      42.674  22.194  28.027  1.00  0.00     0.010 A 
ATOM     38  C   UNL A   1      43.141  23.047  27.016  1.00  0.00    -0.014 A 
BRANCH  38  39
ATOM     39  C   UNL A   1      43.580  24.426  27.354  1.00  0.00     0.031 A 
ATOM     40  C   UNL A   1      42.578  25.471  27.764  1.00  0.00     0.074 A 
ATOM     41  C   UNL A   1      44.880  24.757  27.229  1.00  0.00     0.049 A 
ATOM     42  N   UNL A   1      42.772  26.737  28.041  1.00  0.00    -0.248 NA
ATOM     43  C   UNL A   1      41.172  25.046  27.852  1.00  0.00     0.031 C 
ATOM     44  C   UNL A   1      45.950  23.851  26.805  1.00  0.00     0.029 A 
ATOM     45  N   UNL A   1      45.524  25.951  27.442  1.00  0.00    -0.354 N 
ATOM     46  C   UNL A   1      41.516  27.260  28.319  1.00  0.00     0.074 A 
ATOM     47  C   UNL A   1      40.562  26.188  28.131  1.00  0.00     0.031 C 
ATOM     48  C   UNL A   1      47.118  24.513  26.816  1.00  0.00     0.029 A 
ATOM     49  C   UNL A   1      46.877  25.898  27.202  1.00  0.00     0.049 A 
ATOM     50  H   UNL A   1      45.061  26.768  27.740  1.00  0.00     0.167 HD
ATOM     51  C   UNL A   1      41.185  28.513  28.712  1.00  0.00     0.031 A 
ATOM     52  C   UNL A   1      47.818  26.859  27.272  1.00  0.00     0.031 A 
ATOM     53  C   UNL A   1      42.133  29.581  28.902  1.00  0.00     0.049 A 
ATOM     54  C   UNL A   1      47.421  28.249  27.686  1.00  0.00     0.074 A 
ATOM     55  C   UNL A   1      41.900  30.869  29.351  1.00  0.00     0.029 A 
ATOM     56  N   UNL A   1      43.492  29.486  28.646  1.00  0.00    -0.354 N 
ATOM     57  N   UNL A   1      46.238  28.707  28.016  1.00  0.00    -0.248 NA
ATOM     58  C   UNL A   1      48.495  29.251  27.746  1.00  0.00     0.031 C 
ATOM     59  C   UNL A   1      43.110  31.571  29.312  1.00  0.00     0.029 A 
ATOM     60  C   UNL A   1      44.106  30.701  28.901  1.00  0.00     0.049 A 
ATOM     61  H   UNL A   1      43.953  28.675  28.331  1.00  0.00     0.167 HD
ATOM     62  C   UNL A   1      46.430  30.042  28.351  1.00  0.00     0.074 A 
ATOM     63  C   UNL A   1      47.845  30.313  28.202  1.00  0.00     0.031 C 
ATOM     64  C   UNL A   1      45.515  30.960  28.748  1.00  0.00     0.031 A 
BRANCH  51  65
ATOM     65  C   UNL A   1      39.730  28.804  28.956  1.00  0.00    -0.014 A 
ATOM     66  C   UNL A   1      39.146  28.601  30.218  1.00  0.00     0.009 A 
ATOM     67  C   UNL A   1      38.938  29.327  27.920  1.00  0.00     0.009 A 
ATOM     68  C   UNL A   1      37.794  28.878  30.425  1.00  0.00     0.001 A 
ATOM     69  C   UNL A   1      37.593  29.633  28.140  1.00  0.00     0.001 A 
ATOM     70  C   UNL A   1      37.020  29.399  29.389  1.00  0.00     0.000 A 
ENDBRANCH  51  65
BRANCH  52  71
ATOM     71  C   UNL A   1      49.234  26.540  26.953  1.00  0.00    -0.014 A 
ATOM     72  C   UNL A   1      49.703  26.622  25.633  1.00  0.00     0.009 A 
ATOM     73  C   UNL A   1      50.123  26.141  27.963  1.00  0.00     0.009 A 
ATOM     74  C   UNL A   1      51.024  26.284  25.327  1.00  0.00     0.001 A 
ATOM     75  C   UNL A   1      51.450  25.833  27.660  1.00  0.00     0.001 A 
ATOM     76  C   UNL A   1      51.897  25.894  26.341  1.00  0.00     0.000 A 
ENDBRANCH  52  71
BRANCH  64  77
ATOM     77  C   UNL A   1      46.021  32.335  29.085  1.00  0.00    -0.014 A 
ATOM     78  C   UNL A   1      46.474  32.653  30.375  1.00  0.00     0.009 A 
ATOM     79  C   UNL A   1      46.079  33.317  28.083  1.00  0.00     0.009 A 
ATOM     80  C   UNL A   1      46.939  33.939  30.662  1.00  0.00     0.001 A 
ATOM     81  C   UNL A   1      46.575  34.590  28.365  1.00  0.00     0.001 A 
ATOM     82  C   UNL A   1      46.995  34.903  29.656  1.00  0.00     0.000 A 
ENDBRANCH  64  77
ENDBRANCH  38  39
ENDBRANCH  30  33
ENDBRANCH  28  29
ENDBRANCH  27  28
ENDBRANCH   1  27
TORSDOF 16
ENDMDL
MODEL 3
REMARK VINA RESULT:     -10.8      3.443      7.628
REMARK SMILES COCc1cc(OCC(=O)NCCCNC(=O)c2ccc(-c3c4nc(c(-c5ccccc5)c5ccc([nH]5)c(-c5ccccc5)c5nc(c(-c6ccccc6)c6ccc3[nH]6)C=C5)C=C4)cc2)nc(Nc2cccc(C)c2C)n1
REMARK SMILES IDX 12 1 11 2 9 3 10 4 8 6 7 7 6 8 4 9 5 10 77 11 67 12 66 13
REMARK SMILES IDX 3 14 2 15 1 16 68 17 69 19 70 20 75 21 71 22 73 23 76 24
REMARK SMILES IDX 72 25 74 26 13 27 14 28 15 29 16 30 17 32 18 33 19 34 65 35
REMARK SMILES IDX 20 36 64 37 21 38 22 39 23 40 58 41 24 42 63 43 57 44 59 45
REMARK SMILES IDX 25 46 62 47 56 48 55 49 26 51 48 52 33 53 47 54 34 55 37 56
REMARK SMILES IDX 46 57 60 58 35 59 36 60 45 62 61 63 38 64 27 65 28 66 32 67
REMARK SMILES IDX 29 68 31 69 30 70 49 71 50 72 54 73 51 74 53 75 52 76 39 77
REMARK SMILES IDX 40 78 44 79 41 80 43 81 42 82
REMARK H PARENT 11 5 68 18 15 31 59 50 37 61
REMARK Flexibility Score: inf
ROOT
ATOM      1  C   UNL A   1      36.561  20.553  25.016  1.00  0.00     0.117 C 
ENDROOT
BRANCH   1   2
ATOM      2  N   UNL A   1      36.713  21.848  25.651  1.00  0.00    -0.353 N 
ATOM      3  C   UNL A   1      36.615  23.085  25.085  1.00  0.00     0.258 C 
ATOM      4  O   UNL A   1      36.667  24.076  25.815  1.00  0.00    -0.271 OA
ATOM      5  H   UNL A   1      36.913  21.832  26.615  1.00  0.00     0.163 HD
BRANCH   3   6
ATOM      6  C   UNL A   1      36.423  23.227  23.570  1.00  0.00     0.331 C 
BRANCH   6   7
ATOM      7  O   UNL A   1      35.173  23.715  23.118  1.00  0.00    -0.467 OA
BRANCH   7   8
ATOM      8  C   UNL A   1      34.034  23.121  23.585  1.00  0.00     0.218 A 
ATOM      9  C   UNL A   1      32.583  21.353  24.092  1.00  0.00     0.076 A 
ATOM     10  C   UNL A   1      33.719  21.789  23.446  1.00  0.00     0.095 A 
ATOM     11  N   UNL A   1      31.789  22.209  24.760  1.00  0.00    -0.215 NA
ATOM     12  C   UNL A   1      32.124  23.506  24.790  1.00  0.00     0.230 A 
ATOM     13  N   UNL A   1      33.233  23.992  24.222  1.00  0.00    -0.177 NA
BRANCH   9  14
ATOM     14  C   UNL A   1      32.146  19.907  24.047  1.00  0.00     0.216 C 
BRANCH  14  15
ATOM     15  O   UNL A   1      32.132  19.251  25.317  1.00  0.00    -0.378 OA
ATOM     16  C   UNL A   1      32.804  18.000  25.339  1.00  0.00     0.195 C 
ENDBRANCH  14  15
ENDBRANCH   9  14
BRANCH  12  17
ATOM     17  N   UNL A   1      31.277  24.426  25.405  1.00  0.00    -0.324 N 
ATOM     18  H   UNL A   1      30.459  24.052  25.806  1.00  0.00     0.170 HD
BRANCH  17  19
ATOM     19  C   UNL A   1      31.436  25.814  25.530  1.00  0.00     0.044 A 
ATOM     20  C   UNL A   1      32.331  26.286  26.503  1.00  0.00     0.026 A 
ATOM     21  C   UNL A   1      30.799  26.742  24.668  1.00  0.00    -0.025 A 
ATOM     22  C   UNL A   1      32.628  27.643  26.611  1.00  0.00     0.002 A 
ATOM     23  C   UNL A   1      31.123  28.118  24.763  1.00  0.00    -0.046 A 
ATOM     24  C   UNL A   1      29.766  26.284  23.667  1.00  0.00     0.047 C 
ATOM     25  C   UNL A   1      32.033  28.549  25.741  1.00  0.00     0.004 A 
ATOM     26  C   UNL A   1      30.529  29.170  23.862  1.00  0.00     0.044 C 
ENDBRANCH  17  19
ENDBRANCH  12  17
ENDBRANCH   7   8
ENDBRANCH   6   7
ENDBRANCH   3   6
ENDBRANCH   1   2
BRANCH   1  27
ATOM     27  C   UNL A   1      37.875  19.792  24.887  1.00  0.00     0.042 C 
BRANCH  27  28
ATOM     28  C   UNL A   1      38.980  20.255  25.834  1.00  0.00     0.118 C 
BRANCH  28  29
ATOM     29  N   UNL A   1      40.138  19.368  25.846  1.00  0.00    -0.352 N 
ATOM     30  C   UNL A   1      41.462  19.617  26.117  1.00  0.00     0.251 C 
ATOM     31  H   UNL A   1      39.937  18.431  25.622  1.00  0.00     0.163 HD
ATOM     32  O   UNL A   1      42.293  18.737  25.911  1.00  0.00    -0.269 OA
BRANCH  30  33
ATOM     33  C   UNL A   1      41.906  20.933  26.629  1.00  0.00     0.039 A 
ATOM     34  C   UNL A   1      42.348  21.894  25.713  1.00  0.00     0.014 A 
ATOM     35  C   UNL A   1      41.927  21.217  27.995  1.00  0.00     0.014 A 
ATOM     36  C   UNL A   1      42.732  23.160  26.160  1.00  0.00     0.010 A 
ATOM     37  C   UNL A   1      42.235  22.505  28.434  1.00  0.00     0.010 A 
ATOM     38  C   UNL A   1      42.637  23.492  27.521  1.00  0.00    -0.014 A 
BRANCH  38  39
ATOM     39  C   UNL A   1      42.927  24.869  28.000  1.00  0.00     0.031 A 
ATOM     40  C   UNL A   1      44.330  25.275  28.362  1.00  0.00     0.074 A 
ATOM     41  C   UNL A   1      41.913  25.739  28.172  1.00  0.00     0.049 A 
ATOM     42  N   UNL A   1      44.762  26.413  28.848  1.00  0.00    -0.248 NA
ATOM     43  C   UNL A   1      45.384  24.265  28.175  1.00  0.00     0.031 C 
ATOM     44  C   UNL A   1      40.501  25.463  27.896  1.00  0.00     0.029 A 
ATOM     45  N   UNL A   1      41.913  27.035  28.628  1.00  0.00    -0.354 N 
ATOM     46  C   UNL A   1      46.127  26.250  29.039  1.00  0.00     0.074 A 
ATOM     47  C   UNL A   1      46.446  24.889  28.662  1.00  0.00     0.031 C 
ATOM     48  C   UNL A   1      39.777  26.561  28.161  1.00  0.00     0.029 A 
ATOM     49  C   UNL A   1      40.662  27.604  28.667  1.00  0.00     0.049 A 
ATOM     50  H   UNL A   1      42.731  27.511  28.899  1.00  0.00     0.167 HD
ATOM     51  C   UNL A   1      47.039  27.154  29.472  1.00  0.00     0.031 A 
ATOM     52  C   UNL A   1      40.268  28.825  29.077  1.00  0.00     0.031 A 
ATOM     53  C   UNL A   1      46.725  28.509  29.845  1.00  0.00     0.049 A 
ATOM     54  C   UNL A   1      41.295  29.801  29.577  1.00  0.00     0.074 A 
ATOM     55  C   UNL A   1      47.588  29.514  30.243  1.00  0.00     0.029 A 
ATOM     56  N   UNL A   1      45.446  29.044  29.872  1.00  0.00    -0.354 N 
ATOM     57  N   UNL A   1      42.594  29.654  29.682  1.00  0.00    -0.248 NA
ATOM     58  C   UNL A   1      40.801  31.118  30.006  1.00  0.00     0.031 C 
ATOM     59  C   UNL A   1      46.825  30.642  30.568  1.00  0.00     0.029 A 
ATOM     60  C   UNL A   1      45.494  30.358  30.308  1.00  0.00     0.049 A 
ATOM     61  H   UNL A   1      44.626  28.563  29.619  1.00  0.00     0.167 HD
ATOM     62  C   UNL A   1      43.074  30.866  30.162  1.00  0.00     0.074 A 
ATOM     63  C   UNL A   1      41.931  31.743  30.308  1.00  0.00     0.031 C 
ATOM     64  C   UNL A   1      44.350  31.221  30.452  1.00  0.00     0.031 A 
BRANCH  51  65
ATOM     65  C   UNL A   1      48.470  26.702  29.575  1.00  0.00    -0.014 A 
ATOM     66  C   UNL A   1      48.957  26.083  30.738  1.00  0.00     0.009 A 
ATOM     67  C   UNL A   1      49.334  26.859  28.479  1.00  0.00     0.009 A 
ATOM     68  C   UNL A   1      50.288  25.668  30.814  1.00  0.00     0.001 A 
ATOM     69  C   UNL A   1      50.656  26.415  28.547  1.00  0.00     0.001 A 
ATOM     70  C   UNL A   1      51.135  25.829  29.718  1.00  0.00     0.000 A 
ENDBRANCH  51  65
BRANCH  52  71
ATOM     71  C   UNL A   1      38.831  29.201  29.021  1.00  0.00    -0.014 A 
ATOM     72  C   UNL A   1      38.005  29.028  30.143  1.00  0.00     0.009 A 
ATOM     73  C   UNL A   1      38.273  29.725  27.845  1.00  0.00     0.009 A 
ATOM     74  C   UNL A   1      36.645  29.344  30.078  1.00  0.00     0.001 A 
ATOM     75  C   UNL A   1      36.921  30.070  27.792  1.00  0.00     0.001 A 
ATOM     76  C   UNL A   1      36.106  29.869  28.905  1.00  0.00     0.000 A 
ENDBRANCH  52  71
BRANCH  64  77
ATOM     77  C   UNL A   1      44.582  32.630  30.923  1.00  0.00    -0.014 A 
ATOM     78  C   UNL A   1      44.827  33.674  30.018  1.00  0.00     0.009 A 
ATOM     79  C   UNL A   1      44.517  32.921  32.295  1.00  0.00     0.009 A 
ATOM     80  C   UNL A   1      45.039  34.974  30.482  1.00  0.00     0.001 A 
ATOM     81  C   UNL A   1      44.697  34.226  32.752  1.00  0.00     0.001 A 
ATOM     82  C   UNL A   1      44.968  35.250  31.847  1.00  0.00     0.000 A 
ENDBRANCH  64  77
ENDBRANCH  38  39
ENDBRANCH  30  33
ENDBRANCH  28  29
ENDBRANCH  27  28
ENDBRANCH   1  27
TORSDOF 16
ENDMDL
