MODEL 1
REMARK VINA RESULT:     -11.7      0.000      0.000
REMARK SMILES Cc1ccc(C#N)cc1S(=O)(=O)Nc1cccc(C(=O)NCCCNC(=O)c2ccc(-c3c4nc(c(-c5ccccc5)c5ccc([nH]5)c(-c5ccccc5)c5nc(c(-c6ccccc6)c6ccc3[nH]6)C=C5)C=C4)cc2)c1
REMARK SMILES IDX 22 1 21 2 19 3 20 4 18 6 14 7 15 8 76 9 16 10 17 11 13 12
REMARK SMILES IDX 10 14 11 15 12 16 9 17 1 18 2 19 3 20 4 21 8 22 5 23 6 24
REMARK SMILES IDX 7 25 23 26 24 27 25 28 26 29 27 31 28 32 29 33 75 34 30 35
REMARK SMILES IDX 74 36 31 37 32 38 33 39 68 40 34 41 73 42 67 43 69 44 35 45
REMARK SMILES IDX 72 46 66 47 65 48 36 50 58 51 43 52 57 53 44 54 47 55 56 56
REMARK SMILES IDX 70 57 45 58 46 59 55 61 71 62 48 63 37 64 38 65 42 66 39 67
REMARK SMILES IDX 41 68 40 69 59 70 60 71 64 72 61 73 63 74 62 75 49 76 50 77
REMARK SMILES IDX 54 78 51 79 53 80 52 81
REMARK H PARENT 21 5 13 13 25 30 69 49 47 60
REMARK Flexibility Score: inf
ROOT
ATOM      1  C   UNL A   1      31.797  29.727  25.136  1.00  0.00     0.118 C 
ENDROOT
BRANCH   1   2
ATOM      2  N   UNL A   1      30.637  30.009  24.302  1.00  0.00    -0.352 N 
ATOM      3  C   UNL A   1      29.824  29.214  23.514  1.00  0.00     0.251 C 
ATOM      4  O   UNL A   1      28.845  29.760  23.001  1.00  0.00    -0.269 OA
ATOM      5  H   UNL A   1      30.379  30.960  24.297  1.00  0.00     0.163 HD
BRANCH   3   6
ATOM      6  C   UNL A   1      30.118  27.788  23.153  1.00  0.00     0.041 A 
ATOM      7  C   UNL A   1      30.338  25.531  23.961  1.00  0.00     0.050 A 
ATOM      8  C   UNL A   1      31.269  25.213  22.991  1.00  0.00     0.027 A 
ATOM      9  C   UNL A   1      29.605  26.712  23.852  1.00  0.00     0.040 A 
ATOM     10  C   UNL A   1      31.613  26.201  22.060  1.00  0.00     0.003 A 
ATOM     11  C   UNL A   1      31.105  27.507  22.199  1.00  0.00     0.014 A 
BRANCH   7  12
ATOM     12  N   UNL A   1      30.149  24.870  25.196  1.00  0.00    -0.280 N 
ATOM     13  H   UNL A   1      29.314  25.096  25.666  1.00  0.00     0.180 HD
BRANCH  12  14
ATOM     14  S   UNL A   1      31.117  23.772  25.973  1.00  0.00     0.262 S 
ATOM     15  O   UNL A   1      30.776  22.470  25.436  1.00  0.00    -0.201 OA
ATOM     16  O   UNL A   1      30.892  24.065  27.376  1.00  0.00    -0.201 OA
BRANCH  14  17
ATOM     17  C   UNL A   1      32.885  23.942  25.750  1.00  0.00     0.092 A 
ATOM     18  C   UNL A   1      33.300  26.480  26.090  1.00  0.00     0.046 C 
ATOM     19  C   UNL A   1      33.677  25.096  25.673  1.00  0.00    -0.030 A 
ATOM     20  C   UNL A   1      35.006  24.967  25.203  1.00  0.00     0.006 A 
ATOM     21  C   UNL A   1      35.589  23.722  24.973  1.00  0.00     0.020 A 
ATOM     22  C   UNL A   1      33.514  22.683  25.585  1.00  0.00     0.042 A 
ATOM     23  C   UNL A   1      34.859  22.570  25.225  1.00  0.00     0.053 A 
BRANCH  23  24
ATOM     24  C   UNL A   1      35.481  21.285  25.118  1.00  0.00     0.099 C 
ATOM     25  N   UNL A   1      36.011  20.253  25.031  1.00  0.00    -0.192 NA
ENDBRANCH  23  24
ENDBRANCH  14  17
ENDBRANCH  12  14
ENDBRANCH   7  12
ENDBRANCH   3   6
ENDBRANCH   1   2
BRANCH   1  26
ATOM     26  C   UNL A   1      31.725  30.222  26.565  1.00  0.00     0.042 C 
BRANCH  26  27
ATOM     27  C   UNL A   1      32.843  31.141  27.000  1.00  0.00     0.118 C 
BRANCH  27  28
ATOM     28  N   UNL A   1      32.409  32.505  27.285  1.00  0.00    -0.352 N 
ATOM     29  C   UNL A   1      32.990  33.505  28.038  1.00  0.00     0.251 C 
ATOM     30  H   UNL A   1      31.553  32.755  26.868  1.00  0.00     0.163 HD
ATOM     31  O   UNL A   1      32.369  34.543  28.251  1.00  0.00    -0.269 OA
BRANCH  29  32
ATOM     32  C   UNL A   1      34.331  33.313  28.636  1.00  0.00     0.039 A 
ATOM     33  C   UNL A   1      35.470  33.730  27.959  1.00  0.00     0.014 A 
ATOM     34  C   UNL A   1      34.461  32.663  29.868  1.00  0.00     0.014 A 
ATOM     35  C   UNL A   1      36.706  33.230  28.334  1.00  0.00     0.010 A 
ATOM     36  C   UNL A   1      35.735  32.318  30.340  1.00  0.00     0.010 A 
ATOM     37  C   UNL A   1      36.865  32.522  29.535  1.00  0.00    -0.014 A 
BRANCH  37  38
ATOM     38  C   UNL A   1      38.220  32.022  29.900  1.00  0.00     0.031 A 
ATOM     39  C   UNL A   1      39.085  32.757  30.893  1.00  0.00     0.074 A 
ATOM     40  C   UNL A   1      38.636  30.839  29.399  1.00  0.00     0.049 A 
ATOM     41  N   UNL A   1      40.253  32.409  31.377  1.00  0.00    -0.248 NA
ATOM     42  C   UNL A   1      38.592  34.045  31.408  1.00  0.00     0.031 C 
ATOM     43  C   UNL A   1      37.884  30.022  28.441  1.00  0.00     0.029 A 
ATOM     44  N   UNL A   1      39.758  30.092  29.656  1.00  0.00    -0.354 N 
ATOM     45  C   UNL A   1      40.637  33.438  32.230  1.00  0.00     0.074 A 
ATOM     46  C   UNL A   1      39.602  34.445  32.168  1.00  0.00     0.031 C 
ATOM     47  C   UNL A   1      38.516  28.856  28.265  1.00  0.00     0.029 A 
ATOM     48  C   UNL A   1      39.770  28.877  29.007  1.00  0.00     0.049 A 
ATOM     49  H   UNL A   1      40.485  30.394  30.246  1.00  0.00     0.167 HD
ATOM     50  C   UNL A   1      41.742  33.525  33.007  1.00  0.00     0.031 A 
ATOM     51  C   UNL A   1      40.686  27.891  28.990  1.00  0.00     0.031 A 
ATOM     52  C   UNL A   1      42.762  32.510  33.076  1.00  0.00     0.049 A 
ATOM     53  C   UNL A   1      41.925  28.036  29.824  1.00  0.00     0.074 A 
ATOM     54  C   UNL A   1      43.907  32.502  33.854  1.00  0.00     0.029 A 
ATOM     55  N   UNL A   1      42.763  31.328  32.350  1.00  0.00    -0.354 N 
ATOM     56  N   UNL A   1      42.257  29.006  30.642  1.00  0.00    -0.248 NA
ATOM     57  C   UNL A   1      42.911  26.950  29.748  1.00  0.00     0.031 C 
ATOM     58  C   UNL A   1      44.646  31.365  33.530  1.00  0.00     0.029 A 
ATOM     59  C   UNL A   1      43.908  30.602  32.639  1.00  0.00     0.049 A 
ATOM     60  H   UNL A   1      42.058  31.048  31.724  1.00  0.00     0.167 HD
ATOM     61  C   UNL A   1      43.471  28.632  31.202  1.00  0.00     0.074 A 
ATOM     62  C   UNL A   1      43.806  27.337  30.646  1.00  0.00     0.031 C 
ATOM     63  C   UNL A   1      44.234  29.306  32.097  1.00  0.00     0.031 A 
BRANCH  50  64
ATOM     64  C   UNL A   1      41.934  34.759  33.853  1.00  0.00    -0.014 A 
ATOM     65  C   UNL A   1      42.683  35.838  33.350  1.00  0.00     0.009 A 
ATOM     66  C   UNL A   1      41.498  34.809  35.187  1.00  0.00     0.009 A 
ATOM     67  C   UNL A   1      43.019  36.918  34.169  1.00  0.00     0.001 A 
ATOM     68  C   UNL A   1      41.801  35.909  35.992  1.00  0.00     0.001 A 
ATOM     69  C   UNL A   1      42.576  36.953  35.489  1.00  0.00     0.000 A 
ENDBRANCH  50  64
BRANCH  51  70
ATOM     70  C   UNL A   1      40.438  26.680  28.158  1.00  0.00    -0.014 A 
ATOM     71  C   UNL A   1      40.974  26.583  26.862  1.00  0.00     0.009 A 
ATOM     72  C   UNL A   1      39.613  25.644  28.621  1.00  0.00     0.009 A 
ATOM     73  C   UNL A   1      40.654  25.505  26.034  1.00  0.00     0.001 A 
ATOM     74  C   UNL A   1      39.333  24.542  27.807  1.00  0.00     0.001 A 
ATOM     75  C   UNL A   1      39.840  24.482  26.510  1.00  0.00     0.000 A 
ENDBRANCH  51  70
BRANCH  63  76
ATOM     76  C   UNL A   1      45.502  28.654  32.588  1.00  0.00    -0.014 A 
ATOM     77  C   UNL A   1      45.461  27.854  33.744  1.00  0.00     0.009 A 
ATOM     78  C   UNL A   1      46.744  28.913  31.991  1.00  0.00     0.009 A 
ATOM     79  C   UNL A   1      46.636  27.352  34.305  1.00  0.00     0.001 A 
ATOM     80  C   UNL A   1      47.914  28.370  32.528  1.00  0.00     0.001 A 
ATOM     81  C   UNL A   1      47.861  27.604  33.692  1.00  0.00     0.000 A 
ENDBRANCH  63  76
ENDBRANCH  37  38
ENDBRANCH  29  32
ENDBRANCH  27  28
ENDBRANCH  26  27
ENDBRANCH   1  26
TORSDOF 14
ENDMDL
MODEL 2
REMARK VINA RESULT:     -11.7      2.414      6.778
REMARK SMILES Cc1ccc(C#N)cc1S(=O)(=O)Nc1cccc(C(=O)NCCCNC(=O)c2ccc(-c3c4nc(c(-c5ccccc5)c5ccc([nH]5)c(-c5ccccc5)c5nc(c(-c6ccccc6)c6ccc3[nH]6)C=C5)C=C4)cc2)c1
REMARK SMILES IDX 22 1 21 2 19 3 20 4 18 6 14 7 15 8 76 9 16 10 17 11 13 12
REMARK SMILES IDX 10 14 11 15 12 16 9 17 1 18 2 19 3 20 4 21 8 22 5 23 6 24
REMARK SMILES IDX 7 25 23 26 24 27 25 28 26 29 27 31 28 32 29 33 75 34 30 35
REMARK SMILES IDX 74 36 31 37 32 38 33 39 68 40 34 41 73 42 67 43 69 44 35 45
REMARK SMILES IDX 72 46 66 47 65 48 36 50 58 51 43 52 57 53 44 54 47 55 56 56
REMARK SMILES IDX 70 57 45 58 46 59 55 61 71 62 48 63 37 64 38 65 42 66 39 67
REMARK SMILES IDX 41 68 40 69 59 70 60 71 64 72 61 73 63 74 62 75 49 76 50 77
REMARK SMILES IDX 54 78 51 79 53 80 52 81
REMARK H PARENT 21 5 13 13 25 30 69 49 47 60
REMARK Flexibility Score: inf
ROOT
ATOM      1  C   UNL A   1      32.439  29.467  25.068  1.00  0.00     0.118 C 
ENDROOT
BRANCH   1   2
ATOM      2  N   UNL A   1      31.258  29.929  24.352  1.00  0.00    -0.352 N 
ATOM      3  C   UNL A   1      30.260  29.273  23.655  1.00  0.00     0.251 C 
ATOM      4  O   UNL A   1      29.329  29.965  23.239  1.00  0.00    -0.269 OA
ATOM      5  H   UNL A   1      31.148  30.907  24.368  1.00  0.00     0.163 HD
BRANCH   3   6
ATOM      6  C   UNL A   1      30.297  27.822  23.275  1.00  0.00     0.041 A 
ATOM      7  C   UNL A   1      30.181  25.550  24.064  1.00  0.00     0.050 A 
ATOM      8  C   UNL A   1      30.999  25.095  23.049  1.00  0.00     0.027 A 
ATOM      9  C   UNL A   1      29.647  26.837  23.995  1.00  0.00     0.040 A 
ATOM     10  C   UNL A   1      31.456  26.023  22.105  1.00  0.00     0.003 A 
ATOM     11  C   UNL A   1      31.177  27.393  22.273  1.00  0.00     0.014 A 
BRANCH   7  12
ATOM     12  N   UNL A   1      29.943  24.916  25.305  1.00  0.00    -0.280 N 
ATOM     13  H   UNL A   1      28.995  24.822  25.551  1.00  0.00     0.180 HD
BRANCH  12  14
ATOM     14  S   UNL A   1      31.019  24.305  26.408  1.00  0.00     0.262 S 
ATOM     15  O   UNL A   1      30.269  23.404  27.259  1.00  0.00    -0.201 OA
ATOM     16  O   UNL A   1      31.632  25.496  26.967  1.00  0.00    -0.201 OA
BRANCH  14  17
ATOM     17  C   UNL A   1      32.388  23.345  25.768  1.00  0.00     0.092 A 
ATOM     18  C   UNL A   1      34.238  25.117  25.363  1.00  0.00     0.046 C 
ATOM     19  C   UNL A   1      33.612  23.767  25.233  1.00  0.00    -0.030 A 
ATOM     20  C   UNL A   1      34.398  22.821  24.532  1.00  0.00     0.006 A 
ATOM     21  C   UNL A   1      34.069  21.468  24.498  1.00  0.00     0.020 A 
ATOM     22  C   UNL A   1      32.106  21.957  25.790  1.00  0.00     0.042 A 
ATOM     23  C   UNL A   1      32.949  21.022  25.185  1.00  0.00     0.053 A 
BRANCH  23  24
ATOM     24  C   UNL A   1      32.668  19.621  25.269  1.00  0.00     0.099 C 
ATOM     25  N   UNL A   1      32.420  18.487  25.356  1.00  0.00    -0.192 NA
ENDBRANCH  23  24
ENDBRANCH  14  17
ENDBRANCH  12  14
ENDBRANCH   7  12
ENDBRANCH   3   6
ENDBRANCH   1   2
BRANCH   1  26
ATOM     26  C   UNL A   1      32.211  28.981  26.484  1.00  0.00     0.042 C 
BRANCH  26  27
ATOM     27  C   UNL A   1      33.406  29.058  27.406  1.00  0.00     0.118 C 
BRANCH  27  28
ATOM     28  N   UNL A   1      33.637  30.386  27.964  1.00  0.00    -0.352 N 
ATOM     29  C   UNL A   1      34.751  30.940  28.561  1.00  0.00     0.251 C 
ATOM     30  H   UNL A   1      32.864  30.992  27.903  1.00  0.00     0.163 HD
ATOM     31  O   UNL A   1      34.672  32.048  29.085  1.00  0.00    -0.269 OA
BRANCH  29  32
ATOM     32  C   UNL A   1      36.023  30.185  28.625  1.00  0.00     0.039 A 
ATOM     33  C   UNL A   1      36.385  29.513  29.785  1.00  0.00     0.014 A 
ATOM     34  C   UNL A   1      36.894  30.188  27.530  1.00  0.00     0.014 A 
ATOM     35  C   UNL A   1      37.704  29.131  29.967  1.00  0.00     0.010 A 
ATOM     36  C   UNL A   1      38.174  29.632  27.659  1.00  0.00     0.010 A 
ATOM     37  C   UNL A   1      38.622  29.175  28.906  1.00  0.00    -0.014 A 
BRANCH  37  38
ATOM     38  C   UNL A   1      40.025  28.736  29.153  1.00  0.00     0.031 A 
ATOM     39  C   UNL A   1      40.501  27.367  28.735  1.00  0.00     0.074 A 
ATOM     40  C   UNL A   1      40.903  29.618  29.674  1.00  0.00     0.049 A 
ATOM     41  N   UNL A   1      41.710  26.864  28.804  1.00  0.00    -0.248 NA
ATOM     42  C   UNL A   1      39.505  26.437  28.177  1.00  0.00     0.031 C 
ATOM     43  C   UNL A   1      40.570  30.981  30.103  1.00  0.00     0.029 A 
ATOM     44  N   UNL A   1      42.257  29.531  29.886  1.00  0.00    -0.354 N 
ATOM     45  C   UNL A   1      41.614  25.564  28.321  1.00  0.00     0.074 A 
ATOM     46  C   UNL A   1      40.224  25.336  28.001  1.00  0.00     0.031 C 
ATOM     47  C   UNL A   1      41.694  31.625  30.436  1.00  0.00     0.029 A 
ATOM     48  C   UNL A   1      42.817  30.699  30.351  1.00  0.00     0.049 A 
ATOM     49  H   UNL A   1      42.777  28.712  29.722  1.00  0.00     0.167 HD
ATOM     50  C   UNL A   1      42.598  24.652  28.144  1.00  0.00     0.031 A 
ATOM     51  C   UNL A   1      44.084  31.001  30.689  1.00  0.00     0.031 A 
ATOM     52  C   UNL A   1      43.985  24.892  28.450  1.00  0.00     0.049 A 
ATOM     53  C   UNL A   1      45.147  29.954  30.527  1.00  0.00     0.074 A 
ATOM     54  C   UNL A   1      45.058  24.033  28.280  1.00  0.00     0.029 A 
ATOM     55  N   UNL A   1      44.494  26.067  28.982  1.00  0.00    -0.354 N 
ATOM     56  N   UNL A   1      45.039  28.740  30.045  1.00  0.00    -0.248 NA
ATOM     57  C   UNL A   1      46.509  30.318  30.940  1.00  0.00     0.031 C 
ATOM     58  C   UNL A   1      46.197  24.652  28.796  1.00  0.00     0.029 A 
ATOM     59  C   UNL A   1      45.860  25.940  29.177  1.00  0.00     0.049 A 
ATOM     60  H   UNL A   1      43.965  26.871  29.190  1.00  0.00     0.167 HD
ATOM     61  C   UNL A   1      46.321  28.206  30.066  1.00  0.00     0.074 A 
ATOM     62  C   UNL A   1      47.193  29.238  30.588  1.00  0.00     0.031 C 
ATOM     63  C   UNL A   1      46.731  26.973  29.684  1.00  0.00     0.031 A 
BRANCH  50  64
ATOM     64  C   UNL A   1      42.235  23.294  27.597  1.00  0.00    -0.014 A 
ATOM     65  C   UNL A   1      42.317  23.056  26.214  1.00  0.00     0.009 A 
ATOM     66  C   UNL A   1      41.688  22.295  28.419  1.00  0.00     0.009 A 
ATOM     67  C   UNL A   1      41.828  21.870  25.662  1.00  0.00     0.001 A 
ATOM     68  C   UNL A   1      41.237  21.092  27.870  1.00  0.00     0.001 A 
ATOM     69  C   UNL A   1      41.291  20.888  26.492  1.00  0.00     0.000 A 
ENDBRANCH  50  64
BRANCH  51  70
ATOM     70  C   UNL A   1      44.398  32.366  31.199  1.00  0.00    -0.014 A 
ATOM     71  C   UNL A   1      44.816  33.377  30.315  1.00  0.00     0.009 A 
ATOM     72  C   UNL A   1      44.349  32.653  32.571  1.00  0.00     0.009 A 
ATOM     73  C   UNL A   1      45.220  34.625  30.795  1.00  0.00     0.001 A 
ATOM     74  C   UNL A   1      44.709  33.918  33.044  1.00  0.00     0.001 A 
ATOM     75  C   UNL A   1      45.159  34.896  32.159  1.00  0.00     0.000 A 
ENDBRANCH  51  70
BRANCH  63  76
ATOM     76  C   UNL A   1      48.203  26.653  29.763  1.00  0.00    -0.014 A 
ATOM     77  C   UNL A   1      49.026  26.917  28.653  1.00  0.00     0.009 A 
ATOM     78  C   UNL A   1      48.756  25.996  30.871  1.00  0.00     0.009 A 
ATOM     79  C   UNL A   1      50.359  26.506  28.640  1.00  0.00     0.001 A 
ATOM     80  C   UNL A   1      50.104  25.628  30.875  1.00  0.00     0.001 A 
ATOM     81  C   UNL A   1      50.899  25.868  29.755  1.00  0.00     0.000 A 
ENDBRANCH  63  76
ENDBRANCH  37  38
ENDBRANCH  29  32
ENDBRANCH  27  28
ENDBRANCH  26  27
ENDBRANCH   1  26
TORSDOF 14
ENDMDL
MODEL 3
REMARK VINA RESULT:     -11.6      2.004      3.080
REMARK SMILES Cc1ccc(C#N)cc1S(=O)(=O)Nc1cccc(C(=O)NCCCNC(=O)c2ccc(-c3c4nc(c(-c5ccccc5)c5ccc([nH]5)c(-c5ccccc5)c5nc(c(-c6ccccc6)c6ccc3[nH]6)C=C5)C=C4)cc2)c1
REMARK SMILES IDX 22 1 21 2 19 3 20 4 18 6 14 7 15 8 76 9 16 10 17 11 13 12
REMARK SMILES IDX 10 14 11 15 12 16 9 17 1 18 2 19 3 20 4 21 8 22 5 23 6 24
REMARK SMILES IDX 7 25 23 26 24 27 25 28 26 29 27 31 28 32 29 33 75 34 30 35
REMARK SMILES IDX 74 36 31 37 32 38 33 39 68 40 34 41 73 42 67 43 69 44 35 45
REMARK SMILES IDX 72 46 66 47 65 48 36 50 58 51 43 52 57 53 44 54 47 55 56 56
REMARK SMILES IDX 70 57 45 58 46 59 55 61 71 62 48 63 37 64 38 65 42 66 39 67
REMARK SMILES IDX 41 68 40 69 59 70 60 71 64 72 61 73 63 74 62 75 49 76 50 77
REMARK SMILES IDX 54 78 51 79 53 80 52 81
REMARK H PARENT 21 5 13 13 25 30 69 49 47 60
REMARK Flexibility Score: inf
ROOT
ATOM      1  C   UNL A   1      32.515  29.648  25.053  1.00  0.00     0.118 C 
ENDROOT
BRANCH   1   2
ATOM      2  N   UNL A   1      31.258  30.082  24.461  1.00  0.00    -0.352 N 
ATOM      3  C   UNL A   1      30.236  29.410  23.815  1.00  0.00     0.251 C 
ATOM      4  O   UNL A   1      29.242  30.073  23.512  1.00  0.00    -0.269 OA
ATOM      5  H   UNL A   1      31.104  31.052  24.535  1.00  0.00     0.163 HD
BRANCH   3   6
ATOM      6  C   UNL A   1      30.308  27.982  23.361  1.00  0.00     0.041 A 
ATOM      7  C   UNL A   1      30.180  25.670  24.021  1.00  0.00     0.050 A 
ATOM      8  C   UNL A   1      31.052  25.277  23.024  1.00  0.00     0.027 A 
ATOM      9  C   UNL A   1      29.636  26.954  23.995  1.00  0.00     0.040 A 
ATOM     10  C   UNL A   1      31.543  26.259  22.155  1.00  0.00     0.003 A 
ATOM     11  C   UNL A   1      31.241  27.616  22.382  1.00  0.00     0.014 A 
BRANCH   7  12
ATOM     12  N   UNL A   1      29.890  24.968  25.213  1.00  0.00    -0.280 N 
ATOM     13  H   UNL A   1      28.932  24.839  25.399  1.00  0.00     0.180 HD
BRANCH  12  14
ATOM     14  S   UNL A   1      30.918  24.327  26.344  1.00  0.00     0.262 S 
ATOM     15  O   UNL A   1      30.131  23.408  27.142  1.00  0.00    -0.201 OA
ATOM     16  O   UNL A   1      31.510  25.502  26.957  1.00  0.00    -0.201 OA
BRANCH  14  17
ATOM     17  C   UNL A   1      32.310  23.378  25.739  1.00  0.00     0.092 A 
ATOM     18  C   UNL A   1      34.161  25.162  25.398  1.00  0.00     0.046 C 
ATOM     19  C   UNL A   1      33.546  23.810  25.242  1.00  0.00    -0.030 A 
ATOM     20  C   UNL A   1      34.358  22.873  24.558  1.00  0.00     0.006 A 
ATOM     21  C   UNL A   1      34.037  21.517  24.508  1.00  0.00     0.020 A 
ATOM     22  C   UNL A   1      32.035  21.988  25.745  1.00  0.00     0.042 A 
ATOM     23  C   UNL A   1      32.900  21.061  25.159  1.00  0.00     0.053 A 
BRANCH  23  24
ATOM     24  C   UNL A   1      32.624  19.659  25.227  1.00  0.00     0.099 C 
ATOM     25  N   UNL A   1      32.390  18.522  25.307  1.00  0.00    -0.192 NA
ENDBRANCH  23  24
ENDBRANCH  14  17
ENDBRANCH  12  14
ENDBRANCH   7  12
ENDBRANCH   3   6
ENDBRANCH   1   2
BRANCH   1  26
ATOM     26  C   UNL A   1      32.418  28.550  26.091  1.00  0.00     0.042 C 
BRANCH  26  27
ATOM     27  C   UNL A   1      32.929  28.900  27.469  1.00  0.00     0.118 C 
BRANCH  27  28
ATOM     28  N   UNL A   1      33.214  30.320  27.650  1.00  0.00    -0.352 N 
ATOM     29  C   UNL A   1      34.363  30.973  28.046  1.00  0.00     0.251 C 
ATOM     30  H   UNL A   1      32.455  30.915  27.454  1.00  0.00     0.163 HD
ATOM     31  O   UNL A   1      34.332  32.182  28.261  1.00  0.00    -0.269 OA
BRANCH  29  32
ATOM     32  C   UNL A   1      35.618  30.218  28.268  1.00  0.00     0.039 A 
ATOM     33  C   UNL A   1      35.881  29.638  29.503  1.00  0.00     0.014 A 
ATOM     34  C   UNL A   1      36.572  30.129  27.249  1.00  0.00     0.014 A 
ATOM     35  C   UNL A   1      37.177  29.264  29.817  1.00  0.00     0.010 A 
ATOM     36  C   UNL A   1      37.831  29.578  27.521  1.00  0.00     0.010 A 
ATOM     37  C   UNL A   1      38.175  29.219  28.832  1.00  0.00    -0.014 A 
BRANCH  37  38
ATOM     38  C   UNL A   1      39.549  28.793  29.221  1.00  0.00     0.031 A 
ATOM     39  C   UNL A   1      40.372  29.600  30.194  1.00  0.00     0.074 A 
ATOM     40  C   UNL A   1      40.021  27.615  28.763  1.00  0.00     0.049 A 
ATOM     41  N   UNL A   1      41.551  29.322  30.697  1.00  0.00    -0.248 NA
ATOM     42  C   UNL A   1      39.817  30.881  30.661  1.00  0.00     0.031 C 
ATOM     43  C   UNL A   1      39.314  26.732  27.829  1.00  0.00     0.029 A 
ATOM     44  N   UNL A   1      41.175  26.928  29.052  1.00  0.00    -0.354 N 
ATOM     45  C   UNL A   1      41.882  30.395  31.516  1.00  0.00     0.074 A 
ATOM     46  C   UNL A   1      40.803  31.351  31.414  1.00  0.00     0.031 C 
ATOM     47  C   UNL A   1      40.000  25.591  27.696  1.00  0.00     0.029 A 
ATOM     48  C   UNL A   1      41.246  25.694  28.445  1.00  0.00     0.049 A 
ATOM     49  H   UNL A   1      41.883  27.283  29.636  1.00  0.00     0.167 HD
ATOM     50  C   UNL A   1      42.976  30.559  32.296  1.00  0.00     0.031 A 
ATOM     51  C   UNL A   1      42.206  24.750  28.467  1.00  0.00     0.031 A 
ATOM     52  C   UNL A   1      44.040  29.595  32.406  1.00  0.00     0.049 A 
ATOM     53  C   UNL A   1      43.431  24.980  29.303  1.00  0.00     0.074 A 
ATOM     54  C   UNL A   1      45.178  29.665  33.191  1.00  0.00     0.029 A 
ATOM     55  N   UNL A   1      44.100  28.390  31.721  1.00  0.00    -0.354 N 
ATOM     56  N   UNL A   1      43.712  25.991  30.089  1.00  0.00    -0.248 NA
ATOM     57  C   UNL A   1      44.466  23.938  29.270  1.00  0.00     0.031 C 
ATOM     58  C   UNL A   1      45.971  28.552  32.910  1.00  0.00     0.029 A 
ATOM     59  C   UNL A   1      45.275  27.727  32.041  1.00  0.00     0.049 A 
ATOM     60  H   UNL A   1      43.413  28.057  31.100  1.00  0.00     0.167 HD
ATOM     61  C   UNL A   1      44.939  25.692  30.669  1.00  0.00     0.074 A 
ATOM     62  C   UNL A   1      45.335  24.396  30.160  1.00  0.00     0.031 C 
ATOM     63  C   UNL A   1      45.663  26.430  31.545  1.00  0.00     0.031 A 
BRANCH  50  64
ATOM     64  C   UNL A   1      43.106  31.828  33.101  1.00  0.00    -0.014 A 
ATOM     65  C   UNL A   1      42.523  31.903  34.379  1.00  0.00     0.009 A 
ATOM     66  C   UNL A   1      43.680  32.987  32.556  1.00  0.00     0.009 A 
ATOM     67  C   UNL A   1      42.480  33.113  35.075  1.00  0.00     0.001 A 
ATOM     68  C   UNL A   1      43.673  34.187  33.272  1.00  0.00     0.001 A 
ATOM     69  C   UNL A   1      43.058  34.254  34.521  1.00  0.00     0.000 A 
ENDBRANCH  50  64
BRANCH  51  70
ATOM     70  C   UNL A   1      42.019  23.502  27.675  1.00  0.00    -0.014 A 
ATOM     71  C   UNL A   1      41.392  22.382  28.249  1.00  0.00     0.009 A 
ATOM     72  C   UNL A   1      42.521  23.393  26.370  1.00  0.00     0.009 A 
ATOM     73  C   UNL A   1      41.312  21.172  27.556  1.00  0.00     0.001 A 
ATOM     74  C   UNL A   1      42.398  22.195  25.660  1.00  0.00     0.001 A 
ATOM     75  C   UNL A   1      41.810  21.082  26.259  1.00  0.00     0.000 A 
ENDBRANCH  51  70
BRANCH  63  76
ATOM     76  C   UNL A   1      46.955  25.853  32.066  1.00  0.00    -0.014 A 
ATOM     77  C   UNL A   1      46.963  25.187  33.305  1.00  0.00     0.009 A 
ATOM     78  C   UNL A   1      48.174  26.058  31.404  1.00  0.00     0.009 A 
ATOM     79  C   UNL A   1      48.161  24.767  33.881  1.00  0.00     0.001 A 
ATOM     80  C   UNL A   1      49.369  25.593  31.961  1.00  0.00     0.001 A 
ATOM     81  C   UNL A   1      49.363  24.963  33.205  1.00  0.00     0.000 A 
ENDBRANCH  63  76
ENDBRANCH  37  38
ENDBRANCH  29  32
ENDBRANCH  27  28
ENDBRANCH  26  27
ENDBRANCH   1  26
TORSDOF 14
ENDMDL
