MODEL 1
REMARK VINA RESULT:     -10.6      0.000      0.000
REMARK SMILES Nc1ccc(O)c(C(=O)NCCCNC(=O)c2ccc(-c3c4nc(c(-c5ccccc5)c5ccc([nH]5)c(-c5ccccc5)c5nc(c(-c6ccccc6)c6ccc3[nH]6)C=C5)C=C4)cc2)c1
REMARK SMILES IDX 12 1 11 2 10 3 8 4 9 5 7 7 2 8 3 9 65 10 4 11 5 12 1 13 6 16
REMARK SMILES IDX 13 18 14 19 15 20 16 22 17 23 18 24 64 25 19 26 63 27 20 28
REMARK SMILES IDX 21 29 22 30 57 31 23 32 62 33 56 34 58 35 24 36 61 37 55 38
REMARK SMILES IDX 54 39 25 41 47 42 32 43 46 44 33 45 36 46 45 47 59 48 34 49
REMARK SMILES IDX 35 50 44 52 60 53 37 54 26 55 27 56 31 57 28 58 30 59 29 60
REMARK SMILES IDX 48 61 49 62 53 63 50 64 52 65 51 66 38 67 39 68 43 69 40 70
REMARK SMILES IDX 42 71 41 72
REMARK H PARENT 10 6 1 14 1 15 6 17 14 21 58 40 36 51
REMARK Flexibility Score: inf
ROOT
ATOM      1  C   UNL A   1      35.467  33.190  28.250  1.00  0.00     0.042 C 
ENDROOT
BRANCH   1   2
ATOM      2  C   UNL A   1      35.457  34.656  28.680  1.00  0.00     0.118 C 
BRANCH   2   3
ATOM      3  N   UNL A   1      34.120  35.210  28.573  1.00  0.00    -0.352 N 
ATOM      4  C   UNL A   1      33.238  35.725  29.485  1.00  0.00     0.255 C 
ATOM      5  O   UNL A   1      32.163  36.141  29.039  1.00  0.00    -0.269 OA
ATOM      6  H   UNL A   1      33.774  35.216  27.651  1.00  0.00     0.163 HD
BRANCH   4   7
ATOM      7  C   UNL A   1      33.502  35.880  30.944  1.00  0.00     0.083 A 
ATOM      8  C   UNL A   1      34.150  35.032  33.143  1.00  0.00     0.032 A 
ATOM      9  C   UNL A   1      34.067  36.324  33.663  1.00  0.00     0.029 A 
ATOM     10  C   UNL A   1      33.792  34.815  31.807  1.00  0.00     0.043 A 
ATOM     11  C   UNL A   1      33.706  37.391  32.846  1.00  0.00     0.049 A 
ATOM     12  C   UNL A   1      33.436  37.171  31.498  1.00  0.00     0.128 A 
BRANCH   8  13
ATOM     13  N   UNL A   1      34.455  33.962  33.971  1.00  0.00    -0.399 N 
ATOM     14  H   UNL A   1      35.011  34.102  34.771  1.00  0.00     0.156 HD
ATOM     15  H   UNL A   1      34.115  33.063  33.760  1.00  0.00     0.156 HD
ENDBRANCH   8  13
BRANCH  12  16
ATOM     16  O   UNL A   1      33.096  38.289  30.778  1.00  0.00    -0.507 OA
ATOM     17  H   UNL A   1      33.015  38.238  29.845  1.00  0.00     0.293 HD
ENDBRANCH  12  16
ENDBRANCH   4   7
ENDBRANCH   2   3
ENDBRANCH   1   2
BRANCH   1  18
ATOM     18  C   UNL A   1      34.568  32.315  29.123  1.00  0.00     0.118 C 
BRANCH  18  19
ATOM     19  N   UNL A   1      34.019  31.190  28.377  1.00  0.00    -0.352 N 
ATOM     20  C   UNL A   1      34.655  30.104  27.827  1.00  0.00     0.251 C 
ATOM     21  H   UNL A   1      33.042  31.211  28.248  1.00  0.00     0.163 HD
ATOM     22  O   UNL A   1      34.065  29.387  27.027  1.00  0.00    -0.269 OA
BRANCH  20  23
ATOM     23  C   UNL A   1      36.052  29.805  28.194  1.00  0.00     0.039 A 
ATOM     24  C   UNL A   1      36.331  29.311  29.472  1.00  0.00     0.014 A 
ATOM     25  C   UNL A   1      37.087  30.026  27.283  1.00  0.00     0.014 A 
ATOM     26  C   UNL A   1      37.643  28.971  29.810  1.00  0.00     0.010 A 
ATOM     27  C   UNL A   1      38.378  29.616  27.593  1.00  0.00     0.010 A 
ATOM     28  C   UNL A   1      38.669  29.083  28.858  1.00  0.00    -0.014 A 
BRANCH  28  29
ATOM     29  C   UNL A   1      40.056  28.643  29.150  1.00  0.00     0.031 A 
ATOM     30  C   UNL A   1      41.033  29.603  29.768  1.00  0.00     0.074 A 
ATOM     31  C   UNL A   1      40.458  27.415  28.769  1.00  0.00     0.049 A 
ATOM     32  N   UNL A   1      42.317  29.453  29.979  1.00  0.00    -0.248 NA
ATOM     33  C   UNL A   1      40.506  30.914  30.177  1.00  0.00     0.031 C 
ATOM     34  C   UNL A   1      39.612  26.403  28.133  1.00  0.00     0.029 A 
ATOM     35  N   UNL A   1      41.691  26.816  28.844  1.00  0.00    -0.354 N 
ATOM     36  C   UNL A   1      42.752  30.656  30.520  1.00  0.00     0.074 A 
ATOM     37  C   UNL A   1      41.608  31.540  30.563  1.00  0.00     0.031 C 
ATOM     38  C   UNL A   1      40.345  25.304  27.894  1.00  0.00     0.029 A 
ATOM     39  C   UNL A   1      41.722  25.552  28.308  1.00  0.00     0.049 A 
ATOM     40  H   UNL A   1      42.478  27.251  29.244  1.00  0.00     0.167 HD
ATOM     41  C   UNL A   1      43.989  30.988  30.958  1.00  0.00     0.031 A 
ATOM     42  C   UNL A   1      42.747  24.694  28.148  1.00  0.00     0.031 A 
ATOM     43  C   UNL A   1      45.122  30.103  30.920  1.00  0.00     0.049 A 
ATOM     44  C   UNL A   1      44.120  25.100  28.610  1.00  0.00     0.074 A 
ATOM     45  C   UNL A   1      46.405  30.326  31.387  1.00  0.00     0.029 A 
ATOM     46  N   UNL A   1      45.108  28.828  30.376  1.00  0.00    -0.354 N 
ATOM     47  N   UNL A   1      44.502  26.219  29.179  1.00  0.00    -0.248 NA
ATOM     48  C   UNL A   1      45.201  24.125  28.414  1.00  0.00     0.031 C 
ATOM     49  C   UNL A   1      47.183  29.209  31.072  1.00  0.00     0.029 A 
ATOM     50  C   UNL A   1      46.368  28.262  30.471  1.00  0.00     0.049 A 
ATOM     51  H   UNL A   1      44.319  28.389  29.982  1.00  0.00     0.167 HD
ATOM     52  C   UNL A   1      45.859  26.067  29.439  1.00  0.00     0.074 A 
ATOM     53  C   UNL A   1      46.229  24.746  28.976  1.00  0.00     0.031 C 
ATOM     54  C   UNL A   1      46.718  26.943  30.012  1.00  0.00     0.031 A 
BRANCH  41  55
ATOM     55  C   UNL A   1      44.184  32.377  31.502  1.00  0.00    -0.014 A 
ATOM     56  C   UNL A   1      43.958  32.668  32.857  1.00  0.00     0.009 A 
ATOM     57  C   UNL A   1      44.636  33.401  30.656  1.00  0.00     0.009 A 
ATOM     58  C   UNL A   1      44.142  33.965  33.343  1.00  0.00     0.001 A 
ATOM     59  C   UNL A   1      44.852  34.689  31.152  1.00  0.00     0.001 A 
ATOM     60  C   UNL A   1      44.594  34.972  32.492  1.00  0.00     0.000 A 
ENDBRANCH  41  55
BRANCH  42  61
ATOM     61  C   UNL A   1      42.518  23.364  27.524  1.00  0.00    -0.014 A 
ATOM     62  C   UNL A   1      42.074  22.281  28.299  1.00  0.00     0.009 A 
ATOM     63  C   UNL A   1      42.749  23.166  26.154  1.00  0.00     0.009 A 
ATOM     64  C   UNL A   1      41.894  21.022  27.720  1.00  0.00     0.001 A 
ATOM     65  C   UNL A   1      42.535  21.915  25.571  1.00  0.00     0.001 A 
ATOM     66  C   UNL A   1      42.119  20.842  26.356  1.00  0.00     0.000 A 
ENDBRANCH  42  61
BRANCH  54  67
ATOM     67  C   UNL A   1      48.136  26.488  30.219  1.00  0.00    -0.014 A 
ATOM     68  C   UNL A   1      48.536  25.848  31.401  1.00  0.00     0.009 A 
ATOM     69  C   UNL A   1      49.069  26.645  29.181  1.00  0.00     0.009 A 
ATOM     70  C   UNL A   1      49.850  25.396  31.549  1.00  0.00     0.001 A 
ATOM     71  C   UNL A   1      50.371  26.165  29.318  1.00  0.00     0.001 A 
ATOM     72  C   UNL A   1      50.762  25.548  30.505  1.00  0.00     0.000 A 
ENDBRANCH  54  67
ENDBRANCH  28  29
ENDBRANCH  20  23
ENDBRANCH  18  19
ENDBRANCH   1  18
TORSDOF 12
ENDMDL
MODEL 2
REMARK VINA RESULT:     -10.5      3.915      8.967
REMARK SMILES Nc1ccc(O)c(C(=O)NCCCNC(=O)c2ccc(-c3c4nc(c(-c5ccccc5)c5ccc([nH]5)c(-c5ccccc5)c5nc(c(-c6ccccc6)c6ccc3[nH]6)C=C5)C=C4)cc2)c1
REMARK SMILES IDX 12 1 11 2 10 3 8 4 9 5 7 7 2 8 3 9 65 10 4 11 5 12 1 13 6 16
REMARK SMILES IDX 13 18 14 19 15 20 16 22 17 23 18 24 64 25 19 26 63 27 20 28
REMARK SMILES IDX 21 29 22 30 57 31 23 32 62 33 56 34 58 35 24 36 61 37 55 38
REMARK SMILES IDX 54 39 25 41 47 42 32 43 46 44 33 45 36 46 45 47 59 48 34 49
REMARK SMILES IDX 35 50 44 52 60 53 37 54 26 55 27 56 31 57 28 58 30 59 29 60
REMARK SMILES IDX 48 61 49 62 53 63 50 64 52 65 51 66 38 67 39 68 43 69 40 70
REMARK SMILES IDX 42 71 41 72
REMARK H PARENT 10 6 1 14 1 15 6 17 14 21 58 40 36 51
REMARK Flexibility Score: inf
ROOT
ATOM      1  C   UNL A   1      31.550  31.208  26.269  1.00  0.00     0.042 C 
ENDROOT
BRANCH   1   2
ATOM      2  C   UNL A   1      31.778  29.729  25.958  1.00  0.00     0.118 C 
BRANCH   2   3
ATOM      3  N   UNL A   1      32.273  29.564  24.604  1.00  0.00    -0.352 N 
ATOM      4  C   UNL A   1      31.680  29.211  23.420  1.00  0.00     0.255 C 
ATOM      5  O   UNL A   1      32.410  29.187  22.423  1.00  0.00    -0.269 OA
ATOM      6  H   UNL A   1      33.237  29.742  24.517  1.00  0.00     0.163 HD
BRANCH   4   7
ATOM      7  C   UNL A   1      30.229  28.923  23.238  1.00  0.00     0.083 A 
ATOM      8  C   UNL A   1      28.232  27.538  23.503  1.00  0.00     0.032 A 
ATOM      9  C   UNL A   1      27.460  28.544  22.922  1.00  0.00     0.029 A 
ATOM     10  C   UNL A   1      29.620  27.710  23.584  1.00  0.00     0.043 A 
ATOM     11  C   UNL A   1      28.051  29.731  22.499  1.00  0.00     0.049 A 
ATOM     12  C   UNL A   1      29.420  29.921  22.665  1.00  0.00     0.128 A 
BRANCH   8  13
ATOM     13  N   UNL A   1      27.650  26.334  23.872  1.00  0.00    -0.399 N 
ATOM     14  H   UNL A   1      26.999  25.899  23.276  1.00  0.00     0.156 HD
ATOM     15  H   UNL A   1      27.889  25.914  24.730  1.00  0.00     0.156 HD
ENDBRANCH   8  13
BRANCH  12  16
ATOM     16  O   UNL A   1      29.903  31.127  22.221  1.00  0.00    -0.507 OA
ATOM     17  H   UNL A   1      29.531  31.926  22.540  1.00  0.00     0.293 HD
ENDBRANCH  12  16
ENDBRANCH   4   7
ENDBRANCH   2   3
ENDBRANCH   1   2
BRANCH   1  18
ATOM     18  C   UNL A   1      32.676  31.812  27.107  1.00  0.00     0.118 C 
BRANCH  18  19
ATOM     19  N   UNL A   1      32.423  33.213  27.424  1.00  0.00    -0.352 N 
ATOM     20  C   UNL A   1      33.069  34.045  28.304  1.00  0.00     0.251 C 
ATOM     21  H   UNL A   1      31.676  33.625  26.932  1.00  0.00     0.163 HD
ATOM     22  O   UNL A   1      32.564  35.118  28.618  1.00  0.00    -0.269 OA
BRANCH  20  23
ATOM     23  C   UNL A   1      34.368  33.646  28.879  1.00  0.00     0.039 A 
ATOM     24  C   UNL A   1      34.398  33.024  30.131  1.00  0.00     0.014 A 
ATOM     25  C   UNL A   1      35.555  33.898  28.189  1.00  0.00     0.014 A 
ATOM     26  C   UNL A   1      35.616  32.590  30.658  1.00  0.00     0.010 A 
ATOM     27  C   UNL A   1      36.757  33.398  28.679  1.00  0.00     0.010 A 
ATOM     28  C   UNL A   1      36.799  32.738  29.916  1.00  0.00    -0.014 A 
BRANCH  28  29
ATOM     29  C   UNL A   1      38.097  32.205  30.401  1.00  0.00     0.031 A 
ATOM     30  C   UNL A   1      38.645  30.929  29.829  1.00  0.00     0.074 A 
ATOM     31  C   UNL A   1      38.727  32.819  31.422  1.00  0.00     0.049 A 
ATOM     32  N   UNL A   1      39.689  30.236  30.208  1.00  0.00    -0.248 NA
ATOM     33  C   UNL A   1      37.908  30.338  28.701  1.00  0.00     0.031 C 
ATOM     34  C   UNL A   1      38.280  34.048  32.082  1.00  0.00     0.029 A 
ATOM     35  N   UNL A   1      39.873  32.478  32.097  1.00  0.00    -0.354 N 
ATOM     36  C   UNL A   1      39.718  29.119  29.383  1.00  0.00     0.074 A 
ATOM     37  C   UNL A   1      38.563  29.202  28.515  1.00  0.00     0.031 C 
ATOM     38  C   UNL A   1      39.150  34.367  33.053  1.00  0.00     0.029 A 
ATOM     39  C   UNL A   1      40.185  33.340  33.120  1.00  0.00     0.049 A 
ATOM     40  H   UNL A   1      40.418  31.691  31.870  1.00  0.00     0.167 HD
ATOM     41  C   UNL A   1      40.633  28.121  29.340  1.00  0.00     0.031 A 
ATOM     42  C   UNL A   1      41.180  33.299  34.026  1.00  0.00     0.031 A 
ATOM     43  C   UNL A   1      41.783  28.046  30.201  1.00  0.00     0.049 A 
ATOM     44  C   UNL A   1      42.164  32.161  33.981  1.00  0.00     0.074 A 
ATOM     45  C   UNL A   1      42.798  27.106  30.202  1.00  0.00     0.029 A 
ATOM     46  N   UNL A   1      42.066  28.945  31.219  1.00  0.00    -0.354 N 
ATOM     47  N   UNL A   1      42.214  31.145  33.153  1.00  0.00    -0.248 NA
ATOM     48  C   UNL A   1      43.230  32.168  34.991  1.00  0.00     0.031 C 
ATOM     49  C   UNL A   1      43.663  27.400  31.259  1.00  0.00     0.029 A 
ATOM     50  C   UNL A   1      43.225  28.564  31.873  1.00  0.00     0.049 A 
ATOM     51  H   UNL A   1      41.524  29.736  31.442  1.00  0.00     0.167 HD
ATOM     52  C   UNL A   1      43.335  30.412  33.521  1.00  0.00     0.074 A 
ATOM     53  C   UNL A   1      43.941  31.106  34.638  1.00  0.00     0.031 C 
ATOM     54  C   UNL A   1      43.820  29.269  32.978  1.00  0.00     0.031 A 
BRANCH  41  55
ATOM     55  C   UNL A   1      40.416  27.021  28.338  1.00  0.00    -0.014 A 
ATOM     56  C   UNL A   1      40.997  27.073  27.061  1.00  0.00     0.009 A 
ATOM     57  C   UNL A   1      39.650  25.898  28.689  1.00  0.00     0.009 A 
ATOM     58  C   UNL A   1      40.781  26.042  26.143  1.00  0.00     0.001 A 
ATOM     59  C   UNL A   1      39.465  24.853  27.781  1.00  0.00     0.001 A 
ATOM     60  C   UNL A   1      40.021  24.932  26.506  1.00  0.00     0.000 A 
ENDBRANCH  41  55
BRANCH  42  61
ATOM     61  C   UNL A   1      41.300  34.367  35.053  1.00  0.00    -0.014 A 
ATOM     62  C   UNL A   1      40.657  34.237  36.294  1.00  0.00     0.009 A 
ATOM     63  C   UNL A   1      42.052  35.525  34.798  1.00  0.00     0.009 A 
ATOM     64  C   UNL A   1      40.739  35.257  37.246  1.00  0.00     0.001 A 
ATOM     65  C   UNL A   1      42.160  36.528  35.765  1.00  0.00     0.001 A 
ATOM     66  C   UNL A   1      41.495  36.398  36.982  1.00  0.00     0.000 A 
ENDBRANCH  42  61
BRANCH  54  67
ATOM     67  C   UNL A   1      45.095  28.717  33.551  1.00  0.00    -0.014 A 
ATOM     68  C   UNL A   1      45.086  27.796  34.609  1.00  0.00     0.009 A 
ATOM     69  C   UNL A   1      46.324  29.077  32.973  1.00  0.00     0.009 A 
ATOM     70  C   UNL A   1      46.284  27.266  35.093  1.00  0.00     0.001 A 
ATOM     71  C   UNL A   1      47.516  28.522  33.437  1.00  0.00     0.001 A 
ATOM     72  C   UNL A   1      47.496  27.622  34.502  1.00  0.00     0.000 A 
ENDBRANCH  54  67
ENDBRANCH  28  29
ENDBRANCH  20  23
ENDBRANCH  18  19
ENDBRANCH   1  18
TORSDOF 12
ENDMDL
MODEL 3
REMARK VINA RESULT:     -10.5      3.217      5.486
REMARK SMILES Nc1ccc(O)c(C(=O)NCCCNC(=O)c2ccc(-c3c4nc(c(-c5ccccc5)c5ccc([nH]5)c(-c5ccccc5)c5nc(c(-c6ccccc6)c6ccc3[nH]6)C=C5)C=C4)cc2)c1
REMARK SMILES IDX 12 1 11 2 10 3 8 4 9 5 7 7 2 8 3 9 65 10 4 11 5 12 1 13 6 16
REMARK SMILES IDX 13 18 14 19 15 20 16 22 17 23 18 24 64 25 19 26 63 27 20 28
REMARK SMILES IDX 21 29 22 30 57 31 23 32 62 33 56 34 58 35 24 36 61 37 55 38
REMARK SMILES IDX 54 39 25 41 47 42 32 43 46 44 33 45 36 46 45 47 59 48 34 49
REMARK SMILES IDX 35 50 44 52 60 53 37 54 26 55 27 56 31 57 28 58 30 59 29 60
REMARK SMILES IDX 48 61 49 62 53 63 50 64 52 65 51 66 38 67 39 68 43 69 40 70
REMARK SMILES IDX 42 71 41 72
REMARK H PARENT 10 6 1 14 1 15 6 17 14 21 58 40 36 51
REMARK Flexibility Score: inf
ROOT
ATOM      1  C   UNL A   1      33.156  29.026  25.574  1.00  0.00     0.042 C 
ENDROOT
BRANCH   1   2
ATOM      2  C   UNL A   1      31.980  28.076  25.350  1.00  0.00     0.118 C 
BRANCH   2   3
ATOM      3  N   UNL A   1      32.096  27.417  24.063  1.00  0.00    -0.352 N 
ATOM      4  C   UNL A   1      31.328  27.424  22.928  1.00  0.00     0.255 C 
ATOM      5  O   UNL A   1      31.740  26.747  21.980  1.00  0.00    -0.269 OA
ATOM      6  H   UNL A   1      32.893  26.844  23.989  1.00  0.00     0.163 HD
BRANCH   4   7
ATOM      7  C   UNL A   1      30.087  28.228  22.734  1.00  0.00     0.083 A 
ATOM      8  C   UNL A   1      27.699  28.654  23.030  1.00  0.00     0.032 A 
ATOM      9  C   UNL A   1      27.841  29.884  22.388  1.00  0.00     0.029 A 
ATOM     10  C   UNL A   1      28.811  27.808  23.127  1.00  0.00     0.043 A 
ATOM     11  C   UNL A   1      29.086  30.295  21.918  1.00  0.00     0.049 A 
ATOM     12  C   UNL A   1      30.199  29.478  22.099  1.00  0.00     0.128 A 
BRANCH   8  13
ATOM     13  N   UNL A   1      26.448  28.222  23.446  1.00  0.00    -0.399 N 
ATOM     14  H   UNL A   1      26.363  27.666  24.254  1.00  0.00     0.156 HD
ATOM     15  H   UNL A   1      25.645  28.472  22.934  1.00  0.00     0.156 HD
ENDBRANCH   8  13
BRANCH  12  16
ATOM     16  O   UNL A   1      31.379  29.977  21.607  1.00  0.00    -0.507 OA
ATOM     17  H   UNL A   1      32.195  29.622  21.900  1.00  0.00     0.293 HD
ENDBRANCH  12  16
ENDBRANCH   4   7
ENDBRANCH   2   3
ENDBRANCH   1   2
BRANCH   1  18
ATOM     18  C   UNL A   1      33.649  29.019  27.020  1.00  0.00     0.118 C 
BRANCH  18  19
ATOM     19  N   UNL A   1      33.680  30.362  27.589  1.00  0.00    -0.352 N 
ATOM     20  C   UNL A   1      34.618  30.953  28.399  1.00  0.00     0.251 C 
ATOM     21  H   UNL A   1      32.911  30.931  27.357  1.00  0.00     0.163 HD
ATOM     22  O   UNL A   1      34.356  32.001  28.978  1.00  0.00    -0.269 OA
BRANCH  20  23
ATOM     23  C   UNL A   1      35.939  30.321  28.579  1.00  0.00     0.039 A 
ATOM     24  C   UNL A   1      36.843  30.315  27.512  1.00  0.00     0.014 A 
ATOM     25  C   UNL A   1      36.279  29.723  29.794  1.00  0.00     0.014 A 
ATOM     26  C   UNL A   1      38.117  29.771  27.689  1.00  0.00     0.010 A 
ATOM     27  C   UNL A   1      37.571  29.251  29.992  1.00  0.00     0.010 A 
ATOM     28  C   UNL A   1      38.504  29.272  28.944  1.00  0.00    -0.014 A 
BRANCH  28  29
ATOM     29  C   UNL A   1      39.878  28.773  29.196  1.00  0.00     0.031 A 
ATOM     30  C   UNL A   1      40.920  29.696  29.763  1.00  0.00     0.074 A 
ATOM     31  C   UNL A   1      40.210  27.521  28.822  1.00  0.00     0.049 A 
ATOM     32  N   UNL A   1      42.201  29.490  29.932  1.00  0.00    -0.248 NA
ATOM     33  C   UNL A   1      40.467  31.036  30.166  1.00  0.00     0.031 C 
ATOM     34  C   UNL A   1      39.296  26.539  28.234  1.00  0.00     0.029 A 
ATOM     35  N   UNL A   1      41.416  26.868  28.866  1.00  0.00    -0.354 N 
ATOM     36  C   UNL A   1      42.710  30.679  30.437  1.00  0.00     0.074 A 
ATOM     37  C   UNL A   1      41.609  31.617  30.503  1.00  0.00     0.031 C 
ATOM     38  C   UNL A   1      39.969  25.404  27.989  1.00  0.00     0.029 A 
ATOM     39  C   UNL A   1      41.370  25.594  28.351  1.00  0.00     0.049 A 
ATOM     40  H   UNL A   1      42.236  27.272  29.230  1.00  0.00     0.167 HD
ATOM     41  C   UNL A   1      43.976  30.961  30.826  1.00  0.00     0.031 A 
ATOM     42  C   UNL A   1      42.349  24.687  28.171  1.00  0.00     0.031 A 
ATOM     43  C   UNL A   1      45.065  30.024  30.764  1.00  0.00     0.049 A 
ATOM     44  C   UNL A   1      43.754  25.037  28.578  1.00  0.00     0.074 A 
ATOM     45  C   UNL A   1      46.372  30.194  31.184  1.00  0.00     0.029 A 
ATOM     46  N   UNL A   1      44.973  28.742  30.244  1.00  0.00    -0.354 N 
ATOM     47  N   UNL A   1      44.207  26.145  29.114  1.00  0.00    -0.248 NA
ATOM     48  C   UNL A   1      44.781  24.010  28.362  1.00  0.00     0.031 C 
ATOM     49  C   UNL A   1      47.087  29.038  30.862  1.00  0.00     0.029 A 
ATOM     50  C   UNL A   1      46.209  28.120  30.305  1.00  0.00     0.049 A 
ATOM     51  H   UNL A   1      44.152  28.335  29.885  1.00  0.00     0.167 HD
ATOM     52  C   UNL A   1      45.563  25.935  29.330  1.00  0.00     0.074 A 
ATOM     53  C   UNL A   1      45.856  24.591  28.877  1.00  0.00     0.031 C 
ATOM     54  C   UNL A   1      46.482  26.779  29.858  1.00  0.00     0.031 A 
BRANCH  41  55
ATOM     55  C   UNL A   1      44.253  32.348  31.339  1.00  0.00    -0.014 A 
ATOM     56  C   UNL A   1      44.632  33.385  30.471  1.00  0.00     0.009 A 
ATOM     57  C   UNL A   1      44.098  32.631  32.705  1.00  0.00     0.009 A 
ATOM     58  C   UNL A   1      44.889  34.665  30.967  1.00  0.00     0.001 A 
ATOM     59  C   UNL A   1      44.322  33.920  33.193  1.00  0.00     0.001 A 
ATOM     60  C   UNL A   1      44.728  34.933  32.326  1.00  0.00     0.000 A 
ENDBRANCH  41  55
BRANCH  42  61
ATOM     61  C   UNL A   1      42.038  23.360  27.578  1.00  0.00    -0.014 A 
ATOM     62  C   UNL A   1      42.261  23.120  26.214  1.00  0.00     0.009 A 
ATOM     63  C   UNL A   1      41.509  22.328  28.370  1.00  0.00     0.009 A 
ATOM     64  C   UNL A   1      41.935  21.884  25.649  1.00  0.00     0.001 A 
ATOM     65  C   UNL A   1      41.215  21.083  27.809  1.00  0.00     0.001 A 
ATOM     66  C   UNL A   1      41.418  20.866  26.448  1.00  0.00     0.000 A 
ENDBRANCH  42  61
BRANCH  54  67
ATOM     67  C   UNL A   1      47.884  26.262  30.023  1.00  0.00    -0.014 A 
ATOM     68  C   UNL A   1      48.815  26.320  28.976  1.00  0.00     0.009 A 
ATOM     69  C   UNL A   1      48.295  25.772  31.273  1.00  0.00     0.009 A 
ATOM     70  C   UNL A   1      50.124  25.872  29.170  1.00  0.00     0.001 A 
ATOM     71  C   UNL A   1      49.611  25.355  31.474  1.00  0.00     0.001 A 
ATOM     72  C   UNL A   1      50.522  25.399  30.420  1.00  0.00     0.000 A 
ENDBRANCH  54  67
ENDBRANCH  28  29
ENDBRANCH  20  23
ENDBRANCH  18  19
ENDBRANCH   1  18
TORSDOF 12
ENDMDL
