MODEL 1
REMARK VINA RESULT:      -9.1      0.000      0.000
REMARK SMILES COc1cccc(C2=NN3[C@@H](c4ccc(OC)c(OC)c4C(=O)NCCCNC(=O)c4ccc(-c5c6nc(c(-c7ccccc7)c7ccc([nH]7)c(-c7ccccc7)c7nc(c(-c8ccccc8)c8ccc5[nH]8)C=C7)C=C6)cc4)Oc4c(OC)cccc4[C@@H]3C2)c1
REMARK SMILES IDX 25 1 24 2 22 3 23 4 21 6 12 7 13 8 14 9 18 10 15 11 11 12
REMARK SMILES IDX 8 13 9 14 89 15 10 16 88 17 87 18 79 19 80 20 86 21 81 22
REMARK SMILES IDX 85 23 84 24 7 25 3 26 4 27 90 28 5 29 6 30 2 31 1 32 82 33
REMARK SMILES IDX 83 34 19 35 20 36 16 37 17 38 26 39 27 40 28 41 29 42 30 44
REMARK SMILES IDX 31 45 32 46 78 47 33 48 77 49 34 50 35 51 36 52 71 53 37 54
REMARK SMILES IDX 76 55 70 56 72 57 38 58 75 59 69 60 68 61 39 63 61 64 46 65
REMARK SMILES IDX 60 66 47 67 50 68 59 69 73 70 48 71 49 72 58 74 74 75 51 76
REMARK SMILES IDX 40 77 41 78 45 79 42 80 44 81 43 82 62 83 63 84 67 85 64 86
REMARK SMILES IDX 66 87 65 88 52 89 53 90 57 91 54 92 56 93 55 94
REMARK H PARENT 24 5 28 43 72 62 50 73
REMARK Flexibility Score: inf
ROOT
ATOM      1  C   UNL A   1      42.929  36.615  35.903  1.00  0.00     0.118 C 
ENDROOT
BRANCH   1   2
ATOM      2  N   UNL A   1      41.820  35.728  36.280  1.00  0.00    -0.352 N 
ATOM      3  C   UNL A   1      40.494  36.106  36.299  1.00  0.00     0.255 C 
ATOM      4  O   UNL A   1      40.037  37.043  35.646  1.00  0.00    -0.269 OA
ATOM      5  H   UNL A   1      42.040  34.803  36.536  1.00  0.00     0.163 HD
BRANCH   3   6
ATOM      6  C   UNL A   1      39.638  35.330  37.250  1.00  0.00     0.094 A 
ATOM      7  C   UNL A   1      38.764  34.345  36.707  1.00  0.00     0.032 A 
ATOM      8  C   UNL A   1      37.935  33.615  37.571  1.00  0.00     0.014 A 
ATOM      9  C   UNL A   1      38.005  33.808  38.943  1.00  0.00     0.051 A 
ATOM     10  C   UNL A   1      39.736  35.497  38.652  1.00  0.00     0.173 A 
ATOM     11  C   UNL A   1      38.926  34.705  39.494  1.00  0.00     0.161 A 
BRANCH   7  12
ATOM     12  C   UNL A   1      38.826  33.937  35.246  1.00  0.00     0.321 C 
ATOM     13  C   UNL A   1      41.151  31.900  33.789  1.00  0.00     0.070 C 
ATOM     14  N   UNL A   1      40.462  32.149  34.865  1.00  0.00    -0.178 NA
ATOM     15  C   UNL A   1      41.584  33.133  33.045  1.00  0.00     0.090 C 
ATOM     16  N   UNL A   1      40.188  33.511  34.806  1.00  0.00    -0.246 NA
ATOM     17  C   UNL A   1      40.420  34.016  33.431  1.00  0.00     0.146 C 
ATOM     18  C   UNL A   1      39.149  33.888  32.612  1.00  0.00     0.023 A 
ATOM     19  O   UNL A   1      38.239  35.017  34.465  1.00  0.00    -0.460 OA
ATOM     20  C   UNL A   1      38.039  34.525  33.193  1.00  0.00     0.169 A 
ATOM     21  C   UNL A   1      38.976  33.191  31.416  1.00  0.00     0.010 A 
ATOM     22  C   UNL A   1      36.809  34.583  32.542  1.00  0.00     0.161 A 
ATOM     23  C   UNL A   1      37.721  33.157  30.806  1.00  0.00     0.004 A 
ATOM     24  C   UNL A   1      36.656  33.883  31.345  1.00  0.00     0.050 A 
BRANCH  13  25
ATOM     25  C   UNL A   1      41.415  30.546  33.268  1.00  0.00     0.001 A 
ATOM     26  C   UNL A   1      42.945  28.805  32.635  1.00  0.00     0.119 A 
ATOM     27  C   UNL A   1      41.859  27.940  32.563  1.00  0.00     0.046 A 
ATOM     28  C   UNL A   1      42.729  30.122  33.008  1.00  0.00     0.056 A 
ATOM     29  C   UNL A   1      40.561  28.334  32.831  1.00  0.00     0.005 A 
ATOM     30  C   UNL A   1      40.338  29.652  33.168  1.00  0.00     0.010 A 
BRANCH  26  31
ATOM     31  O   UNL A   1      44.114  28.200  32.283  1.00  0.00    -0.497 OA
ATOM     32  C   UNL A   1      44.101  26.802  32.078  1.00  0.00     0.278 C 
ENDBRANCH  26  31
ENDBRANCH  13  25
BRANCH  22  33
ATOM     33  O   UNL A   1      35.742  35.346  32.922  1.00  0.00    -0.493 OA
ATOM     34  C   UNL A   1      34.817  34.682  33.773  1.00  0.00     0.278 C 
ENDBRANCH  22  33
ENDBRANCH   7  12
BRANCH  10  35
ATOM     35  O   UNL A   1      40.645  36.322  39.256  1.00  0.00    -0.492 OA
ATOM     36  C   UNL A   1      40.278  37.692  39.365  1.00  0.00     0.278 C 
ENDBRANCH  10  35
BRANCH  11  37
ATOM     37  O   UNL A   1      38.870  34.718  40.865  1.00  0.00    -0.493 OA
ATOM     38  C   UNL A   1      37.675  34.260  41.481  1.00  0.00     0.278 C 
ENDBRANCH  11  37
ENDBRANCH   3   6
ENDBRANCH   1   2
BRANCH   1  39
ATOM     39  C   UNL A   1      43.199  36.471  34.396  1.00  0.00     0.042 C 
BRANCH  39  40
ATOM     40  C   UNL A   1      44.438  35.683  33.979  1.00  0.00     0.118 C 
BRANCH  40  41
ATOM     41  N   UNL A   1      45.311  36.369  33.039  1.00  0.00    -0.352 N 
ATOM     42  C   UNL A   1      45.831  35.982  31.818  1.00  0.00     0.251 C 
ATOM     43  H   UNL A   1      45.581  37.273  33.323  1.00  0.00     0.163 HD
ATOM     44  O   UNL A   1      46.612  36.753  31.257  1.00  0.00    -0.269 OA
BRANCH  42  45
ATOM     45  C   UNL A   1      45.528  34.670  31.157  1.00  0.00     0.039 A 
ATOM     46  C   UNL A   1      45.596  33.492  31.929  1.00  0.00     0.014 A 
ATOM     47  C   UNL A   1      45.227  34.539  29.806  1.00  0.00     0.014 A 
ATOM     48  C   UNL A   1      45.296  32.226  31.381  1.00  0.00     0.010 A 
ATOM     49  C   UNL A   1      44.849  33.297  29.282  1.00  0.00     0.010 A 
ATOM     50  C   UNL A   1      44.880  32.115  30.053  1.00  0.00    -0.014 A 
BRANCH  50  51
ATOM     51  C   UNL A   1      44.477  30.837  29.377  1.00  0.00     0.031 A 
ATOM     52  C   UNL A   1      43.022  30.447  29.398  1.00  0.00     0.074 A 
ATOM     53  C   UNL A   1      45.375  29.918  28.957  1.00  0.00     0.049 A 
ATOM     54  N   UNL A   1      42.473  29.278  29.192  1.00  0.00    -0.248 NA
ATOM     55  C   UNL A   1      42.063  31.524  29.694  1.00  0.00     0.031 C 
ATOM     56  C   UNL A   1      46.812  30.114  28.788  1.00  0.00     0.029 A 
ATOM     57  N   UNL A   1      45.215  28.562  28.752  1.00  0.00    -0.354 N 
ATOM     58  C   UNL A   1      41.105  29.488  29.293  1.00  0.00     0.074 A 
ATOM     59  C   UNL A   1      40.916  30.862  29.708  1.00  0.00     0.031 C 
ATOM     60  C   UNL A   1      47.424  28.918  28.769  1.00  0.00     0.029 A 
ATOM     61  C   UNL A   1      46.409  27.873  28.810  1.00  0.00     0.049 A 
ATOM     62  H   UNL A   1      44.345  28.134  28.583  1.00  0.00     0.167 HD
ATOM     63  C   UNL A   1      40.093  28.642  28.988  1.00  0.00     0.031 A 
ATOM     64  C   UNL A   1      46.666  26.555  28.913  1.00  0.00     0.031 A 
ATOM     65  C   UNL A   1      40.274  27.286  28.555  1.00  0.00     0.049 A 
ATOM     66  C   UNL A   1      45.542  25.578  28.745  1.00  0.00     0.074 A 
ATOM     67  C   UNL A   1      39.331  26.393  28.078  1.00  0.00     0.029 A 
ATOM     68  N   UNL A   1      41.489  26.622  28.562  1.00  0.00    -0.354 N 
ATOM     69  N   UNL A   1      44.255  25.810  28.682  1.00  0.00    -0.248 NA
ATOM     70  C   UNL A   1      45.913  24.168  28.551  1.00  0.00     0.031 C 
ATOM     71  C   UNL A   1      39.975  25.174  27.822  1.00  0.00     0.029 A 
ATOM     72  C   UNL A   1      41.319  25.322  28.117  1.00  0.00     0.049 A 
ATOM     73  H   UNL A   1      42.347  27.016  28.840  1.00  0.00     0.167 HD
ATOM     74  C   UNL A   1      43.674  24.601  28.323  1.00  0.00     0.074 A 
ATOM     75  C   UNL A   1      44.740  23.624  28.252  1.00  0.00     0.031 C 
ATOM     76  C   UNL A   1      42.378  24.353  28.020  1.00  0.00     0.031 A 
BRANCH  63  77
ATOM     77  C   UNL A   1      38.707  29.214  29.049  1.00  0.00    -0.014 A 
ATOM     78  C   UNL A   1      37.966  29.142  30.241  1.00  0.00     0.009 A 
ATOM     79  C   UNL A   1      38.127  29.800  27.918  1.00  0.00     0.009 A 
ATOM     80  C   UNL A   1      36.646  29.593  30.282  1.00  0.00     0.001 A 
ATOM     81  C   UNL A   1      36.815  30.276  27.970  1.00  0.00     0.001 A 
ATOM     82  C   UNL A   1      36.072  30.158  29.146  1.00  0.00     0.000 A 
ENDBRANCH  63  77
BRANCH  64  83
ATOM     83  C   UNL A   1      48.054  26.062  29.105  1.00  0.00    -0.014 A 
ATOM     84  C   UNL A   1      48.854  25.732  28.001  1.00  0.00     0.009 A 
ATOM     85  C   UNL A   1      48.569  25.880  30.398  1.00  0.00     0.009 A 
ATOM     86  C   UNL A   1      50.131  25.201  28.187  1.00  0.00     0.001 A 
ATOM     87  C   UNL A   1      49.853  25.356  30.580  1.00  0.00     0.001 A 
ATOM     88  C   UNL A   1      50.630  25.011  29.475  1.00  0.00     0.000 A 
ENDBRANCH  64  83
BRANCH  76  89
ATOM     89  C   UNL A   1      42.049  22.997  27.471  1.00  0.00    -0.014 A 
ATOM     90  C   UNL A   1      41.429  22.013  28.252  1.00  0.00     0.009 A 
ATOM     91  C   UNL A   1      42.344  22.719  26.126  1.00  0.00     0.009 A 
ATOM     92  C   UNL A   1      41.129  20.766  27.700  1.00  0.00     0.001 A 
ATOM     93  C   UNL A   1      42.022  21.480  25.571  1.00  0.00     0.001 A 
ATOM     94  C   UNL A   1      41.420  20.503  26.361  1.00  0.00     0.000 A 
ENDBRANCH  76  89
ENDBRANCH  50  51
ENDBRANCH  42  45
ENDBRANCH  40  41
ENDBRANCH  39  40
ENDBRANCH   1  39
TORSDOF 16
ENDMDL
MODEL 2
REMARK VINA RESULT:      -9.0      4.477     13.417
REMARK SMILES COc1cccc(C2=NN3[C@@H](c4ccc(OC)c(OC)c4C(=O)NCCCNC(=O)c4ccc(-c5c6nc(c(-c7ccccc7)c7ccc([nH]7)c(-c7ccccc7)c7nc(c(-c8ccccc8)c8ccc5[nH]8)C=C7)C=C6)cc4)Oc4c(OC)cccc4[C@@H]3C2)c1
REMARK SMILES IDX 25 1 24 2 22 3 23 4 21 6 12 7 13 8 14 9 18 10 15 11 11 12
REMARK SMILES IDX 8 13 9 14 89 15 10 16 88 17 87 18 79 19 80 20 86 21 81 22
REMARK SMILES IDX 85 23 84 24 7 25 3 26 4 27 90 28 5 29 6 30 2 31 1 32 82 33
REMARK SMILES IDX 83 34 19 35 20 36 16 37 17 38 26 39 27 40 28 41 29 42 30 44
REMARK SMILES IDX 31 45 32 46 78 47 33 48 77 49 34 50 35 51 36 52 71 53 37 54
REMARK SMILES IDX 76 55 70 56 72 57 38 58 75 59 69 60 68 61 39 63 61 64 46 65
REMARK SMILES IDX 60 66 47 67 50 68 59 69 73 70 48 71 49 72 58 74 74 75 51 76
REMARK SMILES IDX 40 77 41 78 45 79 42 80 44 81 43 82 62 83 63 84 67 85 64 86
REMARK SMILES IDX 66 87 65 88 52 89 53 90 57 91 54 92 56 93 55 94
REMARK H PARENT 24 5 28 43 72 62 50 73
REMARK Flexibility Score: inf
ROOT
ATOM      1  C   UNL A   1      40.474  22.308  27.208  1.00  0.00     0.118 C 
ENDROOT
BRANCH   1   2
ATOM      2  N   UNL A   1      41.922  22.182  26.989  1.00  0.00    -0.352 N 
ATOM      3  C   UNL A   1      42.591  22.690  25.894  1.00  0.00     0.255 C 
ATOM      4  O   UNL A   1      42.174  23.618  25.205  1.00  0.00    -0.269 OA
ATOM      5  H   UNL A   1      42.449  21.702  27.669  1.00  0.00     0.163 HD
BRANCH   3   6
ATOM      6  C   UNL A   1      43.854  21.968  25.545  1.00  0.00     0.094 A 
ATOM      7  C   UNL A   1      45.088  22.651  25.741  1.00  0.00     0.032 A 
ATOM      8  C   UNL A   1      46.288  22.008  25.405  1.00  0.00     0.014 A 
ATOM      9  C   UNL A   1      46.278  20.700  24.940  1.00  0.00     0.051 A 
ATOM     10  C   UNL A   1      43.850  20.621  25.109  1.00  0.00     0.173 A 
ATOM     11  C   UNL A   1      45.080  19.987  24.833  1.00  0.00     0.161 A 
BRANCH   7  12
ATOM     12  C   UNL A   1      45.158  23.984  26.465  1.00  0.00     0.321 C 
ATOM     13  C   UNL A   1      44.441  24.565  29.755  1.00  0.00     0.070 C 
ATOM     14  N   UNL A   1      44.927  23.720  28.892  1.00  0.00    -0.178 NA
ATOM     15  C   UNL A   1      43.282  25.369  29.232  1.00  0.00     0.090 C 
ATOM     16  N   UNL A   1      44.308  24.040  27.690  1.00  0.00    -0.246 NA
ATOM     17  C   UNL A   1      43.695  25.388  27.779  1.00  0.00     0.146 C 
ATOM     18  C   UNL A   1      44.702  26.442  27.356  1.00  0.00     0.023 A 
ATOM     19  O   UNL A   1      44.894  25.028  25.485  1.00  0.00    -0.460 OA
ATOM     20  C   UNL A   1      45.239  26.226  26.075  1.00  0.00     0.169 A 
ATOM     21  C   UNL A   1      45.157  27.529  28.103  1.00  0.00     0.010 A 
ATOM     22  C   UNL A   1      46.115  27.135  25.489  1.00  0.00     0.161 A 
ATOM     23  C   UNL A   1      46.113  28.392  27.562  1.00  0.00     0.004 A 
ATOM     24  C   UNL A   1      46.557  28.218  26.249  1.00  0.00     0.050 A 
BRANCH  13  25
ATOM     25  C   UNL A   1      45.012  24.806  31.092  1.00  0.00     0.001 A 
ATOM     26  C   UNL A   1      45.181  24.269  33.428  1.00  0.00     0.119 A 
ATOM     27  C   UNL A   1      46.293  25.100  33.493  1.00  0.00     0.046 A 
ATOM     28  C   UNL A   1      44.537  24.102  32.212  1.00  0.00     0.056 A 
ATOM     29  C   UNL A   1      46.786  25.788  32.398  1.00  0.00     0.005 A 
ATOM     30  C   UNL A   1      46.127  25.652  31.195  1.00  0.00     0.010 A 
BRANCH  26  31
ATOM     31  O   UNL A   1      44.860  23.739  34.641  1.00  0.00    -0.497 OA
ATOM     32  C   UNL A   1      43.670  22.983  34.741  1.00  0.00     0.278 C 
ENDBRANCH  26  31
ENDBRANCH  13  25
BRANCH  22  33
ATOM     33  O   UNL A   1      46.524  27.121  24.186  1.00  0.00    -0.493 OA
ATOM     34  C   UNL A   1      47.919  27.326  24.004  1.00  0.00     0.278 C 
ENDBRANCH  22  33
ENDBRANCH   7  12
BRANCH  10  35
ATOM     35  O   UNL A   1      42.720  19.853  25.026  1.00  0.00    -0.492 OA
ATOM     36  C   UNL A   1      42.505  18.932  26.087  1.00  0.00     0.278 C 
ENDBRANCH  10  35
BRANCH  11  37
ATOM     37  O   UNL A   1      45.288  18.701  24.400  1.00  0.00    -0.493 OA
ATOM     38  C   UNL A   1      45.270  18.466  23.000  1.00  0.00     0.278 C 
ENDBRANCH  11  37
ENDBRANCH   3   6
ENDBRANCH   1   2
BRANCH   1  39
ATOM     39  C   UNL A   1      40.197  23.590  28.011  1.00  0.00     0.042 C 
BRANCH  39  40
ATOM     40  C   UNL A   1      39.365  24.675  27.332  1.00  0.00     0.118 C 
BRANCH  40  41
ATOM     41  N   UNL A   1      40.059  25.415  26.289  1.00  0.00    -0.352 N 
ATOM     42  C   UNL A   1      40.716  26.631  26.309  1.00  0.00     0.251 C 
ATOM     43  H   UNL A   1      40.062  24.970  25.411  1.00  0.00     0.163 HD
ATOM     44  O   UNL A   1      41.164  27.057  25.243  1.00  0.00    -0.269 OA
BRANCH  42  45
ATOM     45  C   UNL A   1      40.882  27.474  27.538  1.00  0.00     0.039 A 
ATOM     46  C   UNL A   1      41.755  28.579  27.486  1.00  0.00     0.014 A 
ATOM     47  C   UNL A   1      40.258  27.201  28.750  1.00  0.00     0.014 A 
ATOM     48  C   UNL A   1      41.940  29.434  28.595  1.00  0.00     0.010 A 
ATOM     49  C   UNL A   1      40.375  28.093  29.823  1.00  0.00     0.010 A 
ATOM     50  C   UNL A   1      41.220  29.223  29.773  1.00  0.00    -0.014 A 
BRANCH  50  51
ATOM     51  C   UNL A   1      41.284  30.094  30.993  1.00  0.00     0.031 A 
ATOM     52  C   UNL A   1      42.154  29.653  32.141  1.00  0.00     0.074 A 
ATOM     53  C   UNL A   1      40.432  31.124  31.200  1.00  0.00     0.049 A 
ATOM     54  N   UNL A   1      42.131  30.030  33.393  1.00  0.00    -0.248 NA
ATOM     55  C   UNL A   1      43.185  28.650  31.829  1.00  0.00     0.031 C 
ATOM     56  C   UNL A   1      39.565  31.753  30.209  1.00  0.00     0.029 A 
ATOM     57  N   UNL A   1      40.041  31.716  32.385  1.00  0.00    -0.354 N 
ATOM     58  C   UNL A   1      43.167  29.341  34.007  1.00  0.00     0.074 A 
ATOM     59  C   UNL A   1      43.712  28.429  33.024  1.00  0.00     0.031 C 
ATOM     60  C   UNL A   1      38.588  32.429  30.839  1.00  0.00     0.029 A 
ATOM     61  C   UNL A   1      38.831  32.371  32.274  1.00  0.00     0.049 A 
ATOM     62  H   UNL A   1      40.567  31.675  33.216  1.00  0.00     0.167 HD
ATOM     63  C   UNL A   1      43.678  29.509  35.250  1.00  0.00     0.031 A 
ATOM     64  C   UNL A   1      37.995  32.849  33.216  1.00  0.00     0.031 A 
ATOM     65  C   UNL A   1      43.156  30.428  36.221  1.00  0.00     0.049 A 
ATOM     66  C   UNL A   1      38.457  32.903  34.641  1.00  0.00     0.074 A 
ATOM     67  C   UNL A   1      43.684  30.787  37.449  1.00  0.00     0.029 A 
ATOM     68  N   UNL A   1      41.969  31.126  36.075  1.00  0.00    -0.354 N 
ATOM     69  N   UNL A   1      39.530  32.378  35.177  1.00  0.00    -0.248 NA
ATOM     70  C   UNL A   1      37.649  33.710  35.569  1.00  0.00     0.031 C 
ATOM     71  C   UNL A   1      42.796  31.684  38.060  1.00  0.00     0.029 A 
ATOM     72  C   UNL A   1      41.734  31.899  37.199  1.00  0.00     0.049 A 
ATOM     73  H   UNL A   1      41.380  31.081  35.288  1.00  0.00     0.167 HD
ATOM     74  C   UNL A   1      39.590  32.888  36.467  1.00  0.00     0.074 A 
ATOM     75  C   UNL A   1      38.410  33.705  36.656  1.00  0.00     0.031 C 
ATOM     76  C   UNL A   1      40.576  32.733  37.383  1.00  0.00     0.031 A 
BRANCH  63  77
ATOM     77  C   UNL A   1      44.912  28.722  35.574  1.00  0.00    -0.014 A 
ATOM     78  C   UNL A   1      44.804  27.470  36.205  1.00  0.00     0.009 A 
ATOM     79  C   UNL A   1      46.182  29.230  35.278  1.00  0.00     0.009 A 
ATOM     80  C   UNL A   1      45.948  26.770  36.588  1.00  0.00     0.001 A 
ATOM     81  C   UNL A   1      47.325  28.513  35.638  1.00  0.00     0.001 A 
ATOM     82  C   UNL A   1      47.207  27.293  36.306  1.00  0.00     0.000 A 
ENDBRANCH  63  77
BRANCH  64  83
ATOM     83  C   UNL A   1      36.664  33.395  32.846  1.00  0.00    -0.014 A 
ATOM     84  C   UNL A   1      36.465  34.779  32.740  1.00  0.00     0.009 A 
ATOM     85  C   UNL A   1      35.576  32.532  32.640  1.00  0.00     0.009 A 
ATOM     86  C   UNL A   1      35.196  35.291  32.463  1.00  0.00     0.001 A 
ATOM     87  C   UNL A   1      34.309  33.049  32.354  1.00  0.00     0.001 A 
ATOM     88  C   UNL A   1      34.118  34.428  32.273  1.00  0.00     0.000 A 
ENDBRANCH  64  83
BRANCH  76  89
ATOM     89  C   UNL A   1      40.485  33.553  38.634  1.00  0.00    -0.014 A 
ATOM     90  C   UNL A   1      39.867  33.068  39.794  1.00  0.00     0.009 A 
ATOM     91  C   UNL A   1      41.065  34.832  38.652  1.00  0.00     0.009 A 
ATOM     92  C   UNL A   1      39.813  33.859  40.943  1.00  0.00     0.001 A 
ATOM     93  C   UNL A   1      41.029  35.612  39.809  1.00  0.00     0.001 A 
ATOM     94  C   UNL A   1      40.398  35.125  40.952  1.00  0.00     0.000 A 
ENDBRANCH  76  89
ENDBRANCH  50  51
ENDBRANCH  42  45
ENDBRANCH  40  41
ENDBRANCH  39  40
ENDBRANCH   1  39
TORSDOF 16
ENDMDL
MODEL 3
REMARK VINA RESULT:      -9.0      4.220     12.123
REMARK SMILES COc1cccc(C2=NN3[C@@H](c4ccc(OC)c(OC)c4C(=O)NCCCNC(=O)c4ccc(-c5c6nc(c(-c7ccccc7)c7ccc([nH]7)c(-c7ccccc7)c7nc(c(-c8ccccc8)c8ccc5[nH]8)C=C7)C=C6)cc4)Oc4c(OC)cccc4[C@@H]3C2)c1
REMARK SMILES IDX 25 1 24 2 22 3 23 4 21 6 12 7 13 8 14 9 18 10 15 11 11 12
REMARK SMILES IDX 8 13 9 14 89 15 10 16 88 17 87 18 79 19 80 20 86 21 81 22
REMARK SMILES IDX 85 23 84 24 7 25 3 26 4 27 90 28 5 29 6 30 2 31 1 32 82 33
REMARK SMILES IDX 83 34 19 35 20 36 16 37 17 38 26 39 27 40 28 41 29 42 30 44
REMARK SMILES IDX 31 45 32 46 78 47 33 48 77 49 34 50 35 51 36 52 71 53 37 54
REMARK SMILES IDX 76 55 70 56 72 57 38 58 75 59 69 60 68 61 39 63 61 64 46 65
REMARK SMILES IDX 60 66 47 67 50 68 59 69 73 70 48 71 49 72 58 74 74 75 51 76
REMARK SMILES IDX 40 77 41 78 45 79 42 80 44 81 43 82 62 83 63 84 67 85 64 86
REMARK SMILES IDX 66 87 65 88 52 89 53 90 57 91 54 92 56 93 55 94
REMARK H PARENT 24 5 28 43 72 62 50 73
REMARK Flexibility Score: inf
ROOT
ATOM      1  C   UNL A   1      50.228  26.084  30.136  1.00  0.00     0.118 C 
ENDROOT
BRANCH   1   2
ATOM      2  N   UNL A   1      49.644  26.180  28.791  1.00  0.00    -0.352 N 
ATOM      3  C   UNL A   1      49.837  25.250  27.791  1.00  0.00     0.255 C 
ATOM      4  O   UNL A   1      50.156  24.081  27.993  1.00  0.00    -0.269 OA
ATOM      5  H   UNL A   1      49.077  26.960  28.592  1.00  0.00     0.163 HD
BRANCH   3   6
ATOM      6  C   UNL A   1      49.705  25.793  26.402  1.00  0.00     0.094 A 
ATOM      7  C   UNL A   1      48.471  25.588  25.722  1.00  0.00     0.032 A 
ATOM      8  C   UNL A   1      48.323  26.067  24.412  1.00  0.00     0.014 A 
ATOM      9  C   UNL A   1      49.347  26.782  23.805  1.00  0.00     0.051 A 
ATOM     10  C   UNL A   1      50.731  26.556  25.796  1.00  0.00     0.173 A 
ATOM     11  C   UNL A   1      50.527  27.069  24.498  1.00  0.00     0.161 A 
BRANCH   7  12
ATOM     12  C   UNL A   1      47.251  25.024  26.429  1.00  0.00     0.321 C 
ATOM     13  C   UNL A   1      45.112  22.644  25.230  1.00  0.00     0.070 C 
ATOM     14  N   UNL A   1      46.343  23.066  25.263  1.00  0.00    -0.178 NA
ATOM     15  C   UNL A   1      44.091  23.748  25.212  1.00  0.00     0.090 C 
ATOM     16  N   UNL A   1      46.246  24.433  25.497  1.00  0.00    -0.246 NA
ATOM     17  C   UNL A   1      44.888  24.767  25.992  1.00  0.00     0.146 C 
ATOM     18  C   UNL A   1      44.852  24.668  27.506  1.00  0.00     0.023 A 
ATOM     19  O   UNL A   1      46.736  26.064  27.309  1.00  0.00    -0.460 OA
ATOM     20  C   UNL A   1      45.821  25.461  28.146  1.00  0.00     0.169 A 
ATOM     21  C   UNL A   1      44.016  23.867  28.285  1.00  0.00     0.010 A 
ATOM     22  C   UNL A   1      45.883  25.560  29.533  1.00  0.00     0.161 A 
ATOM     23  C   UNL A   1      44.137  23.883  29.676  1.00  0.00     0.004 A 
ATOM     24  C   UNL A   1      45.036  24.753  30.296  1.00  0.00     0.050 A 
BRANCH  13  25
ATOM     25  C   UNL A   1      44.720  21.225  25.303  1.00  0.00     0.001 A 
ATOM     26  C   UNL A   1      43.032  19.521  25.451  1.00  0.00     0.119 A 
ATOM     27  C   UNL A   1      44.016  18.584  25.157  1.00  0.00     0.046 A 
ATOM     28  C   UNL A   1      43.378  20.862  25.509  1.00  0.00     0.056 A 
ATOM     29  C   UNL A   1      45.338  18.923  24.935  1.00  0.00     0.005 A 
ATOM     30  C   UNL A   1      45.693  20.252  25.027  1.00  0.00     0.010 A 
BRANCH  26  31
ATOM     31  O   UNL A   1      41.818  18.944  25.675  1.00  0.00    -0.497 OA
ATOM     32  C   UNL A   1      40.856  19.684  26.398  1.00  0.00     0.278 C 
ENDBRANCH  26  31
ENDBRANCH  13  25
BRANCH  22  33
ATOM     33  O   UNL A   1      46.642  26.451  30.236  1.00  0.00    -0.493 OA
ATOM     34  C   UNL A   1      46.593  27.783  29.742  1.00  0.00     0.278 C 
ENDBRANCH  22  33
ENDBRANCH   7  12
BRANCH  10  35
ATOM     35  O   UNL A   1      51.890  26.911  26.432  1.00  0.00    -0.492 OA
ATOM     36  C   UNL A   1      51.933  28.225  26.973  1.00  0.00     0.278 C 
ENDBRANCH  10  35
BRANCH  11  37
ATOM     37  O   UNL A   1      51.392  27.822  23.743  1.00  0.00    -0.493 OA
ATOM     38  C   UNL A   1      51.275  27.741  22.330  1.00  0.00     0.278 C 
ENDBRANCH  11  37
ENDBRANCH   3   6
ENDBRANCH   1   2
BRANCH   1  39
ATOM     39  C   UNL A   1      50.860  27.436  30.507  1.00  0.00     0.042 C 
BRANCH  39  40
ATOM     40  C   UNL A   1      50.050  28.361  31.412  1.00  0.00     0.118 C 
BRANCH  40  41
ATOM     41  N   UNL A   1      49.985  27.950  32.806  1.00  0.00    -0.352 N 
ATOM     42  C   UNL A   1      48.934  27.907  33.702  1.00  0.00     0.251 C 
ATOM     43  H   UNL A   1      50.845  27.648  33.179  1.00  0.00     0.163 HD
ATOM     44  O   UNL A   1      49.182  27.573  34.862  1.00  0.00    -0.269 OA
BRANCH  42  45
ATOM     45  C   UNL A   1      47.522  28.276  33.356  1.00  0.00     0.039 A 
ATOM     46  C   UNL A   1      46.490  27.368  33.669  1.00  0.00     0.014 A 
ATOM     47  C   UNL A   1      47.171  29.449  32.697  1.00  0.00     0.014 A 
ATOM     48  C   UNL A   1      45.135  27.660  33.399  1.00  0.00     0.010 A 
ATOM     49  C   UNL A   1      45.824  29.777  32.504  1.00  0.00     0.010 A 
ATOM     50  C   UNL A   1      44.778  28.891  32.844  1.00  0.00    -0.014 A 
BRANCH  50  51
ATOM     51  C   UNL A   1      43.373  29.340  32.568  1.00  0.00     0.031 A 
ATOM     52  C   UNL A   1      42.651  28.743  31.389  1.00  0.00     0.074 A 
ATOM     53  C   UNL A   1      42.814  30.408  33.182  1.00  0.00     0.049 A 
ATOM     54  N   UNL A   1      41.595  29.182  30.752  1.00  0.00    -0.248 NA
ATOM     55  C   UNL A   1      43.198  27.483  30.859  1.00  0.00     0.031 C 
ATOM     56  C   UNL A   1      43.305  31.083  34.379  1.00  0.00     0.029 A 
ATOM     57  N   UNL A   1      41.777  31.218  32.764  1.00  0.00    -0.354 N 
ATOM     58  C   UNL A   1      41.331  28.233  29.775  1.00  0.00     0.074 A 
ATOM     59  C   UNL A   1      42.409  27.267  29.818  1.00  0.00     0.031 C 
ATOM     60  C   UNL A   1      42.762  32.311  34.450  1.00  0.00     0.029 A 
ATOM     61  C   UNL A   1      41.801  32.460  33.366  1.00  0.00     0.049 A 
ATOM     62  H   UNL A   1      41.096  30.941  32.109  1.00  0.00     0.167 HD
ATOM     63  C   UNL A   1      40.248  28.124  28.971  1.00  0.00     0.031 A 
ATOM     64  C   UNL A   1      41.147  33.599  33.068  1.00  0.00     0.031 A 
ATOM     65  C   UNL A   1      39.165  29.065  28.940  1.00  0.00     0.049 A 
ATOM     66  C   UNL A   1      40.042  33.563  32.056  1.00  0.00     0.074 A 
ATOM     67  C   UNL A   1      37.954  28.976  28.276  1.00  0.00     0.029 A 
ATOM     68  N   UNL A   1      39.174  30.285  29.595  1.00  0.00    -0.354 N 
ATOM     69  N   UNL A   1      39.702  32.592  31.247  1.00  0.00    -0.248 NA
ATOM     70  C   UNL A   1      39.160  34.739  31.995  1.00  0.00     0.031 C 
ATOM     71  C   UNL A   1      37.240  30.159  28.510  1.00  0.00     0.029 A 
ATOM     72  C   UNL A   1      37.999  30.969  29.337  1.00  0.00     0.049 A 
ATOM     73  H   UNL A   1      39.907  30.616  30.163  1.00  0.00     0.167 HD
ATOM     74  C   UNL A   1      38.503  32.989  30.670  1.00  0.00     0.074 A 
ATOM     75  C   UNL A   1      38.213  34.317  31.168  1.00  0.00     0.031 C 
ATOM     76  C   UNL A   1      37.693  32.278  29.849  1.00  0.00     0.031 A 
BRANCH  63  77
ATOM     77  C   UNL A   1      40.171  26.890  28.121  1.00  0.00    -0.014 A 
ATOM     78  C   UNL A   1      40.754  26.876  26.842  1.00  0.00     0.009 A 
ATOM     79  C   UNL A   1      39.499  25.750  28.578  1.00  0.00     0.009 A 
ATOM     80  C   UNL A   1      40.614  25.764  26.012  1.00  0.00     0.001 A 
ATOM     81  C   UNL A   1      39.383  24.628  27.754  1.00  0.00     0.001 A 
ATOM     82  C   UNL A   1      39.927  24.642  26.469  1.00  0.00     0.000 A 
ENDBRANCH  63  77
BRANCH  64  83
ATOM     83  C   UNL A   1      41.452  34.862  33.788  1.00  0.00    -0.014 A 
ATOM     84  C   UNL A   1      42.454  35.726  33.321  1.00  0.00     0.009 A 
ATOM     85  C   UNL A   1      40.771  35.185  34.972  1.00  0.00     0.009 A 
ATOM     86  C   UNL A   1      42.788  36.875  34.041  1.00  0.00     0.001 A 
ATOM     87  C   UNL A   1      41.102  36.342  35.685  1.00  0.00     0.001 A 
ATOM     88  C   UNL A   1      42.114  37.182  35.223  1.00  0.00     0.000 A 
ENDBRANCH  64  83
BRANCH  76  89
ATOM     89  C   UNL A   1      36.355  32.871  29.524  1.00  0.00    -0.014 A 
ATOM     90  C   UNL A   1      35.302  32.874  30.449  1.00  0.00     0.009 A 
ATOM     91  C   UNL A   1      36.164  33.469  28.267  1.00  0.00     0.009 A 
ATOM     92  C   UNL A   1      34.074  33.447  30.111  1.00  0.00     0.001 A 
ATOM     93  C   UNL A   1      34.943  34.061  27.941  1.00  0.00     0.001 A 
ATOM     94  C   UNL A   1      33.898  34.043  28.862  1.00  0.00     0.000 A 
ENDBRANCH  76  89
ENDBRANCH  50  51
ENDBRANCH  42  45
ENDBRANCH  40  41
ENDBRANCH  39  40
ENDBRANCH   1  39
TORSDOF 16
ENDMDL
