MODEL 1
REMARK VINA RESULT:     -13.1      0.000      0.000
REMARK SMILES CC1=NN(c2ccccc2)C(=O)/C1=C\c1ccc(-c2cc(C(=O)NCCCNC(=O)c3ccc(-c4c5nc(c(-c6ccccc6)c6ccc([nH]6)c(-c6ccccc6)c6nc(c(-c7ccccc7)c7ccc4[nH]7)C=C6)C=C5)cc3)ccc2Cl)o1
REMARK SMILES IDX 25 1 24 2 22 3 23 4 21 6 19 7 20 8 81 9 80 10 82 11 79 12
REMARK SMILES IDX 18 13 15 14 16 15 83 16 17 17 14 18 1 19 2 20 3 21 13 22
REMARK SMILES IDX 4 23 11 24 12 25 5 26 6 27 10 28 7 29 9 30 8 31 26 32 27 33
REMARK SMILES IDX 28 34 29 35 30 37 31 38 32 39 78 40 33 41 77 42 34 43 35 44
REMARK SMILES IDX 36 45 71 46 37 47 76 48 70 49 72 50 38 51 75 52 69 53 68 54
REMARK SMILES IDX 39 56 61 57 46 58 60 59 47 60 50 61 59 62 73 63 48 64 49 65
REMARK SMILES IDX 58 67 74 68 51 69 40 70 41 71 45 72 42 73 44 74 43 75 62 76
REMARK SMILES IDX 63 77 67 78 64 79 66 80 65 81 52 82 53 83 57 84 54 85 56 86
REMARK SMILES IDX 55 87
REMARK H PARENT 24 5 28 36 72 55 50 66
REMARK Flexibility Score: inf
ROOT
ATOM      1  C   UNL A   1      32.946  30.055  26.102  1.00  0.00     0.118 C 
ENDROOT
BRANCH   1   2
ATOM      2  N   UNL A   1      33.564  29.798  24.808  1.00  0.00    -0.352 N 
ATOM      3  C   UNL A   1      33.200  29.002  23.744  1.00  0.00     0.251 C 
ATOM      4  O   UNL A   1      33.958  28.940  22.777  1.00  0.00    -0.269 OA
ATOM      5  H   UNL A   1      34.405  30.290  24.665  1.00  0.00     0.163 HD
BRANCH   3   6
ATOM      6  C   UNL A   1      31.957  28.185  23.750  1.00  0.00     0.040 A 
ATOM      7  C   UNL A   1      30.675  26.329  24.688  1.00  0.00     0.037 A 
ATOM      8  C   UNL A   1      31.869  27.067  24.601  1.00  0.00     0.027 A 
ATOM      9  C   UNL A   1      29.544  26.799  23.993  1.00  0.00     0.052 A 
ATOM     10  C   UNL A   1      29.662  27.838  23.074  1.00  0.00     0.022 A 
ATOM     11  Cl  UNL A   1      27.957  26.141  24.213  1.00  0.00    -0.084 Cl
ATOM     12  C   UNL A   1      30.888  28.464  22.896  1.00  0.00     0.015 A 
BRANCH   7  13
ATOM     13  C   UNL A   1      30.647  25.019  25.329  1.00  0.00     0.136 A 
ATOM     14  C   UNL A   1      31.127  22.868  25.553  1.00  0.00     0.128 A 
ATOM     15  C   UNL A   1      30.321  23.242  26.624  1.00  0.00     0.051 A 
ATOM     16  O   UNL A   1      31.356  23.989  24.778  1.00  0.00    -0.457 OA
ATOM     17  C   UNL A   1      29.968  24.585  26.446  1.00  0.00     0.051 A 
BRANCH  14  18
ATOM     18  C   UNL A   1      31.642  21.565  25.300  1.00  0.00     0.063 C 
ATOM     19  C   UNL A   1      33.041  18.989  24.200  1.00  0.00     0.069 C 
ATOM     20  C   UNL A   1      33.699  20.214  24.743  1.00  0.00     0.071 C 
ATOM     21  N   UNL A   1      34.991  20.419  24.717  1.00  0.00    -0.169 NA
ATOM     22  C   UNL A   1      32.964  21.348  25.331  1.00  0.00     0.068 C 
ATOM     23  N   UNL A   1      35.195  21.622  25.385  1.00  0.00    -0.196 N 
ATOM     24  C   UNL A   1      34.029  22.249  25.838  1.00  0.00     0.280 C 
ATOM     25  O   UNL A   1      33.883  23.272  26.476  1.00  0.00    -0.267 OA
BRANCH  23  26
ATOM     26  C   UNL A   1      36.505  22.072  25.638  1.00  0.00     0.069 A 
ATOM     27  C   UNL A   1      36.752  23.410  25.964  1.00  0.00     0.028 A 
ATOM     28  C   UNL A   1      37.581  21.174  25.590  1.00  0.00     0.028 A 
ATOM     29  C   UNL A   1      38.048  23.827  26.280  1.00  0.00     0.002 A 
ATOM     30  C   UNL A   1      38.881  21.603  25.853  1.00  0.00     0.002 A 
ATOM     31  C   UNL A   1      39.112  22.927  26.214  1.00  0.00     0.000 A 
ENDBRANCH  23  26
ENDBRANCH  14  18
ENDBRANCH   7  13
ENDBRANCH   3   6
ENDBRANCH   1   2
BRANCH   1  32
ATOM     32  C   UNL A   1      33.490  29.197  27.231  1.00  0.00     0.042 C 
BRANCH  32  33
ATOM     33  C   UNL A   1      34.942  29.464  27.583  1.00  0.00     0.118 C 
BRANCH  33  34
ATOM     34  N   UNL A   1      35.103  30.149  28.860  1.00  0.00    -0.352 N 
ATOM     35  C   UNL A   1      36.167  30.218  29.726  1.00  0.00     0.251 C 
ATOM     36  H   UNL A   1      34.308  30.650  29.154  1.00  0.00     0.163 HD
ATOM     37  O   UNL A   1      36.006  30.704  30.842  1.00  0.00    -0.269 OA
BRANCH  35  38
ATOM     38  C   UNL A   1      37.497  29.689  29.344  1.00  0.00     0.039 A 
ATOM     39  C   UNL A   1      37.936  29.845  28.026  1.00  0.00     0.014 A 
ATOM     40  C   UNL A   1      38.303  29.021  30.265  1.00  0.00     0.014 A 
ATOM     41  C   UNL A   1      39.212  29.409  27.661  1.00  0.00     0.010 A 
ATOM     42  C   UNL A   1      39.613  28.692  29.933  1.00  0.00     0.010 A 
ATOM     43  C   UNL A   1      40.081  28.874  28.624  1.00  0.00    -0.014 A 
BRANCH  43  44
ATOM     44  C   UNL A   1      41.478  28.495  28.289  1.00  0.00     0.031 A 
ATOM     45  C   UNL A   1      41.819  27.069  27.951  1.00  0.00     0.074 A 
ATOM     46  C   UNL A   1      42.454  29.422  28.357  1.00  0.00     0.049 A 
ATOM     47  N   UNL A   1      42.988  26.537  27.694  1.00  0.00    -0.248 NA
ATOM     48  C   UNL A   1      40.706  26.104  27.927  1.00  0.00     0.031 C 
ATOM     49  C   UNL A   1      42.266  30.830  28.716  1.00  0.00     0.029 A 
ATOM     50  N   UNL A   1      43.804  29.319  28.131  1.00  0.00    -0.354 N 
ATOM     51  C   UNL A   1      42.752  25.182  27.498  1.00  0.00     0.074 A 
ATOM     52  C   UNL A   1      41.342  24.960  27.724  1.00  0.00     0.031 C 
ATOM     53  C   UNL A   1      43.447  31.464  28.649  1.00  0.00     0.029 A 
ATOM     54  C   UNL A   1      44.484  30.502  28.295  1.00  0.00     0.049 A 
ATOM     55  H   UNL A   1      44.244  28.476  27.877  1.00  0.00     0.167 HD
ATOM     56  C   UNL A   1      43.626  24.211  27.141  1.00  0.00     0.031 A 
ATOM     57  C   UNL A   1      45.796  30.781  28.182  1.00  0.00     0.031 A 
ATOM     58  C   UNL A   1      45.028  24.432  26.909  1.00  0.00     0.049 A 
ATOM     59  C   UNL A   1      46.749  29.679  27.809  1.00  0.00     0.074 A 
ATOM     60  C   UNL A   1      45.984  23.526  26.487  1.00  0.00     0.029 A 
ATOM     61  N   UNL A   1      45.675  25.646  27.087  1.00  0.00    -0.354 N 
ATOM     62  N   UNL A   1      46.497  28.419  27.554  1.00  0.00    -0.248 NA
ATOM     63  C   UNL A   1      48.169  30.044  27.698  1.00  0.00     0.031 C 
ATOM     64  C   UNL A   1      47.223  24.175  26.472  1.00  0.00     0.029 A 
ATOM     65  C   UNL A   1      47.026  25.503  26.814  1.00  0.00     0.049 A 
ATOM     66  H   UNL A   1      45.240  26.483  27.365  1.00  0.00     0.167 HD
ATOM     67  C   UNL A   1      47.719  27.847  27.222  1.00  0.00     0.074 A 
ATOM     68  C   UNL A   1      48.707  28.904  27.290  1.00  0.00     0.031 C 
ATOM     69  C   UNL A   1      47.998  26.563  26.889  1.00  0.00     0.031 A 
BRANCH  56  70
ATOM     70  C   UNL A   1      43.088  22.813  26.989  1.00  0.00    -0.014 A 
ATOM     71  C   UNL A   1      42.522  22.125  28.075  1.00  0.00     0.009 A 
ATOM     72  C   UNL A   1      43.114  22.188  25.733  1.00  0.00     0.009 A 
ATOM     73  C   UNL A   1      42.033  20.827  27.915  1.00  0.00     0.001 A 
ATOM     74  C   UNL A   1      42.594  20.903  25.567  1.00  0.00     0.001 A 
ATOM     75  C   UNL A   1      42.064  20.219  26.660  1.00  0.00     0.000 A 
ENDBRANCH  56  70
BRANCH  57  76
ATOM     76  C   UNL A   1      46.289  32.164  28.415  1.00  0.00    -0.014 A 
ATOM     77  C   UNL A   1      46.375  33.080  27.354  1.00  0.00     0.009 A 
ATOM     78  C   UNL A   1      46.687  32.577  29.697  1.00  0.00     0.009 A 
ATOM     79  C   UNL A   1      46.879  34.365  27.565  1.00  0.00     0.001 A 
ATOM     80  C   UNL A   1      47.159  33.873  29.912  1.00  0.00     0.001 A 
ATOM     81  C   UNL A   1      47.266  34.763  28.844  1.00  0.00     0.000 A 
ENDBRANCH  57  76
BRANCH  69  82
ATOM     82  C   UNL A   1      49.422  26.238  26.534  1.00  0.00    -0.014 A 
ATOM     83  C   UNL A   1      50.288  25.628  27.454  1.00  0.00     0.009 A 
ATOM     84  C   UNL A   1      49.892  26.511  25.239  1.00  0.00     0.009 A 
ATOM     85  C   UNL A   1      51.606  25.335  27.097  1.00  0.00     0.001 A 
ATOM     86  C   UNL A   1      51.199  26.185  24.874  1.00  0.00     0.001 A 
ATOM     87  C   UNL A   1      52.057  25.608  25.807  1.00  0.00     0.000 A 
ENDBRANCH  69  82
ENDBRANCH  43  44
ENDBRANCH  35  38
ENDBRANCH  33  34
ENDBRANCH  32  33
ENDBRANCH   1  32
TORSDOF 13
ENDMDL
MODEL 2
REMARK VINA RESULT:     -12.6      4.794      7.001
REMARK SMILES CC1=NN(c2ccccc2)C(=O)/C1=C\c1ccc(-c2cc(C(=O)NCCCNC(=O)c3ccc(-c4c5nc(c(-c6ccccc6)c6ccc([nH]6)c(-c6ccccc6)c6nc(c(-c7ccccc7)c7ccc4[nH]7)C=C6)C=C5)cc3)ccc2Cl)o1
REMARK SMILES IDX 25 1 24 2 22 3 23 4 21 6 19 7 20 8 81 9 80 10 82 11 79 12
REMARK SMILES IDX 18 13 15 14 16 15 83 16 17 17 14 18 1 19 2 20 3 21 13 22
REMARK SMILES IDX 4 23 11 24 12 25 5 26 6 27 10 28 7 29 9 30 8 31 26 32 27 33
REMARK SMILES IDX 28 34 29 35 30 37 31 38 32 39 78 40 33 41 77 42 34 43 35 44
REMARK SMILES IDX 36 45 71 46 37 47 76 48 70 49 72 50 38 51 75 52 69 53 68 54
REMARK SMILES IDX 39 56 61 57 46 58 60 59 47 60 50 61 59 62 73 63 48 64 49 65
REMARK SMILES IDX 58 67 74 68 51 69 40 70 41 71 45 72 42 73 44 74 43 75 62 76
REMARK SMILES IDX 63 77 67 78 64 79 66 80 65 81 52 82 53 83 57 84 54 85 56 86
REMARK SMILES IDX 55 87
REMARK H PARENT 24 5 28 36 72 55 50 66
REMARK Flexibility Score: inf
ROOT
ATOM      1  C   UNL A   1      31.788  30.632  26.545  1.00  0.00     0.118 C 
ENDROOT
BRANCH   1   2
ATOM      2  N   UNL A   1      32.720  30.302  25.475  1.00  0.00    -0.352 N 
ATOM      3  C   UNL A   1      32.683  29.369  24.462  1.00  0.00     0.251 C 
ATOM      4  O   UNL A   1      33.657  29.279  23.717  1.00  0.00    -0.269 OA
ATOM      5  H   UNL A   1      33.536  30.854  25.475  1.00  0.00     0.163 HD
BRANCH   3   6
ATOM      6  C   UNL A   1      31.534  28.442  24.276  1.00  0.00     0.040 A 
ATOM      7  C   UNL A   1      30.335  26.428  24.966  1.00  0.00     0.037 A 
ATOM      8  C   UNL A   1      31.453  27.276  25.061  1.00  0.00     0.027 A 
ATOM      9  C   UNL A   1      29.257  26.829  24.153  1.00  0.00     0.052 A 
ATOM     10  C   UNL A   1      29.384  27.922  23.302  1.00  0.00     0.022 A 
ATOM     11  Cl  UNL A   1      27.727  26.017  24.143  1.00  0.00    -0.084 Cl
ATOM     12  C   UNL A   1      30.555  28.667  23.307  1.00  0.00     0.015 A 
BRANCH   7  13
ATOM     13  C   UNL A   1      30.358  25.088  25.543  1.00  0.00     0.136 A 
ATOM     14  C   UNL A   1      30.865  22.933  25.629  1.00  0.00     0.128 A 
ATOM     15  C   UNL A   1      30.128  23.248  26.767  1.00  0.00     0.051 A 
ATOM     16  O   UNL A   1      31.036  24.093  24.897  1.00  0.00    -0.457 OA
ATOM     17  C   UNL A   1      29.755  24.594  26.678  1.00  0.00     0.051 A 
BRANCH  14  18
ATOM     18  C   UNL A   1      31.371  21.649  25.280  1.00  0.00     0.063 C 
ATOM     19  C   UNL A   1      32.741  19.151  23.984  1.00  0.00     0.069 C 
ATOM     20  C   UNL A   1      33.413  20.335  24.595  1.00  0.00     0.071 C 
ATOM     21  N   UNL A   1      34.705  20.539  24.557  1.00  0.00    -0.169 NA
ATOM     22  C   UNL A   1      32.693  21.429  25.271  1.00  0.00     0.068 C 
ATOM     23  N   UNL A   1      34.925  21.695  25.300  1.00  0.00    -0.196 N 
ATOM     24  C   UNL A   1      33.771  22.292  25.816  1.00  0.00     0.280 C 
ATOM     25  O   UNL A   1      33.640  23.270  26.523  1.00  0.00    -0.267 OA
BRANCH  23  26
ATOM     26  C   UNL A   1      36.241  22.125  25.556  1.00  0.00     0.069 A 
ATOM     27  C   UNL A   1      36.510  23.462  25.865  1.00  0.00     0.028 A 
ATOM     28  C   UNL A   1      37.301  21.207  25.530  1.00  0.00     0.028 A 
ATOM     29  C   UNL A   1      37.811  23.861  26.185  1.00  0.00     0.002 A 
ATOM     30  C   UNL A   1      38.607  21.616  25.797  1.00  0.00     0.002 A 
ATOM     31  C   UNL A   1      38.859  22.941  26.141  1.00  0.00     0.000 A 
ENDBRANCH  23  26
ENDBRANCH  14  18
ENDBRANCH   7  13
ENDBRANCH   3   6
ENDBRANCH   1   2
BRANCH   1  32
ATOM     32  C   UNL A   1      31.588  32.123  26.755  1.00  0.00     0.042 C 
BRANCH  32  33
ATOM     33  C   UNL A   1      32.820  32.862  27.244  1.00  0.00     0.118 C 
BRANCH  33  34
ATOM     34  N   UNL A   1      32.531  34.219  27.692  1.00  0.00    -0.352 N 
ATOM     35  C   UNL A   1      33.054  34.966  28.720  1.00  0.00     0.251 C 
ATOM     36  H   UNL A   1      31.840  34.682  27.165  1.00  0.00     0.163 HD
ATOM     37  O   UNL A   1      32.517  36.028  29.026  1.00  0.00    -0.269 OA
BRANCH  35  38
ATOM     38  C   UNL A   1      34.234  34.498  29.481  1.00  0.00     0.039 A 
ATOM     39  C   UNL A   1      34.049  33.967  30.762  1.00  0.00     0.014 A 
ATOM     40  C   UNL A   1      35.522  34.600  28.958  1.00  0.00     0.014 A 
ATOM     41  C   UNL A   1      35.141  33.464  31.471  1.00  0.00     0.010 A 
ATOM     42  C   UNL A   1      36.590  33.996  29.613  1.00  0.00     0.010 A 
ATOM     43  C   UNL A   1      36.415  33.427  30.882  1.00  0.00    -0.014 A 
BRANCH  43  44
ATOM     44  C   UNL A   1      37.575  32.806  31.570  1.00  0.00     0.031 A 
ATOM     45  C   UNL A   1      38.276  31.622  30.962  1.00  0.00     0.074 A 
ATOM     46  C   UNL A   1      37.956  33.266  32.779  1.00  0.00     0.049 A 
ATOM     47  N   UNL A   1      39.264  30.909  31.443  1.00  0.00    -0.248 NA
ATOM     48  C   UNL A   1      37.785  31.155  29.654  1.00  0.00     0.031 C 
ATOM     49  C   UNL A   1      37.334  34.379  33.500  1.00  0.00     0.029 A 
ATOM     50  N   UNL A   1      38.959  32.849  33.619  1.00  0.00    -0.354 N 
ATOM     51  C   UNL A   1      39.496  29.906  30.510  1.00  0.00     0.074 A 
ATOM     52  C   UNL A   1      38.510  30.063  29.465  1.00  0.00     0.031 C 
ATOM     53  C   UNL A   1      37.991  34.580  34.653  1.00  0.00     0.029 A 
ATOM     54  C   UNL A   1      39.046  33.580  34.779  1.00  0.00     0.049 A 
ATOM     55  H   UNL A   1      39.559  32.098  33.410  1.00  0.00     0.167 HD
ATOM     56  C   UNL A   1      40.458  28.952  30.510  1.00  0.00     0.031 A 
ATOM     57  C   UNL A   1      39.875  33.456  35.833  1.00  0.00     0.031 A 
ATOM     58  C   UNL A   1      41.443  28.799  31.546  1.00  0.00     0.049 A 
ATOM     59  C   UNL A   1      40.917  32.371  35.820  1.00  0.00     0.074 A 
ATOM     60  C   UNL A   1      42.494  27.902  31.610  1.00  0.00     0.029 A 
ATOM     61  N   UNL A   1      41.494  29.560  32.705  1.00  0.00    -0.354 N 
ATOM     62  N   UNL A   1      41.170  31.479  34.895  1.00  0.00    -0.248 NA
ATOM     63  C   UNL A   1      41.795  32.286  36.996  1.00  0.00     0.031 C 
ATOM     64  C   UNL A   1      43.142  28.075  32.837  1.00  0.00     0.029 A 
ATOM     65  C   UNL A   1      42.540  29.130  33.505  1.00  0.00     0.049 A 
ATOM     66  H   UNL A   1      40.880  30.296  32.925  1.00  0.00     0.167 HD
ATOM     67  C   UNL A   1      42.256  30.747  35.361  1.00  0.00     0.074 A 
ATOM     68  C   UNL A   1      42.622  31.314  36.642  1.00  0.00     0.031 C 
ATOM     69  C   UNL A   1      42.892  29.701  34.779  1.00  0.00     0.031 A 
BRANCH  56  70
ATOM     70  C   UNL A   1      40.481  27.989  29.354  1.00  0.00    -0.014 A 
ATOM     71  C   UNL A   1      41.295  28.214  28.230  1.00  0.00     0.009 A 
ATOM     72  C   UNL A   1      39.705  26.820  29.402  1.00  0.00     0.009 A 
ATOM     73  C   UNL A   1      41.298  27.311  27.165  1.00  0.00     0.001 A 
ATOM     74  C   UNL A   1      39.736  25.902  28.351  1.00  0.00     0.001 A 
ATOM     75  C   UNL A   1      40.524  26.154  27.228  1.00  0.00     0.000 A 
ENDBRANCH  56  70
BRANCH  57  76
ATOM     76  C   UNL A   1      39.762  34.387  36.987  1.00  0.00    -0.014 A 
ATOM     77  C   UNL A   1      40.364  35.655  36.942  1.00  0.00     0.009 A 
ATOM     78  C   UNL A   1      39.064  34.012  38.146  1.00  0.00     0.009 A 
ATOM     79  C   UNL A   1      40.295  36.513  38.042  1.00  0.00     0.001 A 
ATOM     80  C   UNL A   1      38.969  34.884  39.232  1.00  0.00     0.001 A 
ATOM     81  C   UNL A   1      39.594  36.129  39.184  1.00  0.00     0.000 A 
ENDBRANCH  57  76
BRANCH  69  82
ATOM     82  C   UNL A   1      44.076  29.126  35.505  1.00  0.00    -0.014 A 
ATOM     83  C   UNL A   1      45.372  29.629  35.312  1.00  0.00     0.009 A 
ATOM     84  C   UNL A   1      43.883  28.088  36.431  1.00  0.00     0.009 A 
ATOM     85  C   UNL A   1      46.454  29.077  36.001  1.00  0.00     0.001 A 
ATOM     86  C   UNL A   1      44.960  27.562  37.144  1.00  0.00     0.001 A 
ATOM     87  C   UNL A   1      46.246  28.049  36.920  1.00  0.00     0.000 A 
ENDBRANCH  69  82
ENDBRANCH  43  44
ENDBRANCH  35  38
ENDBRANCH  33  34
ENDBRANCH  32  33
ENDBRANCH   1  32
TORSDOF 13
ENDMDL
MODEL 3
REMARK VINA RESULT:     -12.6      2.766      7.148
REMARK SMILES CC1=NN(c2ccccc2)C(=O)/C1=C\c1ccc(-c2cc(C(=O)NCCCNC(=O)c3ccc(-c4c5nc(c(-c6ccccc6)c6ccc([nH]6)c(-c6ccccc6)c6nc(c(-c7ccccc7)c7ccc4[nH]7)C=C6)C=C5)cc3)ccc2Cl)o1
REMARK SMILES IDX 25 1 24 2 22 3 23 4 21 6 19 7 20 8 81 9 80 10 82 11 79 12
REMARK SMILES IDX 18 13 15 14 16 15 83 16 17 17 14 18 1 19 2 20 3 21 13 22
REMARK SMILES IDX 4 23 11 24 12 25 5 26 6 27 10 28 7 29 9 30 8 31 26 32 27 33
REMARK SMILES IDX 28 34 29 35 30 37 31 38 32 39 78 40 33 41 77 42 34 43 35 44
REMARK SMILES IDX 36 45 71 46 37 47 76 48 70 49 72 50 38 51 75 52 69 53 68 54
REMARK SMILES IDX 39 56 61 57 46 58 60 59 47 60 50 61 59 62 73 63 48 64 49 65
REMARK SMILES IDX 58 67 74 68 51 69 40 70 41 71 45 72 42 73 44 74 43 75 62 76
REMARK SMILES IDX 63 77 67 78 64 79 66 80 65 81 52 82 53 83 57 84 54 85 56 86
REMARK SMILES IDX 55 87
REMARK H PARENT 24 5 28 36 72 55 50 66
REMARK Flexibility Score: inf
ROOT
ATOM      1  C   UNL A   1      33.552  34.316  30.609  1.00  0.00     0.118 C 
ENDROOT
BRANCH   1   2
ATOM      2  N   UNL A   1      33.931  34.826  29.297  1.00  0.00    -0.352 N 
ATOM      3  C   UNL A   1      34.526  34.237  28.204  1.00  0.00     0.251 C 
ATOM      4  O   UNL A   1      34.777  34.940  27.227  1.00  0.00    -0.269 OA
ATOM      5  H   UNL A   1      33.718  35.780  29.167  1.00  0.00     0.163 HD
BRANCH   3   6
ATOM      6  C   UNL A   1      34.917  32.801  28.189  1.00  0.00     0.040 A 
ATOM      7  C   UNL A   1      34.516  30.530  27.381  1.00  0.00     0.037 A 
ATOM      8  C   UNL A   1      34.123  31.877  27.483  1.00  0.00     0.027 A 
ATOM      9  C   UNL A   1      35.769  30.156  27.906  1.00  0.00     0.052 A 
ATOM     10  C   UNL A   1      36.498  31.043  28.692  1.00  0.00     0.022 A 
ATOM     11  Cl  UNL A   1      36.486  28.604  27.627  1.00  0.00    -0.084 Cl
ATOM     12  C   UNL A   1      36.023  32.331  28.900  1.00  0.00     0.015 A 
BRANCH   7  13
ATOM     13  C   UNL A   1      33.586  29.510  26.912  1.00  0.00     0.136 A 
ATOM     14  C   UNL A   1      32.659  28.147  25.431  1.00  0.00     0.128 A 
ATOM     15  C   UNL A   1      32.002  27.974  26.646  1.00  0.00     0.051 A 
ATOM     16  O   UNL A   1      33.667  29.073  25.620  1.00  0.00    -0.457 OA
ATOM     17  C   UNL A   1      32.547  28.880  27.562  1.00  0.00     0.051 A 
BRANCH  14  18
ATOM     18  C   UNL A   1      32.362  27.482  24.209  1.00  0.00     0.063 C 
ATOM     19  C   UNL A   1      32.353  26.136  21.382  1.00  0.00     0.069 C 
ATOM     20  C   UNL A   1      33.065  25.665  22.606  1.00  0.00     0.071 C 
ATOM     21  N   UNL A   1      33.902  24.658  22.619  1.00  0.00    -0.169 NA
ATOM     22  C   UNL A   1      32.940  26.306  23.927  1.00  0.00     0.068 C 
ATOM     23  N   UNL A   1      34.277  24.499  23.949  1.00  0.00    -0.196 N 
ATOM     24  C   UNL A   1      33.715  25.424  24.835  1.00  0.00     0.280 C 
ATOM     25  O   UNL A   1      33.817  25.521  26.041  1.00  0.00    -0.267 OA
BRANCH  23  26
ATOM     26  C   UNL A   1      35.089  23.411  24.324  1.00  0.00     0.069 A 
ATOM     27  C   UNL A   1      34.765  22.626  25.435  1.00  0.00     0.028 A 
ATOM     28  C   UNL A   1      36.224  23.085  23.569  1.00  0.00     0.028 A 
ATOM     29  C   UNL A   1      35.541  21.508  25.755  1.00  0.00     0.002 A 
ATOM     30  C   UNL A   1      37.028  22.001  23.920  1.00  0.00     0.002 A 
ATOM     31  C   UNL A   1      36.677  21.202  25.004  1.00  0.00     0.000 A 
ENDBRANCH  23  26
ENDBRANCH  14  18
ENDBRANCH   7  13
ENDBRANCH   3   6
ENDBRANCH   1   2
BRANCH   1  32
ATOM     32  C   UNL A   1      34.706  34.216  31.592  1.00  0.00     0.042 C 
BRANCH  32  33
ATOM     33  C   UNL A   1      34.785  32.897  32.339  1.00  0.00     0.118 C 
BRANCH  33  34
ATOM     34  N   UNL A   1      35.485  33.005  33.614  1.00  0.00    -0.352 N 
ATOM     35  C   UNL A   1      36.718  32.547  34.014  1.00  0.00     0.251 C 
ATOM     36  H   UNL A   1      34.987  33.491  34.310  1.00  0.00     0.163 HD
ATOM     37  O   UNL A   1      37.020  32.594  35.203  1.00  0.00    -0.269 OA
BRANCH  35  38
ATOM     38  C   UNL A   1      37.673  31.974  33.039  1.00  0.00     0.039 A 
ATOM     39  C   UNL A   1      38.009  32.715  31.902  1.00  0.00     0.014 A 
ATOM     40  C   UNL A   1      38.221  30.705  33.220  1.00  0.00     0.014 A 
ATOM     41  C   UNL A   1      38.954  32.219  31.001  1.00  0.00     0.010 A 
ATOM     42  C   UNL A   1      39.244  30.263  32.389  1.00  0.00     0.010 A 
ATOM     43  C   UNL A   1      39.618  31.010  31.264  1.00  0.00    -0.014 A 
BRANCH  43  44
ATOM     44  C   UNL A   1      40.700  30.506  30.380  1.00  0.00     0.031 A 
ATOM     45  C   UNL A   1      41.903  31.362  30.087  1.00  0.00     0.074 A 
ATOM     46  C   UNL A   1      40.567  29.305  29.783  1.00  0.00     0.049 A 
ATOM     47  N   UNL A   1      42.916  31.120  29.292  1.00  0.00    -0.248 NA
ATOM     48  C   UNL A   1      41.965  32.676  30.749  1.00  0.00     0.031 C 
ATOM     49  C   UNL A   1      39.430  28.396  29.947  1.00  0.00     0.029 A 
ATOM     50  N   UNL A   1      41.395  28.642  28.912  1.00  0.00    -0.354 N 
ATOM     51  C   UNL A   1      43.718  32.252  29.347  1.00  0.00     0.074 A 
ATOM     52  C   UNL A   1      43.049  33.205  30.202  1.00  0.00     0.031 C 
ATOM     53  C   UNL A   1      39.650  27.281  29.232  1.00  0.00     0.029 A 
ATOM     54  C   UNL A   1      40.916  27.416  28.520  1.00  0.00     0.049 A 
ATOM     55  H   UNL A   1      42.253  29.011  28.599  1.00  0.00     0.167 HD
ATOM     56  C   UNL A   1      44.917  32.474  28.755  1.00  0.00     0.031 A 
ATOM     57  C   UNL A   1      41.431  26.504  27.673  1.00  0.00     0.031 A 
ATOM     58  C   UNL A   1      45.587  31.523  27.909  1.00  0.00     0.049 A 
ATOM     59  C   UNL A   1      42.751  26.785  27.009  1.00  0.00     0.074 A 
ATOM     60  C   UNL A   1      46.829  31.629  27.310  1.00  0.00     0.029 A 
ATOM     61  N   UNL A   1      45.065  30.293  27.536  1.00  0.00    -0.354 N 
ATOM     62  N   UNL A   1      43.532  27.830  27.131  1.00  0.00    -0.248 NA
ATOM     63  C   UNL A   1      43.264  25.752  26.098  1.00  0.00     0.031 C 
ATOM     64  C   UNL A   1      47.032  30.492  26.522  1.00  0.00     0.029 A 
ATOM     65  C   UNL A   1      45.948  29.645  26.688  1.00  0.00     0.049 A 
ATOM     66  H   UNL A   1      44.197  29.935  27.831  1.00  0.00     0.167 HD
ATOM     67  C   UNL A   1      44.643  27.567  26.339  1.00  0.00     0.074 A 
ATOM     68  C   UNL A   1      44.440  26.256  25.757  1.00  0.00     0.031 C 
ATOM     69  C   UNL A   1      45.732  28.341  26.114  1.00  0.00     0.031 A 
BRANCH  56  70
ATOM     70  C   UNL A   1      45.576  33.805  28.997  1.00  0.00    -0.014 A 
ATOM     71  C   UNL A   1      46.493  33.987  30.045  1.00  0.00     0.009 A 
ATOM     72  C   UNL A   1      45.303  34.885  28.143  1.00  0.00     0.009 A 
ATOM     73  C   UNL A   1      47.090  35.232  30.256  1.00  0.00     0.001 A 
ATOM     74  C   UNL A   1      45.927  36.118  28.335  1.00  0.00     0.001 A 
ATOM     75  C   UNL A   1      46.811  36.295  29.398  1.00  0.00     0.000 A 
ENDBRANCH  56  70
BRANCH  57  76
ATOM     76  C   UNL A   1      40.703  25.234  27.409  1.00  0.00    -0.014 A 
ATOM     77  C   UNL A   1      41.131  24.032  27.995  1.00  0.00     0.009 A 
ATOM     78  C   UNL A   1      39.584  25.212  26.562  1.00  0.00     0.009 A 
ATOM     79  C   UNL A   1      40.474  22.832  27.714  1.00  0.00     0.001 A 
ATOM     80  C   UNL A   1      38.909  24.016  26.308  1.00  0.00     0.001 A 
ATOM     81  C   UNL A   1      39.361  22.825  26.874  1.00  0.00     0.000 A 
ENDBRANCH  57  76
BRANCH  69  82
ATOM     82  C   UNL A   1      46.809  27.774  25.232  1.00  0.00    -0.014 A 
ATOM     83  C   UNL A   1      47.820  26.946  25.745  1.00  0.00     0.009 A 
ATOM     84  C   UNL A   1      46.788  28.043  23.854  1.00  0.00     0.009 A 
ATOM     85  C   UNL A   1      48.807  26.431  24.903  1.00  0.00     0.001 A 
ATOM     86  C   UNL A   1      47.755  27.498  23.009  1.00  0.00     0.001 A 
ATOM     87  C   UNL A   1      48.770  26.703  23.536  1.00  0.00     0.000 A 
ENDBRANCH  69  82
ENDBRANCH  43  44
ENDBRANCH  35  38
ENDBRANCH  33  34
ENDBRANCH  32  33
ENDBRANCH   1  32
TORSDOF 13
ENDMDL
