MODEL 1
REMARK VINA RESULT:     -10.3      0.000      0.000
REMARK SMILES COC(CNS(=O)(=O)c1ccc(Cl)c(C(=O)NCCCNC(=O)c2ccc(-c3c4nc(c(-c5ccccc5)c5ccc([nH]5)c(-c5ccccc5)c5nc(c(-c6ccccc6)c6ccc3[nH]6)C=C5)C=C4)cc2)c1Cl)OC
REMARK SMILES IDX 15 1 16 2 17 3 14 5 9 6 10 7 72 8 11 9 73 10 12 11 13 12
REMARK SMILES IDX 6 13 7 14 8 15 5 16 4 18 3 19 2 20 1 21 74 22 75 23 18 24
REMARK SMILES IDX 19 25 20 26 21 27 22 28 23 30 24 31 25 32 71 33 26 34 70 35
REMARK SMILES IDX 27 36 28 37 29 38 64 39 30 40 69 41 63 42 65 43 31 44 68 45
REMARK SMILES IDX 62 46 61 47 32 49 54 50 39 51 53 52 40 53 43 54 52 55 66 56
REMARK SMILES IDX 41 57 42 58 51 60 67 61 44 62 33 63 34 64 38 65 35 66 37 67
REMARK SMILES IDX 36 68 55 69 56 70 60 71 57 72 59 73 58 74 45 75 46 76 50 77
REMARK SMILES IDX 47 78 49 79 48 80
REMARK H PARENT 17 4 5 17 21 29 65 48 43 59
REMARK Flexibility Score: inf
ROOT
ATOM      1  C   UNL A   1      30.743  28.747  23.001  1.00  0.00     0.254 C 
ATOM      2  O   UNL A   1      30.475  29.153  21.870  1.00  0.00    -0.269 OA
ATOM      3  N   UNL A   1      30.807  29.717  23.972  1.00  0.00    -0.352 N 
ATOM      4  H   UNL A   1      30.208  30.481  23.805  1.00  0.00     0.163 HD
ENDROOT
BRANCH   1   5
ATOM      5  C   UNL A   1      30.862  27.270  23.228  1.00  0.00     0.078 A 
ATOM      6  C   UNL A   1      32.362  25.360  23.633  1.00  0.00     0.101 A 
ATOM      7  C   UNL A   1      31.264  24.512  23.778  1.00  0.00     0.025 A 
ATOM      8  C   UNL A   1      32.179  26.716  23.297  1.00  0.00     0.075 A 
ATOM      9  C   UNL A   1      29.987  25.035  23.703  1.00  0.00     0.023 A 
ATOM     10  Cl  UNL A   1      33.576  27.681  22.897  1.00  0.00    -0.082 Cl
ATOM     11  C   UNL A   1      29.787  26.409  23.518  1.00  0.00     0.055 A 
ATOM     12  Cl  UNL A   1      28.179  26.884  23.900  1.00  0.00    -0.083 Cl
BRANCH   6  13
ATOM     13  S   UNL A   1      33.949  24.653  24.008  1.00  0.00     0.242 S 
ATOM     14  O   UNL A   1      34.554  25.438  25.066  1.00  0.00    -0.207 OA
ATOM     15  O   UNL A   1      34.656  24.417  22.774  1.00  0.00    -0.207 OA
BRANCH  13  16
ATOM     16  N   UNL A   1      33.571  23.173  24.669  1.00  0.00    -0.206 NA
ATOM     17  H   UNL A   1      33.996  23.144  25.596  1.00  0.00     0.141 HD
BRANCH  16  18
ATOM     18  C   UNL A   1      33.983  21.948  23.969  1.00  0.00     0.161 C 
BRANCH  18  19
ATOM     19  C   UNL A   1      34.642  20.870  24.868  1.00  0.00     0.263 C 
BRANCH  19  20
ATOM     20  O   UNL A   1      36.065  20.861  24.961  1.00  0.00    -0.355 OA
ATOM     21  C   UNL A   1      36.788  21.910  24.352  1.00  0.00     0.198 C 
ENDBRANCH  19  20
BRANCH  19  22
ATOM     22  O   UNL A   1      34.027  19.581  24.842  1.00  0.00    -0.355 OA
ATOM     23  C   UNL A   1      32.631  19.522  24.643  1.00  0.00     0.198 C 
ENDBRANCH  19  22
ENDBRANCH  18  19
ENDBRANCH  16  18
ENDBRANCH  13  16
ENDBRANCH   6  13
ENDBRANCH   1   5
BRANCH   3  24
ATOM     24  C   UNL A   1      31.581  29.842  25.194  1.00  0.00     0.118 C 
BRANCH  24  25
ATOM     25  C   UNL A   1      31.254  31.177  25.878  1.00  0.00     0.042 C 
BRANCH  25  26
ATOM     26  C   UNL A   1      32.254  31.615  26.938  1.00  0.00     0.118 C 
BRANCH  26  27
ATOM     27  N   UNL A   1      32.171  33.042  27.198  1.00  0.00    -0.352 N 
ATOM     28  C   UNL A   1      32.942  33.832  28.014  1.00  0.00     0.251 C 
ATOM     29  H   UNL A   1      31.453  33.513  26.717  1.00  0.00     0.163 HD
ATOM     30  O   UNL A   1      32.540  34.952  28.319  1.00  0.00    -0.269 OA
BRANCH  28  31
ATOM     31  C   UNL A   1      34.247  33.356  28.529  1.00  0.00     0.039 A 
ATOM     32  C   UNL A   1      34.268  32.564  29.682  1.00  0.00     0.014 A 
ATOM     33  C   UNL A   1      35.451  33.731  27.928  1.00  0.00     0.014 A 
ATOM     34  C   UNL A   1      35.486  32.117  30.202  1.00  0.00     0.010 A 
ATOM     35  C   UNL A   1      36.657  33.211  28.390  1.00  0.00     0.010 A 
ATOM     36  C   UNL A   1      36.690  32.413  29.543  1.00  0.00    -0.014 A 
BRANCH  36  37
ATOM     37  C   UNL A   1      37.993  31.916  30.055  1.00  0.00     0.031 A 
ATOM     38  C   UNL A   1      38.570  30.627  29.532  1.00  0.00     0.074 A 
ATOM     39  C   UNL A   1      38.629  32.594  31.029  1.00  0.00     0.049 A 
ATOM     40  N   UNL A   1      39.665  30.005  29.893  1.00  0.00    -0.248 NA
ATOM     41  C   UNL A   1      37.804  29.930  28.486  1.00  0.00     0.031 C 
ATOM     42  C   UNL A   1      38.155  33.837  31.644  1.00  0.00     0.029 A 
ATOM     43  N   UNL A   1      39.811  32.333  31.677  1.00  0.00    -0.354 N 
ATOM     44  C   UNL A   1      39.706  28.842  29.134  1.00  0.00     0.074 A 
ATOM     45  C   UNL A   1      38.502  28.816  28.333  1.00  0.00     0.031 C 
ATOM     46  C   UNL A   1      39.052  34.245  32.556  1.00  0.00     0.029 A 
ATOM     47  C   UNL A   1      40.137  33.272  32.625  1.00  0.00     0.049 A 
ATOM     48  H   UNL A   1      40.369  31.547  31.481  1.00  0.00     0.167 HD
ATOM     49  C   UNL A   1      40.669  27.890  29.090  1.00  0.00     0.031 A 
ATOM     50  C   UNL A   1      41.190  33.339  33.461  1.00  0.00     0.031 A 
ATOM     51  C   UNL A   1      41.870  27.923  29.883  1.00  0.00     0.049 A 
ATOM     52  C   UNL A   1      42.234  32.258  33.410  1.00  0.00     0.074 A 
ATOM     53  C   UNL A   1      42.933  27.036  29.875  1.00  0.00     0.029 A 
ATOM     54  N   UNL A   1      42.162  28.892  30.830  1.00  0.00    -0.354 N 
ATOM     55  N   UNL A   1      42.293  31.201  32.636  1.00  0.00    -0.248 NA
ATOM     56  C   UNL A   1      43.364  32.387  34.341  1.00  0.00     0.031 C 
ATOM     57  C   UNL A   1      43.839  27.436  30.860  1.00  0.00     0.029 A 
ATOM     58  C   UNL A   1      43.376  28.609  31.433  1.00  0.00     0.049 A 
ATOM     59  H   UNL A   1      41.592  29.665  31.043  1.00  0.00     0.167 HD
ATOM     60  C   UNL A   1      43.479  30.557  32.965  1.00  0.00     0.074 A 
ATOM     61  C   UNL A   1      44.115  31.352  33.994  1.00  0.00     0.031 C 
ATOM     62  C   UNL A   1      43.995  29.411  32.458  1.00  0.00     0.031 A 
BRANCH  49  63
ATOM     63  C   UNL A   1      40.456  26.727  28.158  1.00  0.00    -0.014 A 
ATOM     64  C   UNL A   1      39.709  25.604  28.549  1.00  0.00     0.009 A 
ATOM     65  C   UNL A   1      40.981  26.771  26.857  1.00  0.00     0.009 A 
ATOM     66  C   UNL A   1      39.529  24.532  27.672  1.00  0.00     0.001 A 
ATOM     67  C   UNL A   1      40.770  25.712  25.971  1.00  0.00     0.001 A 
ATOM     68  C   UNL A   1      40.055  24.589  26.382  1.00  0.00     0.000 A 
ENDBRANCH  49  63
BRANCH  50  69
ATOM     69  C   UNL A   1      41.317  34.476  34.411  1.00  0.00    -0.014 A 
ATOM     70  C   UNL A   1      40.747  34.404  35.691  1.00  0.00     0.009 A 
ATOM     71  C   UNL A   1      42.004  35.644  34.041  1.00  0.00     0.009 A 
ATOM     72  C   UNL A   1      40.836  35.488  36.569  1.00  0.00     0.001 A 
ATOM     73  C   UNL A   1      42.118  36.713  34.932  1.00  0.00     0.001 A 
ATOM     74  C   UNL A   1      41.525  36.638  36.192  1.00  0.00     0.000 A 
ENDBRANCH  50  69
BRANCH  62  75
ATOM     75  C   UNL A   1      45.334  28.970  32.981  1.00  0.00    -0.014 A 
ATOM     76  C   UNL A   1      46.531  29.412  32.396  1.00  0.00     0.009 A 
ATOM     77  C   UNL A   1      45.395  28.129  34.104  1.00  0.00     0.009 A 
ATOM     78  C   UNL A   1      47.761  28.990  32.906  1.00  0.00     0.001 A 
ATOM     79  C   UNL A   1      46.626  27.738  34.631  1.00  0.00     0.001 A 
ATOM     80  C   UNL A   1      47.807  28.160  34.025  1.00  0.00     0.000 A 
ENDBRANCH  62  75
ENDBRANCH  36  37
ENDBRANCH  28  31
ENDBRANCH  26  27
ENDBRANCH  25  26
ENDBRANCH  24  25
ENDBRANCH   3  24
TORSDOF 16
ENDMDL
MODEL 2
REMARK VINA RESULT:     -10.3      3.063      8.720
REMARK SMILES COC(CNS(=O)(=O)c1ccc(Cl)c(C(=O)NCCCNC(=O)c2ccc(-c3c4nc(c(-c5ccccc5)c5ccc([nH]5)c(-c5ccccc5)c5nc(c(-c6ccccc6)c6ccc3[nH]6)C=C5)C=C4)cc2)c1Cl)OC
REMARK SMILES IDX 15 1 16 2 17 3 14 5 9 6 10 7 72 8 11 9 73 10 12 11 13 12
REMARK SMILES IDX 6 13 7 14 8 15 5 16 4 18 3 19 2 20 1 21 74 22 75 23 18 24
REMARK SMILES IDX 19 25 20 26 21 27 22 28 23 30 24 31 25 32 71 33 26 34 70 35
REMARK SMILES IDX 27 36 28 37 29 38 64 39 30 40 69 41 63 42 65 43 31 44 68 45
REMARK SMILES IDX 62 46 61 47 32 49 54 50 39 51 53 52 40 53 43 54 52 55 66 56
REMARK SMILES IDX 41 57 42 58 51 60 67 61 44 62 33 63 34 64 38 65 35 66 37 67
REMARK SMILES IDX 36 68 55 69 56 70 60 71 57 72 59 73 58 74 45 75 46 76 50 77
REMARK SMILES IDX 47 78 49 79 48 80
REMARK H PARENT 17 4 5 17 21 29 65 48 43 59
REMARK Flexibility Score: inf
ROOT
ATOM      1  C   UNL A   1      34.776  21.535  25.959  1.00  0.00     0.254 C 
ATOM      2  O   UNL A   1      34.543  21.646  27.163  1.00  0.00    -0.269 OA
ATOM      3  N   UNL A   1      35.907  20.821  25.645  1.00  0.00    -0.352 N 
ATOM      4  H   UNL A   1      36.123  20.118  26.299  1.00  0.00     0.163 HD
ENDROOT
BRANCH   1   5
ATOM      5  C   UNL A   1      33.780  22.076  24.978  1.00  0.00     0.078 A 
ATOM      6  C   UNL A   1      33.012  24.021  23.678  1.00  0.00     0.101 A 
ATOM      7  C   UNL A   1      32.047  23.235  23.049  1.00  0.00     0.025 A 
ATOM      8  C   UNL A   1      33.836  23.474  24.682  1.00  0.00     0.075 A 
ATOM      9  C   UNL A   1      31.976  21.885  23.335  1.00  0.00     0.023 A 
ATOM     10  Cl  UNL A   1      34.864  24.541  25.602  1.00  0.00    -0.082 Cl
ATOM     11  C   UNL A   1      32.886  21.294  24.223  1.00  0.00     0.055 A 
ATOM     12  Cl  UNL A   1      32.902  19.580  24.083  1.00  0.00    -0.083 Cl
BRANCH   6  13
ATOM     13  S   UNL A   1      33.201  25.673  23.054  1.00  0.00     0.242 S 
ATOM     14  O   UNL A   1      34.026  25.615  21.864  1.00  0.00    -0.207 OA
ATOM     15  O   UNL A   1      33.553  26.545  24.147  1.00  0.00    -0.207 OA
BRANCH  13  16
ATOM     16  N   UNL A   1      31.667  26.080  22.552  1.00  0.00    -0.206 NA
ATOM     17  H   UNL A   1      31.769  26.610  21.686  1.00  0.00     0.141 HD
BRANCH  16  18
ATOM     18  C   UNL A   1      30.806  26.871  23.442  1.00  0.00     0.161 C 
BRANCH  18  19
ATOM     19  C   UNL A   1      30.721  28.381  23.100  1.00  0.00     0.263 C 
BRANCH  19  20
ATOM     20  O   UNL A   1      30.684  29.308  24.182  1.00  0.00    -0.355 OA
ATOM     21  C   UNL A   1      31.826  29.431  25.004  1.00  0.00     0.198 C 
ENDBRANCH  19  20
BRANCH  19  22
ATOM     22  O   UNL A   1      29.894  28.717  21.984  1.00  0.00    -0.355 OA
ATOM     23  C   UNL A   1      28.710  29.442  22.237  1.00  0.00     0.198 C 
ENDBRANCH  19  22
ENDBRANCH  18  19
ENDBRANCH  16  18
ENDBRANCH  13  16
ENDBRANCH   6  13
ENDBRANCH   1   5
BRANCH   3  24
ATOM     24  C   UNL A   1      36.848  20.896  24.542  1.00  0.00     0.118 C 
BRANCH  24  25
ATOM     25  C   UNL A   1      37.933  19.824  24.715  1.00  0.00     0.042 C 
BRANCH  25  26
ATOM     26  C   UNL A   1      38.802  19.986  25.953  1.00  0.00     0.118 C 
BRANCH  26  27
ATOM     27  N   UNL A   1      40.043  19.239  25.841  1.00  0.00    -0.352 N 
ATOM     28  C   UNL A   1      41.342  19.672  25.941  1.00  0.00     0.251 C 
ATOM     29  H   UNL A   1      39.936  18.276  25.664  1.00  0.00     0.163 HD
ATOM     30  O   UNL A   1      42.249  18.951  25.534  1.00  0.00    -0.269 OA
BRANCH  28  31
ATOM     31  C   UNL A   1      41.664  20.993  26.530  1.00  0.00     0.039 A 
ATOM     32  C   UNL A   1      42.076  22.027  25.683  1.00  0.00     0.014 A 
ATOM     33  C   UNL A   1      41.624  21.206  27.910  1.00  0.00     0.014 A 
ATOM     34  C   UNL A   1      42.405  23.277  26.214  1.00  0.00     0.010 A 
ATOM     35  C   UNL A   1      41.862  22.476  28.431  1.00  0.00     0.010 A 
ATOM     36  C   UNL A   1      42.273  23.521  27.591  1.00  0.00    -0.014 A 
BRANCH  36  37
ATOM     37  C   UNL A   1      42.579  24.853  28.173  1.00  0.00     0.031 A 
ATOM     38  C   UNL A   1      43.974  25.171  28.643  1.00  0.00     0.074 A 
ATOM     39  C   UNL A   1      41.591  25.754  28.329  1.00  0.00     0.049 A 
ATOM     40  N   UNL A   1      44.422  26.256  29.224  1.00  0.00    -0.248 NA
ATOM     41  C   UNL A   1      44.994  24.125  28.460  1.00  0.00     0.031 C 
ATOM     42  C   UNL A   1      40.191  25.552  27.947  1.00  0.00     0.029 A 
ATOM     43  N   UNL A   1      41.612  27.022  28.855  1.00  0.00    -0.354 N 
ATOM     44  C   UNL A   1      45.765  26.014  29.491  1.00  0.00     0.074 A 
ATOM     45  C   UNL A   1      46.045  24.663  29.060  1.00  0.00     0.031 C 
ATOM     46  C   UNL A   1      39.496  26.667  28.223  1.00  0.00     0.029 A 
ATOM     47  C   UNL A   1      40.387  27.643  28.842  1.00  0.00     0.049 A 
ATOM     48  H   UNL A   1      42.427  27.445  29.208  1.00  0.00     0.167 HD
ATOM     49  C   UNL A   1      46.687  26.848  30.028  1.00  0.00     0.031 A 
ATOM     50  C   UNL A   1      40.019  28.860  29.285  1.00  0.00     0.031 A 
ATOM     51  C   UNL A   1      46.407  28.195  30.451  1.00  0.00     0.049 A 
ATOM     52  C   UNL A   1      41.057  29.758  29.899  1.00  0.00     0.074 A 
ATOM     53  C   UNL A   1      47.282  29.139  30.957  1.00  0.00     0.029 A 
ATOM     54  N   UNL A   1      45.153  28.784  30.419  1.00  0.00    -0.354 N 
ATOM     55  N   UNL A   1      42.337  29.540  30.080  1.00  0.00    -0.248 NA
ATOM     56  C   UNL A   1      40.599  31.077  30.359  1.00  0.00     0.031 C 
ATOM     57  C   UNL A   1      46.546  30.280  31.290  1.00  0.00     0.029 A 
ATOM     58  C   UNL A   1      45.225  30.072  30.925  1.00  0.00     0.049 A 
ATOM     59  H   UNL A   1      44.333  28.353  30.088  1.00  0.00     0.167 HD
ATOM     60  C   UNL A   1      42.844  30.703  30.645  1.00  0.00     0.074 A 
ATOM     61  C   UNL A   1      41.736  31.629  30.760  1.00  0.00     0.031 C 
ATOM     62  C   UNL A   1      44.112  30.980  31.033  1.00  0.00     0.031 A 
BRANCH  49  63
ATOM     63  C   UNL A   1      48.087  26.319  30.198  1.00  0.00    -0.014 A 
ATOM     64  C   UNL A   1      49.001  26.313  29.131  1.00  0.00     0.009 A 
ATOM     65  C   UNL A   1      48.509  25.852  31.452  1.00  0.00     0.009 A 
ATOM     66  C   UNL A   1      50.292  25.811  29.306  1.00  0.00     0.001 A 
ATOM     67  C   UNL A   1      49.812  25.382  31.633  1.00  0.00     0.001 A 
ATOM     68  C   UNL A   1      50.698  25.351  30.558  1.00  0.00     0.000 A 
ENDBRANCH  49  63
BRANCH  50  69
ATOM     69  C   UNL A   1      38.607  29.306  29.155  1.00  0.00    -0.014 A 
ATOM     70  C   UNL A   1      38.137  29.848  27.949  1.00  0.00     0.009 A 
ATOM     71  C   UNL A   1      37.720  29.200  30.239  1.00  0.00     0.009 A 
ATOM     72  C   UNL A   1      36.820  30.301  27.840  1.00  0.00     0.001 A 
ATOM     73  C   UNL A   1      36.395  29.623  30.117  1.00  0.00     0.001 A 
ATOM     74  C   UNL A   1      35.949  30.184  28.921  1.00  0.00     0.000 A 
ENDBRANCH  50  69
BRANCH  62  75
ATOM     75  C   UNL A   1      44.379  32.355  31.579  1.00  0.00    -0.014 A 
ATOM     76  C   UNL A   1      44.303  32.625  32.955  1.00  0.00     0.009 A 
ATOM     77  C   UNL A   1      44.755  33.387  30.703  1.00  0.00     0.009 A 
ATOM     78  C   UNL A   1      44.561  33.910  33.436  1.00  0.00     0.001 A 
ATOM     79  C   UNL A   1      45.045  34.661  31.191  1.00  0.00     0.001 A 
ATOM     80  C   UNL A   1      44.938  34.924  32.555  1.00  0.00     0.000 A 
ENDBRANCH  62  75
ENDBRANCH  36  37
ENDBRANCH  28  31
ENDBRANCH  26  27
ENDBRANCH  25  26
ENDBRANCH  24  25
ENDBRANCH   3  24
TORSDOF 16
ENDMDL
MODEL 3
REMARK VINA RESULT:     -10.2      2.600      6.934
REMARK SMILES COC(CNS(=O)(=O)c1ccc(Cl)c(C(=O)NCCCNC(=O)c2ccc(-c3c4nc(c(-c5ccccc5)c5ccc([nH]5)c(-c5ccccc5)c5nc(c(-c6ccccc6)c6ccc3[nH]6)C=C5)C=C4)cc2)c1Cl)OC
REMARK SMILES IDX 15 1 16 2 17 3 14 5 9 6 10 7 72 8 11 9 73 10 12 11 13 12
REMARK SMILES IDX 6 13 7 14 8 15 5 16 4 18 3 19 2 20 1 21 74 22 75 23 18 24
REMARK SMILES IDX 19 25 20 26 21 27 22 28 23 30 24 31 25 32 71 33 26 34 70 35
REMARK SMILES IDX 27 36 28 37 29 38 64 39 30 40 69 41 63 42 65 43 31 44 68 45
REMARK SMILES IDX 62 46 61 47 32 49 54 50 39 51 53 52 40 53 43 54 52 55 66 56
REMARK SMILES IDX 41 57 42 58 51 60 67 61 44 62 33 63 34 64 38 65 35 66 37 67
REMARK SMILES IDX 36 68 55 69 56 70 60 71 57 72 59 73 58 74 45 75 46 76 50 77
REMARK SMILES IDX 47 78 49 79 48 80
REMARK H PARENT 17 4 5 17 21 29 65 48 43 59
REMARK Flexibility Score: inf
ROOT
ATOM      1  C   UNL A   1      31.231  27.416  23.891  1.00  0.00     0.254 C 
ATOM      2  O   UNL A   1      30.134  27.678  23.396  1.00  0.00    -0.269 OA
ATOM      3  N   UNL A   1      31.863  28.472  24.504  1.00  0.00    -0.352 N 
ATOM      4  H   UNL A   1      31.242  29.129  24.893  1.00  0.00     0.163 HD
ENDROOT
BRANCH   1   5
ATOM      5  C   UNL A   1      31.709  25.996  23.877  1.00  0.00     0.078 A 
ATOM      6  C   UNL A   1      31.830  23.849  25.075  1.00  0.00     0.101 A 
ATOM      7  C   UNL A   1      32.445  23.254  23.974  1.00  0.00     0.025 A 
ATOM      8  C   UNL A   1      31.518  25.223  25.065  1.00  0.00     0.075 A 
ATOM      9  C   UNL A   1      32.645  23.995  22.825  1.00  0.00     0.023 A 
ATOM     10  Cl  UNL A   1      30.966  25.972  26.540  1.00  0.00    -0.082 Cl
ATOM     11  C   UNL A   1      32.205  25.323  22.745  1.00  0.00     0.055 A 
ATOM     12  Cl  UNL A   1      32.150  25.887  21.121  1.00  0.00    -0.083 Cl
BRANCH   6  13
ATOM     13  S   UNL A   1      31.376  22.755  26.400  1.00  0.00     0.242 S 
ATOM     14  O   UNL A   1      30.057  22.225  26.116  1.00  0.00    -0.207 OA
ATOM     15  O   UNL A   1      31.649  23.409  27.656  1.00  0.00    -0.207 OA
BRANCH  13  16
ATOM     16  N   UNL A   1      32.444  21.488  26.244  1.00  0.00    -0.206 NA
ATOM     17  H   UNL A   1      31.945  20.643  26.526  1.00  0.00     0.141 HD
BRANCH  16  18
ATOM     18  C   UNL A   1      33.704  21.513  26.999  1.00  0.00     0.161 C 
BRANCH  18  19
ATOM     19  C   UNL A   1      34.930  22.038  26.208  1.00  0.00     0.263 C 
BRANCH  19  20
ATOM     20  O   UNL A   1      35.949  21.102  25.862  1.00  0.00    -0.355 OA
ATOM     21  C   UNL A   1      35.660  20.119  24.891  1.00  0.00     0.198 C 
ENDBRANCH  19  20
BRANCH  19  22
ATOM     22  O   UNL A   1      35.398  23.335  26.580  1.00  0.00    -0.355 OA
ATOM     23  C   UNL A   1      35.480  24.320  25.572  1.00  0.00     0.198 C 
ENDBRANCH  19  22
ENDBRANCH  18  19
ENDBRANCH  16  18
ENDBRANCH  13  16
ENDBRANCH   6  13
ENDBRANCH   1   5
BRANCH   3  24
ATOM     24  C   UNL A   1      33.262  28.810  24.691  1.00  0.00     0.118 C 
BRANCH  24  25
ATOM     25  C   UNL A   1      33.852  27.958  25.823  1.00  0.00     0.042 C 
BRANCH  25  26
ATOM     26  C   UNL A   1      33.458  28.396  27.227  1.00  0.00     0.118 C 
BRANCH  26  27
ATOM     27  N   UNL A   1      33.468  29.842  27.361  1.00  0.00    -0.352 N 
ATOM     28  C   UNL A   1      34.394  30.663  27.956  1.00  0.00     0.251 C 
ATOM     29  H   UNL A   1      32.693  30.303  26.966  1.00  0.00     0.163 HD
ATOM     30  O   UNL A   1      34.087  31.824  28.218  1.00  0.00    -0.269 OA
BRANCH  28  31
ATOM     31  C   UNL A   1      35.752  30.172  28.286  1.00  0.00     0.039 A 
ATOM     32  C   UNL A   1      36.734  30.186  27.289  1.00  0.00     0.014 A 
ATOM     33  C   UNL A   1      36.051  29.641  29.543  1.00  0.00     0.014 A 
ATOM     34  C   UNL A   1      38.019  29.710  27.567  1.00  0.00     0.010 A 
ATOM     35  C   UNL A   1      37.354  29.253  29.847  1.00  0.00     0.010 A 
ATOM     36  C   UNL A   1      38.347  29.265  28.858  1.00  0.00    -0.014 A 
BRANCH  36  37
ATOM     37  C   UNL A   1      39.717  28.792  29.186  1.00  0.00     0.031 A 
ATOM     38  C   UNL A   1      40.675  29.695  29.916  1.00  0.00     0.074 A 
ATOM     39  C   UNL A   1      40.116  27.572  28.778  1.00  0.00     0.049 A 
ATOM     40  N   UNL A   1      41.925  29.480  30.244  1.00  0.00    -0.248 NA
ATOM     41  C   UNL A   1      40.173  31.022  30.308  1.00  0.00     0.031 C 
ATOM     42  C   UNL A   1      39.293  26.617  28.031  1.00  0.00     0.029 A 
ATOM     43  N   UNL A   1      41.317  26.926  28.931  1.00  0.00    -0.354 N 
ATOM     44  C   UNL A   1      42.360  30.649  30.859  1.00  0.00     0.074 A 
ATOM     45  C   UNL A   1      41.260  31.587  30.812  1.00  0.00     0.031 C 
ATOM     46  C   UNL A   1      40.002  25.498  27.818  1.00  0.00     0.029 A 
ATOM     47  C   UNL A   1      41.342  25.672  28.371  1.00  0.00     0.049 A 
ATOM     48  H   UNL A   1      42.087  27.325  29.396  1.00  0.00     0.167 HD
ATOM     49  C   UNL A   1      43.559  30.911  31.432  1.00  0.00     0.031 A 
ATOM     50  C   UNL A   1      42.335  24.765  28.302  1.00  0.00     0.031 A 
ATOM     51  C   UNL A   1      44.649  29.973  31.484  1.00  0.00     0.049 A 
ATOM     52  C   UNL A   1      43.664  25.089  28.925  1.00  0.00     0.074 A 
ATOM     53  C   UNL A   1      45.886  30.121  32.088  1.00  0.00     0.029 A 
ATOM     54  N   UNL A   1      44.632  28.714  30.906  1.00  0.00    -0.354 N 
ATOM     55  N   UNL A   1      44.036  26.172  29.565  1.00  0.00    -0.248 NA
ATOM     56  C   UNL A   1      44.708  24.059  28.826  1.00  0.00     0.031 C 
ATOM     57  C   UNL A   1      46.639  28.975  31.821  1.00  0.00     0.029 A 
ATOM     58  C   UNL A   1      45.849  28.085  31.112  1.00  0.00     0.049 A 
ATOM     59  H   UNL A   1      43.871  28.325  30.419  1.00  0.00     0.167 HD
ATOM     60  C   UNL A   1      45.344  25.942  29.971  1.00  0.00     0.074 A 
ATOM     61  C   UNL A   1      45.694  24.610  29.521  1.00  0.00     0.031 C 
ATOM     62  C   UNL A   1      46.180  26.759  30.657  1.00  0.00     0.031 A 
BRANCH  49  63
ATOM     63  C   UNL A   1      43.755  32.275  32.040  1.00  0.00    -0.014 A 
ATOM     64  C   UNL A   1      43.428  32.532  33.381  1.00  0.00     0.009 A 
ATOM     65  C   UNL A   1      44.309  33.309  31.269  1.00  0.00     0.009 A 
ATOM     66  C   UNL A   1      43.610  33.806  33.924  1.00  0.00     0.001 A 
ATOM     67  C   UNL A   1      44.521  34.573  31.824  1.00  0.00     0.001 A 
ATOM     68  C   UNL A   1      44.162  34.823  33.147  1.00  0.00     0.000 A 
ENDBRANCH  49  63
BRANCH  50  69
ATOM     69  C   UNL A   1      42.108  23.459  27.629  1.00  0.00    -0.014 A 
ATOM     70  C   UNL A   1      42.498  23.266  26.295  1.00  0.00     0.009 A 
ATOM     71  C   UNL A   1      41.493  22.398  28.315  1.00  0.00     0.009 A 
ATOM     72  C   UNL A   1      42.250  22.050  25.653  1.00  0.00     0.001 A 
ATOM     73  C   UNL A   1      41.276  21.174  27.680  1.00  0.00     0.001 A 
ATOM     74  C   UNL A   1      41.644  21.004  26.346  1.00  0.00     0.000 A 
ENDBRANCH  50  69
BRANCH  62  75
ATOM     75  C   UNL A   1      47.542  26.220  30.998  1.00  0.00    -0.014 A 
ATOM     76  C   UNL A   1      48.594  26.243  30.069  1.00  0.00     0.009 A 
ATOM     77  C   UNL A   1      47.783  25.718  32.288  1.00  0.00     0.009 A 
ATOM     78  C   UNL A   1      49.850  25.740  30.415  1.00  0.00     0.001 A 
ATOM     79  C   UNL A   1      49.048  25.247  32.639  1.00  0.00     0.001 A 
ATOM     80  C   UNL A   1      50.077  25.249  31.700  1.00  0.00     0.000 A 
ENDBRANCH  62  75
ENDBRANCH  36  37
ENDBRANCH  28  31
ENDBRANCH  26  27
ENDBRANCH  25  26
ENDBRANCH  24  25
ENDBRANCH   3  24
TORSDOF 16
ENDMDL
