MODEL 1
REMARK VINA RESULT:     -12.0      0.000      0.000
REMARK SMILES O=C(CNC(=O)N1CC(NCCCNC(=O)c2ccc(-c3c4nc(c(-c5ccccc5)c5ccc([nH]5)c(-c5ccccc5)c5nc(c(-c6ccccc6)c6ccc3[nH]6)C=C5)C=C4)cc2)=[NH+]c2ccccc21)N[C@H](C(=O)[O-])c1ccccc1
REMARK SMILES IDX 11 1 10 2 7 3 8 4 71 5 9 6 66 7 70 8 65 9 67 10 69 11 68 14
REMARK SMILES IDX 5 15 4 16 6 18 3 19 2 20 1 21 72 22 73 24 77 25 78 26 82 27
REMARK SMILES IDX 79 28 81 29 80 30 74 31 75 32 76 33 12 34 13 35 14 36 15 37
REMARK SMILES IDX 16 39 17 40 18 41 64 42 19 43 63 44 20 45 21 46 22 47 57 48
REMARK SMILES IDX 23 49 62 50 56 51 58 52 24 53 61 54 55 55 54 56 25 58 47 59
REMARK SMILES IDX 32 60 46 61 33 62 36 63 45 64 59 65 34 66 35 67 44 69 60 70
REMARK SMILES IDX 37 71 26 72 27 73 31 74 28 75 30 76 29 77 48 78 49 79 53 80
REMARK SMILES IDX 50 81 52 82 51 83 38 84 39 85 43 86 40 87 42 88 41 89
REMARK H PARENT 10 12 65 13 4 17 72 23 14 38 58 57 36 68
REMARK Flexibility Score: inf
ROOT
ATOM      1  C   UNL A   1      32.641  29.704  25.014  1.00  0.00     0.235 C 
ENDROOT
BRANCH   1   2
ATOM      2  N   UNL A   1      33.025  28.438  25.590  1.00  0.00    -0.277 N 
ATOM      3  N   UNL A   1      33.559  25.962  22.965  1.00  0.00    -0.278 N 
ATOM      4  C   UNL A   1      33.783  27.317  23.446  1.00  0.00     0.255 C 
ATOM      5  C   UNL A   1      34.266  24.972  23.691  1.00  0.00     0.093 A 
ATOM      6  C   UNL A   1      33.559  27.341  24.963  1.00  0.00     0.268 C 
ATOM      7  C   UNL A   1      34.423  25.188  25.075  1.00  0.00     0.148 A 
ATOM      8  C   UNL A   1      34.767  23.813  23.088  1.00  0.00     0.031 A 
ATOM      9  N   UNL A   1      33.900  26.330  25.719  1.00  0.00    -0.241 N 
ATOM     10  C   UNL A   1      35.016  24.189  25.848  1.00  0.00     0.054 A 
ATOM     11  C   UNL A   1      35.377  22.836  23.873  1.00  0.00     0.002 A 
ATOM     12  H   UNL A   1      32.887  28.350  26.561  1.00  0.00     0.304 HD
ATOM     13  H   UNL A   1      33.796  26.365  26.698  1.00  0.00     0.312 HD
ATOM     14  C   UNL A   1      35.487  23.015  25.252  1.00  0.00     0.005 A 
BRANCH   3  15
ATOM     15  C   UNL A   1      32.751  25.780  21.878  1.00  0.00     0.323 C 
ATOM     16  N   UNL A   1      31.413  25.976  21.981  1.00  0.00    -0.329 N 
ATOM     17  H   UNL A   1      30.894  25.623  21.223  1.00  0.00     0.165 HD
ATOM     18  O   UNL A   1      33.198  25.557  20.751  1.00  0.00    -0.248 OA
BRANCH  16  19
ATOM     19  C   UNL A   1      30.607  26.619  23.015  1.00  0.00     0.218 C 
BRANCH  19  20
ATOM     20  C   UNL A   1      30.326  25.698  24.200  1.00  0.00     0.240 C 
ATOM     21  O   UNL A   1      29.447  25.954  25.018  1.00  0.00    -0.273 OA
ATOM     22  N   UNL A   1      30.987  24.490  24.147  1.00  0.00    -0.342 N 
ATOM     23  H   UNL A   1      31.633  24.332  23.421  1.00  0.00     0.164 HD
BRANCH  22  24
ATOM     24  C   UNL A   1      30.760  23.437  25.133  1.00  0.00     0.158 C 
BRANCH  24  25
ATOM     25  C   UNL A   1      31.567  22.189  24.826  1.00  0.00    -0.020 A 
ATOM     26  C   UNL A   1      31.752  21.785  23.491  1.00  0.00     0.006 A 
ATOM     27  C   UNL A   1      32.180  21.436  25.839  1.00  0.00     0.006 A 
ATOM     28  C   UNL A   1      32.515  20.657  23.185  1.00  0.00     0.000 A 
ATOM     29  C   UNL A   1      32.948  20.312  25.532  1.00  0.00     0.000 A 
ATOM     30  C   UNL A   1      33.115  19.923  24.206  1.00  0.00     0.000 A 
ENDBRANCH  24  25
BRANCH  24  31
ATOM     31  C   UNL A   1      30.797  23.898  26.608  1.00  0.00     0.068 C 
ATOM     32  O   UNL A   1      31.724  24.449  27.184  1.00  0.00    -0.548 OA
ATOM     33  O   UNL A   1      29.728  23.488  27.333  1.00  0.00    -0.548 OA
ENDBRANCH  24  31
ENDBRANCH  22  24
ENDBRANCH  19  20
ENDBRANCH  16  19
ENDBRANCH   3  15
ENDBRANCH   1   2
BRANCH   1  34
ATOM     34  C   UNL A   1      31.766  30.499  25.978  1.00  0.00     0.067 C 
BRANCH  34  35
ATOM     35  C   UNL A   1      32.526  31.088  27.163  1.00  0.00     0.120 C 
BRANCH  35  36
ATOM     36  N   UNL A   1      32.290  32.517  27.336  1.00  0.00    -0.352 N 
ATOM     37  C   UNL A   1      33.033  33.464  27.994  1.00  0.00     0.251 C 
ATOM     38  H   UNL A   1      31.467  32.855  26.914  1.00  0.00     0.163 HD
ATOM     39  O   UNL A   1      32.567  34.590  28.169  1.00  0.00    -0.269 OA
BRANCH  37  40
ATOM     40  C   UNL A   1      34.378  33.139  28.510  1.00  0.00     0.039 A 
ATOM     41  C   UNL A   1      34.492  32.459  29.726  1.00  0.00     0.014 A 
ATOM     42  C   UNL A   1      35.527  33.517  27.810  1.00  0.00     0.014 A 
ATOM     43  C   UNL A   1      35.754  32.094  30.203  1.00  0.00     0.010 A 
ATOM     44  C   UNL A   1      36.776  33.085  28.245  1.00  0.00     0.010 A 
ATOM     45  C   UNL A   1      36.904  32.369  29.446  1.00  0.00    -0.014 A 
BRANCH  45  46
ATOM     46  C   UNL A   1      38.255  31.935  29.888  1.00  0.00     0.031 A 
ATOM     47  C   UNL A   1      38.808  30.616  29.421  1.00  0.00     0.074 A 
ATOM     48  C   UNL A   1      38.951  32.687  30.764  1.00  0.00     0.049 A 
ATOM     49  N   UNL A   1      39.901  29.999  29.794  1.00  0.00    -0.248 NA
ATOM     50  C   UNL A   1      38.018  29.882  28.419  1.00  0.00     0.031 C 
ATOM     51  C   UNL A   1      38.522  33.977  31.310  1.00  0.00     0.029 A 
ATOM     52  N   UNL A   1      40.166  32.462  31.365  1.00  0.00    -0.354 N 
ATOM     53  C   UNL A   1      39.922  28.806  29.084  1.00  0.00     0.074 A 
ATOM     54  C   UNL A   1      38.708  28.758  28.299  1.00  0.00     0.031 C 
ATOM     55  C   UNL A   1      39.464  34.433  32.152  1.00  0.00     0.029 A 
ATOM     56  C   UNL A   1      40.536  33.449  32.248  1.00  0.00     0.049 A 
ATOM     57  H   UNL A   1      40.719  31.669  31.180  1.00  0.00     0.167 HD
ATOM     58  C   UNL A   1      40.877  27.845  29.066  1.00  0.00     0.031 A 
ATOM     59  C   UNL A   1      41.608  33.539  33.060  1.00  0.00     0.031 A 
ATOM     60  C   UNL A   1      42.086  27.892  29.840  1.00  0.00     0.049 A 
ATOM     61  C   UNL A   1      42.628  32.430  33.057  1.00  0.00     0.074 A 
ATOM     62  C   UNL A   1      43.123  26.975  29.875  1.00  0.00     0.029 A 
ATOM     63  N   UNL A   1      42.426  28.914  30.712  1.00  0.00    -0.354 N 
ATOM     64  N   UNL A   1      42.652  31.329  32.346  1.00  0.00    -0.248 NA
ATOM     65  C   UNL A   1      43.775  32.584  33.964  1.00  0.00     0.031 C 
ATOM     66  C   UNL A   1      44.069  27.420  30.802  1.00  0.00     0.029 A 
ATOM     67  C   UNL A   1      43.651  28.645  31.296  1.00  0.00     0.049 A 
ATOM     68  H   UNL A   1      41.877  29.712  30.890  1.00  0.00     0.167 HD
ATOM     69  C   UNL A   1      43.834  30.685  32.688  1.00  0.00     0.074 A 
ATOM     70  C   UNL A   1      44.506  31.522  33.657  1.00  0.00     0.031 C 
ATOM     71  C   UNL A   1      44.321  29.503  32.237  1.00  0.00     0.031 A 
BRANCH  58  72
ATOM     72  C   UNL A   1      40.656  26.661  28.167  1.00  0.00    -0.014 A 
ATOM     73  C   UNL A   1      39.894  25.562  28.596  1.00  0.00     0.009 A 
ATOM     74  C   UNL A   1      41.157  26.669  26.856  1.00  0.00     0.009 A 
ATOM     75  C   UNL A   1      39.661  24.485  27.740  1.00  0.00     0.001 A 
ATOM     76  C   UNL A   1      40.897  25.603  25.992  1.00  0.00     0.001 A 
ATOM     77  C   UNL A   1      40.156  24.509  26.437  1.00  0.00     0.000 A 
ENDBRANCH  58  72
BRANCH  59  78
ATOM     78  C   UNL A   1      41.780  34.710  33.962  1.00  0.00    -0.014 A 
ATOM     79  C   UNL A   1      42.488  35.845  33.534  1.00  0.00     0.009 A 
ATOM     80  C   UNL A   1      41.288  34.677  35.276  1.00  0.00     0.009 A 
ATOM     81  C   UNL A   1      42.743  36.897  34.417  1.00  0.00     0.001 A 
ATOM     82  C   UNL A   1      41.511  35.747  36.145  1.00  0.00     0.001 A 
ATOM     83  C   UNL A   1      42.253  36.848  35.721  1.00  0.00     0.000 A 
ENDBRANCH  59  78
BRANCH  71  84
ATOM     84  C   UNL A   1      45.677  29.078  32.727  1.00  0.00    -0.014 A 
ATOM     85  C   UNL A   1      46.856  29.544  32.127  1.00  0.00     0.009 A 
ATOM     86  C   UNL A   1      45.770  28.238  33.848  1.00  0.00     0.009 A 
ATOM     87  C   UNL A   1      48.101  29.151  32.621  1.00  0.00     0.001 A 
ATOM     88  C   UNL A   1      47.016  27.873  34.361  1.00  0.00     0.001 A 
ATOM     89  C   UNL A   1      48.180  28.323  33.741  1.00  0.00     0.000 A 
ENDBRANCH  71  84
ENDBRANCH  45  46
ENDBRANCH  37  40
ENDBRANCH  35  36
ENDBRANCH  34  35
ENDBRANCH   1  34
TORSDOF 15
ENDMDL
MODEL 2
REMARK VINA RESULT:     -11.6      3.341      8.191
REMARK SMILES O=C(CNC(=O)N1CC(NCCCNC(=O)c2ccc(-c3c4nc(c(-c5ccccc5)c5ccc([nH]5)c(-c5ccccc5)c5nc(c(-c6ccccc6)c6ccc3[nH]6)C=C5)C=C4)cc2)=[NH+]c2ccccc21)N[C@H](C(=O)[O-])c1ccccc1
REMARK SMILES IDX 11 1 10 2 7 3 8 4 71 5 9 6 66 7 70 8 65 9 67 10 69 11 68 14
REMARK SMILES IDX 5 15 4 16 6 18 3 19 2 20 1 21 72 22 73 24 77 25 78 26 82 27
REMARK SMILES IDX 79 28 81 29 80 30 74 31 75 32 76 33 12 34 13 35 14 36 15 37
REMARK SMILES IDX 16 39 17 40 18 41 64 42 19 43 63 44 20 45 21 46 22 47 57 48
REMARK SMILES IDX 23 49 62 50 56 51 58 52 24 53 61 54 55 55 54 56 25 58 47 59
REMARK SMILES IDX 32 60 46 61 33 62 36 63 45 64 59 65 34 66 35 67 44 69 60 70
REMARK SMILES IDX 37 71 26 72 27 73 31 74 28 75 30 76 29 77 48 78 49 79 53 80
REMARK SMILES IDX 50 81 52 82 51 83 38 84 39 85 43 86 40 87 42 88 41 89
REMARK H PARENT 10 12 65 13 4 17 72 23 14 38 58 57 36 68
REMARK Flexibility Score: inf
ROOT
ATOM      1  C   UNL A   1      36.571  19.687  24.949  1.00  0.00     0.235 C 
ENDROOT
BRANCH   1   2
ATOM      2  N   UNL A   1      36.018  20.885  25.532  1.00  0.00    -0.277 N 
ATOM      3  N   UNL A   1      32.712  21.559  24.142  1.00  0.00    -0.278 N 
ATOM      4  C   UNL A   1      33.641  20.588  24.701  1.00  0.00     0.255 C 
ATOM      5  C   UNL A   1      32.228  22.497  25.086  1.00  0.00     0.093 A 
ATOM      6  C   UNL A   1      34.724  21.340  25.484  1.00  0.00     0.268 C 
ATOM      7  C   UNL A   1      33.124  22.909  26.093  1.00  0.00     0.148 A 
ATOM      8  C   UNL A   1      30.932  23.024  25.024  1.00  0.00     0.031 A 
ATOM      9  N   UNL A   1      34.447  22.422  26.163  1.00  0.00    -0.241 N 
ATOM     10  C   UNL A   1      32.726  23.912  26.978  1.00  0.00     0.054 A 
ATOM     11  C   UNL A   1      30.544  24.009  25.931  1.00  0.00     0.002 A 
ATOM     12  H   UNL A   1      36.650  21.451  26.031  1.00  0.00     0.304 HD
ATOM     13  H   UNL A   1      35.134  22.880  26.700  1.00  0.00     0.312 HD
ATOM     14  C   UNL A   1      31.444  24.464  26.896  1.00  0.00     0.005 A 
BRANCH   3  15
ATOM     15  C   UNL A   1      32.379  21.459  22.821  1.00  0.00     0.323 C 
ATOM     16  N   UNL A   1      32.581  22.506  21.984  1.00  0.00    -0.329 N 
ATOM     17  H   UNL A   1      32.125  22.423  21.115  1.00  0.00     0.165 HD
ATOM     18  O   UNL A   1      32.007  20.401  22.311  1.00  0.00    -0.248 OA
BRANCH  16  19
ATOM     19  C   UNL A   1      33.355  23.734  22.141  1.00  0.00     0.218 C 
BRANCH  19  20
ATOM     20  C   UNL A   1      32.473  24.974  22.265  1.00  0.00     0.240 C 
ATOM     21  O   UNL A   1      31.481  25.130  21.557  1.00  0.00    -0.273 OA
ATOM     22  N   UNL A   1      32.766  25.771  23.350  1.00  0.00    -0.342 N 
ATOM     23  H   UNL A   1      33.543  25.545  23.910  1.00  0.00     0.164 HD
BRANCH  22  24
ATOM     24  C   UNL A   1      31.962  26.940  23.695  1.00  0.00     0.158 C 
BRANCH  24  25
ATOM     25  C   UNL A   1      32.278  27.456  25.087  1.00  0.00    -0.020 A 
ATOM     26  C   UNL A   1      33.617  27.582  25.499  1.00  0.00     0.006 A 
ATOM     27  C   UNL A   1      31.268  27.857  25.974  1.00  0.00     0.006 A 
ATOM     28  C   UNL A   1      33.930  28.082  26.764  1.00  0.00     0.000 A 
ATOM     29  C   UNL A   1      31.583  28.363  27.236  1.00  0.00     0.000 A 
ATOM     30  C   UNL A   1      32.913  28.474  27.631  1.00  0.00     0.000 A 
ENDBRANCH  24  25
BRANCH  24  31
ATOM     31  C   UNL A   1      31.872  28.024  22.596  1.00  0.00     0.068 C 
ATOM     32  O   UNL A   1      32.726  28.848  22.303  1.00  0.00    -0.548 OA
ATOM     33  O   UNL A   1      30.643  28.129  22.035  1.00  0.00    -0.548 OA
ENDBRANCH  24  31
ENDBRANCH  22  24
ENDBRANCH  19  20
ENDBRANCH  16  19
ENDBRANCH   3  15
ENDBRANCH   1   2
BRANCH   1  34
ATOM     34  C   UNL A   1      38.035  19.892  24.569  1.00  0.00     0.067 C 
BRANCH  34  35
ATOM     35  C   UNL A   1      38.950  20.174  25.757  1.00  0.00     0.120 C 
BRANCH  35  36
ATOM     36  N   UNL A   1      40.087  19.264  25.826  1.00  0.00    -0.352 N 
ATOM     37  C   UNL A   1      41.407  19.514  26.108  1.00  0.00     0.251 C 
ATOM     38  H   UNL A   1      39.876  18.321  25.641  1.00  0.00     0.163 HD
ATOM     39  O   UNL A   1      42.243  18.627  25.946  1.00  0.00    -0.269 OA
BRANCH  37  40
ATOM     40  C   UNL A   1      41.833  20.845  26.588  1.00  0.00     0.039 A 
ATOM     41  C   UNL A   1      42.295  21.784  25.660  1.00  0.00     0.014 A 
ATOM     42  C   UNL A   1      41.796  21.165  27.947  1.00  0.00     0.014 A 
ATOM     43  C   UNL A   1      42.651  23.067  26.088  1.00  0.00     0.010 A 
ATOM     44  C   UNL A   1      42.074  22.465  28.360  1.00  0.00     0.010 A 
ATOM     45  C   UNL A   1      42.505  23.430  27.436  1.00  0.00    -0.014 A 
BRANCH  45  46
ATOM     46  C   UNL A   1      42.807  24.804  27.913  1.00  0.00     0.031 A 
ATOM     47  C   UNL A   1      44.213  25.167  28.310  1.00  0.00     0.074 A 
ATOM     48  C   UNL A   1      41.811  25.701  28.061  1.00  0.00     0.049 A 
ATOM     49  N   UNL A   1      44.656  26.264  28.872  1.00  0.00    -0.248 NA
ATOM     50  C   UNL A   1      45.254  24.156  28.062  1.00  0.00     0.031 C 
ATOM     51  C   UNL A   1      40.402  25.472  27.731  1.00  0.00     0.029 A 
ATOM     52  N   UNL A   1      41.832  26.986  28.546  1.00  0.00    -0.354 N 
ATOM     53  C   UNL A   1      46.019  26.069  29.055  1.00  0.00     0.074 A 
ATOM     54  C   UNL A   1      46.322  24.731  28.595  1.00  0.00     0.031 C 
ATOM     55  C   UNL A   1      39.700  26.583  28.010  1.00  0.00     0.029 A 
ATOM     56  C   UNL A   1      40.593  27.581  28.585  1.00  0.00     0.049 A 
ATOM     57  H   UNL A   1      42.657  27.438  28.837  1.00  0.00     0.167 HD
ATOM     58  C   UNL A   1      46.942  26.933  29.538  1.00  0.00     0.031 A 
ATOM     59  C   UNL A   1      40.217  28.787  29.054  1.00  0.00     0.031 A 
ATOM     60  C   UNL A   1      46.646  28.265  29.991  1.00  0.00     0.049 A 
ATOM     61  C   UNL A   1      41.258  29.708  29.635  1.00  0.00     0.074 A 
ATOM     62  C   UNL A   1      47.517  29.222  30.481  1.00  0.00     0.029 A 
ATOM     63  N   UNL A   1      45.381  28.830  30.004  1.00  0.00    -0.354 N 
ATOM     64  N   UNL A   1      42.550  29.523  29.761  1.00  0.00    -0.248 NA
ATOM     65  C   UNL A   1      40.788  31.010  30.131  1.00  0.00     0.031 C 
ATOM     66  C   UNL A   1      46.773  30.352  30.832  1.00  0.00     0.029 A 
ATOM     67  C   UNL A   1      45.449  30.119  30.502  1.00  0.00     0.049 A 
ATOM     68  H   UNL A   1      44.557  28.381  29.704  1.00  0.00     0.167 HD
ATOM     69  C   UNL A   1      43.049  30.698  30.306  1.00  0.00     0.074 A 
ATOM     70  C   UNL A   1      41.926  31.595  30.475  1.00  0.00     0.031 C 
ATOM     71  C   UNL A   1      44.326  31.010  30.637  1.00  0.00     0.031 A 
BRANCH  58  72
ATOM     72  C   UNL A   1      48.370  26.468  29.593  1.00  0.00    -0.014 A 
ATOM     73  C   UNL A   1      49.263  26.756  28.548  1.00  0.00     0.009 A 
ATOM     74  C   UNL A   1      48.848  25.792  30.727  1.00  0.00     0.009 A 
ATOM     75  C   UNL A   1      50.598  26.354  28.626  1.00  0.00     0.001 A 
ATOM     76  C   UNL A   1      50.190  25.417  30.814  1.00  0.00     0.001 A 
ATOM     77  C   UNL A   1      51.062  25.692  29.762  1.00  0.00     0.000 A 
ENDBRANCH  58  72
BRANCH  59  78
ATOM     78  C   UNL A   1      38.789  29.205  29.015  1.00  0.00    -0.014 A 
ATOM     79  C   UNL A   1      37.956  29.012  30.129  1.00  0.00     0.009 A 
ATOM     80  C   UNL A   1      38.236  29.747  27.844  1.00  0.00     0.009 A 
ATOM     81  C   UNL A   1      36.591  29.303  30.053  1.00  0.00     0.001 A 
ATOM     82  C   UNL A   1      36.880  30.073  27.784  1.00  0.00     0.001 A 
ATOM     83  C   UNL A   1      36.055  29.834  28.881  1.00  0.00     0.000 A 
ENDBRANCH  59  78
BRANCH  71  84
ATOM     84  C   UNL A   1      44.594  32.398  31.145  1.00  0.00    -0.014 A 
ATOM     85  C   UNL A   1      44.870  33.461  30.272  1.00  0.00     0.009 A 
ATOM     86  C   UNL A   1      44.512  32.654  32.523  1.00  0.00     0.009 A 
ATOM     87  C   UNL A   1      45.089  34.746  30.773  1.00  0.00     0.001 A 
ATOM     88  C   UNL A   1      44.698  33.945  33.018  1.00  0.00     0.001 A 
ATOM     89  C   UNL A   1      44.996  34.988  32.144  1.00  0.00     0.000 A 
ENDBRANCH  71  84
ENDBRANCH  45  46
ENDBRANCH  37  40
ENDBRANCH  35  36
ENDBRANCH  34  35
ENDBRANCH   1  34
TORSDOF 15
ENDMDL
MODEL 3
REMARK VINA RESULT:     -11.6      2.032      2.636
REMARK SMILES O=C(CNC(=O)N1CC(NCCCNC(=O)c2ccc(-c3c4nc(c(-c5ccccc5)c5ccc([nH]5)c(-c5ccccc5)c5nc(c(-c6ccccc6)c6ccc3[nH]6)C=C5)C=C4)cc2)=[NH+]c2ccccc21)N[C@H](C(=O)[O-])c1ccccc1
REMARK SMILES IDX 11 1 10 2 7 3 8 4 71 5 9 6 66 7 70 8 65 9 67 10 69 11 68 14
REMARK SMILES IDX 5 15 4 16 6 18 3 19 2 20 1 21 72 22 73 24 77 25 78 26 82 27
REMARK SMILES IDX 79 28 81 29 80 30 74 31 75 32 76 33 12 34 13 35 14 36 15 37
REMARK SMILES IDX 16 39 17 40 18 41 64 42 19 43 63 44 20 45 21 46 22 47 57 48
REMARK SMILES IDX 23 49 62 50 56 51 58 52 24 53 61 54 55 55 54 56 25 58 47 59
REMARK SMILES IDX 32 60 46 61 33 62 36 63 45 64 59 65 34 66 35 67 44 69 60 70
REMARK SMILES IDX 37 71 26 72 27 73 31 74 28 75 30 76 29 77 48 78 49 79 53 80
REMARK SMILES IDX 50 81 52 82 51 83 38 84 39 85 43 86 40 87 42 88 41 89
REMARK H PARENT 10 12 65 13 4 17 72 23 14 38 58 57 36 68
REMARK Flexibility Score: inf
ROOT
ATOM      1  C   UNL A   1      31.617  28.045  24.698  1.00  0.00     0.235 C 
ENDROOT
BRANCH   1   2
ATOM      2  N   UNL A   1      32.529  27.142  25.357  1.00  0.00    -0.277 N 
ATOM      3  N   UNL A   1      33.776  24.656  22.996  1.00  0.00    -0.278 N 
ATOM      4  C   UNL A   1      33.478  26.053  23.274  1.00  0.00     0.255 C 
ATOM      5  C   UNL A   1      34.884  24.152  23.721  1.00  0.00     0.093 A 
ATOM      6  C   UNL A   1      33.401  26.246  24.793  1.00  0.00     0.268 C 
ATOM      7  C   UNL A   1      35.066  24.644  25.030  1.00  0.00     0.148 A 
ATOM      8  C   UNL A   1      35.753  23.191  23.192  1.00  0.00     0.031 A 
ATOM      9  N   UNL A   1      34.187  25.588  25.604  1.00  0.00    -0.241 N 
ATOM     10  C   UNL A   1      36.078  24.096  25.818  1.00  0.00     0.054 A 
ATOM     11  C   UNL A   1      36.774  22.672  23.987  1.00  0.00     0.002 A 
ATOM     12  H   UNL A   1      32.527  27.173  26.341  1.00  0.00     0.304 HD
ATOM     13  H   UNL A   1      34.167  25.745  26.576  1.00  0.00     0.312 HD
ATOM     14  C   UNL A   1      36.926  23.111  25.303  1.00  0.00     0.005 A 
BRANCH   3  15
ATOM     15  C   UNL A   1      33.015  23.995  22.074  1.00  0.00     0.323 C 
ATOM     16  N   UNL A   1      31.802  23.497  22.419  1.00  0.00    -0.329 N 
ATOM     17  H   UNL A   1      31.424  22.865  21.766  1.00  0.00     0.165 HD
ATOM     18  O   UNL A   1      33.327  23.931  20.883  1.00  0.00    -0.248 OA
BRANCH  16  19
ATOM     19  C   UNL A   1      30.957  23.732  23.586  1.00  0.00     0.218 C 
BRANCH  19  20
ATOM     20  C   UNL A   1      31.351  22.869  24.782  1.00  0.00     0.240 C 
ATOM     21  O   UNL A   1      30.888  23.072  25.901  1.00  0.00    -0.273 OA
ATOM     22  N   UNL A   1      32.087  21.751  24.456  1.00  0.00    -0.342 N 
ATOM     23  H   UNL A   1      32.368  21.623  23.521  1.00  0.00     0.164 HD
BRANCH  22  24
ATOM     24  C   UNL A   1      32.462  20.750  25.450  1.00  0.00     0.158 C 
BRANCH  24  25
ATOM     25  C   UNL A   1      32.603  19.368  24.839  1.00  0.00    -0.020 A 
ATOM     26  C   UNL A   1      32.568  19.213  23.441  1.00  0.00     0.006 A 
ATOM     27  C   UNL A   1      32.811  18.228  25.630  1.00  0.00     0.006 A 
ATOM     28  C   UNL A   1      32.725  17.955  22.858  1.00  0.00     0.000 A 
ATOM     29  C   UNL A   1      32.975  16.971  25.045  1.00  0.00     0.000 A 
ATOM     30  C   UNL A   1      32.931  16.835  23.660  1.00  0.00     0.000 A 
ENDBRANCH  24  25
BRANCH  24  31
ATOM     31  C   UNL A   1      33.604  21.168  26.404  1.00  0.00     0.068 C 
ATOM     32  O   UNL A   1      33.518  21.899  27.380  1.00  0.00    -0.548 OA
ATOM     33  O   UNL A   1      34.834  20.784  25.982  1.00  0.00    -0.548 OA
ENDBRANCH  24  31
ENDBRANCH  22  24
ENDBRANCH  19  20
ENDBRANCH  16  19
ENDBRANCH   3  15
ENDBRANCH   1   2
BRANCH   1  34
ATOM     34  C   UNL A   1      32.041  29.496  24.907  1.00  0.00     0.067 C 
BRANCH  34  35
ATOM     35  C   UNL A   1      31.955  29.964  26.357  1.00  0.00     0.120 C 
BRANCH  35  36
ATOM     36  N   UNL A   1      31.760  31.405  26.477  1.00  0.00    -0.352 N 
ATOM     37  C   UNL A   1      32.494  32.345  27.155  1.00  0.00     0.251 C 
ATOM     38  H   UNL A   1      30.977  31.759  25.997  1.00  0.00     0.163 HD
ATOM     39  O   UNL A   1      32.059  33.490  27.271  1.00  0.00    -0.269 OA
BRANCH  37  40
ATOM     40  C   UNL A   1      33.793  31.989  27.762  1.00  0.00     0.039 A 
ATOM     41  C   UNL A   1      34.734  32.998  27.991  1.00  0.00     0.014 A 
ATOM     42  C   UNL A   1      34.096  30.665  28.087  1.00  0.00     0.014 A 
ATOM     43  C   UNL A   1      35.946  32.690  28.614  1.00  0.00     0.010 A 
ATOM     44  C   UNL A   1      35.267  30.372  28.778  1.00  0.00     0.010 A 
ATOM     45  C   UNL A   1      36.206  31.380  29.049  1.00  0.00    -0.014 A 
BRANCH  45  46
ATOM     46  C   UNL A   1      37.454  31.030  29.777  1.00  0.00     0.031 A 
ATOM     47  C   UNL A   1      38.483  30.151  29.118  1.00  0.00     0.074 A 
ATOM     48  C   UNL A   1      37.629  31.438  31.049  1.00  0.00     0.049 A 
ATOM     49  N   UNL A   1      39.569  29.627  29.628  1.00  0.00    -0.248 NA
ATOM     50  C   UNL A   1      38.250  29.798  27.708  1.00  0.00     0.031 C 
ATOM     51  C   UNL A   1      36.702  32.278  31.811  1.00  0.00     0.029 A 
ATOM     52  N   UNL A   1      38.648  31.183  31.936  1.00  0.00    -0.354 N 
ATOM     53  C   UNL A   1      40.139  28.875  28.608  1.00  0.00     0.074 A 
ATOM     54  C   UNL A   1      39.252  28.966  27.468  1.00  0.00     0.031 C 
ATOM     55  C   UNL A   1      37.200  32.479  33.042  1.00  0.00     0.029 A 
ATOM     56  C   UNL A   1      38.452  31.743  33.176  1.00  0.00     0.049 A 
ATOM     57  H   UNL A   1      39.442  30.651  31.704  1.00  0.00     0.167 HD
ATOM     58  C   UNL A   1      41.307  28.189  28.609  1.00  0.00     0.031 A 
ATOM     59  C   UNL A   1      39.187  31.654  34.302  1.00  0.00     0.031 A 
ATOM     60  C   UNL A   1      42.192  28.100  29.738  1.00  0.00     0.049 A 
ATOM     61  C   UNL A   1      40.455  30.841  34.289  1.00  0.00     0.074 A 
ATOM     62  C   UNL A   1      43.407  27.445  29.830  1.00  0.00     0.029 A 
ATOM     63  N   UNL A   1      41.960  28.691  30.970  1.00  0.00    -0.354 N 
ATOM     64  N   UNL A   1      41.000  30.172  33.302  1.00  0.00    -0.248 NA
ATOM     65  C   UNL A   1      41.215  30.780  35.546  1.00  0.00     0.031 C 
ATOM     66  C   UNL A   1      43.890  27.600  31.132  1.00  0.00     0.029 A 
ATOM     67  C   UNL A   1      43.006  28.406  31.830  1.00  0.00     0.049 A 
ATOM     68  H   UNL A   1      41.169  29.231  31.199  1.00  0.00     0.167 HD
ATOM     69  C   UNL A   1      42.184  29.650  33.807  1.00  0.00     0.074 A 
ATOM     70  C   UNL A   1      42.287  30.090  35.181  1.00  0.00     0.031 C 
ATOM     71  C   UNL A   1      43.108  28.876  33.187  1.00  0.00     0.031 A 
BRANCH  58  72
ATOM     72  C   UNL A   1      41.703  27.487  27.341  1.00  0.00    -0.014 A 
ATOM     73  C   UNL A   1      42.385  28.170  26.321  1.00  0.00     0.009 A 
ATOM     74  C   UNL A   1      41.451  26.114  27.188  1.00  0.00     0.009 A 
ATOM     75  C   UNL A   1      42.784  27.498  25.164  1.00  0.00     0.001 A 
ATOM     76  C   UNL A   1      41.878  25.439  26.043  1.00  0.00     0.001 A 
ATOM     77  C   UNL A   1      42.537  26.132  25.029  1.00  0.00     0.000 A 
ENDBRANCH  58  72
BRANCH  59  78
ATOM     78  C   UNL A   1      38.750  32.336  35.551  1.00  0.00    -0.014 A 
ATOM     79  C   UNL A   1      39.087  33.678  35.788  1.00  0.00     0.009 A 
ATOM     80  C   UNL A   1      38.042  31.631  36.538  1.00  0.00     0.009 A 
ATOM     81  C   UNL A   1      38.770  34.283  37.007  1.00  0.00     0.001 A 
ATOM     82  C   UNL A   1      37.694  32.251  37.740  1.00  0.00     0.001 A 
ATOM     83  C   UNL A   1      38.073  33.570  37.981  1.00  0.00     0.000 A 
ENDBRANCH  59  78
BRANCH  71  84
ATOM     84  C   UNL A   1      44.345  28.515  33.959  1.00  0.00    -0.014 A 
ATOM     85  C   UNL A   1      45.475  29.345  33.969  1.00  0.00     0.009 A 
ATOM     86  C   UNL A   1      44.352  27.346  34.737  1.00  0.00     0.009 A 
ATOM     87  C   UNL A   1      46.600  28.994  34.718  1.00  0.00     0.001 A 
ATOM     88  C   UNL A   1      45.465  27.015  35.511  1.00  0.00     0.001 A 
ATOM     89  C   UNL A   1      46.592  27.835  35.493  1.00  0.00     0.000 A 
ENDBRANCH  71  84
ENDBRANCH  45  46
ENDBRANCH  37  40
ENDBRANCH  35  36
ENDBRANCH  34  35
ENDBRANCH   1  34
TORSDOF 15
ENDMDL
