MODEL 1
REMARK VINA RESULT:     -12.6      0.000      0.000
REMARK SMILES O=C(NCCCNC(=O)c1cccc(Nc2nc(-c3ccc(F)cc3F)cs2)c1)c1ccc(-c2c3nc(c(-c4ccccc4)c4ccc([nH]4)c(-c4ccccc4)c4nc(c(-c5ccccc5)c5ccc2[nH]5)C=C4)C=C3)cc1
REMARK SMILES IDX 5 1 4 2 3 3 1 4 2 5 30 7 31 8 77 9 32 10 76 11 33 12 34 13
REMARK SMILES IDX 35 14 70 15 36 16 75 17 69 18 71 19 37 20 74 21 68 22 67 23
REMARK SMILES IDX 38 25 60 26 45 27 59 28 46 29 49 30 58 31 72 32 47 33 48 34
REMARK SMILES IDX 57 36 73 37 50 38 39 39 40 40 44 41 41 42 43 43 42 44 61 45
REMARK SMILES IDX 62 46 66 47 63 48 65 49 64 50 51 51 52 52 56 53 53 54 55 55
REMARK SMILES IDX 54 56 6 57 7 58 8 59 9 61 10 62 11 63 29 64 12 65 14 66
REMARK SMILES IDX 13 67 15 68 16 70 17 71 28 72 18 73 27 74 19 75 20 76 25 77
REMARK SMILES IDX 21 78 24 79 26 80 22 81 23 82
REMARK H PARENT 3 6 71 24 49 35 7 60 15 69
REMARK Flexibility Score: inf
ROOT
ATOM      1  C   UNL A   1      31.069  31.116  26.030  1.00  0.00     0.042 C 
ENDROOT
BRANCH   1   2
ATOM      2  C   UNL A   1      32.296  31.635  26.765  1.00  0.00     0.118 C 
BRANCH   2   3
ATOM      3  N   UNL A   1      32.135  32.999  27.257  1.00  0.00    -0.352 N 
ATOM      4  O   UNL A   1      32.518  34.829  28.512  1.00  0.00    -0.269 OA
ATOM      5  C   UNL A   1      32.929  33.751  28.089  1.00  0.00     0.251 C 
ATOM      6  H   UNL A   1      31.323  33.456  26.940  1.00  0.00     0.163 HD
BRANCH   5   7
ATOM      7  C   UNL A   1      34.266  33.265  28.496  1.00  0.00     0.039 A 
ATOM      8  C   UNL A   1      34.398  32.315  29.505  1.00  0.00     0.014 A 
ATOM      9  C   UNL A   1      35.405  33.748  27.843  1.00  0.00     0.014 A 
ATOM     10  C   UNL A   1      35.657  31.997  29.994  1.00  0.00     0.010 A 
ATOM     11  C   UNL A   1      36.677  33.330  28.254  1.00  0.00     0.010 A 
ATOM     12  C   UNL A   1      36.815  32.479  29.360  1.00  0.00    -0.014 A 
BRANCH  12  13
ATOM     13  C   UNL A   1      38.134  32.001  29.849  1.00  0.00     0.031 A 
ATOM     14  C   UNL A   1      38.865  32.696  30.962  1.00  0.00     0.074 A 
ATOM     15  C   UNL A   1      38.629  30.860  29.325  1.00  0.00     0.049 A 
ATOM     16  N   UNL A   1      39.966  32.330  31.573  1.00  0.00    -0.248 NA
ATOM     17  C   UNL A   1      38.303  33.964  31.452  1.00  0.00     0.031 C 
ATOM     18  C   UNL A   1      38.020  30.106  28.224  1.00  0.00     0.029 A 
ATOM     19  N   UNL A   1      39.721  30.111  29.673  1.00  0.00    -0.354 N 
ATOM     20  C   UNL A   1      40.233  33.322  32.507  1.00  0.00     0.074 A 
ATOM     21  C   UNL A   1      39.198  34.324  32.364  1.00  0.00     0.031 C 
ATOM     22  C   UNL A   1      38.694  28.962  28.047  1.00  0.00     0.029 A 
ATOM     23  C   UNL A   1      39.824  28.936  28.968  1.00  0.00     0.049 A 
ATOM     24  H   UNL A   1      40.369  30.386  30.363  1.00  0.00     0.167 HD
ATOM     25  C   UNL A   1      41.245  33.390  33.406  1.00  0.00     0.031 A 
ATOM     26  C   UNL A   1      40.727  27.943  29.044  1.00  0.00     0.031 A 
ATOM     27  C   UNL A   1      42.278  32.395  33.544  1.00  0.00     0.049 A 
ATOM     28  C   UNL A   1      41.837  28.047  30.047  1.00  0.00     0.074 A 
ATOM     29  C   UNL A   1      43.344  32.374  34.428  1.00  0.00     0.029 A 
ATOM     30  N   UNL A   1      42.373  31.242  32.780  1.00  0.00    -0.354 N 
ATOM     31  N   UNL A   1      42.060  28.987  30.933  1.00  0.00    -0.248 NA
ATOM     32  C   UNL A   1      42.817  26.955  30.058  1.00  0.00     0.031 C 
ATOM     33  C   UNL A   1      44.107  31.230  34.170  1.00  0.00     0.029 A 
ATOM     34  C   UNL A   1      43.487  30.511  33.161  1.00  0.00     0.049 A 
ATOM     35  H   UNL A   1      41.741  30.980  32.071  1.00  0.00     0.167 HD
ATOM     36  C   UNL A   1      43.208  28.599  31.609  1.00  0.00     0.074 A 
ATOM     37  C   UNL A   1      43.608  27.321  31.057  1.00  0.00     0.031 C 
ATOM     38  C   UNL A   1      43.879  29.250  32.589  1.00  0.00     0.031 A 
BRANCH  25  39
ATOM     39  C   UNL A   1      41.299  34.593  34.306  1.00  0.00    -0.014 A 
ATOM     40  C   UNL A   1      40.608  34.617  35.527  1.00  0.00     0.009 A 
ATOM     41  C   UNL A   1      42.100  35.692  33.959  1.00  0.00     0.009 A 
ATOM     42  C   UNL A   1      40.699  35.729  36.371  1.00  0.00     0.001 A 
ATOM     43  C   UNL A   1      42.209  36.792  34.814  1.00  0.00     0.001 A 
ATOM     44  C   UNL A   1      41.503  36.810  36.016  1.00  0.00     0.000 A 
ENDBRANCH  25  39
BRANCH  26  45
ATOM     45  C   UNL A   1      40.629  26.780  28.126  1.00  0.00    -0.014 A 
ATOM     46  C   UNL A   1      39.914  25.630  28.493  1.00  0.00     0.009 A 
ATOM     47  C   UNL A   1      41.246  26.824  26.865  1.00  0.00     0.009 A 
ATOM     48  C   UNL A   1      39.842  24.538  27.625  1.00  0.00     0.001 A 
ATOM     49  C   UNL A   1      41.143  25.744  25.987  1.00  0.00     0.001 A 
ATOM     50  C   UNL A   1      40.450  24.599  26.371  1.00  0.00     0.000 A 
ENDBRANCH  26  45
BRANCH  38  51
ATOM     51  C   UNL A   1      45.109  28.575  33.124  1.00  0.00    -0.014 A 
ATOM     52  C   UNL A   1      46.391  29.008  32.751  1.00  0.00     0.009 A 
ATOM     53  C   UNL A   1      44.984  27.492  34.006  1.00  0.00     0.009 A 
ATOM     54  C   UNL A   1      47.524  28.341  33.219  1.00  0.00     0.001 A 
ATOM     55  C   UNL A   1      46.119  26.845  34.494  1.00  0.00     0.001 A 
ATOM     56  C   UNL A   1      47.387  27.261  34.090  1.00  0.00     0.000 A 
ENDBRANCH  38  51
ENDBRANCH  12  13
ENDBRANCH   5   7
ENDBRANCH   2   3
ENDBRANCH   1   2
BRANCH   1  57
ATOM     57  C   UNL A   1      31.356  29.924  25.131  1.00  0.00     0.118 C 
BRANCH  57  58
ATOM     58  N   UNL A   1      30.552  29.947  23.916  1.00  0.00    -0.352 N 
ATOM     59  C   UNL A   1      30.658  29.192  22.775  1.00  0.00     0.251 C 
ATOM     60  H   UNL A   1      29.821  30.606  23.913  1.00  0.00     0.163 HD
ATOM     61  O   UNL A   1      30.049  29.523  21.763  1.00  0.00    -0.269 OA
BRANCH  59  62
ATOM     62  C   UNL A   1      31.512  27.987  22.758  1.00  0.00     0.041 A 
ATOM     63  C   UNL A   1      32.898  28.140  22.746  1.00  0.00     0.014 A 
ATOM     64  C   UNL A   1      30.941  26.710  22.704  1.00  0.00     0.040 A 
ATOM     65  C   UNL A   1      33.707  27.009  22.771  1.00  0.00     0.003 A 
ATOM     66  C   UNL A   1      31.741  25.562  22.738  1.00  0.00     0.041 A 
ATOM     67  C   UNL A   1      33.130  25.734  22.799  1.00  0.00     0.026 A 
BRANCH  66  68
ATOM     68  N   UNL A   1      31.111  24.306  22.754  1.00  0.00    -0.332 N 
ATOM     69  H   UNL A   1      30.339  24.203  22.151  1.00  0.00     0.169 HD
BRANCH  68  70
ATOM     70  C   UNL A   1      31.434  23.222  23.495  1.00  0.00     0.187 A 
ATOM     71  N   UNL A   1      31.912  22.076  23.059  1.00  0.00    -0.220 NA
ATOM     72  S   UNL A   1      31.247  23.312  25.213  1.00  0.00    -0.105 S 
ATOM     73  C   UNL A   1      32.154  21.222  24.115  1.00  0.00     0.086 A 
ATOM     74  C   UNL A   1      31.792  21.697  25.358  1.00  0.00     0.097 A 
BRANCH  73  75
ATOM     75  C   UNL A   1      32.757  19.922  23.922  1.00  0.00     0.037 A 
ATOM     76  C   UNL A   1      32.158  18.979  23.076  1.00  0.00     0.016 A 
ATOM     77  C   UNL A   1      33.929  19.581  24.607  1.00  0.00     0.135 A 
ATOM     78  C   UNL A   1      32.728  17.710  22.936  1.00  0.00     0.040 A 
ATOM     79  C   UNL A   1      34.499  18.320  24.470  1.00  0.00     0.079 A 
ATOM     80  F   UNL A   1      34.512  20.456  25.440  1.00  0.00    -0.206 F 
ATOM     81  C   UNL A   1      33.888  17.394  23.636  1.00  0.00     0.126 A 
ATOM     82  F   UNL A   1      34.420  16.172  23.508  1.00  0.00    -0.207 F 
ENDBRANCH  73  75
ENDBRANCH  68  70
ENDBRANCH  66  68
ENDBRANCH  59  62
ENDBRANCH  57  58
ENDBRANCH   1  57
TORSDOF 13
ENDMDL
MODEL 2
REMARK VINA RESULT:     -12.5      1.671      2.352
REMARK SMILES O=C(NCCCNC(=O)c1cccc(Nc2nc(-c3ccc(F)cc3F)cs2)c1)c1ccc(-c2c3nc(c(-c4ccccc4)c4ccc([nH]4)c(-c4ccccc4)c4nc(c(-c5ccccc5)c5ccc2[nH]5)C=C4)C=C3)cc1
REMARK SMILES IDX 5 1 4 2 3 3 1 4 2 5 30 7 31 8 77 9 32 10 76 11 33 12 34 13
REMARK SMILES IDX 35 14 70 15 36 16 75 17 69 18 71 19 37 20 74 21 68 22 67 23
REMARK SMILES IDX 38 25 60 26 45 27 59 28 46 29 49 30 58 31 72 32 47 33 48 34
REMARK SMILES IDX 57 36 73 37 50 38 39 39 40 40 44 41 41 42 43 43 42 44 61 45
REMARK SMILES IDX 62 46 66 47 63 48 65 49 64 50 51 51 52 52 56 53 53 54 55 55
REMARK SMILES IDX 54 56 6 57 7 58 8 59 9 61 10 62 11 63 29 64 12 65 14 66
REMARK SMILES IDX 13 67 15 68 16 70 17 71 28 72 18 73 27 74 19 75 20 76 25 77
REMARK SMILES IDX 21 78 24 79 26 80 22 81 23 82
REMARK H PARENT 3 6 71 24 49 35 7 60 15 69
REMARK Flexibility Score: inf
ROOT
ATOM      1  C   UNL A   1      31.488  31.650  26.838  1.00  0.00     0.042 C 
ENDROOT
BRANCH   1   2
ATOM      2  C   UNL A   1      32.714  32.548  26.923  1.00  0.00     0.118 C 
BRANCH   2   3
ATOM      3  N   UNL A   1      32.462  33.794  27.638  1.00  0.00    -0.352 N 
ATOM      4  O   UNL A   1      32.674  35.370  29.233  1.00  0.00    -0.269 OA
ATOM      5  C   UNL A   1      33.158  34.398  28.658  1.00  0.00     0.251 C 
ATOM      6  H   UNL A   1      31.661  34.283  27.342  1.00  0.00     0.163 HD
BRANCH   5   7
ATOM      7  C   UNL A   1      34.476  33.876  29.082  1.00  0.00     0.039 A 
ATOM      8  C   UNL A   1      35.638  34.255  28.414  1.00  0.00     0.014 A 
ATOM      9  C   UNL A   1      34.556  33.011  30.179  1.00  0.00     0.014 A 
ATOM     10  C   UNL A   1      36.839  33.627  28.708  1.00  0.00     0.010 A 
ATOM     11  C   UNL A   1      35.793  32.473  30.556  1.00  0.00     0.010 A 
ATOM     12  C   UNL A   1      36.941  32.747  29.799  1.00  0.00    -0.014 A 
BRANCH  12  13
ATOM     13  C   UNL A   1      38.282  32.207  30.144  1.00  0.00     0.031 A 
ATOM     14  C   UNL A   1      39.156  32.859  31.177  1.00  0.00     0.074 A 
ATOM     15  C   UNL A   1      38.667  31.051  29.564  1.00  0.00     0.049 A 
ATOM     16  N   UNL A   1      40.297  32.439  31.666  1.00  0.00    -0.248 NA
ATOM     17  C   UNL A   1      38.705  34.145  31.731  1.00  0.00     0.031 C 
ATOM     18  C   UNL A   1      37.912  30.335  28.531  1.00  0.00     0.029 A 
ATOM     19  N   UNL A   1      39.755  30.251  29.792  1.00  0.00    -0.354 N 
ATOM     20  C   UNL A   1      40.706  33.409  32.572  1.00  0.00     0.074 A 
ATOM     21  C   UNL A   1      39.706  34.456  32.545  1.00  0.00     0.031 C 
ATOM     22  C   UNL A   1      38.513  29.164  28.278  1.00  0.00     0.029 A 
ATOM     23  C   UNL A   1      39.731  29.080  29.074  1.00  0.00     0.049 A 
ATOM     24  H   UNL A   1      40.484  30.490  30.411  1.00  0.00     0.167 HD
ATOM     25  C   UNL A   1      41.809  33.424  33.359  1.00  0.00     0.031 A 
ATOM     26  C   UNL A   1      40.592  28.048  29.049  1.00  0.00     0.031 A 
ATOM     27  C   UNL A   1      42.804  32.383  33.383  1.00  0.00     0.049 A 
ATOM     28  C   UNL A   1      41.805  28.094  29.930  1.00  0.00     0.074 A 
ATOM     29  C   UNL A   1      43.956  32.307  34.149  1.00  0.00     0.029 A 
ATOM     30  N   UNL A   1      42.767  31.235  32.607  1.00  0.00    -0.354 N 
ATOM     31  N   UNL A   1      42.161  29.014  30.791  1.00  0.00    -0.248 NA
ATOM     32  C   UNL A   1      42.732  26.959  29.832  1.00  0.00     0.031 C 
ATOM     33  C   UNL A   1      44.635  31.133  33.806  1.00  0.00     0.029 A 
ATOM     34  C   UNL A   1      43.881  30.452  32.865  1.00  0.00     0.049 A 
ATOM     35  H   UNL A   1      42.054  31.008  31.967  1.00  0.00     0.167 HD
ATOM     36  C   UNL A   1      43.356  28.570  31.340  1.00  0.00     0.074 A 
ATOM     37  C   UNL A   1      43.638  27.280  30.743  1.00  0.00     0.031 C 
ATOM     38  C   UNL A   1      44.155  29.181  32.248  1.00  0.00     0.031 A 
BRANCH  25  39
ATOM     39  C   UNL A   1      42.011  34.615  34.255  1.00  0.00    -0.014 A 
ATOM     40  C   UNL A   1      42.679  35.761  33.798  1.00  0.00     0.009 A 
ATOM     41  C   UNL A   1      41.473  34.615  35.551  1.00  0.00     0.009 A 
ATOM     42  C   UNL A   1      42.825  36.875  34.631  1.00  0.00     0.001 A 
ATOM     43  C   UNL A   1      41.599  35.737  36.373  1.00  0.00     0.001 A 
ATOM     44  C   UNL A   1      42.281  36.864  35.914  1.00  0.00     0.000 A 
ENDBRANCH  25  39
BRANCH  26  45
ATOM     45  C   UNL A   1      40.346  26.899  28.141  1.00  0.00    -0.014 A 
ATOM     46  C   UNL A   1      40.881  26.877  26.844  1.00  0.00     0.009 A 
ATOM     47  C   UNL A   1      39.575  25.809  28.577  1.00  0.00     0.009 A 
ATOM     48  C   UNL A   1      40.629  25.796  25.996  1.00  0.00     0.001 A 
ATOM     49  C   UNL A   1      39.354  24.715  27.738  1.00  0.00     0.001 A 
ATOM     50  C   UNL A   1      39.871  24.715  26.446  1.00  0.00     0.000 A 
ENDBRANCH  26  45
BRANCH  38  51
ATOM     51  C   UNL A   1      45.403  28.448  32.646  1.00  0.00    -0.014 A 
ATOM     52  C   UNL A   1      46.608  28.643  31.953  1.00  0.00     0.009 A 
ATOM     53  C   UNL A   1      45.372  27.550  33.722  1.00  0.00     0.009 A 
ATOM     54  C   UNL A   1      47.748  27.918  32.304  1.00  0.00     0.001 A 
ATOM     55  C   UNL A   1      46.520  26.848  34.089  1.00  0.00     0.001 A 
ATOM     56  C   UNL A   1      47.704  27.023  33.372  1.00  0.00     0.000 A 
ENDBRANCH  38  51
ENDBRANCH  12  13
ENDBRANCH   5   7
ENDBRANCH   2   3
ENDBRANCH   1   2
BRANCH   1  57
ATOM     57  C   UNL A   1      31.816  30.198  26.530  1.00  0.00     0.118 C 
BRANCH  57  58
ATOM     58  N   UNL A   1      32.679  30.065  25.363  1.00  0.00    -0.352 N 
ATOM     59  C   UNL A   1      32.573  29.229  24.280  1.00  0.00     0.251 C 
ATOM     60  H   UNL A   1      33.458  30.667  25.351  1.00  0.00     0.163 HD
ATOM     61  O   UNL A   1      33.526  29.088  23.521  1.00  0.00    -0.269 OA
BRANCH  59  62
ATOM     62  C   UNL A   1      31.319  28.492  24.031  1.00  0.00     0.041 A 
ATOM     63  C   UNL A   1      30.233  29.171  23.479  1.00  0.00     0.014 A 
ATOM     64  C   UNL A   1      31.201  27.144  24.388  1.00  0.00     0.040 A 
ATOM     65  C   UNL A   1      29.062  28.472  23.204  1.00  0.00     0.003 A 
ATOM     66  C   UNL A   1      30.032  26.424  24.110  1.00  0.00     0.041 A 
ATOM     67  C   UNL A   1      28.978  27.104  23.489  1.00  0.00     0.026 A 
BRANCH  66  68
ATOM     68  N   UNL A   1      29.997  25.056  24.426  1.00  0.00    -0.332 N 
ATOM     69  H   UNL A   1      29.185  24.570  24.153  1.00  0.00     0.169 HD
BRANCH  68  70
ATOM     70  C   UNL A   1      30.941  24.323  25.060  1.00  0.00     0.187 A 
ATOM     71  N   UNL A   1      32.169  24.087  24.651  1.00  0.00    -0.220 NA
ATOM     72  S   UNL A   1      30.551  23.624  26.594  1.00  0.00    -0.105 S 
ATOM     73  C   UNL A   1      32.849  23.329  25.581  1.00  0.00     0.086 A 
ATOM     74  C   UNL A   1      32.110  22.927  26.674  1.00  0.00     0.097 A 
BRANCH  73  75
ATOM     75  C   UNL A   1      34.246  22.992  25.418  1.00  0.00     0.037 A 
ATOM     76  C   UNL A   1      35.239  23.960  25.621  1.00  0.00     0.016 A 
ATOM     77  C   UNL A   1      34.617  21.702  25.021  1.00  0.00     0.135 A 
ATOM     78  C   UNL A   1      36.582  23.631  25.414  1.00  0.00     0.040 A 
ATOM     79  C   UNL A   1      35.952  21.372  24.813  1.00  0.00     0.079 A 
ATOM     80  F   UNL A   1      33.686  20.762  24.797  1.00  0.00    -0.206 F 
ATOM     81  C   UNL A   1      36.923  22.344  25.010  1.00  0.00     0.126 A 
ATOM     82  F   UNL A   1      38.210  22.041  24.800  1.00  0.00    -0.207 F 
ENDBRANCH  73  75
ENDBRANCH  68  70
ENDBRANCH  66  68
ENDBRANCH  59  62
ENDBRANCH  57  58
ENDBRANCH   1  57
TORSDOF 13
ENDMDL
MODEL 3
REMARK VINA RESULT:     -12.5      4.174      9.279
REMARK SMILES O=C(NCCCNC(=O)c1cccc(Nc2nc(-c3ccc(F)cc3F)cs2)c1)c1ccc(-c2c3nc(c(-c4ccccc4)c4ccc([nH]4)c(-c4ccccc4)c4nc(c(-c5ccccc5)c5ccc2[nH]5)C=C4)C=C3)cc1
REMARK SMILES IDX 5 1 4 2 3 3 1 4 2 5 30 7 31 8 77 9 32 10 76 11 33 12 34 13
REMARK SMILES IDX 35 14 70 15 36 16 75 17 69 18 71 19 37 20 74 21 68 22 67 23
REMARK SMILES IDX 38 25 60 26 45 27 59 28 46 29 49 30 58 31 72 32 47 33 48 34
REMARK SMILES IDX 57 36 73 37 50 38 39 39 40 40 44 41 41 42 43 43 42 44 61 45
REMARK SMILES IDX 62 46 66 47 63 48 65 49 64 50 51 51 52 52 56 53 53 54 55 55
REMARK SMILES IDX 54 56 6 57 7 58 8 59 9 61 10 62 11 63 29 64 12 65 14 66
REMARK SMILES IDX 13 67 15 68 16 70 17 71 28 72 18 73 27 74 19 75 20 76 25 77
REMARK SMILES IDX 21 78 24 79 26 80 22 81 23 82
REMARK H PARENT 3 6 71 24 49 35 7 60 15 69
REMARK Flexibility Score: inf
ROOT
ATOM      1  C   UNL A   1      38.067  19.996  24.700  1.00  0.00     0.042 C 
ENDROOT
BRANCH   1   2
ATOM      2  C   UNL A   1      38.938  20.085  25.944  1.00  0.00     0.118 C 
BRANCH   2   3
ATOM      3  N   UNL A   1      40.131  19.248  25.869  1.00  0.00    -0.352 N 
ATOM      4  O   UNL A   1      42.322  18.730  25.801  1.00  0.00    -0.269 OA
ATOM      5  C   UNL A   1      41.454  19.552  26.085  1.00  0.00     0.251 C 
ATOM      6  H   UNL A   1      39.960  18.311  25.622  1.00  0.00     0.163 HD
BRANCH   5   7
ATOM      7  C   UNL A   1      41.843  20.869  26.637  1.00  0.00     0.039 A 
ATOM      8  C   UNL A   1      41.945  21.059  28.012  1.00  0.00     0.014 A 
ATOM      9  C   UNL A   1      42.132  21.925  25.766  1.00  0.00     0.014 A 
ATOM     10  C   UNL A   1      42.140  22.336  28.520  1.00  0.00     0.010 A 
ATOM     11  C   UNL A   1      42.453  23.188  26.279  1.00  0.00     0.010 A 
ATOM     12  C   UNL A   1      42.422  23.414  27.663  1.00  0.00    -0.014 A 
BRANCH  12  13
ATOM     13  C   UNL A   1      42.749  24.729  28.272  1.00  0.00     0.031 A 
ATOM     14  C   UNL A   1      44.164  25.130  28.577  1.00  0.00     0.074 A 
ATOM     15  C   UNL A   1      41.742  25.605  28.468  1.00  0.00     0.049 A 
ATOM     16  N   UNL A   1      44.615  26.286  29.001  1.00  0.00    -0.248 NA
ATOM     17  C   UNL A   1      45.210  24.111  28.395  1.00  0.00     0.031 C 
ATOM     18  C   UNL A   1      40.323  25.323  28.228  1.00  0.00     0.029 A 
ATOM     19  N   UNL A   1      41.756  26.917  28.861  1.00  0.00    -0.354 N 
ATOM     20  C   UNL A   1      45.987  26.132  29.146  1.00  0.00     0.074 A 
ATOM     21  C   UNL A   1      46.296  24.761  28.795  1.00  0.00     0.031 C 
ATOM     22  C   UNL A   1      39.615  26.448  28.395  1.00  0.00     0.029 A 
ATOM     23  C   UNL A   1      40.517  27.510  28.824  1.00  0.00     0.049 A 
ATOM     24  H   UNL A   1      42.573  27.389  29.142  1.00  0.00     0.167 HD
ATOM     25  C   UNL A   1      46.908  27.049  29.530  1.00  0.00     0.031 A 
ATOM     26  C   UNL A   1      40.138  28.769  29.107  1.00  0.00     0.031 A 
ATOM     27  C   UNL A   1      46.599  28.412  29.882  1.00  0.00     0.049 A 
ATOM     28  C   UNL A   1      41.179  29.761  29.531  1.00  0.00     0.074 A 
ATOM     29  C   UNL A   1      47.464  29.417  30.281  1.00  0.00     0.029 A 
ATOM     30  N   UNL A   1      45.326  28.962  29.876  1.00  0.00    -0.354 N 
ATOM     31  N   UNL A   1      42.474  29.598  29.644  1.00  0.00    -0.248 NA
ATOM     32  C   UNL A   1      40.703  31.109  29.866  1.00  0.00     0.031 C 
ATOM     33  C   UNL A   1      46.709  30.563  30.556  1.00  0.00     0.029 A 
ATOM     34  C   UNL A   1      45.380  30.287  30.278  1.00  0.00     0.049 A 
ATOM     35  H   UNL A   1      44.505  28.482  29.623  1.00  0.00     0.167 HD
ATOM     36  C   UNL A   1      42.970  30.823  30.064  1.00  0.00     0.074 A 
ATOM     37  C   UNL A   1      41.841  31.728  30.145  1.00  0.00     0.031 C 
ATOM     38  C   UNL A   1      44.245  31.166  30.370  1.00  0.00     0.031 A 
BRANCH  25  39
ATOM     39  C   UNL A   1      48.343  26.608  29.606  1.00  0.00    -0.014 A 
ATOM     40  C   UNL A   1      48.867  26.042  30.779  1.00  0.00     0.009 A 
ATOM     41  C   UNL A   1      49.166  26.703  28.474  1.00  0.00     0.009 A 
ATOM     42  C   UNL A   1      50.193  25.601  30.822  1.00  0.00     0.001 A 
ATOM     43  C   UNL A   1      50.483  26.241  28.511  1.00  0.00     0.001 A 
ATOM     44  C   UNL A   1      50.997  25.696  29.687  1.00  0.00     0.000 A 
ENDBRANCH  25  39
BRANCH  26  45
ATOM     45  C   UNL A   1      38.705  29.148  29.019  1.00  0.00    -0.014 A 
ATOM     46  C   UNL A   1      38.145  29.577  27.806  1.00  0.00     0.009 A 
ATOM     47  C   UNL A   1      37.885  29.072  30.157  1.00  0.00     0.009 A 
ATOM     48  C   UNL A   1      36.799  29.944  27.742  1.00  0.00     0.001 A 
ATOM     49  C   UNL A   1      36.532  29.408  30.081  1.00  0.00     0.001 A 
ATOM     50  C   UNL A   1      35.993  29.853  28.877  1.00  0.00     0.000 A 
ENDBRANCH  26  45
BRANCH  38  51
ATOM     51  C   UNL A   1      44.473  32.583  30.810  1.00  0.00    -0.014 A 
ATOM     52  C   UNL A   1      44.414  32.937  32.168  1.00  0.00     0.009 A 
ATOM     53  C   UNL A   1      44.745  33.576  29.858  1.00  0.00     0.009 A 
ATOM     54  C   UNL A   1      44.580  34.266  32.558  1.00  0.00     0.001 A 
ATOM     55  C   UNL A   1      44.938  34.899  30.253  1.00  0.00     0.001 A 
ATOM     56  C   UNL A   1      44.844  35.245  31.601  1.00  0.00     0.000 A 
ENDBRANCH  38  51
ENDBRANCH  12  13
ENDBRANCH   5   7
ENDBRANCH   2   3
ENDBRANCH   1   2
BRANCH   1  57
ATOM     57  C   UNL A   1      37.068  21.136  24.573  1.00  0.00     0.118 C 
BRANCH  57  58
ATOM     58  N   UNL A   1      36.377  21.401  25.828  1.00  0.00    -0.352 N 
ATOM     59  C   UNL A   1      35.044  21.624  26.069  1.00  0.00     0.251 C 
ATOM     60  H   UNL A   1      36.955  21.426  26.625  1.00  0.00     0.163 HD
ATOM     61  O   UNL A   1      34.685  22.075  27.152  1.00  0.00    -0.269 OA
BRANCH  59  62
ATOM     62  C   UNL A   1      34.041  21.333  25.026  1.00  0.00     0.041 A 
ATOM     63  C   UNL A   1      33.722  20.004  24.747  1.00  0.00     0.014 A 
ATOM     64  C   UNL A   1      33.455  22.369  24.291  1.00  0.00     0.040 A 
ATOM     65  C   UNL A   1      32.748  19.724  23.794  1.00  0.00     0.003 A 
ATOM     66  C   UNL A   1      32.467  22.105  23.334  1.00  0.00     0.041 A 
ATOM     67  C   UNL A   1      32.107  20.769  23.119  1.00  0.00     0.026 A 
BRANCH  66  68
ATOM     68  N   UNL A   1      31.862  23.190  22.678  1.00  0.00    -0.332 N 
ATOM     69  H   UNL A   1      31.130  22.966  22.058  1.00  0.00     0.169 HD
BRANCH  68  70
ATOM     70  C   UNL A   1      32.161  24.503  22.792  1.00  0.00     0.187 A 
ATOM     71  N   UNL A   1      32.096  25.240  23.880  1.00  0.00    -0.220 NA
ATOM     72  S   UNL A   1      32.726  25.346  21.391  1.00  0.00    -0.105 S 
ATOM     73  C   UNL A   1      32.515  26.528  23.616  1.00  0.00     0.086 A 
ATOM     74  C   UNL A   1      32.835  26.790  22.301  1.00  0.00     0.097 A 
BRANCH  73  75
ATOM     75  C   UNL A   1      32.618  27.526  24.658  1.00  0.00     0.037 A 
ATOM     76  C   UNL A   1      33.650  27.464  25.603  1.00  0.00     0.016 A 
ATOM     77  C   UNL A   1      31.664  28.546  24.750  1.00  0.00     0.135 A 
ATOM     78  C   UNL A   1      33.709  28.409  26.631  1.00  0.00     0.040 A 
ATOM     79  C   UNL A   1      31.719  29.489  25.772  1.00  0.00     0.079 A 
ATOM     80  F   UNL A   1      30.652  28.618  23.872  1.00  0.00    -0.206 F 
ATOM     81  C   UNL A   1      32.743  29.408  26.706  1.00  0.00     0.126 A 
ATOM     82  F   UNL A   1      32.797  30.301  27.702  1.00  0.00    -0.207 F 
ENDBRANCH  73  75
ENDBRANCH  68  70
ENDBRANCH  66  68
ENDBRANCH  59  62
ENDBRANCH  57  58
ENDBRANCH   1  57
TORSDOF 13
ENDMDL
