MODEL 1
REMARK VINA RESULT:     -11.5      0.000      0.000
REMARK SMILES C[C@@H](C(=O)NCCCNC(=O)c1ccc(-c2c3nc(c(-c4ccccc4)c4ccc([nH]4)c(-c4ccccc4)c4nc(c(-c5ccccc5)c5ccc2[nH]5)C=C4)C=C3)cc1)c1cc(C(=O)c2ccccc2)ccc1O
REMARK SMILES IDX 6 1 5 2 3 3 4 4 2 6 1 7 60 8 61 9 73 10 62 11 72 12 71 13
REMARK SMILES IDX 74 14 63 16 64 17 65 18 66 19 70 20 67 21 69 22 68 23 7 24
REMARK SMILES IDX 8 25 9 26 10 27 11 29 12 30 13 31 59 32 14 33 58 34 15 35
REMARK SMILES IDX 16 36 17 37 52 38 18 39 57 40 51 41 53 42 19 43 56 44 50 45
REMARK SMILES IDX 49 46 20 48 42 49 27 50 41 51 28 52 31 53 40 54 54 55 29 56
REMARK SMILES IDX 30 57 39 59 55 60 32 61 21 62 22 63 26 64 23 65 25 66 24 67
REMARK SMILES IDX 43 68 44 69 48 70 45 71 47 72 46 73 33 74 34 75 38 76 35 77
REMARK SMILES IDX 37 78 36 79
REMARK H PARENT 5 5 74 15 9 28 53 47 31 58
REMARK Flexibility Score: inf
ROOT
ATOM      1  C   UNL A   1      30.695  31.309  24.923  1.00  0.00     0.117 C 
ENDROOT
BRANCH   1   2
ATOM      2  N   UNL A   1      29.394  31.812  24.529  1.00  0.00    -0.356 N 
ATOM      3  C   UNL A   1      28.598  31.498  23.466  1.00  0.00     0.227 C 
ATOM      4  O   UNL A   1      27.543  32.128  23.379  1.00  0.00    -0.274 OA
ATOM      5  H   UNL A   1      29.022  32.497  25.130  1.00  0.00     0.163 HD
BRANCH   3   6
ATOM      6  C   UNL A   1      29.025  30.392  22.486  1.00  0.00     0.109 C 
ATOM      7  C   UNL A   1      28.222  30.431  21.183  1.00  0.00     0.023 C 
BRANCH   6   8
ATOM      8  C   UNL A   1      28.947  28.982  23.065  1.00  0.00     0.007 A 
ATOM      9  C   UNL A   1      30.109  28.378  23.592  1.00  0.00     0.020 A 
ATOM     10  C   UNL A   1      27.751  28.256  23.146  1.00  0.00     0.119 A 
ATOM     11  C   UNL A   1      30.091  27.086  24.134  1.00  0.00     0.023 A 
ATOM     12  C   UNL A   1      27.718  26.976  23.701  1.00  0.00     0.047 A 
ATOM     13  C   UNL A   1      28.880  26.394  24.207  1.00  0.00     0.016 A 
BRANCH  10  14
ATOM     14  O   UNL A   1      26.544  28.732  22.720  1.00  0.00    -0.508 OA
ATOM     15  H   UNL A   1      25.826  28.144  22.593  1.00  0.00     0.293 HD
ENDBRANCH  10  14
BRANCH  11  16
ATOM     16  C   UNL A   1      31.366  26.525  24.663  1.00  0.00     0.193 C 
ATOM     17  O   UNL A   1      31.720  25.397  24.326  1.00  0.00    -0.289 OA
BRANCH  16  18
ATOM     18  C   UNL A   1      32.250  27.310  25.556  1.00  0.00     0.022 A 
ATOM     19  C   UNL A   1      31.742  27.716  26.795  1.00  0.00     0.012 A 
ATOM     20  C   UNL A   1      33.555  27.658  25.186  1.00  0.00     0.012 A 
ATOM     21  C   UNL A   1      32.556  28.417  27.686  1.00  0.00     0.001 A 
ATOM     22  C   UNL A   1      34.367  28.354  26.083  1.00  0.00     0.001 A 
ATOM     23  C   UNL A   1      33.870  28.725  27.334  1.00  0.00     0.000 A 
ENDBRANCH  16  18
ENDBRANCH  11  16
ENDBRANCH   6   8
ENDBRANCH   3   6
ENDBRANCH   1   2
BRANCH   1  24
ATOM     24  C   UNL A   1      30.953  31.517  26.412  1.00  0.00     0.042 C 
BRANCH  24  25
ATOM     25  C   UNL A   1      32.294  32.174  26.723  1.00  0.00     0.118 C 
BRANCH  25  26
ATOM     26  N   UNL A   1      32.151  33.515  27.272  1.00  0.00    -0.352 N 
ATOM     27  C   UNL A   1      32.949  34.174  28.176  1.00  0.00     0.251 C 
ATOM     28  H   UNL A   1      31.371  34.022  26.950  1.00  0.00     0.163 HD
ATOM     29  O   UNL A   1      32.586  35.241  28.660  1.00  0.00    -0.269 OA
BRANCH  27  30
ATOM     30  C   UNL A   1      34.239  33.579  28.580  1.00  0.00     0.039 A 
ATOM     31  C   UNL A   1      35.400  33.929  27.885  1.00  0.00     0.014 A 
ATOM     32  C   UNL A   1      34.300  32.689  29.655  1.00  0.00     0.014 A 
ATOM     33  C   UNL A   1      36.637  33.447  28.318  1.00  0.00     0.010 A 
ATOM     34  C   UNL A   1      35.537  32.270  30.129  1.00  0.00     0.010 A 
ATOM     35  C   UNL A   1      36.717  32.644  29.465  1.00  0.00    -0.014 A 
BRANCH  35  36
ATOM     36  C   UNL A   1      38.012  32.161  30.005  1.00  0.00     0.031 A 
ATOM     37  C   UNL A   1      38.596  30.877  29.490  1.00  0.00     0.074 A 
ATOM     38  C   UNL A   1      38.594  32.802  31.036  1.00  0.00     0.049 A 
ATOM     39  N   UNL A   1      39.602  30.180  29.953  1.00  0.00    -0.248 NA
ATOM     40  C   UNL A   1      37.934  30.280  28.319  1.00  0.00     0.031 C 
ATOM     41  C   UNL A   1      38.112  34.042  31.647  1.00  0.00     0.029 A 
ATOM     42  N   UNL A   1      39.703  32.474  31.775  1.00  0.00    -0.354 N 
ATOM     43  C   UNL A   1      39.666  29.044  29.156  1.00  0.00     0.074 A 
ATOM     44  C   UNL A   1      38.577  29.129  28.207  1.00  0.00     0.031 C 
ATOM     45  C   UNL A   1      38.919  34.369  32.668  1.00  0.00     0.029 A 
ATOM     46  C   UNL A   1      39.943  33.339  32.815  1.00  0.00     0.049 A 
ATOM     47  H   UNL A   1      40.271  31.695  31.579  1.00  0.00     0.167 HD
ATOM     48  C   UNL A   1      40.558  28.026  29.203  1.00  0.00     0.031 A 
ATOM     49  C   UNL A   1      40.865  33.294  33.796  1.00  0.00     0.031 A 
ATOM     50  C   UNL A   1      41.646  27.951  30.140  1.00  0.00     0.049 A 
ATOM     51  C   UNL A   1      41.844  32.154  33.837  1.00  0.00     0.074 A 
ATOM     52  C   UNL A   1      42.641  26.994  30.232  1.00  0.00     0.029 A 
ATOM     53  N   UNL A   1      41.879  28.872  31.150  1.00  0.00    -0.354 N 
ATOM     54  N   UNL A   1      41.928  31.113  33.045  1.00  0.00    -0.248 NA
ATOM     55  C   UNL A   1      42.856  32.186  34.902  1.00  0.00     0.031 C 
ATOM     56  C   UNL A   1      43.448  27.309  31.330  1.00  0.00     0.029 A 
ATOM     57  C   UNL A   1      42.990  28.494  31.885  1.00  0.00     0.049 A 
ATOM     58  H   UNL A   1      41.335  29.675  31.321  1.00  0.00     0.167 HD
ATOM     59  C   UNL A   1      43.020  30.382  33.494  1.00  0.00     0.074 A 
ATOM     60  C   UNL A   1      43.567  31.099  34.627  1.00  0.00     0.031 C 
ATOM     61  C   UNL A   1      43.526  29.223  33.006  1.00  0.00     0.031 A 
BRANCH  48  62
ATOM     62  C   UNL A   1      40.367  26.902  28.223  1.00  0.00    -0.014 A 
ATOM     63  C   UNL A   1      39.601  25.770  28.548  1.00  0.00     0.009 A 
ATOM     64  C   UNL A   1      40.966  26.973  26.957  1.00  0.00     0.009 A 
ATOM     65  C   UNL A   1      39.486  24.710  27.646  1.00  0.00     0.001 A 
ATOM     66  C   UNL A   1      40.822  25.926  26.044  1.00  0.00     0.001 A 
ATOM     67  C   UNL A   1      40.096  24.789  26.395  1.00  0.00     0.000 A 
ENDBRANCH  48  62
BRANCH  49  68
ATOM     68  C   UNL A   1      40.900  34.373  34.816  1.00  0.00    -0.014 A 
ATOM     69  C   UNL A   1      41.581  35.572  34.559  1.00  0.00     0.009 A 
ATOM     70  C   UNL A   1      40.221  34.225  36.036  1.00  0.00     0.009 A 
ATOM     71  C   UNL A   1      41.590  36.597  35.509  1.00  0.00     0.001 A 
ATOM     72  C   UNL A   1      40.211  35.260  36.972  1.00  0.00     0.001 A 
ATOM     73  C   UNL A   1      40.899  36.443  36.710  1.00  0.00     0.000 A 
ENDBRANCH  49  68
BRANCH  61  74
ATOM     74  C   UNL A   1      44.762  28.675  33.659  1.00  0.00    -0.014 A 
ATOM     75  C   UNL A   1      46.041  29.121  33.294  1.00  0.00     0.009 A 
ATOM     76  C   UNL A   1      44.635  27.754  34.712  1.00  0.00     0.009 A 
ATOM     77  C   UNL A   1      47.170  28.642  33.963  1.00  0.00     0.001 A 
ATOM     78  C   UNL A   1      45.763  27.297  35.395  1.00  0.00     0.001 A 
ATOM     79  C   UNL A   1      47.030  27.738  35.016  1.00  0.00     0.000 A 
ENDBRANCH  61  74
ENDBRANCH  35  36
ENDBRANCH  27  30
ENDBRANCH  25  26
ENDBRANCH  24  25
ENDBRANCH   1  24
TORSDOF 14
ENDMDL
MODEL 2
REMARK VINA RESULT:     -11.5      4.362      8.296
REMARK SMILES C[C@@H](C(=O)NCCCNC(=O)c1ccc(-c2c3nc(c(-c4ccccc4)c4ccc([nH]4)c(-c4ccccc4)c4nc(c(-c5ccccc5)c5ccc2[nH]5)C=C4)C=C3)cc1)c1cc(C(=O)c2ccccc2)ccc1O
REMARK SMILES IDX 6 1 5 2 3 3 4 4 2 6 1 7 60 8 61 9 73 10 62 11 72 12 71 13
REMARK SMILES IDX 74 14 63 16 64 17 65 18 66 19 70 20 67 21 69 22 68 23 7 24
REMARK SMILES IDX 8 25 9 26 10 27 11 29 12 30 13 31 59 32 14 33 58 34 15 35
REMARK SMILES IDX 16 36 17 37 52 38 18 39 57 40 51 41 53 42 19 43 56 44 50 45
REMARK SMILES IDX 49 46 20 48 42 49 27 50 41 51 28 52 31 53 40 54 54 55 29 56
REMARK SMILES IDX 30 57 39 59 55 60 32 61 21 62 22 63 26 64 23 65 25 66 24 67
REMARK SMILES IDX 43 68 44 69 48 70 45 71 47 72 46 73 33 74 34 75 38 76 35 77
REMARK SMILES IDX 37 78 36 79
REMARK H PARENT 5 5 74 15 9 28 53 47 31 58
REMARK Flexibility Score: inf
ROOT
ATOM      1  C   UNL A   1      32.800  27.926  24.780  1.00  0.00     0.117 C 
ENDROOT
BRANCH   1   2
ATOM      2  N   UNL A   1      33.275  27.220  23.608  1.00  0.00    -0.356 N 
ATOM      3  C   UNL A   1      33.588  25.905  23.421  1.00  0.00     0.227 C 
ATOM      4  O   UNL A   1      34.004  25.604  22.302  1.00  0.00    -0.274 OA
ATOM      5  H   UNL A   1      33.392  27.785  22.810  1.00  0.00     0.163 HD
BRANCH   3   6
ATOM      6  C   UNL A   1      33.384  24.896  24.565  1.00  0.00     0.109 C 
ATOM      7  C   UNL A   1      34.599  24.817  25.492  1.00  0.00     0.023 C 
BRANCH   6   8
ATOM      8  C   UNL A   1      33.034  23.486  24.096  1.00  0.00     0.007 A 
ATOM      9  C   UNL A   1      33.774  22.386  24.579  1.00  0.00     0.020 A 
ATOM     10  C   UNL A   1      31.966  23.214  23.230  1.00  0.00     0.119 A 
ATOM     11  C   UNL A   1      33.494  21.072  24.179  1.00  0.00     0.023 A 
ATOM     12  C   UNL A   1      31.666  21.908  22.840  1.00  0.00     0.047 A 
ATOM     13  C   UNL A   1      32.417  20.837  23.321  1.00  0.00     0.016 A 
BRANCH  10  14
ATOM     14  O   UNL A   1      31.137  24.174  22.723  1.00  0.00    -0.508 OA
ATOM     15  H   UNL A   1      31.053  24.998  23.160  1.00  0.00     0.293 HD
ENDBRANCH  10  14
BRANCH  11  16
ATOM     16  C   UNL A   1      34.330  19.972  24.734  1.00  0.00     0.193 C 
ATOM     17  O   UNL A   1      35.438  20.226  25.201  1.00  0.00    -0.289 OA
BRANCH  16  18
ATOM     18  C   UNL A   1      33.843  18.573  24.782  1.00  0.00     0.022 A 
ATOM     19  C   UNL A   1      34.409  17.647  23.900  1.00  0.00     0.012 A 
ATOM     20  C   UNL A   1      32.837  18.170  25.669  1.00  0.00     0.012 A 
ATOM     21  C   UNL A   1      34.014  16.310  23.944  1.00  0.00     0.001 A 
ATOM     22  C   UNL A   1      32.449  16.830  25.713  1.00  0.00     0.001 A 
ATOM     23  C   UNL A   1      33.043  15.900  24.858  1.00  0.00     0.000 A 
ENDBRANCH  16  18
ENDBRANCH  11  16
ENDBRANCH   6   8
ENDBRANCH   3   6
ENDBRANCH   1   2
BRANCH   1  24
ATOM     24  C   UNL A   1      33.947  28.547  25.570  1.00  0.00     0.042 C 
BRANCH  24  25
ATOM     25  C   UNL A   1      33.665  28.697  27.061  1.00  0.00     0.118 C 
BRANCH  25  26
ATOM     26  N   UNL A   1      33.673  30.086  27.499  1.00  0.00    -0.352 N 
ATOM     27  C   UNL A   1      34.643  30.775  28.186  1.00  0.00     0.251 C 
ATOM     28  H   UNL A   1      32.868  30.606  27.271  1.00  0.00     0.163 HD
ATOM     29  O   UNL A   1      34.413  31.897  28.624  1.00  0.00    -0.269 OA
BRANCH  27  30
ATOM     30  C   UNL A   1      35.961  30.148  28.414  1.00  0.00     0.039 A 
ATOM     31  C   UNL A   1      36.930  30.211  27.410  1.00  0.00     0.014 A 
ATOM     32  C   UNL A   1      36.240  29.513  29.627  1.00  0.00     0.014 A 
ATOM     33  C   UNL A   1      38.209  29.704  27.650  1.00  0.00     0.010 A 
ATOM     34  C   UNL A   1      37.532  29.077  29.891  1.00  0.00     0.010 A 
ATOM     35  C   UNL A   1      38.529  29.168  28.906  1.00  0.00    -0.014 A 
BRANCH  35  36
ATOM     36  C   UNL A   1      39.891  28.678  29.234  1.00  0.00     0.031 A 
ATOM     37  C   UNL A   1      40.892  29.622  29.836  1.00  0.00     0.074 A 
ATOM     38  C   UNL A   1      40.263  27.434  28.878  1.00  0.00     0.049 A 
ATOM     39  N   UNL A   1      42.177  29.461  30.017  1.00  0.00    -0.248 NA
ATOM     40  C   UNL A   1      40.382  30.937  30.255  1.00  0.00     0.031 C 
ATOM     41  C   UNL A   1      39.396  26.431  28.259  1.00  0.00     0.029 A 
ATOM     42  N   UNL A   1      41.487  26.817  28.955  1.00  0.00    -0.354 N 
ATOM     43  C   UNL A   1      42.635  30.667  30.532  1.00  0.00     0.074 A 
ATOM     44  C   UNL A   1      41.498  31.558  30.599  1.00  0.00     0.031 C 
ATOM     45  C   UNL A   1      40.114  25.324  28.012  1.00  0.00     0.029 A 
ATOM     46  C   UNL A   1      41.500  25.557  28.408  1.00  0.00     0.049 A 
ATOM     47  H   UNL A   1      42.278  27.235  29.363  1.00  0.00     0.167 HD
ATOM     48  C   UNL A   1      43.888  30.998  30.924  1.00  0.00     0.031 A 
ATOM     49  C   UNL A   1      42.517  24.695  28.217  1.00  0.00     0.031 A 
ATOM     50  C   UNL A   1      45.014  30.105  30.867  1.00  0.00     0.049 A 
ATOM     51  C   UNL A   1      43.903  25.082  28.652  1.00  0.00     0.074 A 
ATOM     52  C   UNL A   1      46.311  30.323  31.295  1.00  0.00     0.029 A 
ATOM     53  N   UNL A   1      44.973  28.821  30.344  1.00  0.00    -0.354 N 
ATOM     54  N   UNL A   1      44.313  26.206  29.188  1.00  0.00    -0.248 NA
ATOM     55  C   UNL A   1      44.962  24.081  28.463  1.00  0.00     0.031 C 
ATOM     56  C   UNL A   1      47.068  29.189  30.987  1.00  0.00     0.029 A 
ATOM     57  C   UNL A   1      46.228  28.242  30.420  1.00  0.00     0.049 A 
ATOM     58  H   UNL A   1      44.171  28.386  29.974  1.00  0.00     0.167 HD
ATOM     59  C   UNL A   1      45.670  26.038  29.429  1.00  0.00     0.074 A 
ATOM     60  C   UNL A   1      46.013  24.703  28.983  1.00  0.00     0.031 C 
ATOM     61  C   UNL A   1      46.551  26.910  29.977  1.00  0.00     0.031 A 
BRANCH  48  62
ATOM     62  C   UNL A   1      44.101  32.401  31.423  1.00  0.00    -0.014 A 
ATOM     63  C   UNL A   1      43.968  32.722  32.784  1.00  0.00     0.009 A 
ATOM     64  C   UNL A   1      44.433  33.419  30.516  1.00  0.00     0.009 A 
ATOM     65  C   UNL A   1      44.109  34.042  33.217  1.00  0.00     0.001 A 
ATOM     66  C   UNL A   1      44.608  34.732  30.957  1.00  0.00     0.001 A 
ATOM     67  C   UNL A   1      44.430  35.045  32.304  1.00  0.00     0.000 A 
ENDBRANCH  48  62
BRANCH  49  68
ATOM     68  C   UNL A   1      42.251  23.379  27.584  1.00  0.00    -0.014 A 
ATOM     69  C   UNL A   1      41.774  22.305  28.351  1.00  0.00     0.009 A 
ATOM     70  C   UNL A   1      42.435  23.199  26.204  1.00  0.00     0.009 A 
ATOM     71  C   UNL A   1      41.498  21.074  27.749  1.00  0.00     0.001 A 
ATOM     72  C   UNL A   1      42.134  21.976  25.601  1.00  0.00     0.001 A 
ATOM     73  C   UNL A   1      41.671  20.914  26.375  1.00  0.00     0.000 A 
ENDBRANCH  49  68
BRANCH  61  74
ATOM     74  C   UNL A   1      47.964  26.441  30.173  1.00  0.00    -0.014 A 
ATOM     75  C   UNL A   1      48.372  25.827  31.366  1.00  0.00     0.009 A 
ATOM     76  C   UNL A   1      48.879  26.546  29.113  1.00  0.00     0.009 A 
ATOM     77  C   UNL A   1      49.675  25.341  31.498  1.00  0.00     0.001 A 
ATOM     78  C   UNL A   1      50.171  26.036  29.237  1.00  0.00     0.001 A 
ATOM     79  C   UNL A   1      50.570  25.439  30.432  1.00  0.00     0.000 A 
ENDBRANCH  61  74
ENDBRANCH  35  36
ENDBRANCH  27  30
ENDBRANCH  25  26
ENDBRANCH  24  25
ENDBRANCH   1  24
TORSDOF 14
ENDMDL
MODEL 3
REMARK VINA RESULT:     -11.5      4.195      9.020
REMARK SMILES C[C@@H](C(=O)NCCCNC(=O)c1ccc(-c2c3nc(c(-c4ccccc4)c4ccc([nH]4)c(-c4ccccc4)c4nc(c(-c5ccccc5)c5ccc2[nH]5)C=C4)C=C3)cc1)c1cc(C(=O)c2ccccc2)ccc1O
REMARK SMILES IDX 6 1 5 2 3 3 4 4 2 6 1 7 60 8 61 9 73 10 62 11 72 12 71 13
REMARK SMILES IDX 74 14 63 16 64 17 65 18 66 19 70 20 67 21 69 22 68 23 7 24
REMARK SMILES IDX 8 25 9 26 10 27 11 29 12 30 13 31 59 32 14 33 58 34 15 35
REMARK SMILES IDX 16 36 17 37 52 38 18 39 57 40 51 41 53 42 19 43 56 44 50 45
REMARK SMILES IDX 49 46 20 48 42 49 27 50 41 51 28 52 31 53 40 54 54 55 29 56
REMARK SMILES IDX 30 57 39 59 55 60 32 61 21 62 22 63 26 64 23 65 25 66 24 67
REMARK SMILES IDX 43 68 44 69 48 70 45 71 47 72 46 73 33 74 34 75 38 76 35 77
REMARK SMILES IDX 37 78 36 79
REMARK H PARENT 5 5 74 15 9 28 53 47 31 58
REMARK Flexibility Score: inf
ROOT
ATOM      1  C   UNL A   1      35.774  21.517  25.367  1.00  0.00     0.117 C 
ENDROOT
BRANCH   1   2
ATOM      2  N   UNL A   1      35.717  22.663  24.482  1.00  0.00    -0.356 N 
ATOM      3  C   UNL A   1      34.728  23.106  23.653  1.00  0.00     0.227 C 
ATOM      4  O   UNL A   1      34.990  24.110  22.990  1.00  0.00    -0.274 OA
ATOM      5  H   UNL A   1      36.532  23.217  24.479  1.00  0.00     0.163 HD
BRANCH   3   6
ATOM      6  C   UNL A   1      33.375  22.375  23.613  1.00  0.00     0.109 C 
ATOM      7  C   UNL A   1      32.682  22.513  22.254  1.00  0.00     0.023 C 
BRANCH   6   8
ATOM      8  C   UNL A   1      32.400  22.809  24.704  1.00  0.00     0.007 A 
ATOM      9  C   UNL A   1      32.185  24.184  24.943  1.00  0.00     0.020 A 
ATOM     10  C   UNL A   1      31.657  21.899  25.469  1.00  0.00     0.119 A 
ATOM     11  C   UNL A   1      31.302  24.634  25.933  1.00  0.00     0.023 A 
ATOM     12  C   UNL A   1      30.761  22.337  26.445  1.00  0.00     0.047 A 
ATOM     13  C   UNL A   1      30.571  23.699  26.670  1.00  0.00     0.016 A 
BRANCH  10  14
ATOM     14  O   UNL A   1      31.728  20.544  25.315  1.00  0.00    -0.508 OA
ATOM     15  H   UNL A   1      30.976  20.013  25.486  1.00  0.00     0.293 HD
ENDBRANCH  10  14
BRANCH  11  16
ATOM     16  C   UNL A   1      31.140  26.103  26.120  1.00  0.00     0.193 C 
ATOM     17  O   UNL A   1      31.428  26.614  27.200  1.00  0.00    -0.289 OA
BRANCH  16  18
ATOM     18  C   UNL A   1      30.682  26.981  25.017  1.00  0.00     0.022 A 
ATOM     19  C   UNL A   1      31.404  28.152  24.764  1.00  0.00     0.012 A 
ATOM     20  C   UNL A   1      29.555  26.673  24.246  1.00  0.00     0.012 A 
ATOM     21  C   UNL A   1      31.036  28.983  23.706  1.00  0.00     0.001 A 
ATOM     22  C   UNL A   1      29.194  27.504  23.184  1.00  0.00     0.001 A 
ATOM     23  C   UNL A   1      29.939  28.653  22.910  1.00  0.00     0.000 A 
ENDBRANCH  16  18
ENDBRANCH  11  16
ENDBRANCH   6   8
ENDBRANCH   3   6
ENDBRANCH   1   2
BRANCH   1  24
ATOM     24  C   UNL A   1      36.895  20.558  24.978  1.00  0.00     0.042 C 
BRANCH  24  25
ATOM     25  C   UNL A   1      38.269  20.966  25.496  1.00  0.00     0.118 C 
BRANCH  25  26
ATOM     26  N   UNL A   1      39.205  19.853  25.549  1.00  0.00    -0.352 N 
ATOM     27  C   UNL A   1      40.525  19.844  25.935  1.00  0.00     0.251 C 
ATOM     28  H   UNL A   1      38.843  18.982  25.267  1.00  0.00     0.163 HD
ATOM     29  O   UNL A   1      41.216  18.847  25.755  1.00  0.00    -0.269 OA
BRANCH  27  30
ATOM     30  C   UNL A   1      41.114  21.051  26.548  1.00  0.00     0.039 A 
ATOM     31  C   UNL A   1      41.721  22.006  25.729  1.00  0.00     0.014 A 
ATOM     32  C   UNL A   1      41.052  21.243  27.931  1.00  0.00     0.014 A 
ATOM     33  C   UNL A   1      42.198  23.194  26.287  1.00  0.00     0.010 A 
ATOM     34  C   UNL A   1      41.459  22.455  28.473  1.00  0.00     0.010 A 
ATOM     35  C   UNL A   1      42.036  23.442  27.658  1.00  0.00    -0.014 A 
BRANCH  35  36
ATOM     36  C   UNL A   1      42.464  24.715  28.288  1.00  0.00     0.031 A 
ATOM     37  C   UNL A   1      41.457  25.806  28.511  1.00  0.00     0.074 A 
ATOM     38  C   UNL A   1      43.768  24.937  28.540  1.00  0.00     0.049 A 
ATOM     39  N   UNL A   1      41.649  27.053  28.860  1.00  0.00    -0.248 NA
ATOM     40  C   UNL A   1      40.048  25.455  28.272  1.00  0.00     0.031 C 
ATOM     41  C   UNL A   1      44.850  23.971  28.341  1.00  0.00     0.029 A 
ATOM     42  N   UNL A   1      44.407  26.066  28.989  1.00  0.00    -0.354 N 
ATOM     43  C   UNL A   1      40.392  27.643  28.843  1.00  0.00     0.074 A 
ATOM     44  C   UNL A   1      39.454  26.629  28.413  1.00  0.00     0.031 C 
ATOM     45  C   UNL A   1      46.017  24.548  28.663  1.00  0.00     0.029 A 
ATOM     46  C   UNL A   1      45.773  25.936  29.043  1.00  0.00     0.049 A 
ATOM     47  H   UNL A   1      43.933  26.889  29.246  1.00  0.00     0.167 HD
ATOM     48  C   UNL A   1      40.048  28.912  29.165  1.00  0.00     0.031 A 
ATOM     49  C   UNL A   1      46.728  26.840  29.338  1.00  0.00     0.031 A 
ATOM     50  C   UNL A   1      40.983  29.914  29.603  1.00  0.00     0.049 A 
ATOM     51  C   UNL A   1      46.329  28.246  29.687  1.00  0.00     0.074 A 
ATOM     52  C   UNL A   1      40.729  31.211  30.010  1.00  0.00     0.029 A 
ATOM     53  N   UNL A   1      42.354  29.727  29.685  1.00  0.00    -0.354 N 
ATOM     54  N   UNL A   1      45.131  28.779  29.720  1.00  0.00    -0.248 NA
ATOM     55  C   UNL A   1      47.411  29.174  30.046  1.00  0.00     0.031 C 
ATOM     56  C   UNL A   1      41.953  31.826  30.294  1.00  0.00     0.029 A 
ATOM     57  C   UNL A   1      42.963  30.892  30.118  1.00  0.00     0.049 A 
ATOM     58  H   UNL A   1      42.826  28.890  29.468  1.00  0.00     0.167 HD
ATOM     59  C   UNL A   1      45.311  30.092  30.132  1.00  0.00     0.074 A 
ATOM     60  C   UNL A   1      46.733  30.276  30.340  1.00  0.00     0.031 C 
ATOM     61  C   UNL A   1      44.379  31.057  30.326  1.00  0.00     0.031 A 
BRANCH  48  62
ATOM     62  C   UNL A   1      38.598  29.286  29.025  1.00  0.00    -0.014 A 
ATOM     63  C   UNL A   1      38.086  29.792  27.819  1.00  0.00     0.009 A 
ATOM     64  C   UNL A   1      37.733  29.134  30.119  1.00  0.00     0.009 A 
ATOM     65  C   UNL A   1      36.750  30.190  27.730  1.00  0.00     0.001 A 
ATOM     66  C   UNL A   1      36.389  29.501  30.016  1.00  0.00     0.001 A 
ATOM     67  C   UNL A   1      35.903  30.043  28.827  1.00  0.00     0.000 A 
ENDBRANCH  48  62
BRANCH  49  68
ATOM     68  C   UNL A   1      48.155  26.430  29.315  1.00  0.00    -0.014 A 
ATOM     69  C   UNL A   1      48.756  25.885  30.459  1.00  0.00     0.009 A 
ATOM     70  C   UNL A   1      48.912  26.544  28.139  1.00  0.00     0.009 A 
ATOM     71  C   UNL A   1      50.091  25.474  30.429  1.00  0.00     0.001 A 
ATOM     72  C   UNL A   1      50.239  26.110  28.104  1.00  0.00     0.001 A 
ATOM     73  C   UNL A   1      50.828  25.580  29.251  1.00  0.00     0.000 A 
ENDBRANCH  49  68
BRANCH  61  74
ATOM     74  C   UNL A   1      44.853  32.389  30.834  1.00  0.00    -0.014 A 
ATOM     75  C   UNL A   1      45.178  33.433  29.956  1.00  0.00     0.009 A 
ATOM     76  C   UNL A   1      44.897  32.623  32.218  1.00  0.00     0.009 A 
ATOM     77  C   UNL A   1      45.553  34.682  30.456  1.00  0.00     0.001 A 
ATOM     78  C   UNL A   1      45.247  33.878  32.714  1.00  0.00     0.001 A 
ATOM     79  C   UNL A   1      45.580  34.906  31.833  1.00  0.00     0.000 A 
ENDBRANCH  61  74
ENDBRANCH  35  36
ENDBRANCH  27  30
ENDBRANCH  25  26
ENDBRANCH  24  25
ENDBRANCH   1  24
TORSDOF 14
ENDMDL
