MODEL 1
REMARK VINA RESULT:     -12.1      0.000      0.000
REMARK SMILES O=C(NCCCNC(=O)c1ccc2nc(-c3c[nH]nc3-c3ccc(F)cc3F)[nH]c2c1)c1ccc(-c2c3nc(c(-c4ccccc4)c4ccc([nH]4)c(-c4ccccc4)c4nc(c(-c5ccccc5)c5ccc2[nH]5)C=C4)C=C3)cc1
REMARK SMILES IDX 5 1 4 2 3 3 1 4 2 5 32 7 33 8 79 9 34 10 78 11 35 12 36 13
REMARK SMILES IDX 37 14 72 15 38 16 77 17 71 18 73 19 39 20 76 21 70 22 69 23
REMARK SMILES IDX 40 25 62 26 47 27 61 28 48 29 51 30 60 31 74 32 49 33 50 34
REMARK SMILES IDX 59 36 75 37 52 38 41 39 42 40 46 41 43 42 45 43 44 44 63 45
REMARK SMILES IDX 64 46 68 47 65 48 67 49 66 50 53 51 54 52 58 53 55 54 57 55
REMARK SMILES IDX 56 56 6 57 7 58 8 59 9 61 10 62 11 63 31 64 12 65 30 66
REMARK SMILES IDX 13 67 29 68 14 69 15 70 16 72 17 73 20 74 18 75 19 76 21 78
REMARK SMILES IDX 22 79 27 80 23 81 26 82 28 83 24 84 25 85
REMARK H PARENT 3 6 73 24 51 35 7 60 29 71 18 77
REMARK Flexibility Score: inf
ROOT
ATOM      1  C   UNL A   1      35.793  23.038  24.915  1.00  0.00     0.042 C 
ENDROOT
BRANCH   1   2
ATOM      2  C   UNL A   1      37.041  23.689  25.488  1.00  0.00     0.118 C 
BRANCH   2   3
ATOM      3  N   UNL A   1      38.136  22.746  25.682  1.00  0.00    -0.352 N 
ATOM      4  O   UNL A   1      40.232  22.045  26.126  1.00  0.00    -0.269 OA
ATOM      5  C   UNL A   1      39.391  22.937  26.210  1.00  0.00     0.251 C 
ATOM      6  H   UNL A   1      37.945  21.825  25.389  1.00  0.00     0.163 HD
BRANCH   5   7
ATOM      7  C   UNL A   1      39.738  24.219  26.859  1.00  0.00     0.039 A 
ATOM      8  C   UNL A   1      39.420  24.443  28.197  1.00  0.00     0.014 A 
ATOM      9  C   UNL A   1      40.403  25.207  26.126  1.00  0.00     0.014 A 
ATOM     10  C   UNL A   1      39.591  25.706  28.743  1.00  0.00     0.010 A 
ATOM     11  C   UNL A   1      40.688  26.442  26.717  1.00  0.00     0.010 A 
ATOM     12  C   UNL A   1      40.253  26.714  28.022  1.00  0.00    -0.014 A 
BRANCH  12  13
ATOM     13  C   UNL A   1      40.531  28.001  28.710  1.00  0.00     0.031 A 
ATOM     14  C   UNL A   1      39.489  29.076  28.832  1.00  0.00     0.074 A 
ATOM     15  C   UNL A   1      41.733  28.152  29.305  1.00  0.00     0.049 A 
ATOM     16  N   UNL A   1      39.552  30.205  29.493  1.00  0.00    -0.248 NA
ATOM     17  C   UNL A   1      38.217  28.870  28.121  1.00  0.00     0.031 C 
ATOM     18  C   UNL A   1      42.832  27.183  29.240  1.00  0.00     0.029 A 
ATOM     19  N   UNL A   1      42.215  29.143  30.118  1.00  0.00    -0.354 N 
ATOM     20  C   UNL A   1      38.342  30.849  29.268  1.00  0.00     0.074 A 
ATOM     21  C   UNL A   1      37.571  29.997  28.388  1.00  0.00     0.031 C 
ATOM     22  C   UNL A   1      43.823  27.586  30.047  1.00  0.00     0.029 A 
ATOM     23  C   UNL A   1      43.462  28.872  30.626  1.00  0.00     0.049 A 
ATOM     24  H   UNL A   1      41.717  29.969  30.317  1.00  0.00     0.167 HD
ATOM     25  C   UNL A   1      37.913  32.039  29.756  1.00  0.00     0.031 A 
ATOM     26  C   UNL A   1      44.240  29.582  31.463  1.00  0.00     0.031 A 
ATOM     27  C   UNL A   1      38.684  32.886  30.629  1.00  0.00     0.049 A 
ATOM     28  C   UNL A   1      43.738  30.895  31.982  1.00  0.00     0.074 A 
ATOM     29  C   UNL A   1      38.331  34.108  31.178  1.00  0.00     0.029 A 
ATOM     30  N   UNL A   1      39.961  32.598  31.084  1.00  0.00    -0.354 N 
ATOM     31  N   UNL A   1      42.583  31.476  31.769  1.00  0.00    -0.248 NA
ATOM     32  C   UNL A   1      44.648  31.649  32.852  1.00  0.00     0.031 C 
ATOM     33  C   UNL A   1      39.412  34.578  31.932  1.00  0.00     0.029 A 
ATOM     34  C   UNL A   1      40.417  33.626  31.894  1.00  0.00     0.049 A 
ATOM     35  H   UNL A   1      40.470  31.785  30.864  1.00  0.00     0.167 HD
ATOM     36  C   UNL A   1      42.627  32.667  32.477  1.00  0.00     0.074 A 
ATOM     37  C   UNL A   1      43.906  32.704  33.159  1.00  0.00     0.031 C 
ATOM     38  C   UNL A   1      41.699  33.651  32.548  1.00  0.00     0.031 A 
BRANCH  25  39
ATOM     39  C   UNL A   1      36.547  32.510  29.341  1.00  0.00    -0.014 A 
ATOM     40  C   UNL A   1      35.412  32.216  30.113  1.00  0.00     0.009 A 
ATOM     41  C   UNL A   1      36.402  33.316  28.199  1.00  0.00     0.009 A 
ATOM     42  C   UNL A   1      34.157  32.702  29.738  1.00  0.00     0.001 A 
ATOM     43  C   UNL A   1      35.150  33.818  27.841  1.00  0.00     0.001 A 
ATOM     44  C   UNL A   1      34.027  33.508  28.607  1.00  0.00     0.000 A 
ENDBRANCH  25  39
BRANCH  26  45
ATOM     45  C   UNL A   1      45.583  29.070  31.838  1.00  0.00    -0.014 A 
ATOM     46  C   UNL A   1      45.757  28.264  32.972  1.00  0.00     0.009 A 
ATOM     47  C   UNL A   1      46.703  29.387  31.051  1.00  0.00     0.009 A 
ATOM     48  C   UNL A   1      47.029  27.804  33.324  1.00  0.00     0.001 A 
ATOM     49  C   UNL A   1      47.966  28.899  31.386  1.00  0.00     0.001 A 
ATOM     50  C   UNL A   1      48.130  28.117  32.527  1.00  0.00     0.000 A 
ENDBRANCH  26  45
BRANCH  38  51
ATOM     51  C   UNL A   1      42.044  34.839  33.398  1.00  0.00    -0.014 A 
ATOM     52  C   UNL A   1      41.566  34.950  34.713  1.00  0.00     0.009 A 
ATOM     53  C   UNL A   1      42.852  35.861  32.876  1.00  0.00     0.009 A 
ATOM     54  C   UNL A   1      41.855  36.083  35.475  1.00  0.00     0.001 A 
ATOM     55  C   UNL A   1      43.162  36.980  33.650  1.00  0.00     0.001 A 
ATOM     56  C   UNL A   1      42.653  37.095  34.943  1.00  0.00     0.000 A 
ENDBRANCH  38  51
ENDBRANCH  12  13
ENDBRANCH   5   7
ENDBRANCH   2   3
ENDBRANCH   1   2
BRANCH   1  57
ATOM     57  C   UNL A   1      34.911  22.386  25.970  1.00  0.00     0.118 C 
BRANCH  57  58
ATOM     58  N   UNL A   1      34.094  21.326  25.400  1.00  0.00    -0.352 N 
ATOM     59  C   UNL A   1      32.736  21.284  25.224  1.00  0.00     0.251 C 
ATOM     60  H   UNL A   1      34.585  20.528  25.097  1.00  0.00     0.163 HD
ATOM     61  O   UNL A   1      32.171  20.218  25.001  1.00  0.00    -0.269 OA
BRANCH  59  62
ATOM     62  C   UNL A   1      31.949  22.530  25.295  1.00  0.00     0.042 A 
ATOM     63  C   UNL A   1      31.273  22.853  26.480  1.00  0.00     0.016 A 
ATOM     64  C   UNL A   1      31.962  23.395  24.188  1.00  0.00     0.042 A 
ATOM     65  C   UNL A   1      30.564  24.050  26.590  1.00  0.00     0.031 A 
ATOM     66  C   UNL A   1      31.242  24.582  24.329  1.00  0.00     0.067 A 
ATOM     67  C   UNL A   1      30.581  24.932  25.502  1.00  0.00     0.089 A 
ATOM     68  N   UNL A   1      31.009  25.642  23.486  1.00  0.00    -0.338 N 
ATOM     69  N   UNL A   1      30.057  26.185  25.409  1.00  0.00    -0.228 NA
ATOM     70  C   UNL A   1      30.349  26.608  24.200  1.00  0.00     0.142 A 
ATOM     71  H   UNL A   1      31.270  25.697  22.538  1.00  0.00     0.168 HD
BRANCH  70  72
ATOM     72  C   UNL A   1      30.048  27.979  23.732  1.00  0.00     0.063 A 
ATOM     73  C   UNL A   1      29.194  28.345  22.722  1.00  0.00     0.117 A 
ATOM     74  C   UNL A   1      30.612  29.189  24.227  1.00  0.00     0.106 A 
ATOM     75  N   UNL A   1      29.210  29.712  22.723  1.00  0.00    -0.284 N 
ATOM     76  N   UNL A   1      30.091  30.246  23.583  1.00  0.00    -0.175 NA
ATOM     77  H   UNL A   1      28.626  30.255  22.145  1.00  0.00     0.189 HD
BRANCH  74  78
ATOM     78  C   UNL A   1      31.720  29.329  25.163  1.00  0.00     0.039 A 
ATOM     79  C   UNL A   1      31.528  30.061  26.351  1.00  0.00     0.016 A 
ATOM     80  C   UNL A   1      32.977  28.777  24.908  1.00  0.00     0.135 A 
ATOM     81  C   UNL A   1      32.579  30.241  27.251  1.00  0.00     0.040 A 
ATOM     82  C   UNL A   1      34.028  28.948  25.807  1.00  0.00     0.079 A 
ATOM     83  F   UNL A   1      33.212  28.090  23.780  1.00  0.00    -0.206 F 
ATOM     84  C   UNL A   1      33.819  29.682  26.969  1.00  0.00     0.126 A 
ATOM     85  F   UNL A   1      34.828  29.857  27.831  1.00  0.00    -0.207 F 
ENDBRANCH  74  78
ENDBRANCH  70  72
ENDBRANCH  59  62
ENDBRANCH  57  58
ENDBRANCH   1  57
TORSDOF 12
ENDMDL
MODEL 2
REMARK VINA RESULT:     -12.0      3.067      8.169
REMARK SMILES O=C(NCCCNC(=O)c1ccc2nc(-c3c[nH]nc3-c3ccc(F)cc3F)[nH]c2c1)c1ccc(-c2c3nc(c(-c4ccccc4)c4ccc([nH]4)c(-c4ccccc4)c4nc(c(-c5ccccc5)c5ccc2[nH]5)C=C4)C=C3)cc1
REMARK SMILES IDX 5 1 4 2 3 3 1 4 2 5 32 7 33 8 79 9 34 10 78 11 35 12 36 13
REMARK SMILES IDX 37 14 72 15 38 16 77 17 71 18 73 19 39 20 76 21 70 22 69 23
REMARK SMILES IDX 40 25 62 26 47 27 61 28 48 29 51 30 60 31 74 32 49 33 50 34
REMARK SMILES IDX 59 36 75 37 52 38 41 39 42 40 46 41 43 42 45 43 44 44 63 45
REMARK SMILES IDX 64 46 68 47 65 48 67 49 66 50 53 51 54 52 58 53 55 54 57 55
REMARK SMILES IDX 56 56 6 57 7 58 8 59 9 61 10 62 11 63 31 64 12 65 30 66
REMARK SMILES IDX 13 67 29 68 14 69 15 70 16 72 17 73 20 74 18 75 19 76 21 78
REMARK SMILES IDX 22 79 27 80 23 81 26 82 28 83 24 84 25 85
REMARK H PARENT 3 6 73 24 51 35 7 60 29 71 18 77
REMARK Flexibility Score: inf
ROOT
ATOM      1  C   UNL A   1      32.773  28.451  26.076  1.00  0.00     0.042 C 
ENDROOT
BRANCH   1   2
ATOM      2  C   UNL A   1      34.011  28.893  26.840  1.00  0.00     0.118 C 
BRANCH   2   3
ATOM      3  N   UNL A   1      33.835  30.177  27.510  1.00  0.00    -0.352 N 
ATOM      4  O   UNL A   1      34.249  31.837  28.978  1.00  0.00    -0.269 OA
ATOM      5  C   UNL A   1      34.659  30.841  28.388  1.00  0.00     0.251 C 
ATOM      6  H   UNL A   1      32.993  30.642  27.300  1.00  0.00     0.163 HD
BRANCH   5   7
ATOM      7  C   UNL A   1      36.030  30.348  28.639  1.00  0.00     0.039 A 
ATOM      8  C   UNL A   1      37.040  30.556  27.702  1.00  0.00     0.014 A 
ATOM      9  C   UNL A   1      36.316  29.681  29.835  1.00  0.00     0.014 A 
ATOM     10  C   UNL A   1      38.271  29.940  27.868  1.00  0.00     0.010 A 
ATOM     11  C   UNL A   1      37.598  29.165  30.057  1.00  0.00     0.010 A 
ATOM     12  C   UNL A   1      38.577  29.261  29.059  1.00  0.00    -0.014 A 
BRANCH  12  13
ATOM     13  C   UNL A   1      39.958  28.744  29.236  1.00  0.00     0.031 A 
ATOM     14  C   UNL A   1      40.352  27.365  28.787  1.00  0.00     0.074 A 
ATOM     15  C   UNL A   1      40.887  29.582  29.742  1.00  0.00     0.049 A 
ATOM     16  N   UNL A   1      41.541  26.816  28.779  1.00  0.00    -0.248 NA
ATOM     17  C   UNL A   1      39.284  26.485  28.288  1.00  0.00     0.031 C 
ATOM     18  C   UNL A   1      40.619  30.939  30.230  1.00  0.00     0.029 A 
ATOM     19  N   UNL A   1      42.242  29.442  29.884  1.00  0.00    -0.354 N 
ATOM     20  C   UNL A   1      41.364  25.527  28.293  1.00  0.00     0.074 A 
ATOM     21  C   UNL A   1      39.949  25.365  28.038  1.00  0.00     0.031 C 
ATOM     22  C   UNL A   1      41.779  31.534  30.536  1.00  0.00     0.029 A 
ATOM     23  C   UNL A   1      42.862  30.580  30.338  1.00  0.00     0.049 A 
ATOM     24  H   UNL A   1      42.723  28.607  29.682  1.00  0.00     0.167 HD
ATOM     25  C   UNL A   1      42.298  24.570  28.074  1.00  0.00     0.031 A 
ATOM     26  C   UNL A   1      44.161  30.833  30.578  1.00  0.00     0.031 A 
ATOM     27  C   UNL A   1      43.707  24.732  28.331  1.00  0.00     0.049 A 
ATOM     28  C   UNL A   1      45.169  29.753  30.329  1.00  0.00     0.074 A 
ATOM     29  C   UNL A   1      44.730  23.820  28.136  1.00  0.00     0.029 A 
ATOM     30  N   UNL A   1      44.290  25.884  28.834  1.00  0.00    -0.354 N 
ATOM     31  N   UNL A   1      44.981  28.547  29.852  1.00  0.00    -0.248 NA
ATOM     32  C   UNL A   1      46.565  30.068  30.654  1.00  0.00     0.031 C 
ATOM     33  C   UNL A   1      45.927  24.406  28.561  1.00  0.00     0.029 A 
ATOM     34  C   UNL A   1      45.656  25.701  28.972  1.00  0.00     0.049 A 
ATOM     35  H   UNL A   1      43.805  26.710  29.061  1.00  0.00     0.167 HD
ATOM     36  C   UNL A   1      46.235  27.956  29.822  1.00  0.00     0.074 A 
ATOM     37  C   UNL A   1      47.180  28.952  30.289  1.00  0.00     0.031 C 
ATOM     38  C   UNL A   1      46.576  26.698  29.454  1.00  0.00     0.031 A 
BRANCH  25  39
ATOM     39  C   UNL A   1      41.827  23.244  27.542  1.00  0.00    -0.014 A 
ATOM     40  C   UNL A   1      41.876  22.952  26.170  1.00  0.00     0.009 A 
ATOM     41  C   UNL A   1      41.391  22.249  28.433  1.00  0.00     0.009 A 
ATOM     42  C   UNL A   1      41.478  21.698  25.699  1.00  0.00     0.001 A 
ATOM     43  C   UNL A   1      41.016  20.990  27.961  1.00  0.00     0.001 A 
ATOM     44  C   UNL A   1      41.055  20.716  26.594  1.00  0.00     0.000 A 
ENDBRANCH  25  39
BRANCH  26  45
ATOM     45  C   UNL A   1      44.572  32.160  31.105  1.00  0.00    -0.014 A 
ATOM     46  C   UNL A   1      44.616  32.405  32.485  1.00  0.00     0.009 A 
ATOM     47  C   UNL A   1      44.930  33.190  30.220  1.00  0.00     0.009 A 
ATOM     48  C   UNL A   1      44.987  33.663  32.967  1.00  0.00     0.001 A 
ATOM     49  C   UNL A   1      45.332  34.435  30.705  1.00  0.00     0.001 A 
ATOM     50  C   UNL A   1      45.350  34.674  32.078  1.00  0.00     0.000 A 
ENDBRANCH  26  45
BRANCH  38  51
ATOM     51  C   UNL A   1      48.031  26.344  29.542  1.00  0.00    -0.014 A 
ATOM     52  C   UNL A   1      48.886  26.526  28.443  1.00  0.00     0.009 A 
ATOM     53  C   UNL A   1      48.552  25.819  30.735  1.00  0.00     0.009 A 
ATOM     54  C   UNL A   1      50.227  26.146  28.524  1.00  0.00     0.001 A 
ATOM     55  C   UNL A   1      49.900  25.467  30.821  1.00  0.00     0.001 A 
ATOM     56  C   UNL A   1      50.732  25.620  29.713  1.00  0.00     0.000 A 
ENDBRANCH  38  51
ENDBRANCH  12  13
ENDBRANCH   5   7
ENDBRANCH   2   3
ENDBRANCH   1   2
BRANCH   1  57
ATOM     57  C   UNL A   1      32.891  28.641  24.570  1.00  0.00     0.118 C 
BRANCH  57  58
ATOM     58  N   UNL A   1      31.582  28.723  23.941  1.00  0.00    -0.352 N 
ATOM     59  C   UNL A   1      31.014  27.882  23.020  1.00  0.00     0.251 C 
ATOM     60  H   UNL A   1      31.026  29.489  24.215  1.00  0.00     0.163 HD
ATOM     61  O   UNL A   1      30.034  28.239  22.374  1.00  0.00    -0.269 OA
BRANCH  59  62
ATOM     62  C   UNL A   1      31.579  26.536  22.812  1.00  0.00     0.042 A 
ATOM     63  C   UNL A   1      32.485  26.322  21.762  1.00  0.00     0.016 A 
ATOM     64  C   UNL A   1      31.244  25.520  23.722  1.00  0.00     0.042 A 
ATOM     65  C   UNL A   1      33.073  25.071  21.575  1.00  0.00     0.031 A 
ATOM     66  C   UNL A   1      31.847  24.280  23.506  1.00  0.00     0.067 A 
ATOM     67  C   UNL A   1      32.764  24.051  22.484  1.00  0.00     0.089 A 
ATOM     68  N   UNL A   1      31.760  23.070  24.152  1.00  0.00    -0.338 N 
ATOM     69  N   UNL A   1      33.281  22.794  22.568  1.00  0.00    -0.228 NA
ATOM     70  C   UNL A   1      32.687  22.228  23.595  1.00  0.00     0.142 A 
ATOM     71  H   UNL A   1      31.141  22.848  24.886  1.00  0.00     0.168 HD
BRANCH  70  72
ATOM     72  C   UNL A   1      33.049  20.884  24.093  1.00  0.00     0.063 A 
ATOM     73  C   UNL A   1      32.253  19.766  24.128  1.00  0.00     0.117 A 
ATOM     74  C   UNL A   1      34.295  20.494  24.661  1.00  0.00     0.106 A 
ATOM     75  N   UNL A   1      33.058  18.771  24.606  1.00  0.00    -0.284 N 
ATOM     76  N   UNL A   1      34.276  19.191  24.982  1.00  0.00    -0.175 NA
ATOM     77  H   UNL A   1      32.770  17.832  24.668  1.00  0.00     0.189 HD
BRANCH  74  78
ATOM     78  C   UNL A   1      35.406  21.362  25.033  1.00  0.00     0.039 A 
ATOM     79  C   UNL A   1      36.703  21.050  24.581  1.00  0.00     0.016 A 
ATOM     80  C   UNL A   1      35.227  22.485  25.843  1.00  0.00     0.135 A 
ATOM     81  C   UNL A   1      37.791  21.842  24.948  1.00  0.00     0.040 A 
ATOM     82  C   UNL A   1      36.310  23.283  26.207  1.00  0.00     0.079 A 
ATOM     83  F   UNL A   1      34.013  22.809  26.314  1.00  0.00    -0.206 F 
ATOM     84  C   UNL A   1      37.583  22.951  25.758  1.00  0.00     0.126 A 
ATOM     85  F   UNL A   1      38.628  23.710  26.112  1.00  0.00    -0.207 F 
ENDBRANCH  74  78
ENDBRANCH  70  72
ENDBRANCH  59  62
ENDBRANCH  57  58
ENDBRANCH   1  57
TORSDOF 12
ENDMDL
MODEL 3
REMARK VINA RESULT:     -11.9      5.746     10.860
REMARK SMILES O=C(NCCCNC(=O)c1ccc2nc(-c3c[nH]nc3-c3ccc(F)cc3F)[nH]c2c1)c1ccc(-c2c3nc(c(-c4ccccc4)c4ccc([nH]4)c(-c4ccccc4)c4nc(c(-c5ccccc5)c5ccc2[nH]5)C=C4)C=C3)cc1
REMARK SMILES IDX 5 1 4 2 3 3 1 4 2 5 32 7 33 8 79 9 34 10 78 11 35 12 36 13
REMARK SMILES IDX 37 14 72 15 38 16 77 17 71 18 73 19 39 20 76 21 70 22 69 23
REMARK SMILES IDX 40 25 62 26 47 27 61 28 48 29 51 30 60 31 74 32 49 33 50 34
REMARK SMILES IDX 59 36 75 37 52 38 41 39 42 40 46 41 43 42 45 43 44 44 63 45
REMARK SMILES IDX 64 46 68 47 65 48 67 49 66 50 53 51 54 52 58 53 55 54 57 55
REMARK SMILES IDX 56 56 6 57 7 58 8 59 9 61 10 62 11 63 31 64 12 65 30 66
REMARK SMILES IDX 13 67 29 68 14 69 15 70 16 72 17 73 20 74 18 75 19 76 21 78
REMARK SMILES IDX 22 79 27 80 23 81 26 82 28 83 24 84 25 85
REMARK H PARENT 3 6 73 24 51 35 7 60 29 71 18 77
REMARK Flexibility Score: inf
ROOT
ATOM      1  C   UNL A   1      43.053  18.184  26.240  1.00  0.00     0.042 C 
ENDROOT
BRANCH   1   2
ATOM      2  C   UNL A   1      42.011  18.936  27.053  1.00  0.00     0.118 C 
BRANCH   2   3
ATOM      3  N   UNL A   1      40.799  19.221  26.295  1.00  0.00    -0.352 N 
ATOM      4  O   UNL A   1      38.953  20.349  25.660  1.00  0.00    -0.269 OA
ATOM      5  C   UNL A   1      40.043  20.367  26.227  1.00  0.00     0.251 C 
ATOM      6  H   UNL A   1      40.468  18.474  25.745  1.00  0.00     0.163 HD
BRANCH   5   7
ATOM      7  C   UNL A   1      40.529  21.617  26.850  1.00  0.00     0.039 A 
ATOM      8  C   UNL A   1      40.316  22.846  26.229  1.00  0.00     0.014 A 
ATOM      9  C   UNL A   1      41.193  21.563  28.080  1.00  0.00     0.014 A 
ATOM     10  C   UNL A   1      40.925  23.986  26.732  1.00  0.00     0.010 A 
ATOM     11  C   UNL A   1      41.701  22.735  28.650  1.00  0.00     0.010 A 
ATOM     12  C   UNL A   1      41.601  23.953  27.963  1.00  0.00    -0.014 A 
BRANCH  12  13
ATOM     13  C   UNL A   1      42.111  25.233  28.518  1.00  0.00     0.031 A 
ATOM     14  C   UNL A   1      43.581  25.493  28.690  1.00  0.00     0.074 A 
ATOM     15  C   UNL A   1      41.215  26.204  28.791  1.00  0.00     0.049 A 
ATOM     16  N   UNL A   1      44.178  26.598  29.061  1.00  0.00    -0.248 NA
ATOM     17  C   UNL A   1      44.502  24.377  28.419  1.00  0.00     0.031 C 
ATOM     18  C   UNL A   1      39.760  26.062  28.680  1.00  0.00     0.029 A 
ATOM     19  N   UNL A   1      41.392  27.509  29.166  1.00  0.00    -0.354 N 
ATOM     20  C   UNL A   1      45.537  26.309  29.084  1.00  0.00     0.074 A 
ATOM     21  C   UNL A   1      45.677  24.918  28.713  1.00  0.00     0.031 C 
ATOM     22  C   UNL A   1      39.183  27.252  28.897  1.00  0.00     0.029 A 
ATOM     23  C   UNL A   1      40.218  28.220  29.234  1.00  0.00     0.049 A 
ATOM     24  H   UNL A   1      42.273  27.900  29.368  1.00  0.00     0.167 HD
ATOM     25  C   UNL A   1      46.572  27.133  29.382  1.00  0.00     0.031 A 
ATOM     26  C   UNL A   1      39.991  29.510  29.540  1.00  0.00     0.031 A 
ATOM     27  C   UNL A   1      46.430  28.517  29.754  1.00  0.00     0.049 A 
ATOM     28  C   UNL A   1      41.156  30.393  29.868  1.00  0.00     0.074 A 
ATOM     29  C   UNL A   1      47.420  29.432  30.070  1.00  0.00     0.029 A 
ATOM     30  N   UNL A   1      45.220  29.187  29.856  1.00  0.00    -0.354 N 
ATOM     31  N   UNL A   1      42.434  30.103  29.867  1.00  0.00    -0.248 NA
ATOM     32  C   UNL A   1      40.847  31.778  30.242  1.00  0.00     0.031 C 
ATOM     33  C   UNL A   1      46.808  30.644  30.402  1.00  0.00     0.029 A 
ATOM     34  C   UNL A   1      45.439  30.499  30.245  1.00  0.00     0.049 A 
ATOM     35  H   UNL A   1      44.338  28.791  29.679  1.00  0.00     0.167 HD
ATOM     36  C   UNL A   1      43.083  31.270  30.242  1.00  0.00     0.074 A 
ATOM     37  C   UNL A   1      42.060  32.281  30.421  1.00  0.00     0.031 C 
ATOM     38  C   UNL A   1      44.407  31.484  30.435  1.00  0.00     0.031 A 
BRANCH  25  39
ATOM     39  C   UNL A   1      47.959  26.553  29.336  1.00  0.00    -0.014 A 
ATOM     40  C   UNL A   1      48.734  26.616  28.168  1.00  0.00     0.009 A 
ATOM     41  C   UNL A   1      48.523  25.998  30.497  1.00  0.00     0.009 A 
ATOM     42  C   UNL A   1      50.038  26.115  28.157  1.00  0.00     0.001 A 
ATOM     43  C   UNL A   1      49.834  25.519  30.488  1.00  0.00     0.001 A 
ATOM     44  C   UNL A   1      50.590  25.574  29.318  1.00  0.00     0.000 A 
ENDBRANCH  25  39
BRANCH  26  45
ATOM     45  C   UNL A   1      38.600  30.030  29.573  1.00  0.00    -0.014 A 
ATOM     46  C   UNL A   1      37.854  30.016  30.759  1.00  0.00     0.009 A 
ATOM     47  C   UNL A   1      38.014  30.550  28.407  1.00  0.00     0.009 A 
ATOM     48  C   UNL A   1      36.540  30.492  30.773  1.00  0.00     0.001 A 
ATOM     49  C   UNL A   1      36.714  31.055  28.431  1.00  0.00     0.001 A 
ATOM     50  C   UNL A   1      35.974  31.016  29.610  1.00  0.00     0.000 A 
ENDBRANCH  26  45
BRANCH  38  51
ATOM     51  C   UNL A   1      44.808  32.867  30.856  1.00  0.00    -0.014 A 
ATOM     52  C   UNL A   1      45.194  33.828  29.908  1.00  0.00     0.009 A 
ATOM     53  C   UNL A   1      44.804  33.212  32.217  1.00  0.00     0.009 A 
ATOM     54  C   UNL A   1      45.611  35.095  30.318  1.00  0.00     0.001 A 
ATOM     55  C   UNL A   1      45.195  34.489  32.621  1.00  0.00     0.001 A 
ATOM     56  C   UNL A   1      45.610  35.424  31.674  1.00  0.00     0.000 A 
ENDBRANCH  38  51
ENDBRANCH  12  13
ENDBRANCH   5   7
ENDBRANCH   2   3
ENDBRANCH   1   2
BRANCH   1  57
ATOM     57  C   UNL A   1      43.689  19.027  25.144  1.00  0.00     0.118 C 
BRANCH  57  58
ATOM     58  N   UNL A   1      45.141  19.025  25.246  1.00  0.00    -0.352 N 
ATOM     59  C   UNL A   1      46.024  20.043  24.996  1.00  0.00     0.251 C 
ATOM     60  H   UNL A   1      45.545  18.175  25.536  1.00  0.00     0.163 HD
ATOM     61  O   UNL A   1      47.218  19.806  24.848  1.00  0.00    -0.269 OA
BRANCH  59  62
ATOM     62  C   UNL A   1      45.535  21.433  24.916  1.00  0.00     0.042 A 
ATOM     63  C   UNL A   1      44.156  21.676  24.849  1.00  0.00     0.016 A 
ATOM     64  C   UNL A   1      46.472  22.477  24.981  1.00  0.00     0.042 A 
ATOM     65  C   UNL A   1      43.666  22.982  24.824  1.00  0.00     0.031 A 
ATOM     66  C   UNL A   1      45.950  23.771  24.952  1.00  0.00     0.067 A 
ATOM     67  C   UNL A   1      44.584  24.036  24.906  1.00  0.00     0.089 A 
ATOM     68  N   UNL A   1      46.530  25.017  24.977  1.00  0.00    -0.338 N 
ATOM     69  N   UNL A   1      44.345  25.374  25.000  1.00  0.00    -0.228 NA
ATOM     70  C   UNL A   1      45.526  25.946  25.072  1.00  0.00     0.142 A 
ATOM     71  H   UNL A   1      47.495  25.207  24.936  1.00  0.00     0.168 HD
BRANCH  70  72
ATOM     72  C   UNL A   1      45.705  27.397  25.293  1.00  0.00     0.063 A 
ATOM     73  C   UNL A   1      44.965  28.212  26.112  1.00  0.00     0.117 A 
ATOM     74  C   UNL A   1      46.672  28.238  24.672  1.00  0.00     0.106 A 
ATOM     75  N   UNL A   1      45.561  29.439  26.023  1.00  0.00    -0.284 N 
ATOM     76  N   UNL A   1      46.559  29.496  25.127  1.00  0.00    -0.175 NA
ATOM     77  H   UNL A   1      45.284  30.210  26.569  1.00  0.00     0.189 HD
BRANCH  74  78
ATOM     78  C   UNL A   1      47.565  27.896  23.571  1.00  0.00     0.039 A 
ATOM     79  C   UNL A   1      47.210  28.264  22.259  1.00  0.00     0.016 A 
ATOM     80  C   UNL A   1      48.753  27.192  23.776  1.00  0.00     0.135 A 
ATOM     81  C   UNL A   1      48.026  27.921  21.181  1.00  0.00     0.040 A 
ATOM     82  C   UNL A   1      49.575  26.852  22.703  1.00  0.00     0.079 A 
ATOM     83  F   UNL A   1      49.121  26.802  25.005  1.00  0.00    -0.206 F 
ATOM     84  C   UNL A   1      49.201  27.218  21.415  1.00  0.00     0.126 A 
ATOM     85  F   UNL A   1      49.983  26.887  20.380  1.00  0.00    -0.207 F 
ENDBRANCH  74  78
ENDBRANCH  70  72
ENDBRANCH  59  62
ENDBRANCH  57  58
ENDBRANCH   1  57
TORSDOF 12
ENDMDL
