MODEL 1
REMARK VINA RESULT:     -10.1      0.000      0.000
REMARK SMILES CC(C)(C)[NH2+]Cc1cc(C(=O)NCCCNC(=O)c2ccc(-c3c4nc(c(-c5ccccc5)c5ccc([nH]5)c(-c5ccccc5)c5nc(c(-c6ccccc6)c6ccc3[nH]6)C=C5)C=C4)cc2)cs1
REMARK SMILES IDX 13 1 12 2 10 3 11 4 9 6 7 7 8 8 68 9 67 10 6 11 5 12 2 15
REMARK SMILES IDX 1 16 3 17 4 18 14 19 15 20 16 21 17 22 18 24 19 25 20 26
REMARK SMILES IDX 66 27 21 28 65 29 22 30 23 31 24 32 59 33 25 34 64 35 58 36
REMARK SMILES IDX 60 37 26 38 63 39 57 40 56 41 27 43 49 44 34 45 48 46 35 47
REMARK SMILES IDX 38 48 47 49 61 50 36 51 37 52 46 54 62 55 39 56 28 57 29 58
REMARK SMILES IDX 33 59 30 60 32 61 31 62 50 63 51 64 55 65 52 66 54 67 53 68
REMARK SMILES IDX 40 69 41 70 45 71 42 72 44 73 43 74
REMARK H PARENT 12 5 5 13 5 14 16 23 60 42 38 53
REMARK Flexibility Score: inf
ROOT
ATOM      1  C   UNL A   1      32.269  26.341  26.233  1.00  0.00     0.118 C 
ENDROOT
BRANCH   1   2
ATOM      2  N   UNL A   1      31.148  25.534  26.676  1.00  0.00    -0.352 N 
ATOM      3  C   UNL A   1      30.952  24.177  26.624  1.00  0.00     0.252 C 
ATOM      4  O   UNL A   1      29.995  23.713  27.242  1.00  0.00    -0.269 OA
ATOM      5  H   UNL A   1      30.408  26.043  27.081  1.00  0.00     0.163 HD
BRANCH   3   6
ATOM      6  C   UNL A   1      31.881  23.322  25.890  1.00  0.00     0.051 A 
ATOM      7  C   UNL A   1      33.727  21.952  25.373  1.00  0.00     0.059 A 
ATOM      8  C   UNL A   1      33.093  22.702  26.345  1.00  0.00     0.035 A 
ATOM      9  S   UNL A   1      32.867  22.002  23.894  1.00  0.00    -0.142 S 
ATOM     10  C   UNL A   1      31.695  23.058  24.543  1.00  0.00     0.079 A 
BRANCH   7  11
ATOM     11  C   UNL A   1      34.992  21.158  25.499  1.00  0.00     0.308 C 
BRANCH  11  12
ATOM     12  N   UNL A   1      36.079  21.875  26.158  1.00  0.00    -0.338 N 
ATOM     13  H   UNL A   1      35.661  22.662  26.653  1.00  0.00     0.347 HD
ATOM     14  H   UNL A   1      36.529  21.160  26.729  1.00  0.00     0.347 HD
BRANCH  12  15
ATOM     15  C   UNL A   1      37.181  22.415  25.344  1.00  0.00     0.088 C 
ATOM     16  C   UNL A   1      37.659  23.796  25.820  1.00  0.00     0.078 C 
ATOM     17  C   UNL A   1      36.843  22.470  23.845  1.00  0.00     0.078 C 
ATOM     18  C   UNL A   1      38.340  21.414  25.526  1.00  0.00     0.078 C 
ENDBRANCH  12  15
ENDBRANCH  11  12
ENDBRANCH   7  11
ENDBRANCH   3   6
ENDBRANCH   1   2
BRANCH   1  19
ATOM     19  C   UNL A   1      32.207  27.755  26.804  1.00  0.00     0.042 C 
BRANCH  19  20
ATOM     20  C   UNL A   1      33.573  28.310  27.205  1.00  0.00     0.118 C 
BRANCH  20  21
ATOM     21  N   UNL A   1      33.521  29.736  27.490  1.00  0.00    -0.352 N 
ATOM     22  C   UNL A   1      34.451  30.560  28.071  1.00  0.00     0.251 C 
ATOM     23  H   UNL A   1      32.685  30.181  27.222  1.00  0.00     0.163 HD
ATOM     24  O   UNL A   1      34.123  31.697  28.398  1.00  0.00    -0.269 OA
BRANCH  22  25
ATOM     25  C   UNL A   1      35.835  30.099  28.317  1.00  0.00     0.039 A 
ATOM     26  C   UNL A   1      36.153  29.591  29.582  1.00  0.00     0.014 A 
ATOM     27  C   UNL A   1      36.834  30.231  27.348  1.00  0.00     0.014 A 
ATOM     28  C   UNL A   1      37.458  29.183  29.862  1.00  0.00     0.010 A 
ATOM     29  C   UNL A   1      38.122  29.766  27.609  1.00  0.00     0.010 A 
ATOM     30  C   UNL A   1      38.449  29.249  28.871  1.00  0.00    -0.014 A 
BRANCH  30  31
ATOM     31  C   UNL A   1      39.837  28.805  29.150  1.00  0.00     0.031 A 
ATOM     32  C   UNL A   1      40.803  29.724  29.846  1.00  0.00     0.074 A 
ATOM     33  C   UNL A   1      40.243  27.589  28.736  1.00  0.00     0.049 A 
ATOM     34  N   UNL A   1      42.064  29.529  30.138  1.00  0.00    -0.248 NA
ATOM     35  C   UNL A   1      40.290  31.044  30.248  1.00  0.00     0.031 C 
ATOM     36  C   UNL A   1      39.412  26.616  28.024  1.00  0.00     0.029 A 
ATOM     37  N   UNL A   1      41.459  26.967  28.854  1.00  0.00    -0.354 N 
ATOM     38  C   UNL A   1      42.499  30.704  30.736  1.00  0.00     0.074 A 
ATOM     39  C   UNL A   1      41.380  31.622  30.731  1.00  0.00     0.031 C 
ATOM     40  C   UNL A   1      40.135  25.509  27.793  1.00  0.00     0.029 A 
ATOM     41  C   UNL A   1      41.486  25.707  28.309  1.00  0.00     0.049 A 
ATOM     42  H   UNL A   1      42.238  27.383  29.289  1.00  0.00     0.167 HD
ATOM     43  C   UNL A   1      43.715  30.990  31.262  1.00  0.00     0.031 A 
ATOM     44  C   UNL A   1      42.487  24.810  28.234  1.00  0.00     0.031 A 
ATOM     45  C   UNL A   1      44.824  30.073  31.284  1.00  0.00     0.049 A 
ATOM     46  C   UNL A   1      43.826  25.150  28.823  1.00  0.00     0.074 A 
ATOM     47  C   UNL A   1      46.080  30.252  31.838  1.00  0.00     0.029 A 
ATOM     48  N   UNL A   1      44.806  28.803  30.729  1.00  0.00    -0.354 N 
ATOM     49  N   UNL A   1      44.205  26.246  29.435  1.00  0.00    -0.248 NA
ATOM     50  C   UNL A   1      44.873  24.123  28.721  1.00  0.00     0.031 C 
ATOM     51  C   UNL A   1      46.836  29.102  31.585  1.00  0.00     0.029 A 
ATOM     52  C   UNL A   1      46.035  28.192  30.913  1.00  0.00     0.049 A 
ATOM     53  H   UNL A   1      44.036  28.397  30.272  1.00  0.00     0.167 HD
ATOM     54  C   UNL A   1      45.523  26.031  29.814  1.00  0.00     0.074 A 
ATOM     55  C   UNL A   1      45.875  24.696  29.374  1.00  0.00     0.031 C 
ATOM     56  C   UNL A   1      46.367  26.864  30.470  1.00  0.00     0.031 A 
BRANCH  43  57
ATOM     57  C   UNL A   1      43.906  32.359  31.851  1.00  0.00    -0.014 A 
ATOM     58  C   UNL A   1      44.363  33.430  31.067  1.00  0.00     0.009 A 
ATOM     59  C   UNL A   1      43.605  32.586  33.203  1.00  0.00     0.009 A 
ATOM     60  C   UNL A   1      44.548  34.693  31.632  1.00  0.00     0.001 A 
ATOM     61  C   UNL A   1      43.765  33.857  33.760  1.00  0.00     0.001 A 
ATOM     62  C   UNL A   1      44.247  34.905  32.977  1.00  0.00     0.000 A 
ENDBRANCH  43  57
BRANCH  44  63
ATOM     63  C   UNL A   1      42.252  23.489  27.598  1.00  0.00    -0.014 A 
ATOM     64  C   UNL A   1      42.572  23.286  26.247  1.00  0.00     0.009 A 
ATOM     65  C   UNL A   1      41.712  22.425  28.338  1.00  0.00     0.009 A 
ATOM     66  C   UNL A   1      42.335  22.051  25.642  1.00  0.00     0.001 A 
ATOM     67  C   UNL A   1      41.499  21.183  27.736  1.00  0.00     0.001 A 
ATOM     68  C   UNL A   1      41.803  20.999  26.388  1.00  0.00     0.000 A 
ENDBRANCH  44  63
BRANCH  56  69
ATOM     69  C   UNL A   1      47.740  26.341  30.780  1.00  0.00    -0.014 A 
ATOM     70  C   UNL A   1      48.037  25.775  32.029  1.00  0.00     0.009 A 
ATOM     71  C   UNL A   1      48.737  26.384  29.794  1.00  0.00     0.009 A 
ATOM     72  C   UNL A   1      49.318  25.288  32.295  1.00  0.00     0.001 A 
ATOM     73  C   UNL A   1      50.009  25.873  30.055  1.00  0.00     0.001 A 
ATOM     74  C   UNL A   1      50.302  25.334  31.306  1.00  0.00     0.000 A 
ENDBRANCH  56  69
ENDBRANCH  30  31
ENDBRANCH  22  25
ENDBRANCH  20  21
ENDBRANCH  19  20
ENDBRANCH   1  19
TORSDOF 13
ENDMDL
MODEL 2
REMARK VINA RESULT:      -9.7      2.613      7.413
REMARK SMILES CC(C)(C)[NH2+]Cc1cc(C(=O)NCCCNC(=O)c2ccc(-c3c4nc(c(-c5ccccc5)c5ccc([nH]5)c(-c5ccccc5)c5nc(c(-c6ccccc6)c6ccc3[nH]6)C=C5)C=C4)cc2)cs1
REMARK SMILES IDX 13 1 12 2 10 3 11 4 9 6 7 7 8 8 68 9 67 10 6 11 5 12 2 15
REMARK SMILES IDX 1 16 3 17 4 18 14 19 15 20 16 21 17 22 18 24 19 25 20 26
REMARK SMILES IDX 66 27 21 28 65 29 22 30 23 31 24 32 59 33 25 34 64 35 58 36
REMARK SMILES IDX 60 37 26 38 63 39 57 40 56 41 27 43 49 44 34 45 48 46 35 47
REMARK SMILES IDX 38 48 47 49 61 50 36 51 37 52 46 54 62 55 39 56 28 57 29 58
REMARK SMILES IDX 33 59 30 60 32 61 31 62 50 63 51 64 55 65 52 66 54 67 53 68
REMARK SMILES IDX 40 69 41 70 45 71 42 72 44 73 43 74
REMARK H PARENT 12 5 5 13 5 14 16 23 60 42 38 53
REMARK Flexibility Score: inf
ROOT
ATOM      1  C   UNL A   1      36.145  20.284  24.993  1.00  0.00     0.118 C 
ENDROOT
BRANCH   1   2
ATOM      2  N   UNL A   1      35.138  19.244  24.901  1.00  0.00    -0.352 N 
ATOM      3  C   UNL A   1      33.775  19.334  24.769  1.00  0.00     0.252 C 
ATOM      4  O   UNL A   1      33.154  18.302  24.521  1.00  0.00    -0.269 OA
ATOM      5  H   UNL A   1      35.489  18.325  24.940  1.00  0.00     0.163 HD
BRANCH   3   6
ATOM      6  C   UNL A   1      33.104  20.627  24.881  1.00  0.00     0.051 A 
ATOM      7  C   UNL A   1      31.931  22.593  24.326  1.00  0.00     0.059 A 
ATOM      8  C   UNL A   1      32.471  21.409  23.859  1.00  0.00     0.035 A 
ATOM      9  S   UNL A   1      32.196  22.774  26.007  1.00  0.00    -0.142 S 
ATOM     10  C   UNL A   1      33.069  21.309  26.086  1.00  0.00     0.079 A 
BRANCH   7  11
ATOM     11  C   UNL A   1      31.186  23.635  23.549  1.00  0.00     0.308 C 
BRANCH  11  12
ATOM     12  N   UNL A   1      31.845  24.038  22.311  1.00  0.00    -0.338 N 
ATOM     13  H   UNL A   1      32.652  23.426  22.190  1.00  0.00     0.347 HD
ATOM     14  H   UNL A   1      31.108  23.970  21.610  1.00  0.00     0.347 HD
BRANCH  12  15
ATOM     15  C   UNL A   1      32.330  25.421  22.172  1.00  0.00     0.088 C 
ATOM     16  C   UNL A   1      33.635  25.682  22.941  1.00  0.00     0.078 C 
ATOM     17  C   UNL A   1      31.275  26.466  22.572  1.00  0.00     0.078 C 
ATOM     18  C   UNL A   1      32.614  25.596  20.667  1.00  0.00     0.078 C 
ENDBRANCH  12  15
ENDBRANCH  11  12
ENDBRANCH   7  11
ENDBRANCH   3   6
ENDBRANCH   1   2
BRANCH   1  19
ATOM     19  C   UNL A   1      37.538  19.749  24.670  1.00  0.00     0.042 C 
BRANCH  19  20
ATOM     20  C   UNL A   1      38.632  20.317  25.574  1.00  0.00     0.118 C 
BRANCH  20  21
ATOM     21  N   UNL A   1      39.749  19.396  25.725  1.00  0.00    -0.352 N 
ATOM     22  C   UNL A   1      41.054  19.633  26.075  1.00  0.00     0.251 C 
ATOM     23  H   UNL A   1      39.533  18.452  25.549  1.00  0.00     0.163 HD
ATOM     24  O   UNL A   1      41.880  18.734  25.949  1.00  0.00    -0.269 OA
BRANCH  22  25
ATOM     25  C   UNL A   1      41.481  20.951  26.592  1.00  0.00     0.039 A 
ATOM     26  C   UNL A   1      41.362  21.199  27.964  1.00  0.00     0.014 A 
ATOM     27  C   UNL A   1      41.924  21.965  25.737  1.00  0.00     0.014 A 
ATOM     28  C   UNL A   1      41.719  22.444  28.482  1.00  0.00     0.010 A 
ATOM     29  C   UNL A   1      42.339  23.187  26.264  1.00  0.00     0.010 A 
ATOM     30  C   UNL A   1      42.229  23.442  27.639  1.00  0.00    -0.014 A 
BRANCH  30  31
ATOM     31  C   UNL A   1      42.628  24.766  28.177  1.00  0.00     0.031 A 
ATOM     32  C   UNL A   1      41.597  25.840  28.391  1.00  0.00     0.074 A 
ATOM     33  C   UNL A   1      43.926  25.018  28.433  1.00  0.00     0.049 A 
ATOM     34  N   UNL A   1      41.759  27.069  28.813  1.00  0.00    -0.248 NA
ATOM     35  C   UNL A   1      40.202  25.495  28.069  1.00  0.00     0.031 C 
ATOM     36  C   UNL A   1      45.026  24.072  28.239  1.00  0.00     0.029 A 
ATOM     37  N   UNL A   1      44.538  26.149  28.908  1.00  0.00    -0.354 N 
ATOM     38  C   UNL A   1      40.497  27.647  28.787  1.00  0.00     0.074 A 
ATOM     39  C   UNL A   1      39.584  26.649  28.271  1.00  0.00     0.031 C 
ATOM     40  C   UNL A   1      46.175  24.653  28.619  1.00  0.00     0.029 A 
ATOM     41  C   UNL A   1      45.898  26.019  29.050  1.00  0.00     0.049 A 
ATOM     42  H   UNL A   1      44.049  26.975  29.129  1.00  0.00     0.167 HD
ATOM     43  C   UNL A   1      40.124  28.891  29.175  1.00  0.00     0.031 A 
ATOM     44  C   UNL A   1      46.818  26.903  29.478  1.00  0.00     0.031 A 
ATOM     45  C   UNL A   1      41.026  29.879  29.705  1.00  0.00     0.049 A 
ATOM     46  C   UNL A   1      46.381  28.276  29.902  1.00  0.00     0.074 A 
ATOM     47  C   UNL A   1      40.736  31.149  30.172  1.00  0.00     0.029 A 
ATOM     48  N   UNL A   1      42.394  29.704  29.839  1.00  0.00    -0.354 N 
ATOM     49  N   UNL A   1      45.175  28.788  29.923  1.00  0.00    -0.248 NA
ATOM     50  C   UNL A   1      47.433  29.187  30.374  1.00  0.00     0.031 C 
ATOM     51  C   UNL A   1      41.937  31.757  30.555  1.00  0.00     0.029 A 
ATOM     52  C   UNL A   1      42.966  30.848  30.367  1.00  0.00     0.049 A 
ATOM     53  H   UNL A   1      42.886  28.887  29.594  1.00  0.00     0.167 HD
ATOM     54  C   UNL A   1      45.318  30.071  30.434  1.00  0.00     0.074 A 
ATOM     55  C   UNL A   1      46.726  30.254  30.721  1.00  0.00     0.031 C 
ATOM     56  C   UNL A   1      44.368  31.013  30.648  1.00  0.00     0.031 A 
BRANCH  43  57
ATOM     57  C   UNL A   1      38.672  29.251  29.032  1.00  0.00    -0.014 A 
ATOM     58  C   UNL A   1      37.779  29.109  30.106  1.00  0.00     0.009 A 
ATOM     59  C   UNL A   1      38.195  29.762  27.815  1.00  0.00     0.009 A 
ATOM     60  C   UNL A   1      36.431  29.436  29.953  1.00  0.00     0.001 A 
ATOM     61  C   UNL A   1      36.851  30.114  27.672  1.00  0.00     0.001 A 
ATOM     62  C   UNL A   1      35.969  29.941  28.738  1.00  0.00     0.000 A 
ENDBRANCH  43  57
BRANCH  44  63
ATOM     63  C   UNL A   1      48.248  26.505  29.555  1.00  0.00    -0.014 A 
ATOM     64  C   UNL A   1      48.751  25.895  30.714  1.00  0.00     0.009 A 
ATOM     65  C   UNL A   1      49.112  26.729  28.472  1.00  0.00     0.009 A 
ATOM     66  C   UNL A   1      50.098  25.537  30.796  1.00  0.00     0.001 A 
ATOM     67  C   UNL A   1      50.452  26.346  28.548  1.00  0.00     0.001 A 
ATOM     68  C   UNL A   1      50.946  25.758  29.711  1.00  0.00     0.000 A 
ENDBRANCH  44  63
BRANCH  56  69
ATOM     69  C   UNL A   1      44.817  32.312  31.251  1.00  0.00    -0.014 A 
ATOM     70  C   UNL A   1      45.195  33.397  30.445  1.00  0.00     0.009 A 
ATOM     71  C   UNL A   1      44.825  32.462  32.647  1.00  0.00     0.009 A 
ATOM     72  C   UNL A   1      45.603  34.598  31.027  1.00  0.00     0.001 A 
ATOM     73  C   UNL A   1      45.208  33.673  33.224  1.00  0.00     0.001 A 
ATOM     74  C   UNL A   1      45.605  34.737  32.416  1.00  0.00     0.000 A 
ENDBRANCH  56  69
ENDBRANCH  30  31
ENDBRANCH  22  25
ENDBRANCH  20  21
ENDBRANCH  19  20
ENDBRANCH   1  19
TORSDOF 13
ENDMDL
MODEL 3
REMARK VINA RESULT:      -9.7      1.254      1.973
REMARK SMILES CC(C)(C)[NH2+]Cc1cc(C(=O)NCCCNC(=O)c2ccc(-c3c4nc(c(-c5ccccc5)c5ccc([nH]5)c(-c5ccccc5)c5nc(c(-c6ccccc6)c6ccc3[nH]6)C=C5)C=C4)cc2)cs1
REMARK SMILES IDX 13 1 12 2 10 3 11 4 9 6 7 7 8 8 68 9 67 10 6 11 5 12 2 15
REMARK SMILES IDX 1 16 3 17 4 18 14 19 15 20 16 21 17 22 18 24 19 25 20 26
REMARK SMILES IDX 66 27 21 28 65 29 22 30 23 31 24 32 59 33 25 34 64 35 58 36
REMARK SMILES IDX 60 37 26 38 63 39 57 40 56 41 27 43 49 44 34 45 48 46 35 47
REMARK SMILES IDX 38 48 47 49 61 50 36 51 37 52 46 54 62 55 39 56 28 57 29 58
REMARK SMILES IDX 33 59 30 60 32 61 31 62 50 63 51 64 55 65 52 66 54 67 53 68
REMARK SMILES IDX 40 69 41 70 45 71 42 72 44 73 43 74
REMARK H PARENT 12 5 5 13 5 14 16 23 60 42 38 53
REMARK Flexibility Score: inf
ROOT
ATOM      1  C   UNL A   1      32.420  26.231  26.060  1.00  0.00     0.118 C 
ENDROOT
BRANCH   1   2
ATOM      2  N   UNL A   1      31.271  25.533  26.606  1.00  0.00    -0.352 N 
ATOM      3  C   UNL A   1      30.901  24.215  26.509  1.00  0.00     0.252 C 
ATOM      4  O   UNL A   1      29.979  23.826  27.224  1.00  0.00    -0.269 OA
ATOM      5  H   UNL A   1      30.658  26.097  27.132  1.00  0.00     0.163 HD
BRANCH   3   6
ATOM      6  C   UNL A   1      31.615  23.309  25.614  1.00  0.00     0.051 A 
ATOM      7  C   UNL A   1      33.040  21.606  24.827  1.00  0.00     0.059 A 
ATOM      8  C   UNL A   1      32.556  22.275  25.935  1.00  0.00     0.035 A 
ATOM      9  S   UNL A   1      32.368  22.234  23.383  1.00  0.00    -0.142 S 
ATOM     10  C   UNL A   1      31.486  23.418  24.239  1.00  0.00     0.079 A 
BRANCH   7  11
ATOM     11  C   UNL A   1      34.012  20.467  24.789  1.00  0.00     0.308 C 
BRANCH  11  12
ATOM     12  N   UNL A   1      33.545  19.265  25.472  1.00  0.00    -0.338 N 
ATOM     13  H   UNL A   1      34.232  19.044  26.193  1.00  0.00     0.347 HD
ATOM     14  H   UNL A   1      32.609  19.515  25.790  1.00  0.00     0.347 HD
BRANCH  12  15
ATOM     15  C   UNL A   1      33.329  18.034  24.693  1.00  0.00     0.088 C 
ATOM     16  C   UNL A   1      32.502  18.265  23.419  1.00  0.00     0.078 C 
ATOM     17  C   UNL A   1      32.697  16.905  25.525  1.00  0.00     0.078 C 
ATOM     18  C   UNL A   1      34.740  17.572  24.276  1.00  0.00     0.078 C 
ENDBRANCH  12  15
ENDBRANCH  11  12
ENDBRANCH   7  11
ENDBRANCH   3   6
ENDBRANCH   1   2
BRANCH   1  19
ATOM     19  C   UNL A   1      32.332  27.736  26.300  1.00  0.00     0.042 C 
BRANCH  19  20
ATOM     20  C   UNL A   1      33.420  28.268  27.231  1.00  0.00     0.118 C 
BRANCH  20  21
ATOM     21  N   UNL A   1      33.370  29.717  27.359  1.00  0.00    -0.352 N 
ATOM     22  C   UNL A   1      34.265  30.591  27.920  1.00  0.00     0.251 C 
ATOM     23  H   UNL A   1      32.563  30.137  26.983  1.00  0.00     0.163 HD
ATOM     24  O   UNL A   1      33.932  31.759  28.099  1.00  0.00    -0.269 OA
BRANCH  22  25
ATOM     25  C   UNL A   1      35.619  30.149  28.318  1.00  0.00     0.039 A 
ATOM     26  C   UNL A   1      36.644  30.200  27.366  1.00  0.00     0.014 A 
ATOM     27  C   UNL A   1      35.874  29.618  29.586  1.00  0.00     0.014 A 
ATOM     28  C   UNL A   1      37.925  29.755  27.694  1.00  0.00     0.010 A 
ATOM     29  C   UNL A   1      37.168  29.231  29.933  1.00  0.00     0.010 A 
ATOM     30  C   UNL A   1      38.202  29.285  28.987  1.00  0.00    -0.014 A 
BRANCH  30  31
ATOM     31  C   UNL A   1      39.563  28.823  29.355  1.00  0.00     0.031 A 
ATOM     32  C   UNL A   1      40.461  29.695  30.189  1.00  0.00     0.074 A 
ATOM     33  C   UNL A   1      40.010  27.637  28.900  1.00  0.00     0.049 A 
ATOM     34  N   UNL A   1      41.694  29.481  30.576  1.00  0.00    -0.248 NA
ATOM     35  C   UNL A   1      39.908  30.986  30.630  1.00  0.00     0.031 C 
ATOM     36  C   UNL A   1      39.249  26.711  28.058  1.00  0.00     0.029 A 
ATOM     37  N   UNL A   1      41.215  27.008  29.082  1.00  0.00    -0.354 N 
ATOM     38  C   UNL A   1      42.069  30.615  31.284  1.00  0.00     0.074 A 
ATOM     39  C   UNL A   1      40.949  31.532  31.241  1.00  0.00     0.031 C 
ATOM     40  C   UNL A   1      39.996  25.622  27.820  1.00  0.00     0.029 A 
ATOM     41  C   UNL A   1      41.296  25.785  28.462  1.00  0.00     0.049 A 
ATOM     42  H   UNL A   1      41.952  27.395  29.609  1.00  0.00     0.167 HD
ATOM     43  C   UNL A   1      43.233  30.866  31.930  1.00  0.00     0.031 A 
ATOM     44  C   UNL A   1      42.304  24.896  28.416  1.00  0.00     0.031 A 
ATOM     45  C   UNL A   1      44.341  29.950  31.989  1.00  0.00     0.049 A 
ATOM     46  C   UNL A   1      43.586  25.197  29.138  1.00  0.00     0.074 A 
ATOM     47  C   UNL A   1      45.544  30.092  32.659  1.00  0.00     0.029 A 
ATOM     48  N   UNL A   1      44.379  28.719  31.353  1.00  0.00    -0.354 N 
ATOM     49  N   UNL A   1      43.905  26.250  29.850  1.00  0.00    -0.248 NA
ATOM     50  C   UNL A   1      44.643  24.178  29.061  1.00  0.00     0.031 C 
ATOM     51  C   UNL A   1      46.325  28.961  32.398  1.00  0.00     0.029 A 
ATOM     52  C   UNL A   1      45.590  28.097  31.603  1.00  0.00     0.049 A 
ATOM     53  H   UNL A   1      43.653  28.343  30.806  1.00  0.00     0.167 HD
ATOM     54  C   UNL A   1      45.187  26.011  30.327  1.00  0.00     0.074 A 
ATOM     55  C   UNL A   1      45.582  24.708  29.833  1.00  0.00     0.031 C 
ATOM     56  C   UNL A   1      45.966  26.800  31.106  1.00  0.00     0.031 A 
BRANCH  43  57
ATOM     57  C   UNL A   1      43.366  32.194  32.620  1.00  0.00    -0.014 A 
ATOM     58  C   UNL A   1      43.878  33.316  31.948  1.00  0.00     0.009 A 
ATOM     59  C   UNL A   1      42.953  32.333  33.955  1.00  0.00     0.009 A 
ATOM     60  C   UNL A   1      44.007  34.539  32.607  1.00  0.00     0.001 A 
ATOM     61  C   UNL A   1      43.058  33.564  34.605  1.00  0.00     0.001 A 
ATOM     62  C   UNL A   1      43.594  34.663  33.934  1.00  0.00     0.000 A 
ENDBRANCH  43  57
BRANCH  44  63
ATOM     63  C   UNL A   1      42.132  23.618  27.678  1.00  0.00    -0.014 A 
ATOM     64  C   UNL A   1      41.590  22.496  28.323  1.00  0.00     0.009 A 
ATOM     65  C   UNL A   1      42.505  23.515  26.329  1.00  0.00     0.009 A 
ATOM     66  C   UNL A   1      41.444  21.289  27.637  1.00  0.00     0.001 A 
ATOM     67  C   UNL A   1      42.334  22.313  25.639  1.00  0.00     0.001 A 
ATOM     68  C   UNL A   1      41.812  21.200  26.295  1.00  0.00     0.000 A 
ENDBRANCH  44  63
BRANCH  56  69
ATOM     69  C   UNL A   1      47.310  26.258  31.499  1.00  0.00    -0.014 A 
ATOM     70  C   UNL A   1      47.499  25.604  32.726  1.00  0.00     0.009 A 
ATOM     71  C   UNL A   1      48.390  26.372  30.611  1.00  0.00     0.009 A 
ATOM     72  C   UNL A   1      48.756  25.101  33.068  1.00  0.00     0.001 A 
ATOM     73  C   UNL A   1      49.639  25.846  30.946  1.00  0.00     0.001 A 
ATOM     74  C   UNL A   1      49.823  25.219  32.176  1.00  0.00     0.000 A 
ENDBRANCH  56  69
ENDBRANCH  30  31
ENDBRANCH  22  25
ENDBRANCH  20  21
ENDBRANCH  19  20
ENDBRANCH   1  19
TORSDOF 13
ENDMDL
