MODEL 1
REMARK VINA RESULT:     -13.4      0.000      0.000
REMARK SMILES Cc1cccc(-c2ncc(C[NH+]3CCC4(CC3)NC(=O)C[C@H]4C(=O)NCCCNC(=O)c3ccc(-c4c5nc(c(-c6ccccc6)c6ccc([nH]6)c(-c6ccccc6)c6nc(c(-c7ccccc7)c7ccc4[nH]7)C=C6)C=C5)cc3)cn2)c1
REMARK SMILES IDX 26 1 25 2 23 3 24 4 22 6 12 7 13 8 17 9 14 11 16 12 15 13
REMARK SMILES IDX 18 14 19 15 21 17 20 18 11 19 10 20 7 21 8 22 81 23 9 24
REMARK SMILES IDX 80 25 6 26 1 27 2 28 3 29 82 30 4 31 5 32 27 33 28 34 29 35
REMARK SMILES IDX 30 36 31 38 32 39 33 40 79 41 34 42 78 43 35 44 36 45 37 46
REMARK SMILES IDX 72 47 38 48 77 49 71 50 73 51 39 52 76 53 70 54 69 55 40 57
REMARK SMILES IDX 62 58 47 59 61 60 48 61 51 62 60 63 74 64 49 65 50 66 59 68
REMARK SMILES IDX 75 69 52 70 41 71 42 72 46 73 43 74 45 75 44 76 63 77 64 78
REMARK SMILES IDX 68 79 65 80 67 81 66 82 53 83 54 84 58 85 55 86 57 87 56 88
REMARK H PARENT 25 5 12 10 18 16 29 37 73 56 51 67
REMARK Flexibility Score: inf
ROOT
ATOM      1  C   UNL A   1      36.553  22.711  26.068  1.00  0.00     0.117 C 
ENDROOT
BRANCH   1   2
ATOM      2  N   UNL A   1      35.274  22.689  26.781  1.00  0.00    -0.356 N 
ATOM      3  C   UNL A   1      33.963  22.785  26.410  1.00  0.00     0.226 C 
ATOM      4  O   UNL A   1      33.134  22.639  27.318  1.00  0.00    -0.275 OA
ATOM      5  H   UNL A   1      35.385  22.579  27.753  1.00  0.00     0.163 HD
BRANCH   3   6
ATOM      6  C   UNL A   1      33.444  23.142  25.002  1.00  0.00     0.114 C 
ATOM      7  N   UNL A   1      31.880  26.994  25.288  1.00  0.00    -0.331 N 
ATOM      8  C   UNL A   1      31.453  26.129  24.195  1.00  0.00     0.264 C 
ATOM      9  C   UNL A   1      32.549  26.222  26.312  1.00  0.00     0.264 C 
ATOM     10  H   UNL A   1      31.002  27.350  25.666  1.00  0.00     0.348 HD
ATOM     11  C   UNL A   1      32.513  25.186  23.605  1.00  0.00     0.091 C 
ATOM     12  C   UNL A   1      33.795  25.546  25.781  1.00  0.00     0.091 C 
ATOM     13  C   UNL A   1      33.596  24.621  24.576  1.00  0.00     0.063 C 
ATOM     14  N   UNL A   1      34.793  24.532  23.748  1.00  0.00    -0.349 N 
ATOM     15  C   UNL A   1      35.048  23.273  23.247  1.00  0.00     0.221 C 
ATOM     16  H   UNL A   1      35.372  25.306  23.562  1.00  0.00     0.164 HD
ATOM     17  C   UNL A   1      34.125  22.298  23.925  1.00  0.00     0.116 C 
ATOM     18  O   UNL A   1      35.890  23.005  22.421  1.00  0.00    -0.275 OA
BRANCH   7  19
ATOM     19  C   UNL A   1      32.435  28.332  25.000  1.00  0.00     0.302 C 
BRANCH  19  20
ATOM     20  C   UNL A   1      33.063  29.091  26.139  1.00  0.00     0.043 A 
ATOM     21  C   UNL A   1      34.377  30.824  27.783  1.00  0.00     0.159 A 
ATOM     22  N   UNL A   1      33.089  31.083  27.487  1.00  0.00    -0.236 NA
ATOM     23  N   UNL A   1      35.038  29.714  27.396  1.00  0.00    -0.236 NA
ATOM     24  C   UNL A   1      32.449  30.181  26.713  1.00  0.00     0.124 A 
ATOM     25  C   UNL A   1      34.356  28.865  26.588  1.00  0.00     0.124 A 
BRANCH  21  26
ATOM     26  C   UNL A   1      35.135  31.892  28.452  1.00  0.00     0.019 A 
ATOM     27  C   UNL A   1      34.622  34.479  31.244  1.00  0.00     0.044 C 
ATOM     28  C   UNL A   1      35.269  33.670  30.156  1.00  0.00    -0.050 A 
ATOM     29  C   UNL A   1      36.586  33.924  29.776  1.00  0.00     0.003 A 
ATOM     30  C   UNL A   1      34.571  32.639  29.510  1.00  0.00     0.015 A 
ATOM     31  C   UNL A   1      37.173  33.192  28.744  1.00  0.00     0.001 A 
ATOM     32  C   UNL A   1      36.447  32.198  28.076  1.00  0.00     0.012 A 
ENDBRANCH  21  26
ENDBRANCH  19  20
ENDBRANCH   7  19
ENDBRANCH   3   6
ENDBRANCH   1   2
BRANCH   1  33
ATOM     33  C   UNL A   1      37.488  23.866  26.421  1.00  0.00     0.042 C 
BRANCH  33  34
ATOM     34  C   UNL A   1      38.953  23.496  26.576  1.00  0.00     0.118 C 
BRANCH  34  35
ATOM     35  N   UNL A   1      39.161  22.053  26.399  1.00  0.00    -0.352 N 
ATOM     36  C   UNL A   1      40.306  21.278  26.383  1.00  0.00     0.251 C 
ATOM     37  H   UNL A   1      38.329  21.543  26.267  1.00  0.00     0.163 HD
ATOM     38  O   UNL A   1      40.227  20.063  26.228  1.00  0.00    -0.269 OA
BRANCH  36  39
ATOM     39  C   UNL A   1      41.601  21.885  26.754  1.00  0.00     0.039 A 
ATOM     40  C   UNL A   1      41.912  21.791  28.117  1.00  0.00     0.014 A 
ATOM     41  C   UNL A   1      42.110  22.905  25.968  1.00  0.00     0.014 A 
ATOM     42  C   UNL A   1      42.365  22.924  28.764  1.00  0.00     0.010 A 
ATOM     43  C   UNL A   1      42.424  24.072  26.617  1.00  0.00     0.010 A 
ATOM     44  C   UNL A   1      42.458  24.089  28.015  1.00  0.00    -0.014 A 
BRANCH  44  45
ATOM     45  C   UNL A   1      42.653  25.395  28.600  1.00  0.00     0.031 A 
ATOM     46  C   UNL A   1      41.487  26.281  28.584  1.00  0.00     0.074 A 
ATOM     47  C   UNL A   1      43.827  25.691  29.197  1.00  0.00     0.049 A 
ATOM     48  N   UNL A   1      41.549  27.559  28.631  1.00  0.00    -0.248 NA
ATOM     49  C   UNL A   1      40.122  25.774  28.425  1.00  0.00     0.031 C 
ATOM     50  C   UNL A   1      44.151  26.818  30.065  1.00  0.00     0.029 A 
ATOM     51  N   UNL A   1      45.062  25.091  28.949  1.00  0.00    -0.354 N 
ATOM     52  C   UNL A   1      40.268  28.008  28.855  1.00  0.00     0.074 A 
ATOM     53  C   UNL A   1      39.406  26.887  28.591  1.00  0.00     0.031 C 
ATOM     54  C   UNL A   1      45.485  27.000  30.066  1.00  0.00     0.029 A 
ATOM     55  C   UNL A   1      46.044  26.089  29.078  1.00  0.00     0.049 A 
ATOM     56  H   UNL A   1      45.216  24.145  28.726  1.00  0.00     0.167 HD
ATOM     57  C   UNL A   1      40.109  29.232  29.424  1.00  0.00     0.031 A 
ATOM     58  C   UNL A   1      46.765  26.480  27.984  1.00  0.00     0.031 A 
ATOM     59  C   UNL A   1      41.405  29.888  29.576  1.00  0.00     0.049 A 
ATOM     60  C   UNL A   1      46.459  27.909  27.585  1.00  0.00     0.074 A 
ATOM     61  C   UNL A   1      42.285  29.971  30.643  1.00  0.00     0.029 A 
ATOM     62  N   UNL A   1      42.136  30.191  28.435  1.00  0.00    -0.354 N 
ATOM     63  N   UNL A   1      45.343  28.526  27.872  1.00  0.00    -0.248 NA
ATOM     64  C   UNL A   1      47.402  28.769  26.875  1.00  0.00     0.031 C 
ATOM     65  C   UNL A   1      43.575  30.259  30.119  1.00  0.00     0.029 A 
ATOM     66  C   UNL A   1      43.469  30.381  28.744  1.00  0.00     0.049 A 
ATOM     67  H   UNL A   1      41.756  30.261  27.529  1.00  0.00     0.167 HD
ATOM     68  C   UNL A   1      45.419  29.834  27.464  1.00  0.00     0.074 A 
ATOM     69  C   UNL A   1      46.724  29.929  26.831  1.00  0.00     0.031 C 
ATOM     70  C   UNL A   1      44.420  30.736  27.698  1.00  0.00     0.031 A 
BRANCH  57  71
ATOM     71  C   UNL A   1      38.851  29.676  30.120  1.00  0.00    -0.014 A 
ATOM     72  C   UNL A   1      38.929  30.728  31.050  1.00  0.00     0.009 A 
ATOM     73  C   UNL A   1      37.587  29.087  29.956  1.00  0.00     0.009 A 
ATOM     74  C   UNL A   1      37.827  31.128  31.815  1.00  0.00     0.001 A 
ATOM     75  C   UNL A   1      36.484  29.464  30.737  1.00  0.00     0.001 A 
ATOM     76  C   UNL A   1      36.607  30.483  31.670  1.00  0.00     0.000 A 
ENDBRANCH  57  71
BRANCH  58  77
ATOM     77  C   UNL A   1      47.034  25.340  27.051  1.00  0.00    -0.014 A 
ATOM     78  C   UNL A   1      46.406  24.107  27.344  1.00  0.00     0.009 A 
ATOM     79  C   UNL A   1      47.453  25.574  25.736  1.00  0.00     0.009 A 
ATOM     80  C   UNL A   1      46.029  23.232  26.320  1.00  0.00     0.001 A 
ATOM     81  C   UNL A   1      47.101  24.675  24.718  1.00  0.00     0.001 A 
ATOM     82  C   UNL A   1      46.339  23.541  25.000  1.00  0.00     0.000 A 
ENDBRANCH  58  77
BRANCH  70  83
ATOM     83  C   UNL A   1      44.249  32.088  27.034  1.00  0.00    -0.014 A 
ATOM     84  C   UNL A   1      44.132  32.291  25.656  1.00  0.00     0.009 A 
ATOM     85  C   UNL A   1      44.058  33.232  27.848  1.00  0.00     0.009 A 
ATOM     86  C   UNL A   1      43.883  33.563  25.121  1.00  0.00     0.001 A 
ATOM     87  C   UNL A   1      43.744  34.488  27.326  1.00  0.00     0.001 A 
ATOM     88  C   UNL A   1      43.674  34.657  25.955  1.00  0.00     0.000 A 
ENDBRANCH  70  83
ENDBRANCH  44  45
ENDBRANCH  36  39
ENDBRANCH  34  35
ENDBRANCH  33  34
ENDBRANCH   1  33
TORSDOF 13
ENDMDL
MODEL 2
REMARK VINA RESULT:     -13.0      2.948      8.972
REMARK SMILES Cc1cccc(-c2ncc(C[NH+]3CCC4(CC3)NC(=O)C[C@H]4C(=O)NCCCNC(=O)c3ccc(-c4c5nc(c(-c6ccccc6)c6ccc([nH]6)c(-c6ccccc6)c6nc(c(-c7ccccc7)c7ccc4[nH]7)C=C6)C=C5)cc3)cn2)c1
REMARK SMILES IDX 26 1 25 2 23 3 24 4 22 6 12 7 13 8 17 9 14 11 16 12 15 13
REMARK SMILES IDX 18 14 19 15 21 17 20 18 11 19 10 20 7 21 8 22 81 23 9 24
REMARK SMILES IDX 80 25 6 26 1 27 2 28 3 29 82 30 4 31 5 32 27 33 28 34 29 35
REMARK SMILES IDX 30 36 31 38 32 39 33 40 79 41 34 42 78 43 35 44 36 45 37 46
REMARK SMILES IDX 72 47 38 48 77 49 71 50 73 51 39 52 76 53 70 54 69 55 40 57
REMARK SMILES IDX 62 58 47 59 61 60 48 61 51 62 60 63 74 64 49 65 50 66 59 68
REMARK SMILES IDX 75 69 52 70 41 71 42 72 46 73 43 74 45 75 44 76 63 77 64 78
REMARK SMILES IDX 68 79 65 80 67 81 66 82 53 83 54 84 58 85 55 86 57 87 56 88
REMARK H PARENT 25 5 12 10 18 16 29 37 73 56 51 67
REMARK Flexibility Score: inf
ROOT
ATOM      1  C   UNL A   1      32.392  30.440  26.100  1.00  0.00     0.117 C 
ENDROOT
BRANCH   1   2
ATOM      2  N   UNL A   1      31.722  29.297  26.723  1.00  0.00    -0.356 N 
ATOM      3  C   UNL A   1      31.342  28.056  26.299  1.00  0.00     0.226 C 
ATOM      4  O   UNL A   1      30.855  27.317  27.164  1.00  0.00    -0.275 OA
ATOM      5  H   UNL A   1      31.492  29.462  27.666  1.00  0.00     0.163 HD
BRANCH   3   6
ATOM      6  C   UNL A   1      31.385  27.542  24.845  1.00  0.00     0.114 C 
ATOM      7  N   UNL A   1      34.690  25.016  24.608  1.00  0.00    -0.331 N 
ATOM      8  C   UNL A   1      34.148  25.599  23.388  1.00  0.00     0.264 C 
ATOM      9  C   UNL A   1      34.170  25.701  25.771  1.00  0.00     0.264 C 
ATOM     10  H   UNL A   1      35.690  25.202  24.536  1.00  0.00     0.348 HD
ATOM     11  C   UNL A   1      32.623  25.771  23.320  1.00  0.00     0.091 C 
ATOM     12  C   UNL A   1      32.663  25.584  25.864  1.00  0.00     0.091 C 
ATOM     13  C   UNL A   1      31.873  26.087  24.652  1.00  0.00     0.063 C 
ATOM     14  N   UNL A   1      30.595  25.400  24.504  1.00  0.00    -0.349 N 
ATOM     15  C   UNL A   1      29.555  26.211  24.103  1.00  0.00     0.221 C 
ATOM     16  H   UNL A   1      30.485  24.438  24.678  1.00  0.00     0.164 HD
ATOM     17  C   UNL A   1      30.013  27.641  24.177  1.00  0.00     0.116 C 
ATOM     18  O   UNL A   1      28.456  25.827  23.772  1.00  0.00    -0.275 OA
BRANCH   7  19
ATOM     19  C   UNL A   1      34.850  23.552  24.721  1.00  0.00     0.302 C 
BRANCH  19  20
ATOM     20  C   UNL A   1      36.246  23.009  24.869  1.00  0.00     0.043 A 
ATOM     21  C   UNL A   1      38.632  21.979  25.695  1.00  0.00     0.159 A 
ATOM     22  N   UNL A   1      37.654  21.119  25.355  1.00  0.00    -0.236 NA
ATOM     23  N   UNL A   1      38.546  23.319  25.566  1.00  0.00    -0.236 NA
ATOM     24  C   UNL A   1      36.502  21.656  24.902  1.00  0.00     0.124 A 
ATOM     25  C   UNL A   1      37.351  23.802  25.143  1.00  0.00     0.124 A 
BRANCH  21  26
ATOM     26  C   UNL A   1      39.808  21.416  26.375  1.00  0.00     0.019 A 
ATOM     27  C   UNL A   1      42.295  18.525  25.920  1.00  0.00     0.044 C 
ATOM     28  C   UNL A   1      41.614  19.740  26.482  1.00  0.00    -0.050 A 
ATOM     29  C   UNL A   1      42.092  20.340  27.647  1.00  0.00     0.003 A 
ATOM     30  C   UNL A   1      40.498  20.303  25.847  1.00  0.00     0.015 A 
ATOM     31  C   UNL A   1      41.438  21.450  28.184  1.00  0.00     0.001 A 
ATOM     32  C   UNL A   1      40.296  21.971  27.563  1.00  0.00     0.012 A 
ENDBRANCH  21  26
ENDBRANCH  19  20
ENDBRANCH   7  19
ENDBRANCH   3   6
ENDBRANCH   1   2
BRANCH   1  33
ATOM     33  C   UNL A   1      33.117  31.385  27.055  1.00  0.00     0.042 C 
BRANCH  33  34
ATOM     34  C   UNL A   1      34.016  30.715  28.081  1.00  0.00     0.118 C 
BRANCH  34  35
ATOM     35  N   UNL A   1      35.126  31.592  28.472  1.00  0.00    -0.352 N 
ATOM     36  C   UNL A   1      36.457  31.335  28.743  1.00  0.00     0.251 C 
ATOM     37  H   UNL A   1      34.875  32.541  28.557  1.00  0.00     0.163 HD
ATOM     38  O   UNL A   1      37.214  32.254  29.043  1.00  0.00    -0.269 OA
BRANCH  36  39
ATOM     39  C   UNL A   1      37.009  29.992  28.472  1.00  0.00     0.039 A 
ATOM     40  C   UNL A   1      37.116  29.174  29.604  1.00  0.00     0.014 A 
ATOM     41  C   UNL A   1      37.840  29.821  27.378  1.00  0.00     0.014 A 
ATOM     42  C   UNL A   1      38.299  28.490  29.808  1.00  0.00     0.010 A 
ATOM     43  C   UNL A   1      39.069  29.265  27.631  1.00  0.00     0.010 A 
ATOM     44  C   UNL A   1      39.314  28.686  28.880  1.00  0.00    -0.014 A 
BRANCH  44  45
ATOM     45  C   UNL A   1      40.678  28.264  29.095  1.00  0.00     0.031 A 
ATOM     46  C   UNL A   1      41.024  26.939  28.576  1.00  0.00     0.074 A 
ATOM     47  C   UNL A   1      41.561  29.117  29.656  1.00  0.00     0.049 A 
ATOM     48  N   UNL A   1      41.983  26.216  29.020  1.00  0.00    -0.248 NA
ATOM     49  C   UNL A   1      40.234  26.276  27.536  1.00  0.00     0.031 C 
ATOM     50  C   UNL A   1      43.014  29.011  29.726  1.00  0.00     0.029 A 
ATOM     51  N   UNL A   1      41.262  30.199  30.484  1.00  0.00    -0.354 N 
ATOM     52  C   UNL A   1      42.148  25.185  28.124  1.00  0.00     0.074 A 
ATOM     53  C   UNL A   1      40.968  25.188  27.300  1.00  0.00     0.031 C 
ATOM     54  C   UNL A   1      43.461  29.786  30.732  1.00  0.00     0.029 A 
ATOM     55  C   UNL A   1      42.292  30.294  31.435  1.00  0.00     0.049 A 
ATOM     56  H   UNL A   1      40.475  30.787  30.413  1.00  0.00     0.167 HD
ATOM     57  C   UNL A   1      43.359  24.571  28.070  1.00  0.00     0.031 A 
ATOM     58  C   UNL A   1      42.023  30.066  32.757  1.00  0.00     0.031 A 
ATOM     59  C   UNL A   1      44.235  25.094  29.114  1.00  0.00     0.049 A 
ATOM     60  C   UNL A   1      42.709  28.816  33.267  1.00  0.00     0.074 A 
ATOM     61  C   UNL A   1      45.205  26.083  29.104  1.00  0.00     0.029 A 
ATOM     62  N   UNL A   1      43.873  24.907  30.442  1.00  0.00    -0.354 N 
ATOM     63  N   UNL A   1      43.074  27.818  32.504  1.00  0.00    -0.248 NA
ATOM     64  C   UNL A   1      43.079  28.612  34.664  1.00  0.00     0.031 C 
ATOM     65  C   UNL A   1      45.372  26.540  30.441  1.00  0.00     0.029 A 
ATOM     66  C   UNL A   1      44.529  25.808  31.259  1.00  0.00     0.049 A 
ATOM     67  H   UNL A   1      43.237  24.225  30.758  1.00  0.00     0.167 HD
ATOM     68  C   UNL A   1      43.758  26.893  33.251  1.00  0.00     0.074 A 
ATOM     69  C   UNL A   1      43.718  27.430  34.601  1.00  0.00     0.031 C 
ATOM     70  C   UNL A   1      44.319  25.775  32.701  1.00  0.00     0.031 A 
BRANCH  57  71
ATOM     71  C   UNL A   1      43.836  23.761  26.895  1.00  0.00    -0.014 A 
ATOM     72  C   UNL A   1      43.069  23.766  25.716  1.00  0.00     0.009 A 
ATOM     73  C   UNL A   1      44.977  22.943  26.888  1.00  0.00     0.009 A 
ATOM     74  C   UNL A   1      43.387  22.958  24.618  1.00  0.00     0.001 A 
ATOM     75  C   UNL A   1      45.288  22.110  25.802  1.00  0.00     0.001 A 
ATOM     76  C   UNL A   1      44.489  22.116  24.668  1.00  0.00     0.000 A 
ENDBRANCH  57  71
BRANCH  58  77
ATOM     77  C   UNL A   1      40.658  30.546  33.142  1.00  0.00    -0.014 A 
ATOM     78  C   UNL A   1      40.268  31.822  32.673  1.00  0.00     0.009 A 
ATOM     79  C   UNL A   1      39.655  29.638  33.504  1.00  0.00     0.009 A 
ATOM     80  C   UNL A   1      38.928  32.102  32.384  1.00  0.00     0.001 A 
ATOM     81  C   UNL A   1      38.310  29.939  33.243  1.00  0.00     0.001 A 
ATOM     82  C   UNL A   1      37.954  31.140  32.628  1.00  0.00     0.000 A 
ENDBRANCH  58  77
BRANCH  70  83
ATOM     83  C   UNL A   1      44.808  24.549  33.446  1.00  0.00    -0.014 A 
ATOM     84  C   UNL A   1      46.020  24.465  34.135  1.00  0.00     0.009 A 
ATOM     85  C   UNL A   1      43.937  23.438  33.584  1.00  0.00     0.009 A 
ATOM     86  C   UNL A   1      46.364  23.326  34.880  1.00  0.00     0.001 A 
ATOM     87  C   UNL A   1      44.244  22.331  34.377  1.00  0.00     0.001 A 
ATOM     88  C   UNL A   1      45.470  22.268  35.013  1.00  0.00     0.000 A 
ENDBRANCH  70  83
ENDBRANCH  44  45
ENDBRANCH  36  39
ENDBRANCH  34  35
ENDBRANCH  33  34
ENDBRANCH   1  33
TORSDOF 13
ENDMDL
MODEL 3
REMARK VINA RESULT:     -12.9      3.203      9.455
REMARK SMILES Cc1cccc(-c2ncc(C[NH+]3CCC4(CC3)NC(=O)C[C@H]4C(=O)NCCCNC(=O)c3ccc(-c4c5nc(c(-c6ccccc6)c6ccc([nH]6)c(-c6ccccc6)c6nc(c(-c7ccccc7)c7ccc4[nH]7)C=C6)C=C5)cc3)cn2)c1
REMARK SMILES IDX 26 1 25 2 23 3 24 4 22 6 12 7 13 8 17 9 14 11 16 12 15 13
REMARK SMILES IDX 18 14 19 15 21 17 20 18 11 19 10 20 7 21 8 22 81 23 9 24
REMARK SMILES IDX 80 25 6 26 1 27 2 28 3 29 82 30 4 31 5 32 27 33 28 34 29 35
REMARK SMILES IDX 30 36 31 38 32 39 33 40 79 41 34 42 78 43 35 44 36 45 37 46
REMARK SMILES IDX 72 47 38 48 77 49 71 50 73 51 39 52 76 53 70 54 69 55 40 57
REMARK SMILES IDX 62 58 47 59 61 60 48 61 51 62 60 63 74 64 49 65 50 66 59 68
REMARK SMILES IDX 75 69 52 70 41 71 42 72 46 73 43 74 45 75 44 76 63 77 64 78
REMARK SMILES IDX 68 79 65 80 67 81 66 82 53 83 54 84 58 85 55 86 57 87 56 88
REMARK H PARENT 25 5 12 10 18 16 29 37 73 56 51 67
REMARK Flexibility Score: inf
ROOT
ATOM      1  C   UNL A   1      33.772  29.474  26.455  1.00  0.00     0.117 C 
ENDROOT
BRANCH   1   2
ATOM      2  N   UNL A   1      32.586  28.767  26.944  1.00  0.00    -0.356 N 
ATOM      3  C   UNL A   1      31.678  27.912  26.388  1.00  0.00     0.226 C 
ATOM      4  O   UNL A   1      30.833  27.446  27.163  1.00  0.00    -0.275 OA
ATOM      5  H   UNL A   1      32.401  28.951  27.893  1.00  0.00     0.163 HD
BRANCH   3   6
ATOM      6  C   UNL A   1      31.566  27.557  24.891  1.00  0.00     0.114 C 
ATOM      7  N   UNL A   1      34.727  24.968  24.075  1.00  0.00    -0.331 N 
ATOM      8  C   UNL A   1      34.100  25.697  22.980  1.00  0.00     0.264 C 
ATOM      9  C   UNL A   1      34.346  25.540  25.348  1.00  0.00     0.264 C 
ATOM     10  H   UNL A   1      35.724  25.130  23.928  1.00  0.00     0.348 HD
ATOM     11  C   UNL A   1      32.583  25.922  23.078  1.00  0.00     0.091 C 
ATOM     12  C   UNL A   1      32.851  25.462  25.573  1.00  0.00     0.091 C 
ATOM     13  C   UNL A   1      31.974  26.117  24.501  1.00  0.00     0.063 C 
ATOM     14  N   UNL A   1      30.660  25.490  24.406  1.00  0.00    -0.349 N 
ATOM     15  C   UNL A   1      29.621  26.372  24.193  1.00  0.00     0.221 C 
ATOM     16  H   UNL A   1      30.526  24.518  24.488  1.00  0.00     0.164 HD
ATOM     17  C   UNL A   1      30.143  27.770  24.372  1.00  0.00     0.116 C 
ATOM     18  O   UNL A   1      28.482  26.061  23.932  1.00  0.00    -0.275 OA
BRANCH   7  19
ATOM     19  C   UNL A   1      34.837  23.497  24.019  1.00  0.00     0.302 C 
BRANCH  19  20
ATOM     20  C   UNL A   1      35.930  22.843  24.822  1.00  0.00     0.043 A 
ATOM     21  C   UNL A   1      38.252  21.854  25.852  1.00  0.00     0.159 A 
ATOM     22  N   UNL A   1      37.900  23.113  26.175  1.00  0.00    -0.236 NA
ATOM     23  N   UNL A   1      37.487  21.012  25.128  1.00  0.00    -0.236 NA
ATOM     24  C   UNL A   1      36.722  23.558  25.692  1.00  0.00     0.124 A 
ATOM     25  C   UNL A   1      36.332  21.529  24.637  1.00  0.00     0.124 A 
BRANCH  21  26
ATOM     26  C   UNL A   1      39.616  21.432  26.203  1.00  0.00     0.019 A 
ATOM     27  C   UNL A   1      42.719  22.865  27.955  1.00  0.00     0.044 C 
ATOM     28  C   UNL A   1      41.799  21.913  27.246  1.00  0.00    -0.050 A 
ATOM     29  C   UNL A   1      42.230  20.629  26.918  1.00  0.00     0.003 A 
ATOM     30  C   UNL A   1      40.489  22.287  26.910  1.00  0.00     0.015 A 
ATOM     31  C   UNL A   1      41.384  19.757  26.232  1.00  0.00     0.001 A 
ATOM     32  C   UNL A   1      40.096  20.163  25.862  1.00  0.00     0.012 A 
ENDBRANCH  21  26
ENDBRANCH  19  20
ENDBRANCH   7  19
ENDBRANCH   3   6
ENDBRANCH   1   2
BRANCH   1  33
ATOM     33  C   UNL A   1      35.053  29.255  27.256  1.00  0.00     0.042 C 
BRANCH  33  34
ATOM     34  C   UNL A   1      35.431  30.380  28.205  1.00  0.00     0.118 C 
BRANCH  34  35
ATOM     35  N   UNL A   1      34.550  31.541  28.034  1.00  0.00    -0.352 N 
ATOM     36  C   UNL A   1      34.501  32.767  28.671  1.00  0.00     0.251 C 
ATOM     37  H   UNL A   1      33.866  31.425  27.335  1.00  0.00     0.163 HD
ATOM     38  O   UNL A   1      33.665  33.602  28.339  1.00  0.00    -0.269 OA
BRANCH  36  39
ATOM     39  C   UNL A   1      35.581  33.146  29.605  1.00  0.00     0.039 A 
ATOM     40  C   UNL A   1      36.655  33.814  29.004  1.00  0.00     0.014 A 
ATOM     41  C   UNL A   1      35.749  32.408  30.765  1.00  0.00     0.014 A 
ATOM     42  C   UNL A   1      37.937  33.401  29.312  1.00  0.00     0.010 A 
ATOM     43  C   UNL A   1      37.001  31.891  30.978  1.00  0.00     0.010 A 
ATOM     44  C   UNL A   1      38.067  32.328  30.184  1.00  0.00    -0.014 A 
BRANCH  44  45
ATOM     45  C   UNL A   1      39.307  31.617  30.389  1.00  0.00     0.031 A 
ATOM     46  C   UNL A   1      39.412  30.315  29.728  1.00  0.00     0.074 A 
ATOM     47  C   UNL A   1      40.309  32.207  31.075  1.00  0.00     0.049 A 
ATOM     48  N   UNL A   1      40.183  29.369  30.112  1.00  0.00    -0.248 NA
ATOM     49  C   UNL A   1      38.564  29.944  28.592  1.00  0.00     0.031 C 
ATOM     50  C   UNL A   1      41.707  31.802  31.177  1.00  0.00     0.029 A 
ATOM     51  N   UNL A   1      40.185  33.229  32.016  1.00  0.00    -0.354 N 
ATOM     52  C   UNL A   1      40.190  28.431  29.106  1.00  0.00     0.074 A 
ATOM     53  C   UNL A   1      39.080  28.763  28.252  1.00  0.00     0.031 C 
ATOM     54  C   UNL A   1      42.243  32.354  32.282  1.00  0.00     0.029 A 
ATOM     55  C   UNL A   1      41.161  33.008  33.003  1.00  0.00     0.049 A 
ATOM     56  H   UNL A   1      39.535  33.969  31.991  1.00  0.00     0.167 HD
ATOM     57  C   UNL A   1      41.257  27.593  29.017  1.00  0.00     0.031 A 
ATOM     58  C   UNL A   1      40.780  32.696  34.279  1.00  0.00     0.031 A 
ATOM     59  C   UNL A   1      42.161  27.810  30.143  1.00  0.00     0.049 A 
ATOM     60  C   UNL A   1      41.177  31.284  34.659  1.00  0.00     0.074 A 
ATOM     61  C   UNL A   1      43.307  28.577  30.281  1.00  0.00     0.029 A 
ATOM     62  N   UNL A   1      41.698  27.555  31.428  1.00  0.00    -0.354 N 
ATOM     63  N   UNL A   1      41.378  30.323  33.795  1.00  0.00    -0.248 NA
ATOM     64  C   UNL A   1      41.423  30.856  36.032  1.00  0.00     0.031 C 
ATOM     65  C   UNL A   1      43.487  28.841  31.666  1.00  0.00     0.029 A 
ATOM     66  C   UNL A   1      42.473  28.209  32.365  1.00  0.00     0.049 A 
ATOM     67  H   UNL A   1      40.923  26.986  31.640  1.00  0.00     0.167 HD
ATOM     68  C   UNL A   1      41.824  29.202  34.448  1.00  0.00     0.074 A 
ATOM     69  C   UNL A   1      41.819  29.584  35.849  1.00  0.00     0.031 C 
ATOM     70  C   UNL A   1      42.183  28.060  33.787  1.00  0.00     0.031 A 
BRANCH  57  71
ATOM     71  C   UNL A   1      41.627  26.837  27.770  1.00  0.00    -0.014 A 
ATOM     72  C   UNL A   1      42.986  26.725  27.428  1.00  0.00     0.009 A 
ATOM     73  C   UNL A   1      40.712  26.263  26.872  1.00  0.00     0.009 A 
ATOM     74  C   UNL A   1      43.405  26.130  26.232  1.00  0.00     0.001 A 
ATOM     75  C   UNL A   1      41.122  25.689  25.660  1.00  0.00     0.001 A 
ATOM     76  C   UNL A   1      42.470  25.626  25.338  1.00  0.00     0.000 A 
ENDBRANCH  57  71
BRANCH  58  77
ATOM     77  C   UNL A   1      39.518  33.397  34.676  1.00  0.00    -0.014 A 
ATOM     78  C   UNL A   1      38.303  32.855  34.198  1.00  0.00     0.009 A 
ATOM     79  C   UNL A   1      39.479  34.210  35.815  1.00  0.00     0.009 A 
ATOM     80  C   UNL A   1      37.127  32.955  34.950  1.00  0.00     0.001 A 
ATOM     81  C   UNL A   1      38.288  34.334  36.547  1.00  0.00     0.001 A 
ATOM     82  C   UNL A   1      37.134  33.658  36.150  1.00  0.00     0.000 A 
ENDBRANCH  58  77
BRANCH  70  83
ATOM     83  C   UNL A   1      42.378  26.687  34.395  1.00  0.00    -0.014 A 
ATOM     84  C   UNL A   1      41.434  26.022  35.183  1.00  0.00     0.009 A 
ATOM     85  C   UNL A   1      43.533  25.941  34.050  1.00  0.00     0.009 A 
ATOM     86  C   UNL A   1      41.649  24.711  35.636  1.00  0.00     0.001 A 
ATOM     87  C   UNL A   1      43.722  24.615  34.441  1.00  0.00     0.001 A 
ATOM     88  C   UNL A   1      42.784  24.004  35.252  1.00  0.00     0.000 A 
ENDBRANCH  70  83
ENDBRANCH  44  45
ENDBRANCH  36  39
ENDBRANCH  34  35
ENDBRANCH  33  34
ENDBRANCH   1  33
TORSDOF 13
ENDMDL
