MODEL 1
REMARK VINA RESULT:     -10.5      0.000      0.000
REMARK SMILES CC[NH+](CC)[C@@H](C(=O)NCCCNC(=O)c1ccc(-c2c3nc(c(-c4ccccc4)c4ccc([nH]4)c(-c4ccccc4)c4nc(c(-c5ccccc5)c5ccc2[nH]5)C=C4)C=C3)cc1)c1ccc(C2CC2)cc1
REMARK SMILES IDX 11 1 10 2 9 3 7 4 8 5 6 7 3 8 2 10 1 11 4 12 5 13 64 14
REMARK SMILES IDX 65 15 72 16 66 17 71 18 67 19 68 20 69 21 70 22 12 23 13 24
REMARK SMILES IDX 14 25 15 27 16 28 17 29 63 30 18 31 62 32 19 33 20 34 21 35
REMARK SMILES IDX 56 36 22 37 61 38 55 39 57 40 23 41 60 42 54 43 53 44 24 46
REMARK SMILES IDX 46 47 31 48 45 49 32 50 35 51 44 52 58 53 33 54 34 55 43 57
REMARK SMILES IDX 59 58 36 59 25 60 26 61 30 62 27 63 29 64 28 65 47 66 48 67
REMARK SMILES IDX 52 68 49 69 51 70 50 71 37 72 38 73 42 74 39 75 41 76 40 77
REMARK H PARENT 9 6 3 9 13 26 57 45 35 56
REMARK Flexibility Score: inf
ROOT
ATOM      1  C   UNL A   1      36.084  24.014  25.811  1.00  0.00     0.042 C 
ENDROOT
BRANCH   1   2
ATOM      2  C   UNL A   1      34.850  24.755  25.264  1.00  0.00     0.118 C 
BRANCH   2   3
ATOM      3  N   UNL A   1      34.554  24.484  23.865  1.00  0.00    -0.351 N 
ATOM      4  C   UNL A   1      33.654  23.685  23.210  1.00  0.00     0.283 C 
ATOM      5  O   UNL A   1      33.826  23.630  21.986  1.00  0.00    -0.268 OA
ATOM      6  H   UNL A   1      35.132  24.990  23.249  1.00  0.00     0.163 HD
BRANCH   4   7
ATOM      7  C   UNL A   1      32.539  22.885  23.955  1.00  0.00     0.305 C 
BRANCH   7   8
ATOM      8  N   UNL A   1      31.931  23.645  25.099  1.00  0.00    -0.321 N 
ATOM      9  H   UNL A   1      32.740  24.218  25.340  1.00  0.00     0.349 HD
BRANCH   8  10
ATOM     10  C   UNL A   1      30.908  24.651  24.798  1.00  0.00     0.259 C 
ATOM     11  C   UNL A   1      31.343  26.053  25.220  1.00  0.00     0.071 C 
ENDBRANCH   8  10
BRANCH   8  12
ATOM     12  C   UNL A   1      31.626  22.864  26.295  1.00  0.00     0.259 C 
ATOM     13  C   UNL A   1      30.181  22.906  26.799  1.00  0.00     0.071 C 
ENDBRANCH   8  12
ENDBRANCH   7   8
BRANCH   7  14
ATOM     14  C   UNL A   1      32.959  21.462  24.388  1.00  0.00     0.019 A 
ATOM     15  C   UNL A   1      34.304  21.201  24.703  1.00  0.00     0.011 A 
ATOM     16  C   UNL A   1      32.102  20.355  24.282  1.00  0.00     0.011 A 
ATOM     17  C   UNL A   1      34.785  19.883  24.776  1.00  0.00     0.004 A 
ATOM     18  C   UNL A   1      32.587  19.044  24.363  1.00  0.00     0.004 A 
ATOM     19  C   UNL A   1      33.950  18.780  24.538  1.00  0.00    -0.045 A 
BRANCH  19  20
ATOM     20  C   UNL A   1      34.517  17.382  24.408  1.00  0.00     0.019 C 
ATOM     21  C   UNL A   1      33.618  16.164  24.359  1.00  0.00     0.009 C 
ATOM     22  C   UNL A   1      34.280  16.642  23.105  1.00  0.00     0.009 C 
ENDBRANCH  19  20
ENDBRANCH   7  14
ENDBRANCH   4   7
ENDBRANCH   2   3
ENDBRANCH   1   2
BRANCH   1  23
ATOM     23  C   UNL A   1      37.153  23.588  24.800  1.00  0.00     0.118 C 
BRANCH  23  24
ATOM     24  N   UNL A   1      38.070  22.598  25.338  1.00  0.00    -0.352 N 
ATOM     25  C   UNL A   1      39.162  22.777  26.150  1.00  0.00     0.251 C 
ATOM     26  H   UNL A   1      37.883  21.665  25.083  1.00  0.00     0.163 HD
ATOM     27  O   UNL A   1      39.931  21.831  26.343  1.00  0.00    -0.269 OA
BRANCH  25  28
ATOM     28  C   UNL A   1      39.452  24.082  26.796  1.00  0.00     0.039 A 
ATOM     29  C   UNL A   1      40.184  25.035  26.078  1.00  0.00     0.014 A 
ATOM     30  C   UNL A   1      39.103  24.344  28.126  1.00  0.00     0.014 A 
ATOM     31  C   UNL A   1      40.541  26.251  26.673  1.00  0.00     0.010 A 
ATOM     32  C   UNL A   1      39.430  25.576  28.710  1.00  0.00     0.010 A 
ATOM     33  C   UNL A   1      40.162  26.537  27.995  1.00  0.00    -0.014 A 
BRANCH  33  34
ATOM     34  C   UNL A   1      40.546  27.827  28.633  1.00  0.00     0.031 A 
ATOM     35  C   UNL A   1      41.945  28.044  29.147  1.00  0.00     0.074 A 
ATOM     36  C   UNL A   1      39.635  28.810  28.771  1.00  0.00     0.049 A 
ATOM     37  N   UNL A   1      42.455  29.098  29.737  1.00  0.00    -0.248 NA
ATOM     38  C   UNL A   1      42.891  26.929  28.987  1.00  0.00     0.031 C 
ATOM     39  C   UNL A   1      38.240  28.739  28.334  1.00  0.00     0.029 A 
ATOM     40  N   UNL A   1      39.748  30.063  29.323  1.00  0.00    -0.354 N 
ATOM     41  C   UNL A   1      43.774  28.770  30.028  1.00  0.00     0.074 A 
ATOM     42  C   UNL A   1      43.976  27.409  29.580  1.00  0.00     0.031 C 
ATOM     43  C   UNL A   1      37.631  29.901  28.622  1.00  0.00     0.029 A 
ATOM     44  C   UNL A   1      38.582  30.789  29.286  1.00  0.00     0.049 A 
ATOM     45  H   UNL A   1      40.586  30.408  29.708  1.00  0.00     0.167 HD
ATOM     46  C   UNL A   1      44.735  29.534  30.603  1.00  0.00     0.031 A 
ATOM     47  C   UNL A   1      38.304  32.028  29.737  1.00  0.00     0.031 A 
ATOM     48  C   UNL A   1      44.552  30.891  31.045  1.00  0.00     0.049 A 
ATOM     49  C   UNL A   1      39.382  32.846  30.392  1.00  0.00     0.074 A 
ATOM     50  C   UNL A   1      45.487  31.754  31.592  1.00  0.00     0.029 A 
ATOM     51  N   UNL A   1      43.353  31.583  30.995  1.00  0.00    -0.354 N 
ATOM     52  N   UNL A   1      40.637  32.539  30.604  1.00  0.00    -0.248 NA
ATOM     53  C   UNL A   1      39.002  34.188  30.859  1.00  0.00     0.031 C 
ATOM     54  C   UNL A   1      44.845  32.954  31.913  1.00  0.00     0.029 A 
ATOM     55  C   UNL A   1      43.520  32.854  31.524  1.00  0.00     0.049 A 
ATOM     56  H   UNL A   1      42.509  31.226  30.638  1.00  0.00     0.167 HD
ATOM     57  C   UNL A   1      41.203  33.657  31.205  1.00  0.00     0.074 A 
ATOM     58  C   UNL A   1      40.158  34.653  31.313  1.00  0.00     0.031 C 
ATOM     59  C   UNL A   1      42.477  33.839  31.628  1.00  0.00     0.031 A 
BRANCH  46  60
ATOM     60  C   UNL A   1      46.088  28.909  30.799  1.00  0.00    -0.014 A 
ATOM     61  C   UNL A   1      47.085  29.017  29.818  1.00  0.00     0.009 A 
ATOM     62  C   UNL A   1      46.385  28.248  32.002  1.00  0.00     0.009 A 
ATOM     63  C   UNL A   1      48.344  28.448  30.024  1.00  0.00     0.001 A 
ATOM     64  C   UNL A   1      47.651  27.701  32.214  1.00  0.00     0.001 A 
ATOM     65  C   UNL A   1      48.627  27.794  31.223  1.00  0.00     0.000 A 
ENDBRANCH  46  60
BRANCH  47  66
ATOM     66  C   UNL A   1      36.936  32.584  29.579  1.00  0.00    -0.014 A 
ATOM     67  C   UNL A   1      36.573  33.257  28.404  1.00  0.00     0.009 A 
ATOM     68  C   UNL A   1      35.992  32.455  30.610  1.00  0.00     0.009 A 
ATOM     69  C   UNL A   1      35.298  33.811  28.272  1.00  0.00     0.001 A 
ATOM     70  C   UNL A   1      34.710  32.989  30.465  1.00  0.00     0.001 A 
ATOM     71  C   UNL A   1      34.367  33.674  29.301  1.00  0.00     0.000 A 
ENDBRANCH  47  66
BRANCH  59  72
ATOM     72  C   UNL A   1      42.822  35.176  32.221  1.00  0.00    -0.014 A 
ATOM     73  C   UNL A   1      42.507  35.483  33.552  1.00  0.00     0.009 A 
ATOM     74  C   UNL A   1      43.503  36.126  31.444  1.00  0.00     0.009 A 
ATOM     75  C   UNL A   1      42.843  36.729  34.087  1.00  0.00     0.001 A 
ATOM     76  C   UNL A   1      43.858  37.362  31.989  1.00  0.00     0.001 A 
ATOM     77  C   UNL A   1      43.521  37.665  33.307  1.00  0.00     0.000 A 
ENDBRANCH  59  72
ENDBRANCH  33  34
ENDBRANCH  25  28
ENDBRANCH  23  24
ENDBRANCH   1  23
TORSDOF 15
ENDMDL
MODEL 2
REMARK VINA RESULT:     -10.5      2.900      8.191
REMARK SMILES CC[NH+](CC)[C@@H](C(=O)NCCCNC(=O)c1ccc(-c2c3nc(c(-c4ccccc4)c4ccc([nH]4)c(-c4ccccc4)c4nc(c(-c5ccccc5)c5ccc2[nH]5)C=C4)C=C3)cc1)c1ccc(C2CC2)cc1
REMARK SMILES IDX 11 1 10 2 9 3 7 4 8 5 6 7 3 8 2 10 1 11 4 12 5 13 64 14
REMARK SMILES IDX 65 15 72 16 66 17 71 18 67 19 68 20 69 21 70 22 12 23 13 24
REMARK SMILES IDX 14 25 15 27 16 28 17 29 63 30 18 31 62 32 19 33 20 34 21 35
REMARK SMILES IDX 56 36 22 37 61 38 55 39 57 40 23 41 60 42 54 43 53 44 24 46
REMARK SMILES IDX 46 47 31 48 45 49 32 50 35 51 44 52 58 53 33 54 34 55 43 57
REMARK SMILES IDX 59 58 36 59 25 60 26 61 30 62 27 63 29 64 28 65 47 66 48 67
REMARK SMILES IDX 52 68 49 69 51 70 50 71 37 72 38 73 42 74 39 75 41 76 40 77
REMARK H PARENT 9 6 3 9 13 26 57 45 35 56
REMARK Flexibility Score: inf
ROOT
ATOM      1  C   UNL A   1      32.880  28.203  26.061  1.00  0.00     0.042 C 
ENDROOT
BRANCH   1   2
ATOM      2  C   UNL A   1      31.446  27.736  26.374  1.00  0.00     0.118 C 
BRANCH   2   3
ATOM      3  N   UNL A   1      31.352  26.377  26.888  1.00  0.00    -0.351 N 
ATOM      4  C   UNL A   1      31.276  25.135  26.313  1.00  0.00     0.283 C 
ATOM      5  O   UNL A   1      31.060  24.220  27.117  1.00  0.00    -0.268 OA
ATOM      6  H   UNL A   1      31.340  26.342  27.871  1.00  0.00     0.163 HD
BRANCH   4   7
ATOM      7  C   UNL A   1      31.410  24.909  24.774  1.00  0.00     0.305 C 
BRANCH   7   8
ATOM      8  N   UNL A   1      32.836  24.790  24.317  1.00  0.00    -0.321 N 
ATOM      9  H   UNL A   1      32.902  25.674  23.814  1.00  0.00     0.349 HD
BRANCH   8  10
ATOM     10  C   UNL A   1      33.898  24.915  25.320  1.00  0.00     0.259 C 
ATOM     11  C   UNL A   1      35.168  24.175  24.904  1.00  0.00     0.071 C 
ENDBRANCH   8  10
BRANCH   8  12
ATOM     12  C   UNL A   1      33.106  23.748  23.330  1.00  0.00     0.259 C 
ATOM     13  C   UNL A   1      32.185  22.524  23.346  1.00  0.00     0.071 C 
ENDBRANCH   8  12
ENDBRANCH   7   8
BRANCH   7  14
ATOM     14  C   UNL A   1      30.628  25.926  23.911  1.00  0.00     0.019 A 
ATOM     15  C   UNL A   1      31.327  26.772  23.032  1.00  0.00     0.011 A 
ATOM     16  C   UNL A   1      29.266  26.198  24.112  1.00  0.00     0.011 A 
ATOM     17  C   UNL A   1      30.712  27.911  22.487  1.00  0.00     0.004 A 
ATOM     18  C   UNL A   1      28.657  27.332  23.560  1.00  0.00     0.004 A 
ATOM     19  C   UNL A   1      29.385  28.252  22.797  1.00  0.00    -0.045 A 
BRANCH  19  20
ATOM     20  C   UNL A   1      28.801  29.585  22.381  1.00  0.00     0.019 C 
ATOM     21  C   UNL A   1      27.501  30.098  22.965  1.00  0.00     0.009 C 
ATOM     22  C   UNL A   1      28.795  30.704  23.406  1.00  0.00     0.009 C 
ENDBRANCH  19  20
ENDBRANCH   7  14
ENDBRANCH   4   7
ENDBRANCH   2   3
ENDBRANCH   1   2
BRANCH   1  23
ATOM     23  C   UNL A   1      33.771  28.578  27.250  1.00  0.00     0.118 C 
BRANCH  23  24
ATOM     24  N   UNL A   1      33.642  29.974  27.628  1.00  0.00    -0.352 N 
ATOM     25  C   UNL A   1      34.530  30.778  28.299  1.00  0.00     0.251 C 
ATOM     26  H   UNL A   1      32.797  30.407  27.366  1.00  0.00     0.163 HD
ATOM     27  O   UNL A   1      34.157  31.885  28.697  1.00  0.00    -0.269 OA
BRANCH  25  28
ATOM     28  C   UNL A   1      35.925  30.349  28.571  1.00  0.00     0.039 A 
ATOM     29  C   UNL A   1      36.870  30.460  27.544  1.00  0.00     0.014 A 
ATOM     30  C   UNL A   1      36.293  29.752  29.781  1.00  0.00     0.014 A 
ATOM     31  C   UNL A   1      38.179  30.002  27.733  1.00  0.00     0.010 A 
ATOM     32  C   UNL A   1      37.614  29.326  29.983  1.00  0.00     0.010 A 
ATOM     33  C   UNL A   1      38.567  29.435  28.958  1.00  0.00    -0.014 A 
BRANCH  33  34
ATOM     34  C   UNL A   1      39.958  28.942  29.160  1.00  0.00     0.031 A 
ATOM     35  C   UNL A   1      41.007  29.829  29.776  1.00  0.00     0.074 A 
ATOM     36  C   UNL A   1      40.294  27.695  28.774  1.00  0.00     0.049 A 
ATOM     37  N   UNL A   1      42.269  29.570  30.019  1.00  0.00    -0.248 NA
ATOM     38  C   UNL A   1      40.588  31.186  30.158  1.00  0.00     0.031 C 
ATOM     39  C   UNL A   1      39.389  26.728  28.151  1.00  0.00     0.029 A 
ATOM     40  N   UNL A   1      41.494  27.029  28.848  1.00  0.00    -0.354 N 
ATOM     41  C   UNL A   1      42.795  30.732  30.572  1.00  0.00     0.074 A 
ATOM     42  C   UNL A   1      41.726  31.706  30.597  1.00  0.00     0.031 C 
ATOM     43  C   UNL A   1      40.062  25.590  27.913  1.00  0.00     0.029 A 
ATOM     44  C   UNL A   1      41.449  25.753  28.340  1.00  0.00     0.049 A 
ATOM     45  H   UNL A   1      42.309  27.429  29.229  1.00  0.00     0.167 HD
ATOM     46  C   UNL A   1      44.050  30.966  31.029  1.00  0.00     0.031 A 
ATOM     47  C   UNL A   1      42.412  24.819  28.226  1.00  0.00     0.031 A 
ATOM     48  C   UNL A   1      45.121  30.005  31.019  1.00  0.00     0.049 A 
ATOM     49  C   UNL A   1      43.802  25.111  28.720  1.00  0.00     0.074 A 
ATOM     50  C   UNL A   1      46.409  30.144  31.510  1.00  0.00     0.029 A 
ATOM     51  N   UNL A   1      45.033  28.729  30.488  1.00  0.00    -0.354 N 
ATOM     52  N   UNL A   1      44.263  26.195  29.292  1.00  0.00    -0.248 NA
ATOM     53  C   UNL A   1      44.799  24.042  28.560  1.00  0.00     0.031 C 
ATOM     54  C   UNL A   1      47.114  28.967  31.238  1.00  0.00     0.029 A 
ATOM     55  C   UNL A   1      46.250  28.079  30.619  1.00  0.00     0.049 A 
ATOM     56  H   UNL A   1      44.226  28.342  30.080  1.00  0.00     0.167 HD
ATOM     57  C   UNL A   1      45.596  25.930  29.584  1.00  0.00     0.074 A 
ATOM     58  C   UNL A   1      45.866  24.580  29.137  1.00  0.00     0.031 C 
ATOM     59  C   UNL A   1      46.512  26.736  30.171  1.00  0.00     0.031 A 
BRANCH  46  60
ATOM     60  C   UNL A   1      44.341  32.335  31.579  1.00  0.00    -0.014 A 
ATOM     61  C   UNL A   1      44.167  32.620  32.941  1.00  0.00     0.009 A 
ATOM     62  C   UNL A   1      44.843  33.335  30.731  1.00  0.00     0.009 A 
ATOM     63  C   UNL A   1      44.462  33.892  33.440  1.00  0.00     0.001 A 
ATOM     64  C   UNL A   1      45.157  34.598  31.236  1.00  0.00     0.001 A 
ATOM     65  C   UNL A   1      44.959  34.877  32.588  1.00  0.00     0.000 A 
ENDBRANCH  46  60
BRANCH  47  66
ATOM     66  C   UNL A   1      42.097  23.500  27.619  1.00  0.00    -0.014 A 
ATOM     67  C   UNL A   1      42.376  23.254  26.267  1.00  0.00     0.009 A 
ATOM     68  C   UNL A   1      41.503  22.487  28.387  1.00  0.00     0.009 A 
ATOM     69  C   UNL A   1      42.046  22.027  25.689  1.00  0.00     0.001 A 
ATOM     70  C   UNL A   1      41.195  21.253  27.812  1.00  0.00     0.001 A 
ATOM     71  C   UNL A   1      41.459  21.027  26.463  1.00  0.00     0.000 A 
ENDBRANCH  47  66
BRANCH  59  72
ATOM     72  C   UNL A   1      47.886  26.171  30.393  1.00  0.00    -0.014 A 
ATOM     73  C   UNL A   1      48.843  26.165  29.368  1.00  0.00     0.009 A 
ATOM     74  C   UNL A   1      48.237  25.671  31.657  1.00  0.00     0.009 A 
ATOM     75  C   UNL A   1      50.118  25.642  29.595  1.00  0.00     0.001 A 
ATOM     76  C   UNL A   1      49.520  25.169  31.888  1.00  0.00     0.001 A 
ATOM     77  C   UNL A   1      50.456  25.149  30.856  1.00  0.00     0.000 A 
ENDBRANCH  59  72
ENDBRANCH  33  34
ENDBRANCH  25  28
ENDBRANCH  23  24
ENDBRANCH   1  23
TORSDOF 15
ENDMDL
MODEL 3
REMARK VINA RESULT:     -10.5      2.458      7.115
REMARK SMILES CC[NH+](CC)[C@@H](C(=O)NCCCNC(=O)c1ccc(-c2c3nc(c(-c4ccccc4)c4ccc([nH]4)c(-c4ccccc4)c4nc(c(-c5ccccc5)c5ccc2[nH]5)C=C4)C=C3)cc1)c1ccc(C2CC2)cc1
REMARK SMILES IDX 11 1 10 2 9 3 7 4 8 5 6 7 3 8 2 10 1 11 4 12 5 13 64 14
REMARK SMILES IDX 65 15 72 16 66 17 71 18 67 19 68 20 69 21 70 22 12 23 13 24
REMARK SMILES IDX 14 25 15 27 16 28 17 29 63 30 18 31 62 32 19 33 20 34 21 35
REMARK SMILES IDX 56 36 22 37 61 38 55 39 57 40 23 41 60 42 54 43 53 44 24 46
REMARK SMILES IDX 46 47 31 48 45 49 32 50 35 51 44 52 58 53 33 54 34 55 43 57
REMARK SMILES IDX 59 58 36 59 25 60 26 61 30 62 27 63 29 64 28 65 47 66 48 67
REMARK SMILES IDX 52 68 49 69 51 70 50 71 37 72 38 73 42 74 39 75 41 76 40 77
REMARK H PARENT 9 6 3 9 13 26 57 45 35 56
REMARK Flexibility Score: inf
ROOT
ATOM      1  C   UNL A   1      33.883  27.703  25.500  1.00  0.00     0.042 C 
ENDROOT
BRANCH   1   2
ATOM      2  C   UNL A   1      33.556  26.256  25.087  1.00  0.00     0.118 C 
BRANCH   2   3
ATOM      3  N   UNL A   1      33.855  25.256  26.102  1.00  0.00    -0.351 N 
ATOM      4  C   UNL A   1      33.635  23.908  26.216  1.00  0.00     0.283 C 
ATOM      5  O   UNL A   1      33.922  23.444  27.327  1.00  0.00    -0.268 OA
ATOM      6  H   UNL A   1      34.319  25.633  26.883  1.00  0.00     0.163 HD
BRANCH   4   7
ATOM      7  C   UNL A   1      33.037  23.049  25.057  1.00  0.00     0.305 C 
BRANCH   7   8
ATOM      8  N   UNL A   1      31.559  23.248  24.877  1.00  0.00    -0.321 N 
ATOM      9  H   UNL A   1      31.277  22.269  24.900  1.00  0.00     0.349 HD
BRANCH   8  10
ATOM     10  C   UNL A   1      30.797  23.824  25.989  1.00  0.00     0.259 C 
ATOM     11  C   UNL A   1      30.110  22.749  26.829  1.00  0.00     0.071 C 
ENDBRANCH   8  10
BRANCH   8  12
ATOM     12  C   UNL A   1      31.137  23.756  23.575  1.00  0.00     0.259 C 
ATOM     13  C   UNL A   1      30.328  25.056  23.568  1.00  0.00     0.071 C 
ENDBRANCH   8  12
ENDBRANCH   7   8
BRANCH   7  14
ATOM     14  C   UNL A   1      33.396  21.547  25.128  1.00  0.00     0.019 A 
ATOM     15  C   UNL A   1      34.745  21.154  25.083  1.00  0.00     0.011 A 
ATOM     16  C   UNL A   1      32.431  20.533  25.023  1.00  0.00     0.011 A 
ATOM     17  C   UNL A   1      35.098  19.821  24.815  1.00  0.00     0.004 A 
ATOM     18  C   UNL A   1      32.791  19.205  24.763  1.00  0.00     0.004 A 
ATOM     19  C   UNL A   1      34.127  18.834  24.580  1.00  0.00    -0.045 A 
BRANCH  19  20
ATOM     20  C   UNL A   1      34.515  17.457  24.083  1.00  0.00     0.019 C 
ATOM     21  C   UNL A   1      33.527  16.308  24.083  1.00  0.00     0.009 C 
ATOM     22  C   UNL A   1      33.887  16.970  22.791  1.00  0.00     0.009 C 
ENDBRANCH  19  20
ENDBRANCH   7  14
ENDBRANCH   4   7
ENDBRANCH   2   3
ENDBRANCH   1   2
BRANCH   1  23
ATOM     23  C   UNL A   1      33.538  28.120  26.934  1.00  0.00     0.118 C 
BRANCH  23  24
ATOM     24  N   UNL A   1      33.393  29.557  27.079  1.00  0.00    -0.352 N 
ATOM     25  C   UNL A   1      34.235  30.458  27.682  1.00  0.00     0.251 C 
ATOM     26  H   UNL A   1      32.573  29.941  26.691  1.00  0.00     0.163 HD
ATOM     27  O   UNL A   1      33.843  31.613  27.874  1.00  0.00    -0.269 OA
BRANCH  25  28
ATOM     28  C   UNL A   1      35.602  30.081  28.120  1.00  0.00     0.039 A 
ATOM     29  C   UNL A   1      36.640  30.124  27.182  1.00  0.00     0.014 A 
ATOM     30  C   UNL A   1      35.860  29.596  29.407  1.00  0.00     0.014 A 
ATOM     31  C   UNL A   1      37.930  29.710  27.533  1.00  0.00     0.010 A 
ATOM     32  C   UNL A   1      37.160  29.215  29.769  1.00  0.00     0.010 A 
ATOM     33  C   UNL A   1      38.206  29.257  28.834  1.00  0.00    -0.014 A 
BRANCH  33  34
ATOM     34  C   UNL A   1      39.576  28.810  29.207  1.00  0.00     0.031 A 
ATOM     35  C   UNL A   1      40.478  29.696  30.025  1.00  0.00     0.074 A 
ATOM     36  C   UNL A   1      40.029  27.607  28.800  1.00  0.00     0.049 A 
ATOM     37  N   UNL A   1      41.704  29.474  30.436  1.00  0.00    -0.248 NA
ATOM     38  C   UNL A   1      39.938  31.005  30.424  1.00  0.00     0.031 C 
ATOM     39  C   UNL A   1      39.275  26.648  27.991  1.00  0.00     0.029 A 
ATOM     40  N   UNL A   1      41.238  26.990  29.009  1.00  0.00    -0.354 N 
ATOM     41  C   UNL A   1      42.083  30.617  31.130  1.00  0.00     0.074 A 
ATOM     42  C   UNL A   1      40.972  31.541  31.057  1.00  0.00     0.031 C 
ATOM     43  C   UNL A   1      40.033  25.558  27.785  1.00  0.00     0.029 A 
ATOM     44  C   UNL A   1      41.333  25.751  28.422  1.00  0.00     0.049 A 
ATOM     45  H   UNL A   1      41.968  27.396  29.529  1.00  0.00     0.167 HD
ATOM     46  C   UNL A   1      43.245  30.872  31.781  1.00  0.00     0.031 A 
ATOM     47  C   UNL A   1      42.351  24.868  28.393  1.00  0.00     0.031 A 
ATOM     48  C   UNL A   1      44.355  29.960  31.870  1.00  0.00     0.049 A 
ATOM     49  C   UNL A   1      43.637  25.184  29.105  1.00  0.00     0.074 A 
ATOM     50  C   UNL A   1      45.549  30.119  32.554  1.00  0.00     0.029 A 
ATOM     51  N   UNL A   1      44.411  28.721  31.255  1.00  0.00    -0.354 N 
ATOM     52  N   UNL A   1      43.953  26.245  29.805  1.00  0.00    -0.248 NA
ATOM     53  C   UNL A   1      44.701  24.171  29.029  1.00  0.00     0.031 C 
ATOM     54  C   UNL A   1      46.346  28.995  32.317  1.00  0.00     0.029 A 
ATOM     55  C   UNL A   1      45.628  28.115  31.523  1.00  0.00     0.049 A 
ATOM     56  H   UNL A   1      43.692  28.329  30.708  1.00  0.00     0.167 HD
ATOM     57  C   UNL A   1      45.243  26.017  30.273  1.00  0.00     0.074 A 
ATOM     58  C   UNL A   1      45.644  24.713  29.788  1.00  0.00     0.031 C 
ATOM     59  C   UNL A   1      46.021  26.819  31.038  1.00  0.00     0.031 A 
BRANCH  46  60
ATOM     60  C   UNL A   1      43.382  32.211  32.451  1.00  0.00    -0.014 A 
ATOM     61  C   UNL A   1      43.002  32.394  33.789  1.00  0.00     0.009 A 
ATOM     62  C   UNL A   1      43.945  33.289  31.749  1.00  0.00     0.009 A 
ATOM     63  C   UNL A   1      43.156  33.640  34.403  1.00  0.00     0.001 A 
ATOM     64  C   UNL A   1      44.117  34.526  32.372  1.00  0.00     0.001 A 
ATOM     65  C   UNL A   1      43.716  34.702  33.695  1.00  0.00     0.000 A 
ENDBRANCH  46  60
BRANCH  47  66
ATOM     66  C   UNL A   1      42.195  23.582  27.667  1.00  0.00    -0.014 A 
ATOM     67  C   UNL A   1      41.685  22.452  28.321  1.00  0.00     0.009 A 
ATOM     68  C   UNL A   1      42.570  23.477  26.318  1.00  0.00     0.009 A 
ATOM     69  C   UNL A   1      41.574  21.235  27.647  1.00  0.00     0.001 A 
ATOM     70  C   UNL A   1      42.436  22.264  25.640  1.00  0.00     0.001 A 
ATOM     71  C   UNL A   1      41.946  21.143  26.306  1.00  0.00     0.000 A 
ENDBRANCH  47  66
BRANCH  59  72
ATOM     72  C   UNL A   1      47.376  26.299  31.424  1.00  0.00    -0.014 A 
ATOM     73  C   UNL A   1      47.582  25.649  32.650  1.00  0.00     0.009 A 
ATOM     74  C   UNL A   1      48.452  26.430  30.532  1.00  0.00     0.009 A 
ATOM     75  C   UNL A   1      48.848  25.166  32.988  1.00  0.00     0.001 A 
ATOM     76  C   UNL A   1      49.711  25.925  30.864  1.00  0.00     0.001 A 
ATOM     77  C   UNL A   1      49.910  25.300  32.094  1.00  0.00     0.000 A 
ENDBRANCH  59  72
ENDBRANCH  33  34
ENDBRANCH  25  28
ENDBRANCH  23  24
ENDBRANCH   1  23
TORSDOF 15
ENDMDL
