MODEL 1
REMARK VINA RESULT:     -11.3      0.000      0.000
REMARK SMILES CC(C)c1ccc([C@]2(C(=O)NCCCNC(=O)c3ccc(-c4c5nc(c(-c6ccccc6)c6ccc([nH]6)c(-c6ccccc6)c6nc(c(-c7ccccc7)c7ccc4[nH]7)C=C6)C=C5)cc3)CCC[C@@H]2C)cc1
REMARK SMILES IDX 13 1 12 2 11 3 9 4 10 5 8 7 66 8 69 9 67 10 68 11 70 12 7 13
REMARK SMILES IDX 4 14 5 15 72 16 6 17 71 18 2 19 1 20 3 21 14 22 15 23 16 24
REMARK SMILES IDX 17 26 18 27 19 28 65 29 20 30 64 31 21 32 22 33 23 34 58 35
REMARK SMILES IDX 24 36 63 37 57 38 59 39 25 40 62 41 56 42 55 43 26 45 48 46
REMARK SMILES IDX 33 47 47 48 34 49 37 50 46 51 60 52 35 53 36 54 45 56 61 57
REMARK SMILES IDX 38 58 27 59 28 60 32 61 29 62 31 63 30 64 49 65 50 66 54 67
REMARK SMILES IDX 51 68 53 69 52 70 39 71 40 72 44 73 41 74 43 75 42 76
REMARK H PARENT 11 6 15 25 59 44 37 55
REMARK Flexibility Score: inf
ROOT
ATOM      1  C   UNL A   1      36.144  23.781  26.155  1.00  0.00     0.042 C 
ENDROOT
BRANCH   1   2
ATOM      2  C   UNL A   1      35.114  22.668  26.154  1.00  0.00     0.117 C 
BRANCH   2   3
ATOM      3  N   UNL A   1      33.919  22.999  26.874  1.00  0.00    -0.355 N 
ATOM      4  C   UNL A   1      32.707  23.449  26.475  1.00  0.00     0.230 C 
ATOM      5  O   UNL A   1      31.820  23.138  27.287  1.00  0.00    -0.274 OA
ATOM      6  H   UNL A   1      33.994  22.874  27.847  1.00  0.00     0.163 HD
BRANCH   4   7
ATOM      7  C   UNL A   1      32.382  24.338  25.186  1.00  0.00     0.077 C 
ATOM      8  C   UNL A   1      33.406  24.093  24.048  1.00  0.00     0.022 C 
ATOM      9  C   UNL A   1      31.008  24.041  24.460  1.00  0.00     0.006 C 
ATOM     10  C   UNL A   1      32.779  23.182  22.998  1.00  0.00     0.002 C 
ATOM     11  C   UNL A   1      31.302  23.055  23.311  1.00  0.00     0.005 C 
ATOM     12  C   UNL A   1      30.283  25.202  23.741  1.00  0.00     0.009 C 
BRANCH   7  13
ATOM     13  C   UNL A   1      32.515  25.797  25.722  1.00  0.00    -0.032 A 
ATOM     14  C   UNL A   1      32.796  28.435  26.795  1.00  0.00    -0.045 A 
ATOM     15  C   UNL A   1      31.655  27.663  27.042  1.00  0.00     0.004 A 
ATOM     16  C   UNL A   1      33.827  27.838  26.061  1.00  0.00     0.004 A 
ATOM     17  C   UNL A   1      31.550  26.351  26.574  1.00  0.00     0.005 A 
ATOM     18  C   UNL A   1      33.687  26.547  25.529  1.00  0.00     0.005 A 
BRANCH  14  19
ATOM     19  C   UNL A   1      32.851  29.868  27.311  1.00  0.00     0.013 C 
ATOM     20  C   UNL A   1      34.280  30.429  27.293  1.00  0.00     0.012 C 
ATOM     21  C   UNL A   1      31.925  30.855  26.591  1.00  0.00     0.012 C 
ENDBRANCH  14  19
ENDBRANCH   7  13
ENDBRANCH   4   7
ENDBRANCH   2   3
ENDBRANCH   1   2
BRANCH   1  22
ATOM     22  C   UNL A   1      37.199  23.586  25.078  1.00  0.00     0.118 C 
BRANCH  22  23
ATOM     23  N   UNL A   1      38.255  22.669  25.508  1.00  0.00    -0.352 N 
ATOM     24  C   UNL A   1      39.428  22.918  26.179  1.00  0.00     0.251 C 
ATOM     25  H   UNL A   1      38.100  21.724  25.280  1.00  0.00     0.163 HD
ATOM     26  O   UNL A   1      40.295  22.060  26.246  1.00  0.00    -0.269 OA
BRANCH  24  27
ATOM     27  C   UNL A   1      39.633  24.236  26.812  1.00  0.00     0.039 A 
ATOM     28  C   UNL A   1      39.165  24.458  28.110  1.00  0.00     0.014 A 
ATOM     29  C   UNL A   1      40.291  25.247  26.114  1.00  0.00     0.014 A 
ATOM     30  C   UNL A   1      39.425  25.680  28.733  1.00  0.00     0.010 A 
ATOM     31  C   UNL A   1      40.648  26.411  26.772  1.00  0.00     0.010 A 
ATOM     32  C   UNL A   1      40.200  26.650  28.079  1.00  0.00    -0.014 A 
BRANCH  32  33
ATOM     33  C   UNL A   1      40.525  27.958  28.692  1.00  0.00     0.031 A 
ATOM     34  C   UNL A   1      41.857  28.133  29.367  1.00  0.00     0.074 A 
ATOM     35  C   UNL A   1      39.595  28.928  28.754  1.00  0.00     0.049 A 
ATOM     36  N   UNL A   1      42.272  29.097  30.145  1.00  0.00    -0.248 NA
ATOM     37  C   UNL A   1      42.833  27.043  29.185  1.00  0.00     0.031 C 
ATOM     38  C   UNL A   1      38.256  28.865  28.167  1.00  0.00     0.029 A 
ATOM     39  N   UNL A   1      39.630  30.153  29.371  1.00  0.00    -0.354 N 
ATOM     40  C   UNL A   1      43.535  28.709  30.577  1.00  0.00     0.074 A 
ATOM     41  C   UNL A   1      43.790  27.398  30.026  1.00  0.00     0.031 C 
ATOM     42  C   UNL A   1      37.603  30.005  28.440  1.00  0.00     0.029 A 
ATOM     43  C   UNL A   1      38.455  30.854  29.264  1.00  0.00     0.049 A 
ATOM     44  H   UNL A   1      40.422  30.495  29.846  1.00  0.00     0.167 HD
ATOM     45  C   UNL A   1      44.414  29.392  31.348  1.00  0.00     0.031 A 
ATOM     46  C   UNL A   1      38.100  32.041  29.791  1.00  0.00     0.031 A 
ATOM     47  C   UNL A   1      44.160  30.706  31.870  1.00  0.00     0.049 A 
ATOM     48  C   UNL A   1      39.089  32.789  30.641  1.00  0.00     0.074 A 
ATOM     49  C   UNL A   1      45.000  31.517  32.610  1.00  0.00     0.029 A 
ATOM     50  N   UNL A   1      42.973  31.403  31.699  1.00  0.00    -0.354 N 
ATOM     51  N   UNL A   1      40.299  32.435  31.003  1.00  0.00    -0.248 NA
ATOM     52  C   UNL A   1      38.669  34.103  31.147  1.00  0.00     0.031 C 
ATOM     53  C   UNL A   1      44.302  32.687  32.928  1.00  0.00     0.029 A 
ATOM     54  C   UNL A   1      43.051  32.629  32.332  1.00  0.00     0.049 A 
ATOM     55  H   UNL A   1      42.190  31.073  31.200  1.00  0.00     0.167 HD
ATOM     56  C   UNL A   1      40.799  33.496  31.747  1.00  0.00     0.074 A 
ATOM     57  C   UNL A   1      39.761  34.508  31.782  1.00  0.00     0.031 C 
ATOM     58  C   UNL A   1      42.010  33.625  32.342  1.00  0.00     0.031 A 
BRANCH  45  59
ATOM     59  C   UNL A   1      45.716  28.712  31.674  1.00  0.00    -0.014 A 
ATOM     60  C   UNL A   1      45.859  27.918  32.823  1.00  0.00     0.009 A 
ATOM     61  C   UNL A   1      46.820  28.878  30.824  1.00  0.00     0.009 A 
ATOM     62  C   UNL A   1      47.094  27.352  33.145  1.00  0.00     0.001 A 
ATOM     63  C   UNL A   1      48.045  28.280  31.128  1.00  0.00     0.001 A 
ATOM     64  C   UNL A   1      48.185  27.531  32.296  1.00  0.00     0.000 A 
ENDBRANCH  45  59
BRANCH  46  65
ATOM     65  C   UNL A   1      36.751  32.599  29.509  1.00  0.00    -0.014 A 
ATOM     66  C   UNL A   1      35.699  32.406  30.416  1.00  0.00     0.009 A 
ATOM     67  C   UNL A   1      36.516  33.350  28.346  1.00  0.00     0.009 A 
ATOM     68  C   UNL A   1      34.434  32.937  30.157  1.00  0.00     0.001 A 
ATOM     69  C   UNL A   1      35.256  33.904  28.103  1.00  0.00     0.001 A 
ATOM     70  C   UNL A   1      34.215  33.691  29.005  1.00  0.00     0.000 A 
ENDBRANCH  46  65
BRANCH  58  71
ATOM     71  C   UNL A   1      42.309  34.925  33.032  1.00  0.00    -0.014 A 
ATOM     72  C   UNL A   1      41.876  35.178  34.342  1.00  0.00     0.009 A 
ATOM     73  C   UNL A   1      43.110  35.878  32.381  1.00  0.00     0.009 A 
ATOM     74  C   UNL A   1      42.223  36.372  34.978  1.00  0.00     0.001 A 
ATOM     75  C   UNL A   1      43.478  37.056  33.030  1.00  0.00     0.001 A 
ATOM     76  C   UNL A   1      43.029  37.306  34.325  1.00  0.00     0.000 A 
ENDBRANCH  58  71
ENDBRANCH  32  33
ENDBRANCH  24  27
ENDBRANCH  22  23
ENDBRANCH   1  22
TORSDOF 12
ENDMDL
MODEL 2
REMARK VINA RESULT:     -11.3      2.670      7.814
REMARK SMILES CC(C)c1ccc([C@]2(C(=O)NCCCNC(=O)c3ccc(-c4c5nc(c(-c6ccccc6)c6ccc([nH]6)c(-c6ccccc6)c6nc(c(-c7ccccc7)c7ccc4[nH]7)C=C6)C=C5)cc3)CCC[C@@H]2C)cc1
REMARK SMILES IDX 13 1 12 2 11 3 9 4 10 5 8 7 66 8 69 9 67 10 68 11 70 12 7 13
REMARK SMILES IDX 4 14 5 15 72 16 6 17 71 18 2 19 1 20 3 21 14 22 15 23 16 24
REMARK SMILES IDX 17 26 18 27 19 28 65 29 20 30 64 31 21 32 22 33 23 34 58 35
REMARK SMILES IDX 24 36 63 37 57 38 59 39 25 40 62 41 56 42 55 43 26 45 48 46
REMARK SMILES IDX 33 47 47 48 34 49 37 50 46 51 60 52 35 53 36 54 45 56 61 57
REMARK SMILES IDX 38 58 27 59 28 60 32 61 29 62 31 63 30 64 49 65 50 66 54 67
REMARK SMILES IDX 51 68 53 69 52 70 39 71 40 72 44 73 41 74 43 75 42 76
REMARK H PARENT 11 6 15 25 59 44 37 55
REMARK Flexibility Score: inf
ROOT
ATOM      1  C   UNL A   1      34.267  28.507  25.889  1.00  0.00     0.042 C 
ENDROOT
BRANCH   1   2
ATOM      2  C   UNL A   1      33.310  28.797  24.749  1.00  0.00     0.117 C 
BRANCH   2   3
ATOM      3  N   UNL A   1      33.606  28.059  23.556  1.00  0.00    -0.355 N 
ATOM      4  C   UNL A   1      33.123  26.897  23.055  1.00  0.00     0.230 C 
ATOM      5  O   UNL A   1      33.243  26.854  21.820  1.00  0.00    -0.274 OA
ATOM      6  H   UNL A   1      34.294  28.477  22.990  1.00  0.00     0.163 HD
BRANCH   4   7
ATOM      7  C   UNL A   1      32.534  25.660  23.880  1.00  0.00     0.077 C 
ATOM      8  C   UNL A   1      31.904  26.114  25.222  1.00  0.00     0.022 C 
ATOM      9  C   UNL A   1      31.338  24.876  23.204  1.00  0.00     0.006 C 
ATOM     10  C   UNL A   1      30.386  26.138  25.079  1.00  0.00     0.002 C 
ATOM     11  C   UNL A   1      30.029  25.464  23.770  1.00  0.00     0.005 C 
ATOM     12  C   UNL A   1      31.188  23.363  23.490  1.00  0.00     0.009 C 
BRANCH   7  13
ATOM     13  C   UNL A   1      33.797  24.784  24.150  1.00  0.00    -0.032 A 
ATOM     14  C   UNL A   1      36.172  23.255  24.610  1.00  0.00    -0.045 A 
ATOM     15  C   UNL A   1      35.555  23.288  23.354  1.00  0.00     0.004 A 
ATOM     16  C   UNL A   1      35.621  24.058  25.615  1.00  0.00     0.004 A 
ATOM     17  C   UNL A   1      34.435  24.088  23.115  1.00  0.00     0.005 A 
ATOM     18  C   UNL A   1      34.453  24.803  25.392  1.00  0.00     0.005 A 
BRANCH  14  19
ATOM     19  C   UNL A   1      37.378  22.349  24.823  1.00  0.00     0.013 C 
ATOM     20  C   UNL A   1      38.233  22.804  26.015  1.00  0.00     0.012 C 
ATOM     21  C   UNL A   1      37.053  20.860  24.991  1.00  0.00     0.012 C 
ENDBRANCH  14  19
ENDBRANCH   7  13
ENDBRANCH   4   7
ENDBRANCH   2   3
ENDBRANCH   1   2
BRANCH   1  22
ATOM     22  C   UNL A   1      33.619  28.715  27.248  1.00  0.00     0.118 C 
BRANCH  22  23
ATOM     23  N   UNL A   1      33.665  30.117  27.665  1.00  0.00    -0.352 N 
ATOM     24  C   UNL A   1      34.639  30.811  28.342  1.00  0.00     0.251 C 
ATOM     25  H   UNL A   1      32.871  30.647  27.422  1.00  0.00     0.163 HD
ATOM     26  O   UNL A   1      34.402  31.915  28.805  1.00  0.00    -0.269 OA
BRANCH  24  27
ATOM     27  C   UNL A   1      35.975  30.204  28.507  1.00  0.00     0.039 A 
ATOM     28  C   UNL A   1      36.899  30.273  27.462  1.00  0.00     0.014 A 
ATOM     29  C   UNL A   1      36.305  29.570  29.704  1.00  0.00     0.014 A 
ATOM     30  C   UNL A   1      38.186  29.765  27.649  1.00  0.00     0.010 A 
ATOM     31  C   UNL A   1      37.612  29.171  29.928  1.00  0.00     0.010 A 
ATOM     32  C   UNL A   1      38.559  29.243  28.896  1.00  0.00    -0.014 A 
BRANCH  32  33
ATOM     33  C   UNL A   1      39.912  28.704  29.163  1.00  0.00     0.031 A 
ATOM     34  C   UNL A   1      40.964  29.624  29.719  1.00  0.00     0.074 A 
ATOM     35  C   UNL A   1      40.228  27.449  28.795  1.00  0.00     0.049 A 
ATOM     36  N   UNL A   1      42.253  29.438  29.830  1.00  0.00    -0.248 NA
ATOM     37  C   UNL A   1      40.507  30.955  30.157  1.00  0.00     0.031 C 
ATOM     38  C   UNL A   1      39.304  26.473  28.215  1.00  0.00     0.029 A 
ATOM     39  N   UNL A   1      41.430  26.790  28.830  1.00  0.00    -0.354 N 
ATOM     40  C   UNL A   1      42.761  30.641  30.308  1.00  0.00     0.074 A 
ATOM     41  C   UNL A   1      41.654  31.564  30.404  1.00  0.00     0.031 C 
ATOM     42  C   UNL A   1      39.970  25.335  27.962  1.00  0.00     0.029 A 
ATOM     43  C   UNL A   1      41.375  25.520  28.310  1.00  0.00     0.049 A 
ATOM     44  H   UNL A   1      42.253  27.190  29.192  1.00  0.00     0.167 HD
ATOM     45  C   UNL A   1      44.034  30.944  30.654  1.00  0.00     0.031 A 
ATOM     46  C   UNL A   1      42.353  24.616  28.118  1.00  0.00     0.031 A 
ATOM     47  C   UNL A   1      45.124  30.010  30.577  1.00  0.00     0.049 A 
ATOM     48  C   UNL A   1      43.761  24.967  28.512  1.00  0.00     0.074 A 
ATOM     49  C   UNL A   1      46.441  30.188  30.958  1.00  0.00     0.029 A 
ATOM     50  N   UNL A   1      45.015  28.717  30.088  1.00  0.00    -0.354 N 
ATOM     51  N   UNL A   1      44.222  26.090  29.007  1.00  0.00    -0.248 NA
ATOM     52  C   UNL A   1      44.780  23.924  28.330  1.00  0.00     0.031 C 
ATOM     53  C   UNL A   1      47.141  29.016  30.654  1.00  0.00     0.029 A 
ATOM     54  C   UNL A   1      46.246  28.089  30.143  1.00  0.00     0.049 A 
ATOM     55  H   UNL A   1      44.186  28.307  29.752  1.00  0.00     0.167 HD
ATOM     56  C   UNL A   1      45.576  25.878  29.231  1.00  0.00     0.074 A 
ATOM     57  C   UNL A   1      45.860  24.517  28.819  1.00  0.00     0.031 C 
ATOM     58  C   UNL A   1      46.501  26.729  29.739  1.00  0.00     0.031 A 
BRANCH  45  59
ATOM     59  C   UNL A   1      44.302  32.346  31.130  1.00  0.00    -0.014 A 
ATOM     60  C   UNL A   1      44.210  32.687  32.489  1.00  0.00     0.009 A 
ATOM     61  C   UNL A   1      44.643  33.343  30.203  1.00  0.00     0.009 A 
ATOM     62  C   UNL A   1      44.394  34.008  32.903  1.00  0.00     0.001 A 
ATOM     63  C   UNL A   1      44.864  34.656  30.624  1.00  0.00     0.001 A 
ATOM     64  C   UNL A   1      44.724  34.991  31.971  1.00  0.00     0.000 A 
ENDBRANCH  45  59
BRANCH  46  65
ATOM     65  C   UNL A   1      42.023  23.286  27.541  1.00  0.00    -0.014 A 
ATOM     66  C   UNL A   1      42.267  23.019  26.186  1.00  0.00     0.009 A 
ATOM     67  C   UNL A   1      41.491  22.267  28.348  1.00  0.00     0.009 A 
ATOM     68  C   UNL A   1      41.968  21.767  25.645  1.00  0.00     0.001 A 
ATOM     69  C   UNL A   1      41.218  21.007  27.810  1.00  0.00     0.001 A 
ATOM     70  C   UNL A   1      41.451  20.760  26.458  1.00  0.00     0.000 A 
ENDBRANCH  46  65
BRANCH  58  71
ATOM     71  C   UNL A   1      47.894  26.204  29.936  1.00  0.00    -0.014 A 
ATOM     72  C   UNL A   1      48.837  26.214  28.898  1.00  0.00     0.009 A 
ATOM     73  C   UNL A   1      48.288  25.766  31.212  1.00  0.00     0.009 A 
ATOM     74  C   UNL A   1      50.142  25.776  29.130  1.00  0.00     0.001 A 
ATOM     75  C   UNL A   1      49.600  25.356  31.447  1.00  0.00     0.001 A 
ATOM     76  C   UNL A   1      50.524  25.355  30.404  1.00  0.00     0.000 A 
ENDBRANCH  58  71
ENDBRANCH  32  33
ENDBRANCH  24  27
ENDBRANCH  22  23
ENDBRANCH   1  22
TORSDOF 12
ENDMDL
MODEL 3
REMARK VINA RESULT:     -11.3      2.328      7.588
REMARK SMILES CC(C)c1ccc([C@]2(C(=O)NCCCNC(=O)c3ccc(-c4c5nc(c(-c6ccccc6)c6ccc([nH]6)c(-c6ccccc6)c6nc(c(-c7ccccc7)c7ccc4[nH]7)C=C6)C=C5)cc3)CCC[C@@H]2C)cc1
REMARK SMILES IDX 13 1 12 2 11 3 9 4 10 5 8 7 66 8 69 9 67 10 68 11 70 12 7 13
REMARK SMILES IDX 4 14 5 15 72 16 6 17 71 18 2 19 1 20 3 21 14 22 15 23 16 24
REMARK SMILES IDX 17 26 18 27 19 28 65 29 20 30 64 31 21 32 22 33 23 34 58 35
REMARK SMILES IDX 24 36 63 37 57 38 59 39 25 40 62 41 56 42 55 43 26 45 48 46
REMARK SMILES IDX 33 47 47 48 34 49 37 50 46 51 60 52 35 53 36 54 45 56 61 57
REMARK SMILES IDX 38 58 27 59 28 60 32 61 29 62 31 63 30 64 49 65 50 66 54 67
REMARK SMILES IDX 51 68 53 69 52 70 39 71 40 72 44 73 41 74 43 75 42 76
REMARK H PARENT 11 6 15 25 59 44 37 55
REMARK Flexibility Score: inf
ROOT
ATOM      1  C   UNL A   1      33.589  27.780  26.926  1.00  0.00     0.042 C 
ENDROOT
BRANCH   1   2
ATOM      2  C   UNL A   1      32.097  27.653  26.684  1.00  0.00     0.117 C 
BRANCH   2   3
ATOM      3  N   UNL A   1      31.590  26.337  26.943  1.00  0.00    -0.355 N 
ATOM      4  C   UNL A   1      31.777  25.147  26.326  1.00  0.00     0.230 C 
ATOM      5  O   UNL A   1      31.597  24.200  27.108  1.00  0.00    -0.274 OA
ATOM      6  H   UNL A   1      30.989  26.289  27.721  1.00  0.00     0.163 HD
BRANCH   4   7
ATOM      7  C   UNL A   1      32.110  24.901  24.781  1.00  0.00     0.077 C 
ATOM      8  C   UNL A   1      31.067  23.970  24.112  1.00  0.00     0.022 C 
ATOM      9  C   UNL A   1      32.063  26.176  23.845  1.00  0.00     0.006 C 
ATOM     10  C   UNL A   1      30.101  24.813  23.285  1.00  0.00     0.002 C 
ATOM     11  C   UNL A   1      30.660  26.220  23.205  1.00  0.00     0.005 C 
ATOM     12  C   UNL A   1      33.003  26.229  22.617  1.00  0.00     0.009 C 
BRANCH   7  13
ATOM     13  C   UNL A   1      33.503  24.199  24.829  1.00  0.00    -0.032 A 
ATOM     14  C   UNL A   1      36.082  22.959  24.829  1.00  0.00    -0.045 A 
ATOM     15  C   UNL A   1      35.002  22.401  24.135  1.00  0.00     0.004 A 
ATOM     16  C   UNL A   1      35.869  24.187  25.465  1.00  0.00     0.004 A 
ATOM     17  C   UNL A   1      33.763  23.043  24.081  1.00  0.00     0.005 A 
ATOM     18  C   UNL A   1      34.603  24.792  25.471  1.00  0.00     0.005 A 
BRANCH  14  19
ATOM     19  C   UNL A   1      37.406  22.207  24.874  1.00  0.00     0.013 C 
ATOM     20  C   UNL A   1      38.301  22.689  26.025  1.00  0.00     0.012 C 
ATOM     21  C   UNL A   1      37.287  20.680  24.950  1.00  0.00     0.012 C 
ENDBRANCH  14  19
ENDBRANCH   7  13
ENDBRANCH   4   7
ENDBRANCH   2   3
ENDBRANCH   1   2
BRANCH   1  22
ATOM     22  C   UNL A   1      34.209  28.898  26.104  1.00  0.00     0.118 C 
BRANCH  22  23
ATOM     23  N   UNL A   1      33.938  30.215  26.682  1.00  0.00    -0.352 N 
ATOM     24  C   UNL A   1      34.574  30.887  27.698  1.00  0.00     0.251 C 
ATOM     25  H   UNL A   1      33.180  30.695  26.278  1.00  0.00     0.163 HD
ATOM     26  O   UNL A   1      34.063  31.877  28.198  1.00  0.00    -0.269 OA
BRANCH  24  27
ATOM     27  C   UNL A   1      35.880  30.396  28.182  1.00  0.00     0.039 A 
ATOM     28  C   UNL A   1      35.963  29.771  29.429  1.00  0.00     0.014 A 
ATOM     29  C   UNL A   1      37.018  30.558  27.393  1.00  0.00     0.014 A 
ATOM     30  C   UNL A   1      37.185  29.243  29.851  1.00  0.00     0.010 A 
ATOM     31  C   UNL A   1      38.198  29.935  27.760  1.00  0.00     0.010 A 
ATOM     32  C   UNL A   1      38.300  29.290  29.002  1.00  0.00    -0.014 A 
BRANCH  32  33
ATOM     33  C   UNL A   1      39.618  28.734  29.383  1.00  0.00     0.031 A 
ATOM     34  C   UNL A   1      40.593  29.612  30.117  1.00  0.00     0.074 A 
ATOM     35  C   UNL A   1      39.983  27.507  28.967  1.00  0.00     0.049 A 
ATOM     36  N   UNL A   1      41.862  29.419  30.361  1.00  0.00    -0.248 NA
ATOM     37  C   UNL A   1      40.078  30.910  30.591  1.00  0.00     0.031 C 
ATOM     38  C   UNL A   1      39.139  26.574  28.219  1.00  0.00     0.029 A 
ATOM     39  N   UNL A   1      41.179  26.847  29.092  1.00  0.00    -0.354 N 
ATOM     40  C   UNL A   1      42.304  30.586  30.975  1.00  0.00     0.074 A 
ATOM     41  C   UNL A   1      41.186  31.500  31.009  1.00  0.00     0.031 C 
ATOM     42  C   UNL A   1      39.839  25.457  27.965  1.00  0.00     0.029 A 
ATOM     43  C   UNL A   1      41.193  25.617  28.483  1.00  0.00     0.049 A 
ATOM     44  H   UNL A   1      41.953  27.221  29.573  1.00  0.00     0.167 HD
ATOM     45  C   UNL A   1      43.527  30.864  31.484  1.00  0.00     0.031 A 
ATOM     46  C   UNL A   1      42.194  24.728  28.341  1.00  0.00     0.031 A 
ATOM     47  C   UNL A   1      44.626  29.938  31.467  1.00  0.00     0.049 A 
ATOM     48  C   UNL A   1      43.545  25.050  28.916  1.00  0.00     0.074 A 
ATOM     49  C   UNL A   1      45.889  30.088  32.007  1.00  0.00     0.029 A 
ATOM     50  N   UNL A   1      44.583  28.681  30.881  1.00  0.00    -0.354 N 
ATOM     51  N   UNL A   1      43.939  26.136  29.537  1.00  0.00    -0.248 NA
ATOM     52  C   UNL A   1      44.586  24.023  28.779  1.00  0.00     0.031 C 
ATOM     53  C   UNL A   1      46.628  28.940  31.704  1.00  0.00     0.029 A 
ATOM     54  C   UNL A   1      45.805  28.051  31.032  1.00  0.00     0.049 A 
ATOM     55  H   UNL A   1      43.800  28.296  30.425  1.00  0.00     0.167 HD
ATOM     56  C   UNL A   1      45.260  25.909  29.898  1.00  0.00     0.074 A 
ATOM     57  C   UNL A   1      45.599  24.580  29.428  1.00  0.00     0.031 C 
ATOM     58  C   UNL A   1      46.114  26.722  30.566  1.00  0.00     0.031 A 
BRANCH  45  59
ATOM     59  C   UNL A   1      43.728  32.229  32.084  1.00  0.00    -0.014 A 
ATOM     60  C   UNL A   1      43.476  32.476  33.443  1.00  0.00     0.009 A 
ATOM     61  C   UNL A   1      44.168  33.288  31.274  1.00  0.00     0.009 A 
ATOM     62  C   UNL A   1      43.602  33.764  33.965  1.00  0.00     0.001 A 
ATOM     63  C   UNL A   1      44.330  34.568  31.807  1.00  0.00     0.001 A 
ATOM     64  C   UNL A   1      44.031  34.809  33.148  1.00  0.00     0.000 A 
ENDBRANCH  45  59
BRANCH  46  65
ATOM     65  C   UNL A   1      41.942  23.441  27.639  1.00  0.00    -0.014 A 
ATOM     66  C   UNL A   1      42.269  23.296  26.284  1.00  0.00     0.009 A 
ATOM     67  C   UNL A   1      41.401  22.344  28.328  1.00  0.00     0.009 A 
ATOM     68  C   UNL A   1      42.043  22.085  25.626  1.00  0.00     0.001 A 
ATOM     69  C   UNL A   1      41.202  21.125  27.675  1.00  0.00     0.001 A 
ATOM     70  C   UNL A   1      41.517  20.999  26.323  1.00  0.00     0.000 A 
ENDBRANCH  46  65
BRANCH  58  71
ATOM     71  C   UNL A   1      47.481  26.185  30.883  1.00  0.00    -0.014 A 
ATOM     72  C   UNL A   1      48.523  26.229  29.946  1.00  0.00     0.009 A 
ATOM     73  C   UNL A   1      47.743  25.699  32.175  1.00  0.00     0.009 A 
ATOM     74  C   UNL A   1      49.799  25.777  30.293  1.00  0.00     0.001 A 
ATOM     75  C   UNL A   1      49.024  25.275  32.526  1.00  0.00     0.001 A 
ATOM     76  C   UNL A   1      50.049  25.308  31.583  1.00  0.00     0.000 A 
ENDBRANCH  58  71
ENDBRANCH  32  33
ENDBRANCH  24  27
ENDBRANCH  22  23
ENDBRANCH   1  22
TORSDOF 12
ENDMDL
