MODEL 1
REMARK VINA RESULT:     -10.2      0.000      0.000
REMARK SMILES CCCC[C@H](NS(=O)(=O)c1cccc(F)c1)C(=O)NCCCNC(=O)c1ccc(-c2c3nc(c(-c4ccccc4)c4ccc([nH]4)c(-c4ccccc4)c4nc(c(-c5ccccc5)c5ccc2[nH]5)C=C4)C=C3)cc1
REMARK SMILES IDX 20 1 19 2 17 3 18 4 5 6 4 7 3 8 2 9 1 10 6 11 7 13 8 14 9 15
REMARK SMILES IDX 10 16 11 17 16 18 12 19 14 20 13 21 15 22 21 23 22 24 23 25
REMARK SMILES IDX 24 26 25 28 26 29 27 30 73 31 28 32 72 33 29 34 30 35 31 36
REMARK SMILES IDX 66 37 32 38 71 39 65 40 67 41 33 42 70 43 64 44 63 45 34 47
REMARK SMILES IDX 56 48 41 49 55 50 42 51 45 52 54 53 68 54 43 55 44 56 53 58
REMARK SMILES IDX 69 59 46 60 35 61 36 62 40 63 37 64 39 65 38 66 57 67 58 68
REMARK SMILES IDX 62 69 59 70 61 71 60 72 47 73 48 74 52 75 49 76 51 77 50 78
REMARK H PARENT 19 5 6 12 23 27 67 46 45 57
REMARK Flexibility Score: inf
ROOT
ATOM      1  C   UNL A   1      36.024  20.900  25.384  1.00  0.00     0.117 C 
ENDROOT
BRANCH   1   2
ATOM      2  N   UNL A   1      35.021  19.916  25.018  1.00  0.00    -0.355 N 
ATOM      3  C   UNL A   1      33.746  20.113  24.573  1.00  0.00     0.238 C 
ATOM      4  O   UNL A   1      33.104  19.126  24.208  1.00  0.00    -0.273 OA
ATOM      5  H   UNL A   1      35.299  18.975  25.104  1.00  0.00     0.163 HD
BRANCH   3   6
ATOM      6  C   UNL A   1      33.092  21.506  24.633  1.00  0.00     0.159 C 
BRANCH   6   7
ATOM      7  C   UNL A   1      31.695  21.628  25.260  1.00  0.00     0.030 C 
BRANCH   7   8
ATOM      8  C   UNL A   1      31.242  22.849  26.079  1.00  0.00     0.002 C 
BRANCH   8   9
ATOM      9  C   UNL A   1      32.096  23.373  27.229  1.00  0.00    -0.003 C 
ATOM     10  C   UNL A   1      32.973  22.316  27.866  1.00  0.00     0.004 C 
ENDBRANCH   8   9
ENDBRANCH   7   8
ENDBRANCH   6   7
BRANCH   6  11
ATOM     11  N   UNL A   1      33.201  21.985  23.232  1.00  0.00    -0.199 NA
ATOM     12  H   UNL A   1      32.237  22.035  22.903  1.00  0.00     0.142 HD
BRANCH  11  13
ATOM     13  S   UNL A   1      33.904  23.375  22.674  1.00  0.00     0.241 S 
ATOM     14  O   UNL A   1      35.324  23.146  22.803  1.00  0.00    -0.207 OA
ATOM     15  O   UNL A   1      33.308  23.718  21.401  1.00  0.00    -0.207 OA
BRANCH  13  16
ATOM     16  C   UNL A   1      33.506  24.677  23.800  1.00  0.00     0.085 A 
ATOM     17  C   UNL A   1      34.341  25.050  24.856  1.00  0.00     0.022 A 
ATOM     18  C   UNL A   1      32.290  25.336  23.589  1.00  0.00     0.061 A 
ATOM     19  C   UNL A   1      33.926  26.051  25.741  1.00  0.00     0.004 A 
ATOM     20  C   UNL A   1      31.905  26.343  24.462  1.00  0.00     0.124 A 
ATOM     21  C   UNL A   1      32.704  26.696  25.543  1.00  0.00     0.039 A 
ATOM     22  F   UNL A   1      30.746  26.982  24.259  1.00  0.00    -0.207 F 
ENDBRANCH  13  16
ENDBRANCH  11  13
ENDBRANCH   6  11
ENDBRANCH   3   6
ENDBRANCH   1   2
BRANCH   1  23
ATOM     23  C   UNL A   1      37.360  20.665  24.705  1.00  0.00     0.042 C 
BRANCH  23  24
ATOM     24  C   UNL A   1      38.556  20.987  25.590  1.00  0.00     0.118 C 
BRANCH  24  25
ATOM     25  N   UNL A   1      39.531  19.904  25.664  1.00  0.00    -0.352 N 
ATOM     26  C   UNL A   1      40.852  19.933  26.044  1.00  0.00     0.251 C 
ATOM     27  H   UNL A   1      39.192  19.019  25.402  1.00  0.00     0.163 HD
ATOM     28  O   UNL A   1      41.560  18.943  25.898  1.00  0.00    -0.269 OA
BRANCH  26  29
ATOM     29  C   UNL A   1      41.420  21.174  26.605  1.00  0.00     0.039 A 
ATOM     30  C   UNL A   1      41.988  22.115  25.743  1.00  0.00     0.014 A 
ATOM     31  C   UNL A   1      41.356  21.422  27.977  1.00  0.00     0.014 A 
ATOM     32  C   UNL A   1      42.408  23.345  26.250  1.00  0.00     0.010 A 
ATOM     33  C   UNL A   1      41.676  22.683  28.462  1.00  0.00     0.010 A 
ATOM     34  C   UNL A   1      42.208  23.657  27.605  1.00  0.00    -0.014 A 
BRANCH  34  35
ATOM     35  C   UNL A   1      42.542  24.995  28.153  1.00  0.00     0.031 A 
ATOM     36  C   UNL A   1      43.947  25.295  28.597  1.00  0.00     0.074 A 
ATOM     37  C   UNL A   1      41.565  25.902  28.342  1.00  0.00     0.049 A 
ATOM     38  N   UNL A   1      44.417  26.365  29.188  1.00  0.00    -0.248 NA
ATOM     39  C   UNL A   1      44.951  24.238  28.386  1.00  0.00     0.031 C 
ATOM     40  C   UNL A   1      40.150  25.710  28.016  1.00  0.00     0.029 A 
ATOM     41  N   UNL A   1      41.614  27.168  28.868  1.00  0.00    -0.354 N 
ATOM     42  C   UNL A   1      45.754  26.094  29.447  1.00  0.00     0.074 A 
ATOM     43  C   UNL A   1      46.010  24.744  28.998  1.00  0.00     0.031 C 
ATOM     44  C   UNL A   1      39.471  26.828  28.324  1.00  0.00     0.029 A 
ATOM     45  C   UNL A   1      40.393  27.798  28.904  1.00  0.00     0.049 A 
ATOM     46  H   UNL A   1      42.445  27.586  29.191  1.00  0.00     0.167 HD
ATOM     47  C   UNL A   1      46.692  26.904  29.991  1.00  0.00     0.031 A 
ATOM     48  C   UNL A   1      40.053  29.019  29.356  1.00  0.00     0.031 A 
ATOM     49  C   UNL A   1      46.446  28.258  30.405  1.00  0.00     0.049 A 
ATOM     50  C   UNL A   1      41.119  29.914  29.923  1.00  0.00     0.074 A 
ATOM     51  C   UNL A   1      47.347  29.190  30.888  1.00  0.00     0.029 A 
ATOM     52  N   UNL A   1      45.203  28.873  30.384  1.00  0.00    -0.354 N 
ATOM     53  N   UNL A   1      42.397  29.673  30.084  1.00  0.00    -0.248 NA
ATOM     54  C   UNL A   1      40.696  31.252  30.357  1.00  0.00     0.031 C 
ATOM     55  C   UNL A   1      46.641  30.357  31.201  1.00  0.00     0.029 A 
ATOM     56  C   UNL A   1      45.311  30.166  30.866  1.00  0.00     0.049 A 
ATOM     57  H   UNL A   1      44.370  28.453  30.073  1.00  0.00     0.167 HD
ATOM     58  C   UNL A   1      42.936  30.837  30.618  1.00  0.00     0.074 A 
ATOM     59  C   UNL A   1      41.848  31.787  30.736  1.00  0.00     0.031 C 
ATOM     60  C   UNL A   1      44.217  31.096  30.978  1.00  0.00     0.031 A 
BRANCH  47  61
ATOM     61  C   UNL A   1      48.074  26.338  30.168  1.00  0.00    -0.014 A 
ATOM     62  C   UNL A   1      48.478  25.767  31.385  1.00  0.00     0.009 A 
ATOM     63  C   UNL A   1      48.978  26.359  29.095  1.00  0.00     0.009 A 
ATOM     64  C   UNL A   1      49.775  25.271  31.539  1.00  0.00     0.001 A 
ATOM     65  C   UNL A   1      50.263  25.833  29.242  1.00  0.00     0.001 A 
ATOM     66  C   UNL A   1      50.664  25.301  30.466  1.00  0.00     0.000 A 
ENDBRANCH  47  61
BRANCH  48  67
ATOM     67  C   UNL A   1      38.642  29.476  29.268  1.00  0.00    -0.014 A 
ATOM     68  C   UNL A   1      38.165  30.090  28.101  1.00  0.00     0.009 A 
ATOM     69  C   UNL A   1      37.763  29.292  30.346  1.00  0.00     0.009 A 
ATOM     70  C   UNL A   1      36.843  30.533  28.022  1.00  0.00     0.001 A 
ATOM     71  C   UNL A   1      36.432  29.712  30.255  1.00  0.00     0.001 A 
ATOM     72  C   UNL A   1      35.977  30.339  29.097  1.00  0.00     0.000 A 
ENDBRANCH  48  67
BRANCH  60  73
ATOM     73  C   UNL A   1      44.515  32.468  31.509  1.00  0.00    -0.014 A 
ATOM     74  C   UNL A   1      44.458  32.743  32.884  1.00  0.00     0.009 A 
ATOM     75  C   UNL A   1      44.900  33.485  30.624  1.00  0.00     0.009 A 
ATOM     76  C   UNL A   1      44.753  34.023  33.358  1.00  0.00     0.001 A 
ATOM     77  C   UNL A   1      45.221  34.756  31.103  1.00  0.00     0.001 A 
ATOM     78  C   UNL A   1      45.138  35.026  32.469  1.00  0.00     0.000 A 
ENDBRANCH  60  73
ENDBRANCH  34  35
ENDBRANCH  26  29
ENDBRANCH  24  25
ENDBRANCH  23  24
ENDBRANCH   1  23
TORSDOF 16
ENDMDL
MODEL 2
REMARK VINA RESULT:     -10.2      1.284      6.261
REMARK SMILES CCCC[C@H](NS(=O)(=O)c1cccc(F)c1)C(=O)NCCCNC(=O)c1ccc(-c2c3nc(c(-c4ccccc4)c4ccc([nH]4)c(-c4ccccc4)c4nc(c(-c5ccccc5)c5ccc2[nH]5)C=C4)C=C3)cc1
REMARK SMILES IDX 20 1 19 2 17 3 18 4 5 6 4 7 3 8 2 9 1 10 6 11 7 13 8 14 9 15
REMARK SMILES IDX 10 16 11 17 16 18 12 19 14 20 13 21 15 22 21 23 22 24 23 25
REMARK SMILES IDX 24 26 25 28 26 29 27 30 73 31 28 32 72 33 29 34 30 35 31 36
REMARK SMILES IDX 66 37 32 38 71 39 65 40 67 41 33 42 70 43 64 44 63 45 34 47
REMARK SMILES IDX 56 48 41 49 55 50 42 51 45 52 54 53 68 54 43 55 44 56 53 58
REMARK SMILES IDX 69 59 46 60 35 61 36 62 40 63 37 64 39 65 38 66 57 67 58 68
REMARK SMILES IDX 62 69 59 70 61 71 60 72 47 73 48 74 52 75 49 76 51 77 50 78
REMARK H PARENT 19 5 6 12 23 27 67 46 45 57
REMARK Flexibility Score: inf
ROOT
ATOM      1  C   UNL A   1      36.034  21.361  25.497  1.00  0.00     0.117 C 
ENDROOT
BRANCH   1   2
ATOM      2  N   UNL A   1      34.889  20.482  25.652  1.00  0.00    -0.355 N 
ATOM      3  C   UNL A   1      33.625  20.622  25.155  1.00  0.00     0.238 C 
ATOM      4  O   UNL A   1      32.836  19.687  25.316  1.00  0.00    -0.273 OA
ATOM      5  H   UNL A   1      35.045  19.673  26.190  1.00  0.00     0.163 HD
BRANCH   3   6
ATOM      6  C   UNL A   1      33.165  21.946  24.518  1.00  0.00     0.159 C 
BRANCH   6   7
ATOM      7  C   UNL A   1      33.999  22.529  23.366  1.00  0.00     0.030 C 
BRANCH   7   8
ATOM      8  C   UNL A   1      34.140  24.038  23.107  1.00  0.00     0.002 C 
BRANCH   8   9
ATOM      9  C   UNL A   1      33.116  24.778  22.251  1.00  0.00    -0.003 C 
ATOM     10  C   UNL A   1      33.382  26.264  22.131  1.00  0.00     0.004 C 
ENDBRANCH   8   9
ENDBRANCH   7   8
ENDBRANCH   6   7
BRANCH   6  11
ATOM     11  N   UNL A   1      32.998  22.839  25.692  1.00  0.00    -0.199 NA
ATOM     12  H   UNL A   1      33.774  23.496  25.627  1.00  0.00     0.142 HD
BRANCH  11  13
ATOM     13  S   UNL A   1      31.693  23.774  26.094  1.00  0.00     0.241 S 
ATOM     14  O   UNL A   1      30.680  23.426  25.126  1.00  0.00    -0.207 OA
ATOM     15  O   UNL A   1      31.453  23.650  27.515  1.00  0.00    -0.207 OA
BRANCH  13  16
ATOM     16  C   UNL A   1      32.116  25.462  25.785  1.00  0.00     0.085 A 
ATOM     17  C   UNL A   1      33.367  26.001  26.095  1.00  0.00     0.022 A 
ATOM     18  C   UNL A   1      31.124  26.258  25.204  1.00  0.00     0.061 A 
ATOM     19  C   UNL A   1      33.603  27.361  25.874  1.00  0.00     0.004 A 
ATOM     20  C   UNL A   1      31.384  27.600  24.969  1.00  0.00     0.124 A 
ATOM     21  C   UNL A   1      32.608  28.162  25.313  1.00  0.00     0.039 A 
ATOM     22  F   UNL A   1      30.440  28.365  24.406  1.00  0.00    -0.207 F 
ENDBRANCH  13  16
ENDBRANCH  11  13
ENDBRANCH   6  11
ENDBRANCH   3   6
ENDBRANCH   1   2
BRANCH   1  23
ATOM     23  C   UNL A   1      37.245  20.659  24.914  1.00  0.00     0.042 C 
BRANCH  23  24
ATOM     24  C   UNL A   1      38.540  20.968  25.653  1.00  0.00     0.118 C 
BRANCH  24  25
ATOM     25  N   UNL A   1      39.497  19.866  25.633  1.00  0.00    -0.352 N 
ATOM     26  C   UNL A   1      40.832  19.854  25.960  1.00  0.00     0.251 C 
ATOM     27  H   UNL A   1      39.130  19.001  25.342  1.00  0.00     0.163 HD
ATOM     28  O   UNL A   1      41.515  18.860  25.735  1.00  0.00    -0.269 OA
BRANCH  26  29
ATOM     29  C   UNL A   1      41.446  21.055  26.556  1.00  0.00     0.039 A 
ATOM     30  C   UNL A   1      42.010  22.020  25.719  1.00  0.00     0.014 A 
ATOM     31  C   UNL A   1      41.430  21.243  27.939  1.00  0.00     0.014 A 
ATOM     32  C   UNL A   1      42.474  23.218  26.266  1.00  0.00     0.010 A 
ATOM     33  C   UNL A   1      41.795  22.474  28.468  1.00  0.00     0.010 A 
ATOM     34  C   UNL A   1      42.323  23.473  27.638  1.00  0.00    -0.014 A 
BRANCH  34  35
ATOM     35  C   UNL A   1      42.705  24.777  28.234  1.00  0.00     0.031 A 
ATOM     36  C   UNL A   1      41.661  25.839  28.449  1.00  0.00     0.074 A 
ATOM     37  C   UNL A   1      44.001  25.041  28.490  1.00  0.00     0.049 A 
ATOM     38  N   UNL A   1      41.810  27.071  28.866  1.00  0.00    -0.248 NA
ATOM     39  C   UNL A   1      40.272  25.483  28.115  1.00  0.00     0.031 C 
ATOM     40  C   UNL A   1      45.118  24.121  28.262  1.00  0.00     0.029 A 
ATOM     41  N   UNL A   1      44.599  26.171  28.986  1.00  0.00    -0.354 N 
ATOM     42  C   UNL A   1      40.546  27.641  28.810  1.00  0.00     0.074 A 
ATOM     43  C   UNL A   1      39.651  26.641  28.272  1.00  0.00     0.031 C 
ATOM     44  C   UNL A   1      46.261  24.713  28.644  1.00  0.00     0.029 A 
ATOM     45  C   UNL A   1      45.964  26.065  29.106  1.00  0.00     0.049 A 
ATOM     46  H   UNL A   1      44.098  26.982  29.234  1.00  0.00     0.167 HD
ATOM     47  C   UNL A   1      40.157  28.881  29.192  1.00  0.00     0.031 A 
ATOM     48  C   UNL A   1      46.875  26.957  29.534  1.00  0.00     0.031 A 
ATOM     49  C   UNL A   1      41.040  29.863  29.759  1.00  0.00     0.049 A 
ATOM     50  C   UNL A   1      46.416  28.314  29.986  1.00  0.00     0.074 A 
ATOM     51  C   UNL A   1      40.730  31.115  30.257  1.00  0.00     0.029 A 
ATOM     52  N   UNL A   1      42.409  29.699  29.902  1.00  0.00    -0.354 N 
ATOM     53  N   UNL A   1      45.202  28.810  30.006  1.00  0.00    -0.248 NA
ATOM     54  C   UNL A   1      47.450  29.229  30.488  1.00  0.00     0.031 C 
ATOM     55  C   UNL A   1      41.920  31.729  30.663  1.00  0.00     0.029 A 
ATOM     56  C   UNL A   1      42.962  30.838  30.462  1.00  0.00     0.049 A 
ATOM     57  H   UNL A   1      42.913  28.895  29.645  1.00  0.00     0.167 HD
ATOM     58  C   UNL A   1      45.323  30.086  30.542  1.00  0.00     0.074 A 
ATOM     59  C   UNL A   1      46.726  30.279  30.849  1.00  0.00     0.031 C 
ATOM     60  C   UNL A   1      44.360  31.014  30.759  1.00  0.00     0.031 A 
BRANCH  47  61
ATOM     61  C   UNL A   1      38.709  29.238  29.003  1.00  0.00    -0.014 A 
ATOM     62  C   UNL A   1      38.233  29.738  27.781  1.00  0.00     0.009 A 
ATOM     63  C   UNL A   1      37.803  29.055  30.059  1.00  0.00     0.009 A 
ATOM     64  C   UNL A   1      36.889  30.091  27.634  1.00  0.00     0.001 A 
ATOM     65  C   UNL A   1      36.454  29.379  29.900  1.00  0.00     0.001 A 
ATOM     66  C   UNL A   1      36.002  29.907  28.692  1.00  0.00     0.000 A 
ENDBRANCH  47  61
BRANCH  48  67
ATOM     67  C   UNL A   1      48.313  26.586  29.579  1.00  0.00    -0.014 A 
ATOM     68  C   UNL A   1      49.154  26.865  28.492  1.00  0.00     0.009 A 
ATOM     69  C   UNL A   1      48.854  25.958  30.712  1.00  0.00     0.009 A 
ATOM     70  C   UNL A   1      50.503  26.503  28.527  1.00  0.00     0.001 A 
ATOM     71  C   UNL A   1      50.210  25.621  30.756  1.00  0.00     0.001 A 
ATOM     72  C   UNL A   1      51.030  25.886  29.661  1.00  0.00     0.000 A 
ENDBRANCH  48  67
BRANCH  60  73
ATOM     73  C   UNL A   1      44.787  32.311  31.382  1.00  0.00    -0.014 A 
ATOM     74  C   UNL A   1      45.157  33.410  30.591  1.00  0.00     0.009 A 
ATOM     75  C   UNL A   1      44.775  32.447  32.778  1.00  0.00     0.009 A 
ATOM     76  C   UNL A   1      45.537  34.612  31.191  1.00  0.00     0.001 A 
ATOM     77  C   UNL A   1      45.129  33.658  33.374  1.00  0.00     0.001 A 
ATOM     78  C   UNL A   1      45.518  34.736  32.580  1.00  0.00     0.000 A 
ENDBRANCH  60  73
ENDBRANCH  34  35
ENDBRANCH  26  29
ENDBRANCH  24  25
ENDBRANCH  23  24
ENDBRANCH   1  23
TORSDOF 16
ENDMDL
MODEL 3
REMARK VINA RESULT:     -10.1      1.643      6.291
REMARK SMILES CCCC[C@H](NS(=O)(=O)c1cccc(F)c1)C(=O)NCCCNC(=O)c1ccc(-c2c3nc(c(-c4ccccc4)c4ccc([nH]4)c(-c4ccccc4)c4nc(c(-c5ccccc5)c5ccc2[nH]5)C=C4)C=C3)cc1
REMARK SMILES IDX 20 1 19 2 17 3 18 4 5 6 4 7 3 8 2 9 1 10 6 11 7 13 8 14 9 15
REMARK SMILES IDX 10 16 11 17 16 18 12 19 14 20 13 21 15 22 21 23 22 24 23 25
REMARK SMILES IDX 24 26 25 28 26 29 27 30 73 31 28 32 72 33 29 34 30 35 31 36
REMARK SMILES IDX 66 37 32 38 71 39 65 40 67 41 33 42 70 43 64 44 63 45 34 47
REMARK SMILES IDX 56 48 41 49 55 50 42 51 45 52 54 53 68 54 43 55 44 56 53 58
REMARK SMILES IDX 69 59 46 60 35 61 36 62 40 63 37 64 39 65 38 66 57 67 58 68
REMARK SMILES IDX 62 69 59 70 61 71 60 72 47 73 48 74 52 75 49 76 51 77 50 78
REMARK H PARENT 19 5 6 12 23 27 67 46 45 57
REMARK Flexibility Score: inf
ROOT
ATOM      1  C   UNL A   1      36.506  20.967  25.363  1.00  0.00     0.117 C 
ENDROOT
BRANCH   1   2
ATOM      2  N   UNL A   1      35.310  20.197  25.067  1.00  0.00    -0.355 N 
ATOM      3  C   UNL A   1      34.081  20.638  24.666  1.00  0.00     0.238 C 
ATOM      4  O   UNL A   1      33.239  19.792  24.357  1.00  0.00    -0.273 OA
ATOM      5  H   UNL A   1      35.398  19.222  25.169  1.00  0.00     0.163 HD
BRANCH   3   6
ATOM      6  C   UNL A   1      33.723  22.134  24.711  1.00  0.00     0.159 C 
BRANCH   6   7
ATOM      7  C   UNL A   1      32.831  22.636  25.857  1.00  0.00     0.030 C 
BRANCH   7   8
ATOM      8  C   UNL A   1      32.861  24.083  26.377  1.00  0.00     0.002 C 
BRANCH   8   9
ATOM      9  C   UNL A   1      33.966  25.041  25.943  1.00  0.00    -0.003 C 
ATOM     10  C   UNL A   1      33.553  26.498  25.964  1.00  0.00     0.004 C 
ENDBRANCH   8   9
ENDBRANCH   7   8
ENDBRANCH   6   7
BRANCH   6  11
ATOM     11  N   UNL A   1      33.202  22.392  23.345  1.00  0.00    -0.199 NA
ATOM     12  H   UNL A   1      32.188  22.381  23.451  1.00  0.00     0.142 HD
BRANCH  11  13
ATOM     13  S   UNL A   1      33.503  23.685  22.358  1.00  0.00     0.241 S 
ATOM     14  O   UNL A   1      34.783  24.191  22.795  1.00  0.00    -0.207 OA
ATOM     15  O   UNL A   1      33.279  23.284  20.986  1.00  0.00    -0.207 OA
BRANCH  13  16
ATOM     16  C   UNL A   1      32.319  24.943  22.731  1.00  0.00     0.085 A 
ATOM     17  C   UNL A   1      31.072  24.669  23.296  1.00  0.00     0.022 A 
ATOM     18  C   UNL A   1      32.688  26.258  22.428  1.00  0.00     0.061 A 
ATOM     19  C   UNL A   1      30.166  25.714  23.506  1.00  0.00     0.004 A 
ATOM     20  C   UNL A   1      31.787  27.286  22.664  1.00  0.00     0.124 A 
ATOM     21  C   UNL A   1      30.525  27.024  23.185  1.00  0.00     0.039 A 
ATOM     22  F   UNL A   1      32.138  28.547  22.383  1.00  0.00    -0.207 F 
ENDBRANCH  13  16
ENDBRANCH  11  13
ENDBRANCH   6  11
ENDBRANCH   3   6
ENDBRANCH   1   2
BRANCH   1  23
ATOM     23  C   UNL A   1      37.778  20.290  24.890  1.00  0.00     0.042 C 
BRANCH  23  24
ATOM     24  C   UNL A   1      38.963  20.507  25.822  1.00  0.00     0.118 C 
BRANCH  24  25
ATOM     25  N   UNL A   1      39.889  19.380  25.855  1.00  0.00    -0.352 N 
ATOM     26  C   UNL A   1      41.251  19.365  26.038  1.00  0.00     0.251 C 
ATOM     27  H   UNL A   1      39.475  18.496  25.727  1.00  0.00     0.163 HD
ATOM     28  O   UNL A   1      41.885  18.327  25.883  1.00  0.00    -0.269 OA
BRANCH  26  29
ATOM     29  C   UNL A   1      41.951  20.614  26.395  1.00  0.00     0.039 A 
ATOM     30  C   UNL A   1      42.347  21.488  25.381  1.00  0.00     0.014 A 
ATOM     31  C   UNL A   1      42.179  20.936  27.734  1.00  0.00     0.014 A 
ATOM     32  C   UNL A   1      42.890  22.729  25.716  1.00  0.00     0.010 A 
ATOM     33  C   UNL A   1      42.621  22.210  28.066  1.00  0.00     0.010 A 
ATOM     34  C   UNL A   1      42.984  23.118  27.062  1.00  0.00    -0.014 A 
BRANCH  34  35
ATOM     35  C   UNL A   1      43.454  24.471  27.450  1.00  0.00     0.031 A 
ATOM     36  C   UNL A   1      42.459  25.523  27.858  1.00  0.00     0.074 A 
ATOM     37  C   UNL A   1      44.760  24.782  27.341  1.00  0.00     0.049 A 
ATOM     38  N   UNL A   1      42.661  26.786  28.139  1.00  0.00    -0.248 NA
ATOM     39  C   UNL A   1      41.046  25.114  27.921  1.00  0.00     0.031 C 
ATOM     40  C   UNL A   1      45.816  23.871  26.892  1.00  0.00     0.029 A 
ATOM     41  N   UNL A   1      45.420  25.958  27.589  1.00  0.00    -0.354 N 
ATOM     42  C   UNL A   1      41.402  27.323  28.376  1.00  0.00     0.074 A 
ATOM     43  C   UNL A   1      40.440  26.267  28.157  1.00  0.00     0.031 C 
ATOM     44  C   UNL A   1      46.995  24.515  26.924  1.00  0.00     0.029 A 
ATOM     45  C   UNL A   1      46.773  25.891  27.355  1.00  0.00     0.049 A 
ATOM     46  H   UNL A   1      44.968  26.774  27.904  1.00  0.00     0.167 HD
ATOM     47  C   UNL A   1      41.076  28.579  28.762  1.00  0.00     0.031 A 
ATOM     48  C   UNL A   1      47.727  26.832  27.472  1.00  0.00     0.031 A 
ATOM     49  C   UNL A   1      42.035  29.619  29.013  1.00  0.00     0.049 A 
ATOM     50  C   UNL A   1      47.346  28.209  27.936  1.00  0.00     0.074 A 
ATOM     51  C   UNL A   1      41.814  30.899  29.491  1.00  0.00     0.029 A 
ATOM     52  N   UNL A   1      43.400  29.497  28.806  1.00  0.00    -0.354 N 
ATOM     53  N   UNL A   1      46.160  28.678  28.239  1.00  0.00    -0.248 NA
ATOM     54  C   UNL A   1      48.437  29.181  28.090  1.00  0.00     0.031 C 
ATOM     55  C   UNL A   1      43.043  31.567  29.531  1.00  0.00     0.029 A 
ATOM     56  C   UNL A   1      44.033  30.686  29.126  1.00  0.00     0.049 A 
ATOM     57  H   UNL A   1      43.853  28.686  28.481  1.00  0.00     0.167 HD
ATOM     58  C   UNL A   1      46.363  29.993  28.638  1.00  0.00     0.074 A 
ATOM     59  C   UNL A   1      47.789  30.239  28.556  1.00  0.00     0.031 C 
ATOM     60  C   UNL A   1      45.452  30.913  29.036  1.00  0.00     0.031 A 
BRANCH  47  61
ATOM     61  C   UNL A   1      39.615  28.890  28.934  1.00  0.00    -0.014 A 
ATOM     62  C   UNL A   1      38.843  29.382  27.870  1.00  0.00     0.009 A 
ATOM     63  C   UNL A   1      38.997  28.670  30.174  1.00  0.00     0.009 A 
ATOM     64  C   UNL A   1      37.494  29.692  28.056  1.00  0.00     0.001 A 
ATOM     65  C   UNL A   1      37.641  28.950  30.350  1.00  0.00     0.001 A 
ATOM     66  C   UNL A   1      36.894  29.472  29.295  1.00  0.00     0.000 A 
ENDBRANCH  47  61
BRANCH  48  67
ATOM     67  C   UNL A   1      49.141  26.496  27.166  1.00  0.00    -0.014 A 
ATOM     68  C   UNL A   1      50.012  26.086  28.186  1.00  0.00     0.009 A 
ATOM     69  C   UNL A   1      49.626  26.574  25.851  1.00  0.00     0.009 A 
ATOM     70  C   UNL A   1      51.346  25.784  27.902  1.00  0.00     0.001 A 
ATOM     71  C   UNL A   1      50.954  26.245  25.565  1.00  0.00     0.001 A 
ATOM     72  C   UNL A   1      51.814  25.859  26.591  1.00  0.00     0.000 A 
ENDBRANCH  48  67
BRANCH  60  73
ATOM     73  C   UNL A   1      45.972  32.263  29.439  1.00  0.00    -0.014 A 
ATOM     74  C   UNL A   1      46.072  33.310  28.510  1.00  0.00     0.009 A 
ATOM     75  C   UNL A   1      46.326  32.498  30.776  1.00  0.00     0.009 A 
ATOM     76  C   UNL A   1      46.545  34.561  28.909  1.00  0.00     0.001 A 
ATOM     77  C   UNL A   1      46.773  33.758  31.177  1.00  0.00     0.001 A 
ATOM     78  C   UNL A   1      46.890  34.786  30.242  1.00  0.00     0.000 A 
ENDBRANCH  60  73
ENDBRANCH  34  35
ENDBRANCH  26  29
ENDBRANCH  24  25
ENDBRANCH  23  24
ENDBRANCH   1  23
TORSDOF 16
ENDMDL
