MODEL 1
REMARK VINA RESULT:      -9.9      0.000      0.000
REMARK SMILES CC(C)(C[NH2+]C[C@@H](O)C1CC1)C(=O)NCCCNC(=O)c1ccc(-c2c3nc(c(-c4ccccc4)c4ccc([nH]4)c(-c4ccccc4)c4nc(c(-c5ccccc5)c5ccc2[nH]5)C=C4)C=C3)cc1
REMARK SMILES IDX 12 1 13 2 14 3 2 5 1 6 3 7 4 8 5 9 6 12 7 13 8 14 9 16 10 17
REMARK SMILES IDX 11 18 15 19 16 20 17 21 18 22 19 23 20 25 21 26 22 27 68 28
REMARK SMILES IDX 23 29 67 30 24 31 25 32 26 33 61 34 27 35 66 36 60 37 62 38
REMARK SMILES IDX 28 39 65 40 59 41 58 42 29 44 51 45 36 46 50 47 37 48 40 49
REMARK SMILES IDX 49 50 63 51 38 52 39 53 48 55 64 56 41 57 30 58 31 59 35 60
REMARK SMILES IDX 32 61 34 62 33 63 52 64 53 65 57 66 54 67 56 68 55 69 42 70
REMARK SMILES IDX 43 71 47 72 44 73 46 74 45 75
REMARK H PARENT 14 4 5 10 5 11 8 15 18 24 62 43 40 54
REMARK Flexibility Score: inf
ROOT
ATOM      1  C   UNL A   1      34.690  21.680  26.276  1.00  0.00     0.231 C 
ATOM      2  O   UNL A   1      34.320  21.647  27.456  1.00  0.00    -0.274 OA
ATOM      3  N   UNL A   1      35.685  20.810  25.955  1.00  0.00    -0.355 N 
ATOM      4  H   UNL A   1      35.988  20.265  26.716  1.00  0.00     0.163 HD
ENDROOT
BRANCH   1   5
ATOM      5  C   UNL A   1      34.011  22.611  25.251  1.00  0.00     0.092 C 
ATOM      6  C   UNL A   1      35.117  23.344  24.448  1.00  0.00     0.027 C 
ATOM      7  C   UNL A   1      33.224  23.714  25.987  1.00  0.00     0.027 C 
BRANCH   5   8
ATOM      8  C   UNL A   1      33.090  21.850  24.261  1.00  0.00     0.276 C 
BRANCH   8   9
ATOM      9  N   UNL A   1      32.312  20.774  24.877  1.00  0.00    -0.343 N 
ATOM     10  H   UNL A   1      31.323  21.015  24.806  1.00  0.00     0.346 HD
ATOM     11  H   UNL A   1      32.636  20.699  25.843  1.00  0.00     0.346 HD
BRANCH   9  12
ATOM     12  C   UNL A   1      32.509  19.449  24.265  1.00  0.00     0.292 C 
BRANCH  12  13
ATOM     13  C   UNL A   1      33.214  18.388  25.145  1.00  0.00     0.172 C 
BRANCH  13  14
ATOM     14  O   UNL A   1      32.579  18.309  26.420  1.00  0.00    -0.387 OA
ATOM     15  H   UNL A   1      31.883  17.634  26.394  1.00  0.00     0.211 HD
ENDBRANCH  13  14
BRANCH  13  16
ATOM     16  C   UNL A   1      33.262  16.993  24.584  1.00  0.00     0.023 C 
ATOM     17  C   UNL A   1      34.061  16.657  23.348  1.00  0.00     0.007 C 
ATOM     18  C   UNL A   1      34.459  16.076  24.677  1.00  0.00     0.007 C 
ENDBRANCH  13  16
ENDBRANCH  12  13
ENDBRANCH   9  12
ENDBRANCH   8   9
ENDBRANCH   5   8
ENDBRANCH   1   5
BRANCH   3  19
ATOM     19  C   UNL A   1      36.393  20.522  24.723  1.00  0.00     0.117 C 
BRANCH  19  20
ATOM     20  C   UNL A   1      37.581  19.592  24.935  1.00  0.00     0.042 C 
BRANCH  20  21
ATOM     21  C   UNL A   1      38.844  20.291  25.428  1.00  0.00     0.118 C 
BRANCH  21  22
ATOM     22  N   UNL A   1      39.943  19.365  25.670  1.00  0.00    -0.352 N 
ATOM     23  C   UNL A   1      41.221  19.590  26.113  1.00  0.00     0.251 C 
ATOM     24  H   UNL A   1      39.733  18.421  25.486  1.00  0.00     0.163 HD
ATOM     25  O   UNL A   1      42.047  18.678  26.063  1.00  0.00    -0.269 OA
BRANCH  23  26
ATOM     26  C   UNL A   1      41.629  20.913  26.631  1.00  0.00     0.039 A 
ATOM     27  C   UNL A   1      42.137  21.860  25.737  1.00  0.00     0.014 A 
ATOM     28  C   UNL A   1      41.556  21.214  27.994  1.00  0.00     0.014 A 
ATOM     29  C   UNL A   1      42.504  23.128  26.197  1.00  0.00     0.010 A 
ATOM     30  C   UNL A   1      41.847  22.501  28.438  1.00  0.00     0.010 A 
ATOM     31  C   UNL A   1      42.326  23.471  27.546  1.00  0.00    -0.014 A 
BRANCH  31  32
ATOM     32  C   UNL A   1      42.635  24.836  28.044  1.00  0.00     0.031 A 
ATOM     33  C   UNL A   1      44.040  25.197  28.444  1.00  0.00     0.074 A 
ATOM     34  C   UNL A   1      41.639  25.729  28.203  1.00  0.00     0.049 A 
ATOM     35  N   UNL A   1      44.487  26.306  28.977  1.00  0.00    -0.248 NA
ATOM     36  C   UNL A   1      45.074  24.170  28.243  1.00  0.00     0.031 C 
ATOM     37  C   UNL A   1      40.229  25.494  27.887  1.00  0.00     0.029 A 
ATOM     38  N   UNL A   1      41.662  27.015  28.681  1.00  0.00    -0.354 N 
ATOM     39  C   UNL A   1      45.844  26.102  29.193  1.00  0.00     0.074 A 
ATOM     40  C   UNL A   1      46.140  24.749  28.776  1.00  0.00     0.031 C 
ATOM     41  C   UNL A   1      39.526  26.606  28.157  1.00  0.00     0.029 A 
ATOM     42  C   UNL A   1      40.427  27.616  28.702  1.00  0.00     0.049 A 
ATOM     43  H   UNL A   1      42.485  27.465  28.980  1.00  0.00     0.167 HD
ATOM     44  C   UNL A   1      46.766  26.968  29.678  1.00  0.00     0.031 A 
ATOM     45  C   UNL A   1      40.057  28.841  29.123  1.00  0.00     0.031 A 
ATOM     46  C   UNL A   1      46.479  28.319  30.079  1.00  0.00     0.049 A 
ATOM     47  C   UNL A   1      41.098  29.778  29.666  1.00  0.00     0.074 A 
ATOM     48  C   UNL A   1      47.356  29.288  30.532  1.00  0.00     0.029 A 
ATOM     49  N   UNL A   1      45.216  28.891  30.072  1.00  0.00    -0.354 N 
ATOM     50  N   UNL A   1      42.387  29.587  29.808  1.00  0.00    -0.248 NA
ATOM     51  C   UNL A   1      40.633  31.104  30.098  1.00  0.00     0.031 C 
ATOM     52  C   UNL A   1      46.617  30.435  30.841  1.00  0.00     0.029 A 
ATOM     53  C   UNL A   1      45.289  30.195  30.532  1.00  0.00     0.049 A 
ATOM     54  H   UNL A   1      44.392  28.437  29.784  1.00  0.00     0.167 HD
ATOM     55  C   UNL A   1      42.891  30.777  30.318  1.00  0.00     0.074 A 
ATOM     56  C   UNL A   1      41.771  31.687  30.446  1.00  0.00     0.031 C 
ATOM     57  C   UNL A   1      44.167  31.088  30.650  1.00  0.00     0.031 A 
BRANCH  44  58
ATOM     58  C   UNL A   1      48.180  26.472  29.804  1.00  0.00    -0.014 A 
ATOM     59  C   UNL A   1      48.607  25.776  30.945  1.00  0.00     0.009 A 
ATOM     60  C   UNL A   1      49.086  26.669  28.750  1.00  0.00     0.009 A 
ATOM     61  C   UNL A   1      49.922  25.318  31.043  1.00  0.00     0.001 A 
ATOM     62  C   UNL A   1      50.393  26.184  28.839  1.00  0.00     0.001 A 
ATOM     63  C   UNL A   1      50.811  25.517  29.989  1.00  0.00     0.000 A 
ENDBRANCH  44  58
BRANCH  45  64
ATOM     64  C   UNL A   1      38.634  29.262  29.036  1.00  0.00    -0.014 A 
ATOM     65  C   UNL A   1      38.134  29.834  27.856  1.00  0.00     0.009 A 
ATOM     66  C   UNL A   1      37.773  29.105  30.133  1.00  0.00     0.009 A 
ATOM     67  C   UNL A   1      36.808  30.268  27.787  1.00  0.00     0.001 A 
ATOM     68  C   UNL A   1      36.440  29.514  30.050  1.00  0.00     0.001 A 
ATOM     69  C   UNL A   1      35.962  30.104  28.882  1.00  0.00     0.000 A 
ENDBRANCH  45  64
BRANCH  57  70
ATOM     70  C   UNL A   1      44.426  32.482  31.148  1.00  0.00    -0.014 A 
ATOM     71  C   UNL A   1      44.733  33.525  30.262  1.00  0.00     0.009 A 
ATOM     72  C   UNL A   1      44.323  32.758  32.520  1.00  0.00     0.009 A 
ATOM     73  C   UNL A   1      44.963  34.815  30.747  1.00  0.00     0.001 A 
ATOM     74  C   UNL A   1      44.526  34.053  32.997  1.00  0.00     0.001 A 
ATOM     75  C   UNL A   1      44.855  35.079  32.111  1.00  0.00     0.000 A 
ENDBRANCH  57  70
ENDBRANCH  31  32
ENDBRANCH  23  26
ENDBRANCH  21  22
ENDBRANCH  20  21
ENDBRANCH  19  20
ENDBRANCH   3  19
TORSDOF 16
ENDMDL
MODEL 2
REMARK VINA RESULT:      -9.7      1.856      6.412
REMARK SMILES CC(C)(C[NH2+]C[C@@H](O)C1CC1)C(=O)NCCCNC(=O)c1ccc(-c2c3nc(c(-c4ccccc4)c4ccc([nH]4)c(-c4ccccc4)c4nc(c(-c5ccccc5)c5ccc2[nH]5)C=C4)C=C3)cc1
REMARK SMILES IDX 12 1 13 2 14 3 2 5 1 6 3 7 4 8 5 9 6 12 7 13 8 14 9 16 10 17
REMARK SMILES IDX 11 18 15 19 16 20 17 21 18 22 19 23 20 25 21 26 22 27 68 28
REMARK SMILES IDX 23 29 67 30 24 31 25 32 26 33 61 34 27 35 66 36 60 37 62 38
REMARK SMILES IDX 28 39 65 40 59 41 58 42 29 44 51 45 36 46 50 47 37 48 40 49
REMARK SMILES IDX 49 50 63 51 38 52 39 53 48 55 64 56 41 57 30 58 31 59 35 60
REMARK SMILES IDX 32 61 34 62 33 63 52 64 53 65 57 66 54 67 56 68 55 69 42 70
REMARK SMILES IDX 43 71 47 72 44 73 46 74 45 75
REMARK H PARENT 14 4 5 10 5 11 8 15 18 24 62 43 40 54
REMARK Flexibility Score: inf
ROOT
ATOM      1  C   UNL A   1      36.085  22.554  23.572  1.00  0.00     0.231 C 
ATOM      2  O   UNL A   1      36.592  23.328  22.751  1.00  0.00    -0.274 OA
ATOM      3  N   UNL A   1      36.910  21.578  24.035  1.00  0.00    -0.355 N 
ATOM      4  H   UNL A   1      37.814  21.612  23.646  1.00  0.00     0.163 HD
ENDROOT
BRANCH   1   5
ATOM      5  C   UNL A   1      34.635  22.746  24.060  1.00  0.00     0.092 C 
ATOM      6  C   UNL A   1      33.807  23.364  22.903  1.00  0.00     0.027 C 
ATOM      7  C   UNL A   1      34.600  23.781  25.202  1.00  0.00     0.027 C 
BRANCH   5   8
ATOM      8  C   UNL A   1      33.967  21.418  24.505  1.00  0.00     0.276 C 
BRANCH   8   9
ATOM      9  N   UNL A   1      32.821  21.024  23.685  1.00  0.00    -0.343 N 
ATOM     10  H   UNL A   1      33.074  21.146  22.704  1.00  0.00     0.346 HD
ATOM     11  H   UNL A   1      32.041  21.616  23.972  1.00  0.00     0.346 HD
BRANCH   9  12
ATOM     12  C   UNL A   1      32.381  19.631  23.877  1.00  0.00     0.292 C 
BRANCH  12  13
ATOM     13  C   UNL A   1      33.194  18.792  24.891  1.00  0.00     0.172 C 
BRANCH  13  14
ATOM     14  O   UNL A   1      32.548  18.804  26.165  1.00  0.00    -0.387 OA
ATOM     15  H   UNL A   1      32.788  19.615  26.641  1.00  0.00     0.211 HD
ENDBRANCH  13  14
BRANCH  13  16
ATOM     16  C   UNL A   1      33.422  17.351  24.522  1.00  0.00     0.023 C 
ATOM     17  C   UNL A   1      34.028  16.953  23.198  1.00  0.00     0.007 C 
ATOM     18  C   UNL A   1      34.778  16.687  24.475  1.00  0.00     0.007 C 
ENDBRANCH  13  16
ENDBRANCH  12  13
ENDBRANCH   9  12
ENDBRANCH   8   9
ENDBRANCH   5   8
ENDBRANCH   1   5
BRANCH   3  19
ATOM     19  C   UNL A   1      36.732  20.495  24.982  1.00  0.00     0.117 C 
BRANCH  19  20
ATOM     20  C   UNL A   1      37.915  19.534  25.001  1.00  0.00     0.042 C 
BRANCH  20  21
ATOM     21  C   UNL A   1      39.136  20.058  25.751  1.00  0.00     0.118 C 
BRANCH  21  22
ATOM     22  N   UNL A   1      40.195  19.064  25.869  1.00  0.00    -0.352 N 
ATOM     23  C   UNL A   1      41.544  19.213  26.063  1.00  0.00     0.251 C 
ATOM     24  H   UNL A   1      39.892  18.130  25.798  1.00  0.00     0.163 HD
ATOM     25  O   UNL A   1      42.283  18.236  25.940  1.00  0.00    -0.269 OA
BRANCH  23  26
ATOM     26  C   UNL A   1      42.128  20.529  26.398  1.00  0.00     0.039 A 
ATOM     27  C   UNL A   1      42.576  21.352  25.359  1.00  0.00     0.014 A 
ATOM     28  C   UNL A   1      42.277  20.942  27.724  1.00  0.00     0.014 A 
ATOM     29  C   UNL A   1      43.106  22.613  25.647  1.00  0.00     0.010 A 
ATOM     30  C   UNL A   1      42.731  22.229  28.005  1.00  0.00     0.010 A 
ATOM     31  C   UNL A   1      43.153  23.077  26.971  1.00  0.00    -0.014 A 
BRANCH  31  32
ATOM     32  C   UNL A   1      43.639  24.441  27.296  1.00  0.00     0.031 A 
ATOM     33  C   UNL A   1      42.673  25.504  27.746  1.00  0.00     0.074 A 
ATOM     34  C   UNL A   1      44.940  24.745  27.121  1.00  0.00     0.049 A 
ATOM     35  N   UNL A   1      42.896  26.770  27.994  1.00  0.00    -0.248 NA
ATOM     36  C   UNL A   1      41.269  25.098  27.914  1.00  0.00     0.031 C 
ATOM     37  C   UNL A   1      45.974  23.817  26.657  1.00  0.00     0.029 A 
ATOM     38  N   UNL A   1      45.614  25.926  27.304  1.00  0.00    -0.354 N 
ATOM     39  C   UNL A   1      41.662  27.313  28.326  1.00  0.00     0.074 A 
ATOM     40  C   UNL A   1      40.686  26.253  28.204  1.00  0.00     0.031 C 
ATOM     41  C   UNL A   1      47.153  24.458  26.615  1.00  0.00     0.029 A 
ATOM     42  C   UNL A   1      46.953  25.849  27.008  1.00  0.00     0.049 A 
ATOM     43  H   UNL A   1      45.178  26.752  27.619  1.00  0.00     0.167 HD
ATOM     44  C   UNL A   1      41.366  28.578  28.714  1.00  0.00     0.031 A 
ATOM     45  C   UNL A   1      47.913  26.792  27.040  1.00  0.00     0.031 A 
ATOM     46  C   UNL A   1      42.336  29.631  28.852  1.00  0.00     0.049 A 
ATOM     47  C   UNL A   1      47.557  28.189  27.466  1.00  0.00     0.074 A 
ATOM     48  C   UNL A   1      42.142  30.929  29.291  1.00  0.00     0.029 A 
ATOM     49  N   UNL A   1      43.684  29.505  28.554  1.00  0.00    -0.354 N 
ATOM     50  N   UNL A   1      46.393  28.670  27.831  1.00  0.00    -0.248 NA
ATOM     51  C   UNL A   1      48.650  29.171  27.490  1.00  0.00     0.031 C 
ATOM     52  C   UNL A   1      43.366  31.602  29.217  1.00  0.00     0.029 A 
ATOM     53  C   UNL A   1      44.330  30.709  28.781  1.00  0.00     0.049 A 
ATOM     54  H   UNL A   1      44.117  28.683  28.229  1.00  0.00     0.167 HD
ATOM     55  C   UNL A   1      46.621  30.001  28.158  1.00  0.00     0.074 A 
ATOM     56  C   UNL A   1      48.034  30.247  27.960  1.00  0.00     0.031 C 
ATOM     57  C   UNL A   1      45.737  30.936  28.583  1.00  0.00     0.031 A 
BRANCH  44  58
ATOM     58  C   UNL A   1      39.927  28.890  29.017  1.00  0.00    -0.014 A 
ATOM     59  C   UNL A   1      39.409  28.743  30.313  1.00  0.00     0.009 A 
ATOM     60  C   UNL A   1      39.089  29.375  28.001  1.00  0.00     0.009 A 
ATOM     61  C   UNL A   1      38.072  29.044  30.578  1.00  0.00     0.001 A 
ATOM     62  C   UNL A   1      37.759  29.702  28.276  1.00  0.00     0.001 A 
ATOM     63  C   UNL A   1      37.250  29.528  29.561  1.00  0.00     0.000 A 
ENDBRANCH  44  58
BRANCH  45  64
ATOM     64  C   UNL A   1      49.310  26.449  26.671  1.00  0.00    -0.014 A 
ATOM     65  C   UNL A   1      49.768  26.648  25.359  1.00  0.00     0.009 A 
ATOM     66  C   UNL A   1      50.191  25.911  27.623  1.00  0.00     0.009 A 
ATOM     67  C   UNL A   1      51.068  26.286  25.001  1.00  0.00     0.001 A 
ATOM     68  C   UNL A   1      51.499  25.578  27.269  1.00  0.00     0.001 A 
ATOM     69  C   UNL A   1      51.934  25.756  25.957  1.00  0.00     0.000 A 
ENDBRANCH  45  64
BRANCH  57  70
ATOM     70  C   UNL A   1      46.281  32.300  28.900  1.00  0.00    -0.014 A 
ATOM     71  C   UNL A   1      46.315  33.313  27.931  1.00  0.00     0.009 A 
ATOM     72  C   UNL A   1      46.728  32.582  30.200  1.00  0.00     0.009 A 
ATOM     73  C   UNL A   1      46.818  34.576  28.251  1.00  0.00     0.001 A 
ATOM     74  C   UNL A   1      47.204  33.853  30.524  1.00  0.00     0.001 A 
ATOM     75  C   UNL A   1      47.257  34.847  29.546  1.00  0.00     0.000 A 
ENDBRANCH  57  70
ENDBRANCH  31  32
ENDBRANCH  23  26
ENDBRANCH  21  22
ENDBRANCH  20  21
ENDBRANCH  19  20
ENDBRANCH   3  19
TORSDOF 16
ENDMDL
MODEL 3
REMARK VINA RESULT:      -9.6      3.919      8.713
REMARK SMILES CC(C)(C[NH2+]C[C@@H](O)C1CC1)C(=O)NCCCNC(=O)c1ccc(-c2c3nc(c(-c4ccccc4)c4ccc([nH]4)c(-c4ccccc4)c4nc(c(-c5ccccc5)c5ccc2[nH]5)C=C4)C=C3)cc1
REMARK SMILES IDX 12 1 13 2 14 3 2 5 1 6 3 7 4 8 5 9 6 12 7 13 8 14 9 16 10 17
REMARK SMILES IDX 11 18 15 19 16 20 17 21 18 22 19 23 20 25 21 26 22 27 68 28
REMARK SMILES IDX 23 29 67 30 24 31 25 32 26 33 61 34 27 35 66 36 60 37 62 38
REMARK SMILES IDX 28 39 65 40 59 41 58 42 29 44 51 45 36 46 50 47 37 48 40 49
REMARK SMILES IDX 49 50 63 51 38 52 39 53 48 55 64 56 41 57 30 58 31 59 35 60
REMARK SMILES IDX 32 61 34 62 33 63 52 64 53 65 57 66 54 67 56 68 55 69 42 70
REMARK SMILES IDX 43 71 47 72 44 73 46 74 45 75
REMARK H PARENT 14 4 5 10 5 11 8 15 18 24 62 43 40 54
REMARK Flexibility Score: inf
ROOT
ATOM      1  C   UNL A   1      30.829  25.426  25.993  1.00  0.00     0.231 C 
ATOM      2  O   UNL A   1      30.530  24.363  26.550  1.00  0.00    -0.274 OA
ATOM      3  N   UNL A   1      31.227  26.424  26.827  1.00  0.00    -0.355 N 
ATOM      4  H   UNL A   1      31.219  26.167  27.776  1.00  0.00     0.163 HD
ENDROOT
BRANCH   1   5
ATOM      5  C   UNL A   1      30.799  25.561  24.457  1.00  0.00     0.092 C 
ATOM      6  C   UNL A   1      30.649  24.143  23.846  1.00  0.00     0.027 C 
ATOM      7  C   UNL A   1      32.155  26.095  23.953  1.00  0.00     0.027 C 
BRANCH   5   8
ATOM      8  C   UNL A   1      29.637  26.454  23.951  1.00  0.00     0.276 C 
BRANCH   8   9
ATOM      9  N   UNL A   1      30.069  27.588  23.132  1.00  0.00    -0.343 N 
ATOM     10  H   UNL A   1      30.170  27.265  22.170  1.00  0.00     0.346 HD
ATOM     11  H   UNL A   1      30.946  27.919  23.536  1.00  0.00     0.346 HD
BRANCH   9  12
ATOM     12  C   UNL A   1      29.145  28.735  23.139  1.00  0.00     0.292 C 
BRANCH  12  13
ATOM     13  C   UNL A   1      29.689  30.053  22.538  1.00  0.00     0.172 C 
BRANCH  13  14
ATOM     14  O   UNL A   1      30.256  29.807  21.251  1.00  0.00    -0.387 OA
ATOM     15  H   UNL A   1      30.120  30.581  20.684  1.00  0.00     0.211 HD
ENDBRANCH  13  14
BRANCH  13  16
ATOM     16  C   UNL A   1      28.689  31.166  22.378  1.00  0.00     0.023 C 
ATOM     17  C   UNL A   1      27.660  31.473  23.438  1.00  0.00     0.007 C 
ATOM     18  C   UNL A   1      28.740  32.474  23.133  1.00  0.00     0.007 C 
ENDBRANCH  13  16
ENDBRANCH  12  13
ENDBRANCH   9  12
ENDBRANCH   8   9
ENDBRANCH   5   8
ENDBRANCH   1   5
BRANCH   3  19
ATOM     19  C   UNL A   1      31.659  27.790  26.604  1.00  0.00     0.117 C 
BRANCH  19  20
ATOM     20  C   UNL A   1      33.132  27.999  26.936  1.00  0.00     0.042 C 
BRANCH  20  21
ATOM     21  C   UNL A   1      33.816  29.075  26.098  1.00  0.00     0.118 C 
BRANCH  21  22
ATOM     22  N   UNL A   1      33.738  30.397  26.706  1.00  0.00    -0.352 N 
ATOM     23  C   UNL A   1      34.523  30.993  27.658  1.00  0.00     0.251 C 
ATOM     24  H   UNL A   1      32.997  30.957  26.377  1.00  0.00     0.163 HD
ATOM     25  O   UNL A   1      34.159  32.054  28.166  1.00  0.00    -0.269 OA
BRANCH  23  26
ATOM     26  C   UNL A   1      35.791  30.373  28.100  1.00  0.00     0.039 A 
ATOM     27  C   UNL A   1      36.902  30.433  27.252  1.00  0.00     0.014 A 
ATOM     28  C   UNL A   1      35.885  29.698  29.320  1.00  0.00     0.014 A 
ATOM     29  C   UNL A   1      38.120  29.879  27.657  1.00  0.00     0.010 A 
ATOM     30  C   UNL A   1      37.117  29.218  29.756  1.00  0.00     0.010 A 
ATOM     31  C   UNL A   1      38.247  29.301  28.929  1.00  0.00    -0.014 A 
BRANCH  31  32
ATOM     32  C   UNL A   1      39.548  28.776  29.414  1.00  0.00     0.031 A 
ATOM     33  C   UNL A   1      40.394  29.593  30.354  1.00  0.00     0.074 A 
ATOM     34  C   UNL A   1      40.003  27.593  28.954  1.00  0.00     0.049 A 
ATOM     35  N   UNL A   1      41.591  29.339  30.818  1.00  0.00    -0.248 NA
ATOM     36  C   UNL A   1      39.831  30.873  30.811  1.00  0.00     0.031 C 
ATOM     37  C   UNL A   1      39.299  26.720  28.014  1.00  0.00     0.029 A 
ATOM     38  N   UNL A   1      41.175  26.927  29.212  1.00  0.00    -0.354 N 
ATOM     39  C   UNL A   1      41.932  30.434  31.603  1.00  0.00     0.074 A 
ATOM     40  C   UNL A   1      40.836  31.374  31.516  1.00  0.00     0.031 C 
ATOM     41  C   UNL A   1      40.041  25.623  27.793  1.00  0.00     0.029 A 
ATOM     42  C   UNL A   1      41.289  25.734  28.540  1.00  0.00     0.049 A 
ATOM     43  H   UNL A   1      41.868  27.271  29.820  1.00  0.00     0.167 HD
ATOM     44  C   UNL A   1      43.049  30.634  32.343  1.00  0.00     0.031 A 
ATOM     45  C   UNL A   1      42.289  24.833  28.520  1.00  0.00     0.031 A 
ATOM     46  C   UNL A   1      44.134  29.695  32.444  1.00  0.00     0.049 A 
ATOM     47  C   UNL A   1      43.521  25.083  29.343  1.00  0.00     0.074 A 
ATOM     48  C   UNL A   1      45.282  29.784  33.211  1.00  0.00     0.029 A 
ATOM     49  N   UNL A   1      44.202  28.493  31.756  1.00  0.00    -0.354 N 
ATOM     50  N   UNL A   1      43.801  26.098  30.124  1.00  0.00    -0.248 NA
ATOM     51  C   UNL A   1      44.573  24.058  29.287  1.00  0.00     0.031 C 
ATOM     52  C   UNL A   1      46.067  28.655  32.954  1.00  0.00     0.029 A 
ATOM     53  C   UNL A   1      45.383  27.840  32.068  1.00  0.00     0.049 A 
ATOM     54  H   UNL A   1      43.514  28.155  31.139  1.00  0.00     0.167 HD
ATOM     55  C   UNL A   1      45.044  25.819  30.675  1.00  0.00     0.074 A 
ATOM     56  C   UNL A   1      45.459  24.535  30.150  1.00  0.00     0.031 C 
ATOM     57  C   UNL A   1      45.778  26.562  31.539  1.00  0.00     0.031 A 
BRANCH  44  58
ATOM     58  C   UNL A   1      43.152  31.926  33.104  1.00  0.00    -0.014 A 
ATOM     59  C   UNL A   1      43.734  33.065  32.526  1.00  0.00     0.009 A 
ATOM     60  C   UNL A   1      42.624  32.017  34.401  1.00  0.00     0.009 A 
ATOM     61  C   UNL A   1      43.816  34.259  33.244  1.00  0.00     0.001 A 
ATOM     62  C   UNL A   1      42.682  33.222  35.106  1.00  0.00     0.001 A 
ATOM     63  C   UNL A   1      43.285  34.338  34.530  1.00  0.00     0.000 A 
ENDBRANCH  44  58
BRANCH  45  64
ATOM     64  C   UNL A   1      42.166  23.599  27.702  1.00  0.00    -0.014 A 
ATOM     65  C   UNL A   1      42.762  23.526  26.433  1.00  0.00     0.009 A 
ATOM     66  C   UNL A   1      41.445  22.493  28.178  1.00  0.00     0.009 A 
ATOM     67  C   UNL A   1      42.611  22.382  25.646  1.00  0.00     0.001 A 
ATOM     68  C   UNL A   1      41.321  21.340  27.401  1.00  0.00     0.001 A 
ATOM     69  C   UNL A   1      41.895  21.289  26.132  1.00  0.00     0.000 A 
ENDBRANCH  45  64
BRANCH  57  70
ATOM     70  C   UNL A   1      47.087  25.984  32.000  1.00  0.00    -0.014 A 
ATOM     71  C   UNL A   1      47.178  25.247  33.190  1.00  0.00     0.009 A 
ATOM     72  C   UNL A   1      48.234  26.150  31.209  1.00  0.00     0.009 A 
ATOM     73  C   UNL A   1      48.403  24.713  33.595  1.00  0.00     0.001 A 
ATOM     74  C   UNL A   1      49.451  25.592  31.603  1.00  0.00     0.001 A 
ATOM     75  C   UNL A   1      49.536  24.881  32.800  1.00  0.00     0.000 A 
ENDBRANCH  57  70
ENDBRANCH  31  32
ENDBRANCH  23  26
ENDBRANCH  21  22
ENDBRANCH  20  21
ENDBRANCH  19  20
ENDBRANCH   3  19
TORSDOF 16
ENDMDL
