MODEL 1
REMARK VINA RESULT:     -12.1      0.000      0.000
REMARK SMILES CN(CC(=O)NCCCNC(=O)c1ccc(-c2c3nc(c(-c4ccccc4)c4ccc([nH]4)c(-c4ccccc4)c4nc(c(-c5ccccc5)c5ccc2[nH]5)C=C4)C=C3)cc1)c1ncc(-c2nnnn2-c2ccccc2)c(-c2ccc(Cl)cc2)n1
REMARK SMILES IDX 7 1 6 2 4 3 5 4 3 6 2 7 1 8 61 9 62 10 84 11 63 12 76 13
REMARK SMILES IDX 64 14 77 15 78 16 83 17 79 18 82 19 80 20 81 21 65 22 66 23
REMARK SMILES IDX 69 24 67 25 68 26 70 27 71 28 75 29 72 30 74 31 73 32 8 33
REMARK SMILES IDX 9 34 10 35 11 36 12 38 13 39 14 40 60 41 15 42 59 43 16 44
REMARK SMILES IDX 17 45 18 46 53 47 19 48 58 49 52 50 54 51 20 52 57 53 51 54
REMARK SMILES IDX 50 55 21 57 43 58 28 59 42 60 29 61 32 62 41 63 55 64 30 65
REMARK SMILES IDX 31 66 40 68 56 69 33 70 22 71 23 72 27 73 24 74 26 75 25 76
REMARK SMILES IDX 44 77 45 78 49 79 46 80 48 81 47 82 34 83 35 84 39 85 36 86
REMARK SMILES IDX 38 87 37 88
REMARK H PARENT 6 5 10 37 54 56 32 67
REMARK Flexibility Score: inf
ROOT
ATOM      1  C   UNL A   1      36.918  19.931  24.769  1.00  0.00     0.117 C 
ENDROOT
BRANCH   1   2
ATOM      2  N   UNL A   1      35.668  19.215  24.910  1.00  0.00    -0.354 N 
ATOM      3  C   UNL A   1      34.400  19.724  24.985  1.00  0.00     0.239 C 
ATOM      4  O   UNL A   1      33.459  18.924  25.016  1.00  0.00    -0.273 OA
ATOM      5  H   UNL A   1      35.739  18.234  24.958  1.00  0.00     0.163 HD
BRANCH   3   6
ATOM      6  C   UNL A   1      34.175  21.241  24.910  1.00  0.00     0.219 C 
BRANCH   6   7
ATOM      7  N   UNL A   1      33.193  21.765  25.867  1.00  0.00    -0.335 N 
ATOM      8  C   UNL A   1      33.487  21.708  27.283  1.00  0.00     0.147 C 
BRANCH   7   9
ATOM      9  C   UNL A   1      32.423  22.824  25.425  1.00  0.00     0.226 A 
ATOM     10  N   UNL A   1      31.536  22.593  24.454  1.00  0.00    -0.221 NA
ATOM     11  N   UNL A   1      32.583  24.040  25.971  1.00  0.00    -0.212 NA
ATOM     12  C   UNL A   1      30.787  23.622  24.022  1.00  0.00     0.129 A 
ATOM     13  C   UNL A   1      31.838  25.075  25.498  1.00  0.00     0.087 A 
ATOM     14  C   UNL A   1      30.870  24.904  24.523  1.00  0.00     0.066 A 
BRANCH  13  15
ATOM     15  C   UNL A   1      32.185  26.383  26.082  1.00  0.00     0.001 A 
ATOM     16  C   UNL A   1      33.502  26.868  25.976  1.00  0.00     0.012 A 
ATOM     17  C   UNL A   1      31.232  27.195  26.722  1.00  0.00     0.012 A 
ATOM     18  C   UNL A   1      33.849  28.133  26.459  1.00  0.00     0.021 A 
ATOM     19  C   UNL A   1      31.576  28.462  27.205  1.00  0.00     0.021 A 
ATOM     20  C   UNL A   1      32.882  28.928  27.065  1.00  0.00     0.041 A 
ATOM     21  Cl  UNL A   1      33.298  30.493  27.644  1.00  0.00    -0.084 Cl
ENDBRANCH  13  15
BRANCH  14  22
ATOM     22  C   UNL A   1      30.018  25.955  23.997  1.00  0.00     0.190 A 
ATOM     23  N   UNL A   1      28.703  26.005  24.103  1.00  0.00    -0.108 NA
ATOM     24  N   UNL A   1      30.445  27.156  23.439  1.00  0.00    -0.193 N 
ATOM     25  N   UNL A   1      28.329  27.263  23.718  1.00  0.00    -0.023 NA
ATOM     26  N   UNL A   1      29.382  27.989  23.380  1.00  0.00    -0.040 NA
BRANCH  24  27
ATOM     27  C   UNL A   1      31.727  27.559  22.984  1.00  0.00     0.069 A 
ATOM     28  C   UNL A   1      32.490  26.666  22.219  1.00  0.00     0.028 A 
ATOM     29  C   UNL A   1      32.248  28.822  23.298  1.00  0.00     0.028 A 
ATOM     30  C   UNL A   1      33.739  27.056  21.732  1.00  0.00     0.002 A 
ATOM     31  C   UNL A   1      33.509  29.195  22.827  1.00  0.00     0.002 A 
ATOM     32  C   UNL A   1      34.249  28.318  22.037  1.00  0.00     0.000 A 
ENDBRANCH  24  27
ENDBRANCH  14  22
ENDBRANCH   7   9
ENDBRANCH   6   7
ENDBRANCH   3   6
ENDBRANCH   1   2
BRANCH   1  33
ATOM     33  C   UNL A   1      38.131  19.075  25.118  1.00  0.00     0.042 C 
BRANCH  33  34
ATOM     34  C   UNL A   1      39.246  19.829  25.839  1.00  0.00     0.118 C 
BRANCH  34  35
ATOM     35  N   UNL A   1      40.486  19.070  25.913  1.00  0.00    -0.352 N 
ATOM     36  C   UNL A   1      41.767  19.469  26.186  1.00  0.00     0.251 C 
ATOM     37  H   UNL A   1      40.387  18.106  25.736  1.00  0.00     0.163 HD
ATOM     38  O   UNL A   1      42.692  18.671  26.021  1.00  0.00    -0.269 OA
BRANCH  36  39
ATOM     39  C   UNL A   1      42.068  20.836  26.664  1.00  0.00     0.039 A 
ATOM     40  C   UNL A   1      42.396  21.815  25.720  1.00  0.00     0.014 A 
ATOM     41  C   UNL A   1      42.098  21.152  28.026  1.00  0.00     0.014 A 
ATOM     42  C   UNL A   1      42.708  23.113  26.133  1.00  0.00     0.010 A 
ATOM     43  C   UNL A   1      42.341  22.463  28.434  1.00  0.00     0.010 A 
ATOM     44  C   UNL A   1      42.661  23.453  27.493  1.00  0.00    -0.014 A 
BRANCH  44  45
ATOM     45  C   UNL A   1      42.964  24.835  27.946  1.00  0.00     0.031 A 
ATOM     46  C   UNL A   1      44.389  25.267  28.163  1.00  0.00     0.074 A 
ATOM     47  C   UNL A   1      41.957  25.691  28.204  1.00  0.00     0.049 A 
ATOM     48  N   UNL A   1      44.848  26.415  28.598  1.00  0.00    -0.248 NA
ATOM     49  C   UNL A   1      45.437  24.272  27.878  1.00  0.00     0.031 C 
ATOM     50  C   UNL A   1      40.531  25.390  28.065  1.00  0.00     0.029 A 
ATOM     51  N   UNL A   1      41.982  26.992  28.640  1.00  0.00    -0.354 N 
ATOM     52  C   UNL A   1      46.229  26.274  28.653  1.00  0.00     0.074 A 
ATOM     53  C   UNL A   1      46.531  24.917  28.255  1.00  0.00     0.031 C 
ATOM     54  C   UNL A   1      39.819  26.483  28.383  1.00  0.00     0.029 A 
ATOM     55  C   UNL A   1      40.734  27.549  28.780  1.00  0.00     0.049 A 
ATOM     56  H   UNL A   1      42.814  27.480  28.835  1.00  0.00     0.167 HD
ATOM     57  C   UNL A   1      47.164  27.195  28.987  1.00  0.00     0.031 A 
ATOM     58  C   UNL A   1      40.366  28.779  29.184  1.00  0.00     0.031 A 
ATOM     59  C   UNL A   1      46.870  28.551  29.364  1.00  0.00     0.049 A 
ATOM     60  C   UNL A   1      41.423  29.781  29.552  1.00  0.00     0.074 A 
ATOM     61  C   UNL A   1      47.754  29.574  29.667  1.00  0.00     0.029 A 
ATOM     62  N   UNL A   1      45.594  29.077  29.488  1.00  0.00    -0.354 N 
ATOM     63  N   UNL A   1      42.728  29.648  29.545  1.00  0.00    -0.248 NA
ATOM     64  C   UNL A   1      40.955  31.109  29.976  1.00  0.00     0.031 C 
ATOM     65  C   UNL A   1      47.010  30.706  30.015  1.00  0.00     0.029 A 
ATOM     66  C   UNL A   1      45.665  30.401  29.882  1.00  0.00     0.049 A 
ATOM     67  H   UNL A   1      44.760  28.580  29.320  1.00  0.00     0.167 HD
ATOM     68  C   UNL A   1      43.235  30.880  29.938  1.00  0.00     0.074 A 
ATOM     69  C   UNL A   1      42.099  31.752  30.158  1.00  0.00     0.031 C 
ATOM     70  C   UNL A   1      44.527  31.256  30.101  1.00  0.00     0.031 A 
BRANCH  57  71
ATOM     71  C   UNL A   1      48.602  26.758  28.961  1.00  0.00    -0.014 A 
ATOM     72  C   UNL A   1      49.385  26.897  27.804  1.00  0.00     0.009 A 
ATOM     73  C   UNL A   1      49.193  26.228  30.121  1.00  0.00     0.009 A 
ATOM     74  C   UNL A   1      50.718  26.479  27.797  1.00  0.00     0.001 A 
ATOM     75  C   UNL A   1      50.533  25.837  30.118  1.00  0.00     0.001 A 
ATOM     76  C   UNL A   1      51.291  25.954  28.954  1.00  0.00     0.000 A 
ENDBRANCH  57  71
BRANCH  58  77
ATOM     77  C   UNL A   1      38.928  29.145  29.244  1.00  0.00    -0.014 A 
ATOM     78  C   UNL A   1      38.211  29.012  30.443  1.00  0.00     0.009 A 
ATOM     79  C   UNL A   1      38.261  29.616  28.102  1.00  0.00     0.009 A 
ATOM     80  C   UNL A   1      36.849  29.318  30.491  1.00  0.00     0.001 A 
ATOM     81  C   UNL A   1      36.905  29.947  28.160  1.00  0.00     0.001 A 
ATOM     82  C   UNL A   1      36.199  29.788  29.351  1.00  0.00     0.000 A 
ENDBRANCH  58  77
BRANCH  70  83
ATOM     83  C   UNL A   1      44.779  32.678  30.512  1.00  0.00    -0.014 A 
ATOM     84  C   UNL A   1      44.988  33.684  29.558  1.00  0.00     0.009 A 
ATOM     85  C   UNL A   1      44.778  33.018  31.873  1.00  0.00     0.009 A 
ATOM     86  C   UNL A   1      45.226  35.000  29.961  1.00  0.00     0.001 A 
ATOM     87  C   UNL A   1      44.989  34.339  32.272  1.00  0.00     0.001 A 
ATOM     88  C   UNL A   1      45.223  35.327  31.316  1.00  0.00     0.000 A 
ENDBRANCH  70  83
ENDBRANCH  44  45
ENDBRANCH  36  39
ENDBRANCH  34  35
ENDBRANCH  33  34
ENDBRANCH   1  33
TORSDOF 15
ENDMDL
MODEL 2
REMARK VINA RESULT:     -11.6      4.490      9.130
REMARK SMILES CN(CC(=O)NCCCNC(=O)c1ccc(-c2c3nc(c(-c4ccccc4)c4ccc([nH]4)c(-c4ccccc4)c4nc(c(-c5ccccc5)c5ccc2[nH]5)C=C4)C=C3)cc1)c1ncc(-c2nnnn2-c2ccccc2)c(-c2ccc(Cl)cc2)n1
REMARK SMILES IDX 7 1 6 2 4 3 5 4 3 6 2 7 1 8 61 9 62 10 84 11 63 12 76 13
REMARK SMILES IDX 64 14 77 15 78 16 83 17 79 18 82 19 80 20 81 21 65 22 66 23
REMARK SMILES IDX 69 24 67 25 68 26 70 27 71 28 75 29 72 30 74 31 73 32 8 33
REMARK SMILES IDX 9 34 10 35 11 36 12 38 13 39 14 40 60 41 15 42 59 43 16 44
REMARK SMILES IDX 17 45 18 46 53 47 19 48 58 49 52 50 54 51 20 52 57 53 51 54
REMARK SMILES IDX 50 55 21 57 43 58 28 59 42 60 29 61 32 62 41 63 55 64 30 65
REMARK SMILES IDX 31 66 40 68 56 69 33 70 22 71 23 72 27 73 24 74 26 75 25 76
REMARK SMILES IDX 44 77 45 78 49 79 46 80 48 81 47 82 34 83 35 84 39 85 36 86
REMARK SMILES IDX 38 87 37 88
REMARK H PARENT 6 5 10 37 54 56 32 67
REMARK Flexibility Score: inf
ROOT
ATOM      1  C   UNL A   1      36.496  32.843  28.560  1.00  0.00     0.117 C 
ENDROOT
BRANCH   1   2
ATOM      2  N   UNL A   1      36.373  31.692  29.427  1.00  0.00    -0.354 N 
ATOM      3  C   UNL A   1      36.026  30.410  29.097  1.00  0.00     0.239 C 
ATOM      4  O   UNL A   1      36.066  29.554  29.986  1.00  0.00    -0.273 OA
ATOM      5  H   UNL A   1      36.563  31.851  30.381  1.00  0.00     0.163 HD
BRANCH   3   6
ATOM      6  C   UNL A   1      35.719  30.050  27.636  1.00  0.00     0.219 C 
BRANCH   6   7
ATOM      7  N   UNL A   1      34.293  29.882  27.331  1.00  0.00    -0.335 N 
ATOM      8  C   UNL A   1      33.373  30.954  27.643  1.00  0.00     0.147 C 
BRANCH   7   9
ATOM      9  C   UNL A   1      33.998  29.097  26.232  1.00  0.00     0.226 A 
ATOM     10  N   UNL A   1      33.654  29.710  25.097  1.00  0.00    -0.221 NA
ATOM     11  N   UNL A   1      34.064  27.760  26.330  1.00  0.00    -0.212 NA
ATOM     12  C   UNL A   1      33.366  28.948  24.028  1.00  0.00     0.129 A 
ATOM     13  C   UNL A   1      33.739  27.006  25.246  1.00  0.00     0.087 A 
ATOM     14  C   UNL A   1      33.412  27.571  24.024  1.00  0.00     0.066 A 
BRANCH  13  15
ATOM     15  C   UNL A   1      33.724  25.555  25.503  1.00  0.00     0.001 A 
ATOM     16  C   UNL A   1      32.548  24.941  25.975  1.00  0.00     0.012 A 
ATOM     17  C   UNL A   1      34.844  24.739  25.262  1.00  0.00     0.012 A 
ATOM     18  C   UNL A   1      32.480  23.558  26.165  1.00  0.00     0.021 A 
ATOM     19  C   UNL A   1      34.778  23.355  25.452  1.00  0.00     0.021 A 
ATOM     20  C   UNL A   1      33.594  22.769  25.895  1.00  0.00     0.041 A 
ATOM     21  Cl  UNL A   1      33.509  21.065  26.109  1.00  0.00    -0.084 Cl
ENDBRANCH  13  15
BRANCH  14  22
ATOM     22  C   UNL A   1      33.088  26.828  22.820  1.00  0.00     0.190 A 
ATOM     23  N   UNL A   1      33.960  26.262  22.006  1.00  0.00    -0.108 NA
ATOM     24  N   UNL A   1      31.814  26.450  22.406  1.00  0.00    -0.193 N 
ATOM     25  N   UNL A   1      33.243  25.456  21.166  1.00  0.00    -0.023 NA
ATOM     26  N   UNL A   1      31.951  25.510  21.444  1.00  0.00    -0.040 NA
BRANCH  24  27
ATOM     27  C   UNL A   1      30.536  26.887  22.837  1.00  0.00     0.069 A 
ATOM     28  C   UNL A   1      30.102  28.174  22.491  1.00  0.00     0.028 A 
ATOM     29  C   UNL A   1      29.707  26.063  23.613  1.00  0.00     0.028 A 
ATOM     30  C   UNL A   1      28.833  28.610  22.876  1.00  0.00     0.002 A 
ATOM     31  C   UNL A   1      28.449  26.516  24.015  1.00  0.00     0.002 A 
ATOM     32  C   UNL A   1      28.008  27.783  23.638  1.00  0.00     0.000 A 
ENDBRANCH  24  27
ENDBRANCH  14  22
ENDBRANCH   7   9
ENDBRANCH   6   7
ENDBRANCH   3   6
ENDBRANCH   1   2
BRANCH   1  33
ATOM     33  C   UNL A   1      35.455  33.919  28.852  1.00  0.00     0.042 C 
BRANCH  33  34
ATOM     34  C   UNL A   1      34.601  33.647  30.088  1.00  0.00     0.118 C 
BRANCH  34  35
ATOM     35  N   UNL A   1      34.752  34.668  31.114  1.00  0.00    -0.352 N 
ATOM     36  C   UNL A   1      35.652  34.783  32.141  1.00  0.00     0.251 C 
ATOM     37  H   UNL A   1      34.095  35.401  31.063  1.00  0.00     0.163 HD
ATOM     38  O   UNL A   1      35.478  35.652  32.997  1.00  0.00    -0.269 OA
BRANCH  36  39
ATOM     39  C   UNL A   1      36.822  33.883  32.249  1.00  0.00     0.039 A 
ATOM     40  C   UNL A   1      38.016  34.268  31.629  1.00  0.00     0.014 A 
ATOM     41  C   UNL A   1      36.743  32.643  32.889  1.00  0.00     0.014 A 
ATOM     42  C   UNL A   1      39.137  33.435  31.688  1.00  0.00     0.010 A 
ATOM     43  C   UNL A   1      37.880  31.845  33.008  1.00  0.00     0.010 A 
ATOM     44  C   UNL A   1      39.084  32.227  32.399  1.00  0.00    -0.014 A 
BRANCH  44  45
ATOM     45  C   UNL A   1      40.275  31.343  32.494  1.00  0.00     0.031 A 
ATOM     46  C   UNL A   1      40.496  30.254  31.479  1.00  0.00     0.074 A 
ATOM     47  C   UNL A   1      41.138  31.491  33.517  1.00  0.00     0.049 A 
ATOM     48  N   UNL A   1      41.449  29.359  31.422  1.00  0.00    -0.248 NA
ATOM     49  C   UNL A   1      39.501  30.141  30.399  1.00  0.00     0.031 C 
ATOM     50  C   UNL A   1      41.025  32.486  34.585  1.00  0.00     0.029 A 
ATOM     51  N   UNL A   1      42.283  30.801  33.825  1.00  0.00    -0.354 N 
ATOM     52  C   UNL A   1      41.161  28.569  30.316  1.00  0.00     0.074 A 
ATOM     53  C   UNL A   1      39.920  29.059  29.759  1.00  0.00     0.031 C 
ATOM     54  C   UNL A   1      42.073  32.359  35.416  1.00  0.00     0.029 A 
ATOM     55  C   UNL A   1      42.912  31.255  34.959  1.00  0.00     0.049 A 
ATOM     56  H   UNL A   1      42.622  30.051  33.285  1.00  0.00     0.167 HD
ATOM     57  C   UNL A   1      41.874  27.539  29.798  1.00  0.00     0.031 A 
ATOM     58  C   UNL A   1      44.035  30.830  35.566  1.00  0.00     0.031 A 
ATOM     59  C   UNL A   1      43.118  27.061  30.336  1.00  0.00     0.049 A 
ATOM     60  C   UNL A   1      44.805  29.684  34.973  1.00  0.00     0.074 A 
ATOM     61  C   UNL A   1      43.941  26.059  29.849  1.00  0.00     0.029 A 
ATOM     62  N   UNL A   1      43.723  27.552  31.483  1.00  0.00    -0.354 N 
ATOM     63  N   UNL A   1      44.547  28.984  33.894  1.00  0.00    -0.248 NA
ATOM     64  C   UNL A   1      46.028  29.275  35.679  1.00  0.00     0.031 C 
ATOM     65  C   UNL A   1      45.022  25.916  30.725  1.00  0.00     0.029 A 
ATOM     66  C   UNL A   1      44.896  26.861  31.731  1.00  0.00     0.049 A 
ATOM     67  H   UNL A   1      43.369  28.284  32.039  1.00  0.00     0.167 HD
ATOM     68  C   UNL A   1      45.588  28.071  33.778  1.00  0.00     0.074 A 
ATOM     69  C   UNL A   1      46.488  28.318  34.886  1.00  0.00     0.031 C 
ATOM     70  C   UNL A   1      45.780  27.115  32.838  1.00  0.00     0.031 A 
BRANCH  57  71
ATOM     71  C   UNL A   1      41.314  26.857  28.581  1.00  0.00    -0.014 A 
ATOM     72  C   UNL A   1      40.356  25.837  28.694  1.00  0.00     0.009 A 
ATOM     73  C   UNL A   1      41.726  27.263  27.301  1.00  0.00     0.009 A 
ATOM     74  C   UNL A   1      39.852  25.210  27.553  1.00  0.00     0.001 A 
ATOM     75  C   UNL A   1      41.198  26.653  26.161  1.00  0.00     0.001 A 
ATOM     76  C   UNL A   1      40.269  25.621  26.288  1.00  0.00     0.000 A 
ENDBRANCH  57  71
BRANCH  58  77
ATOM     77  C   UNL A   1      44.517  31.504  36.798  1.00  0.00    -0.014 A 
ATOM     78  C   UNL A   1      44.010  31.136  38.054  1.00  0.00     0.009 A 
ATOM     79  C   UNL A   1      45.477  32.526  36.726  1.00  0.00     0.009 A 
ATOM     80  C   UNL A   1      44.433  31.796  39.210  1.00  0.00     0.001 A 
ATOM     81  C   UNL A   1      45.918  33.165  37.887  1.00  0.00     0.001 A 
ATOM     82  C   UNL A   1      45.389  32.806  39.126  1.00  0.00     0.000 A 
ENDBRANCH  58  77
BRANCH  70  83
ATOM     83  C   UNL A   1      47.025  26.283  32.954  1.00  0.00    -0.014 A 
ATOM     84  C   UNL A   1      48.181  26.599  32.224  1.00  0.00     0.009 A 
ATOM     85  C   UNL A   1      47.049  25.185  33.827  1.00  0.00     0.009 A 
ATOM     86  C   UNL A   1      49.327  25.810  32.342  1.00  0.00     0.001 A 
ATOM     87  C   UNL A   1      48.205  24.414  33.963  1.00  0.00     0.001 A 
ATOM     88  C   UNL A   1      49.339  24.722  33.213  1.00  0.00     0.000 A 
ENDBRANCH  70  83
ENDBRANCH  44  45
ENDBRANCH  36  39
ENDBRANCH  34  35
ENDBRANCH  33  34
ENDBRANCH   1  33
TORSDOF 15
ENDMDL
MODEL 3
REMARK VINA RESULT:     -11.6      4.790      9.291
REMARK SMILES CN(CC(=O)NCCCNC(=O)c1ccc(-c2c3nc(c(-c4ccccc4)c4ccc([nH]4)c(-c4ccccc4)c4nc(c(-c5ccccc5)c5ccc2[nH]5)C=C4)C=C3)cc1)c1ncc(-c2nnnn2-c2ccccc2)c(-c2ccc(Cl)cc2)n1
REMARK SMILES IDX 7 1 6 2 4 3 5 4 3 6 2 7 1 8 61 9 62 10 84 11 63 12 76 13
REMARK SMILES IDX 64 14 77 15 78 16 83 17 79 18 82 19 80 20 81 21 65 22 66 23
REMARK SMILES IDX 69 24 67 25 68 26 70 27 71 28 75 29 72 30 74 31 73 32 8 33
REMARK SMILES IDX 9 34 10 35 11 36 12 38 13 39 14 40 60 41 15 42 59 43 16 44
REMARK SMILES IDX 17 45 18 46 53 47 19 48 58 49 52 50 54 51 20 52 57 53 51 54
REMARK SMILES IDX 50 55 21 57 43 58 28 59 42 60 29 61 32 62 41 63 55 64 30 65
REMARK SMILES IDX 31 66 40 68 56 69 33 70 22 71 23 72 27 73 24 74 26 75 25 76
REMARK SMILES IDX 44 77 45 78 49 79 46 80 48 81 47 82 34 83 35 84 39 85 36 86
REMARK SMILES IDX 38 87 37 88
REMARK H PARENT 6 5 10 37 54 56 32 67
REMARK Flexibility Score: inf
ROOT
ATOM      1  C   UNL A   1      30.661  31.568  25.083  1.00  0.00     0.117 C 
ENDROOT
BRANCH   1   2
ATOM      2  N   UNL A   1      29.681  32.382  24.398  1.00  0.00    -0.354 N 
ATOM      3  C   UNL A   1      29.106  32.172  23.174  1.00  0.00     0.239 C 
ATOM      4  O   UNL A   1      28.220  32.953  22.812  1.00  0.00    -0.273 OA
ATOM      5  H   UNL A   1      29.390  33.195  24.874  1.00  0.00     0.163 HD
BRANCH   3   6
ATOM      6  C   UNL A   1      29.481  30.931  22.352  1.00  0.00     0.219 C 
BRANCH   6   7
ATOM      7  N   UNL A   1      28.538  29.811  22.465  1.00  0.00    -0.335 N 
ATOM      8  C   UNL A   1      27.677  29.497  21.345  1.00  0.00     0.147 C 
BRANCH   7   9
ATOM      9  C   UNL A   1      28.943  28.759  23.265  1.00  0.00     0.226 A 
ATOM     10  N   UNL A   1      28.168  27.673  23.313  1.00  0.00    -0.221 NA
ATOM     11  N   UNL A   1      30.086  28.852  23.962  1.00  0.00    -0.212 NA
ATOM     12  C   UNL A   1      28.559  26.650  24.092  1.00  0.00     0.129 A 
ATOM     13  C   UNL A   1      30.449  27.819  24.768  1.00  0.00     0.087 A 
ATOM     14  C   UNL A   1      29.718  26.645  24.839  1.00  0.00     0.066 A 
BRANCH  13  15
ATOM     15  C   UNL A   1      31.651  28.080  25.579  1.00  0.00     0.001 A 
ATOM     16  C   UNL A   1      32.914  28.133  24.959  1.00  0.00     0.012 A 
ATOM     17  C   UNL A   1      31.585  28.315  26.964  1.00  0.00     0.012 A 
ATOM     18  C   UNL A   1      34.065  28.445  25.688  1.00  0.00     0.021 A 
ATOM     19  C   UNL A   1      32.735  28.628  27.695  1.00  0.00     0.021 A 
ATOM     20  C   UNL A   1      33.970  28.699  27.053  1.00  0.00     0.041 A 
ATOM     21  Cl  UNL A   1      35.380  29.102  27.950  1.00  0.00    -0.084 Cl
ENDBRANCH  13  15
BRANCH  14  22
ATOM     22  C   UNL A   1      30.064  25.492  25.650  1.00  0.00     0.190 A 
ATOM     23  N   UNL A   1      29.414  25.083  26.724  1.00  0.00    -0.108 NA
ATOM     24  N   UNL A   1      31.031  24.537  25.350  1.00  0.00    -0.193 N 
ATOM     25  N   UNL A   1      29.897  23.838  27.021  1.00  0.00    -0.023 NA
ATOM     26  N   UNL A   1      30.827  23.470  26.155  1.00  0.00    -0.040 NA
BRANCH  24  27
ATOM     27  C   UNL A   1      32.081  24.555  24.396  1.00  0.00     0.069 A 
ATOM     28  C   UNL A   1      33.404  24.415  24.837  1.00  0.00     0.028 A 
ATOM     29  C   UNL A   1      31.821  24.723  23.028  1.00  0.00     0.028 A 
ATOM     30  C   UNL A   1      34.450  24.395  23.912  1.00  0.00     0.002 A 
ATOM     31  C   UNL A   1      32.875  24.726  22.111  1.00  0.00     0.002 A 
ATOM     32  C   UNL A   1      34.186  24.551  22.551  1.00  0.00     0.000 A 
ENDBRANCH  24  27
ENDBRANCH  14  22
ENDBRANCH   7   9
ENDBRANCH   6   7
ENDBRANCH   3   6
ENDBRANCH   1   2
BRANCH   1  33
ATOM     33  C   UNL A   1      30.867  31.987  26.535  1.00  0.00     0.042 C 
BRANCH  33  34
ATOM     34  C   UNL A   1      32.277  32.474  26.855  1.00  0.00     0.118 C 
BRANCH  34  35
ATOM     35  N   UNL A   1      32.304  33.845  27.345  1.00  0.00    -0.352 N 
ATOM     36  C   UNL A   1      33.087  34.443  28.297  1.00  0.00     0.251 C 
ATOM     37  H   UNL A   1      31.649  34.445  26.920  1.00  0.00     0.163 HD
ATOM     38  O   UNL A   1      32.811  35.584  28.670  1.00  0.00    -0.269 OA
BRANCH  36  39
ATOM     39  C   UNL A   1      34.249  33.747  28.893  1.00  0.00     0.039 A 
ATOM     40  C   UNL A   1      35.517  34.317  28.739  1.00  0.00     0.014 A 
ATOM     41  C   UNL A   1      34.119  32.514  29.538  1.00  0.00     0.014 A 
ATOM     42  C   UNL A   1      36.642  33.678  29.267  1.00  0.00     0.010 A 
ATOM     43  C   UNL A   1      35.231  31.912  30.126  1.00  0.00     0.010 A 
ATOM     44  C   UNL A   1      36.505  32.482  29.986  1.00  0.00    -0.014 A 
BRANCH  44  45
ATOM     45  C   UNL A   1      37.689  31.805  30.576  1.00  0.00     0.031 A 
ATOM     46  C   UNL A   1      38.140  32.144  31.972  1.00  0.00     0.074 A 
ATOM     47  C   UNL A   1      38.386  30.916  29.844  1.00  0.00     0.049 A 
ATOM     48  N   UNL A   1      39.173  31.693  32.638  1.00  0.00    -0.248 NA
ATOM     49  C   UNL A   1      37.340  33.138  32.706  1.00  0.00     0.031 C 
ATOM     50  C   UNL A   1      38.075  30.520  28.468  1.00  0.00     0.029 A 
ATOM     51  N   UNL A   1      39.504  30.184  30.155  1.00  0.00    -0.354 N 
ATOM     52  C   UNL A   1      39.156  32.357  33.858  1.00  0.00     0.074 A 
ATOM     53  C   UNL A   1      38.040  33.277  33.822  1.00  0.00     0.031 C 
ATOM     54  C   UNL A   1      38.964  29.598  28.065  1.00  0.00     0.029 A 
ATOM     55  C   UNL A   1      39.926  29.363  29.138  1.00  0.00     0.049 A 
ATOM     56  H   UNL A   1      39.961  30.242  31.025  1.00  0.00     0.167 HD
ATOM     57  C   UNL A   1      39.982  32.205  34.921  1.00  0.00     0.031 A 
ATOM     58  C   UNL A   1      40.971  28.517  29.074  1.00  0.00     0.031 A 
ATOM     59  C   UNL A   1      41.080  31.278  34.969  1.00  0.00     0.049 A 
ATOM     60  C   UNL A   1      41.874  28.369  30.265  1.00  0.00     0.074 A 
ATOM     61  C   UNL A   1      41.940  31.013  36.023  1.00  0.00     0.029 A 
ATOM     62  N   UNL A   1      41.470  30.461  33.920  1.00  0.00    -0.354 N 
ATOM     63  N   UNL A   1      41.810  28.965  31.431  1.00  0.00    -0.248 NA
ATOM     64  C   UNL A   1      42.991  27.421  30.133  1.00  0.00     0.031 C 
ATOM     65  C   UNL A   1      42.876  30.065  35.595  1.00  0.00     0.029 A 
ATOM     66  C   UNL A   1      42.569  29.707  34.292  1.00  0.00     0.049 A 
ATOM     67  H   UNL A   1      41.030  30.423  33.040  1.00  0.00     0.167 HD
ATOM     68  C   UNL A   1      42.859  28.447  32.179  1.00  0.00     0.074 A 
ATOM     69  C   UNL A   1      43.533  27.476  31.341  1.00  0.00     0.031 C 
ATOM     70  C   UNL A   1      43.232  28.747  33.447  1.00  0.00     0.031 A 
BRANCH  57  71
ATOM     71  C   UNL A   1      39.725  33.070  36.123  1.00  0.00    -0.014 A 
ATOM     72  C   UNL A   1      40.402  34.287  36.302  1.00  0.00     0.009 A 
ATOM     73  C   UNL A   1      38.769  32.679  37.075  1.00  0.00     0.009 A 
ATOM     74  C   UNL A   1      40.156  35.075  37.428  1.00  0.00     0.001 A 
ATOM     75  C   UNL A   1      38.505  33.483  38.185  1.00  0.00     0.001 A 
ATOM     76  C   UNL A   1      39.205  34.675  38.366  1.00  0.00     0.000 A 
ENDBRANCH  57  71
BRANCH  58  77
ATOM     77  C   UNL A   1      41.213  27.724  27.842  1.00  0.00    -0.014 A 
ATOM     78  C   UNL A   1      41.993  28.250  26.801  1.00  0.00     0.009 A 
ATOM     79  C   UNL A   1      40.656  26.444  27.694  1.00  0.00     0.009 A 
ATOM     80  C   UNL A   1      42.189  27.521  25.625  1.00  0.00     0.001 A 
ATOM     81  C   UNL A   1      40.876  25.707  26.528  1.00  0.00     0.001 A 
ATOM     82  C   UNL A   1      41.634  26.250  25.492  1.00  0.00     0.000 A 
ENDBRANCH  58  77
BRANCH  70  83
ATOM     83  C   UNL A   1      44.404  27.999  34.011  1.00  0.00    -0.014 A 
ATOM     84  C   UNL A   1      45.708  28.506  33.911  1.00  0.00     0.009 A 
ATOM     85  C   UNL A   1      44.196  26.782  34.678  1.00  0.00     0.009 A 
ATOM     86  C   UNL A   1      46.786  27.792  34.437  1.00  0.00     0.001 A 
ATOM     87  C   UNL A   1      45.273  26.083  35.228  1.00  0.00     0.001 A 
ATOM     88  C   UNL A   1      46.567  26.584  35.098  1.00  0.00     0.000 A 
ENDBRANCH  70  83
ENDBRANCH  44  45
ENDBRANCH  36  39
ENDBRANCH  34  35
ENDBRANCH  33  34
ENDBRANCH   1  33
TORSDOF 15
ENDMDL
