MODEL 1
REMARK VINA RESULT:     -14.3      0.000      0.000
REMARK SMILES Cc1ccc([C@@]23C[C@@H]4C[C@@H](C[C@@](C(=O)N5CCC(C(=O)NCCCNC(=O)c6ccc(-c7c8nc(c(-c9ccccc9)c9ccc([nH]9)c(-c9ccccc9)c9nc(c(-c%10ccccc%10)c%10ccc7[nH]%10)C=C9)C=C8)cc6)CC5)(C4)C2)C3)cc1
REMARK SMILES IDX 23 1 22 2 21 3 19 4 20 5 18 7 13 8 14 9 15 10 16 11 77 12
REMARK SMILES IDX 17 13 76 14 12 15 6 16 7 17 79 18 80 19 8 20 10 21 9 22
REMARK SMILES IDX 78 23 11 24 5 25 1 26 2 27 3 28 82 29 4 30 81 31 24 32 25 33
REMARK SMILES IDX 26 34 27 36 28 37 29 38 75 39 30 40 74 41 31 42 32 43 33 44
REMARK SMILES IDX 68 45 34 46 73 47 67 48 69 49 35 50 72 51 66 52 65 53 36 55
REMARK SMILES IDX 58 56 43 57 57 58 44 59 47 60 56 61 70 62 45 63 46 64 55 66
REMARK SMILES IDX 71 67 48 68 37 69 38 70 42 71 39 72 41 73 40 74 59 75 60 76
REMARK SMILES IDX 64 77 61 78 63 79 62 80 49 81 50 82 54 83 51 84 53 85 52 86
REMARK H PARENT 21 6 25 35 69 54 47 65
REMARK Flexibility Score: inf
ROOT
ATOM      1  C   UNL A   1      32.310  30.654  26.780  1.00  0.00     0.042 C 
ENDROOT
BRANCH   1   2
ATOM      2  C   UNL A   1      32.350  30.123  25.353  1.00  0.00     0.117 C 
BRANCH   2   3
ATOM      3  N   UNL A   1      31.135  29.407  24.975  1.00  0.00    -0.356 N 
ATOM      4  C   UNL A   1      30.928  28.390  24.087  1.00  0.00     0.223 C 
ATOM      5  O   UNL A   1      29.784  27.946  23.978  1.00  0.00    -0.275 OA
ATOM      6  H   UNL A   1      30.322  29.710  25.441  1.00  0.00     0.163 HD
BRANCH   4   7
ATOM      7  C   UNL A   1      32.052  27.834  23.216  1.00  0.00     0.082 C 
ATOM      8  C   UNL A   1      32.905  23.957  23.278  1.00  0.00     0.228 C 
ATOM      9  O   UNL A   1      31.857  23.386  22.956  1.00  0.00    -0.274 OA
ATOM     10  N   UNL A   1      33.175  25.243  22.809  1.00  0.00    -0.342 N 
ATOM     11  C   UNL A   1      32.410  25.769  21.688  1.00  0.00     0.120 C 
ATOM     12  C   UNL A   1      34.036  26.254  23.410  1.00  0.00     0.120 C 
ATOM     13  C   UNL A   1      31.507  26.931  22.092  1.00  0.00     0.035 C 
ATOM     14  C   UNL A   1      33.162  27.270  24.114  1.00  0.00     0.035 C 
BRANCH   8  15
ATOM     15  C   UNL A   1      33.940  23.220  24.164  1.00  0.00     0.051 C 
ATOM     16  C   UNL A   1      34.496  20.886  25.110  1.00  0.00    -0.003 C 
ATOM     17  C   UNL A   1      35.913  21.080  24.492  1.00  0.00     0.015 C 
ATOM     18  C   UNL A   1      33.517  21.744  24.280  1.00  0.00     0.028 C 
ATOM     19  C   UNL A   1      34.494  21.470  26.546  1.00  0.00     0.015 C 
ATOM     20  C   UNL A   1      36.349  22.557  24.520  1.00  0.00    -0.009 C 
ATOM     21  C   UNL A   1      34.893  22.960  26.524  1.00  0.00    -0.009 C 
ATOM     22  C   UNL A   1      36.317  23.079  25.963  1.00  0.00     0.007 C 
ATOM     23  C   UNL A   1      35.388  23.395  23.667  1.00  0.00     0.020 C 
ATOM     24  C   UNL A   1      33.922  23.764  25.628  1.00  0.00     0.020 C 
BRANCH  16  25
ATOM     25  C   UNL A   1      34.085  19.402  25.098  1.00  0.00    -0.042 A 
ATOM     26  C   UNL A   1      33.037  15.191  25.291  1.00  0.00     0.044 C 
ATOM     27  C   UNL A   1      33.371  16.650  25.209  1.00  0.00    -0.051 A 
ATOM     28  C   UNL A   1      34.557  17.048  24.598  1.00  0.00     0.004 A 
ATOM     29  C   UNL A   1      32.529  17.629  25.742  1.00  0.00     0.004 A 
ATOM     30  C   UNL A   1      34.900  18.400  24.537  1.00  0.00     0.004 A 
ATOM     31  C   UNL A   1      32.879  18.985  25.683  1.00  0.00     0.004 A 
ENDBRANCH  16  25
ENDBRANCH   8  15
ENDBRANCH   4   7
ENDBRANCH   2   3
ENDBRANCH   1   2
BRANCH   1  32
ATOM     32  C   UNL A   1      33.493  30.222  27.624  1.00  0.00     0.118 C 
BRANCH  32  33
ATOM     33  N   UNL A   1      34.161  31.314  28.327  1.00  0.00    -0.352 N 
ATOM     34  C   UNL A   1      35.447  31.343  28.844  1.00  0.00     0.251 C 
ATOM     35  H   UNL A   1      33.631  32.134  28.449  1.00  0.00     0.163 HD
ATOM     36  O   UNL A   1      35.885  32.343  29.388  1.00  0.00    -0.269 OA
BRANCH  34  37
ATOM     37  C   UNL A   1      36.325  30.173  28.604  1.00  0.00     0.039 A 
ATOM     38  C   UNL A   1      36.595  29.331  29.686  1.00  0.00     0.014 A 
ATOM     39  C   UNL A   1      37.067  30.080  27.430  1.00  0.00     0.014 A 
ATOM     40  C   UNL A   1      37.771  28.588  29.684  1.00  0.00     0.010 A 
ATOM     41  C   UNL A   1      38.287  29.436  27.472  1.00  0.00     0.010 A 
ATOM     42  C   UNL A   1      38.669  28.748  28.627  1.00  0.00    -0.014 A 
BRANCH  42  43
ATOM     43  C   UNL A   1      40.070  28.357  28.721  1.00  0.00     0.031 A 
ATOM     44  C   UNL A   1      40.527  27.047  28.231  1.00  0.00     0.074 A 
ATOM     45  C   UNL A   1      40.980  29.213  29.236  1.00  0.00     0.049 A 
ATOM     46  N   UNL A   1      41.548  26.420  28.714  1.00  0.00    -0.248 NA
ATOM     47  C   UNL A   1      39.839  26.316  27.172  1.00  0.00     0.031 C 
ATOM     48  C   UNL A   1      42.436  29.101  29.193  1.00  0.00     0.029 A 
ATOM     49  N   UNL A   1      40.741  30.268  30.117  1.00  0.00    -0.354 N 
ATOM     50  C   UNL A   1      41.829  25.394  27.851  1.00  0.00     0.074 A 
ATOM     51  C   UNL A   1      40.694  25.312  26.958  1.00  0.00     0.031 C 
ATOM     52  C   UNL A   1      42.956  29.847  30.180  1.00  0.00     0.029 A 
ATOM     53  C   UNL A   1      41.851  30.347  30.979  1.00  0.00     0.049 A 
ATOM     54  H   UNL A   1      39.945  30.846  30.134  1.00  0.00     0.167 HD
ATOM     55  C   UNL A   1      43.054  24.803  27.862  1.00  0.00     0.031 A 
ATOM     56  C   UNL A   1      41.700  30.157  32.322  1.00  0.00     0.031 A 
ATOM     57  C   UNL A   1      43.952  25.350  28.872  1.00  0.00     0.049 A 
ATOM     58  C   UNL A   1      42.445  28.957  32.878  1.00  0.00     0.074 A 
ATOM     59  C   UNL A   1      45.045  26.200  28.840  1.00  0.00     0.029 A 
ATOM     60  N   UNL A   1      43.588  25.253  30.207  1.00  0.00    -0.354 N 
ATOM     61  N   UNL A   1      43.157  28.125  32.169  1.00  0.00    -0.248 NA
ATOM     62  C   UNL A   1      42.338  28.538  34.277  1.00  0.00     0.031 C 
ATOM     63  C   UNL A   1      45.342  26.602  30.174  1.00  0.00     0.029 A 
ATOM     64  C   UNL A   1      44.436  25.987  31.015  1.00  0.00     0.049 A 
ATOM     65  H   UNL A   1      42.823  24.729  30.537  1.00  0.00     0.167 HD
ATOM     66  C   UNL A   1      43.535  27.063  32.952  1.00  0.00     0.074 A 
ATOM     67  C   UNL A   1      43.001  27.371  34.266  1.00  0.00     0.031 C 
ATOM     68  C   UNL A   1      44.207  25.985  32.451  1.00  0.00     0.031 A 
BRANCH  55  69
ATOM     69  C   UNL A   1      43.474  23.917  26.725  1.00  0.00    -0.014 A 
ATOM     70  C   UNL A   1      43.280  22.529  26.802  1.00  0.00     0.009 A 
ATOM     71  C   UNL A   1      44.132  24.402  25.580  1.00  0.00     0.009 A 
ATOM     72  C   UNL A   1      43.811  21.659  25.844  1.00  0.00     0.001 A 
ATOM     73  C   UNL A   1      44.705  23.535  24.642  1.00  0.00     0.001 A 
ATOM     74  C   UNL A   1      44.555  22.160  24.781  1.00  0.00     0.000 A 
ENDBRANCH  55  69
BRANCH  56  75
ATOM     75  C   UNL A   1      40.396  30.655  32.841  1.00  0.00    -0.014 A 
ATOM     76  C   UNL A   1      39.288  29.783  32.823  1.00  0.00     0.009 A 
ATOM     77  C   UNL A   1      40.332  31.802  33.644  1.00  0.00     0.009 A 
ATOM     78  C   UNL A   1      38.199  29.993  33.674  1.00  0.00     0.001 A 
ATOM     79  C   UNL A   1      39.232  32.016  34.484  1.00  0.00     0.001 A 
ATOM     80  C   UNL A   1      38.185  31.095  34.524  1.00  0.00     0.000 A 
ENDBRANCH  56  75
BRANCH  68  81
ATOM     81  C   UNL A   1      44.670  24.795  33.256  1.00  0.00    -0.014 A 
ATOM     82  C   UNL A   1      45.991  24.615  33.687  1.00  0.00     0.009 A 
ATOM     83  C   UNL A   1      43.776  23.732  33.513  1.00  0.00     0.009 A 
ATOM     84  C   UNL A   1      46.374  23.477  34.412  1.00  0.00     0.001 A 
ATOM     85  C   UNL A   1      44.156  22.585  34.211  1.00  0.00     0.001 A 
ATOM     86  C   UNL A   1      45.457  22.465  34.678  1.00  0.00     0.000 A 
ENDBRANCH  68  81
ENDBRANCH  42  43
ENDBRANCH  34  37
ENDBRANCH  32  33
ENDBRANCH   1  32
TORSDOF 12
ENDMDL
MODEL 2
REMARK VINA RESULT:     -14.0      3.415      9.284
REMARK SMILES Cc1ccc([C@@]23C[C@@H]4C[C@@H](C[C@@](C(=O)N5CCC(C(=O)NCCCNC(=O)c6ccc(-c7c8nc(c(-c9ccccc9)c9ccc([nH]9)c(-c9ccccc9)c9nc(c(-c%10ccccc%10)c%10ccc7[nH]%10)C=C9)C=C8)cc6)CC5)(C4)C2)C3)cc1
REMARK SMILES IDX 23 1 22 2 21 3 19 4 20 5 18 7 13 8 14 9 15 10 16 11 77 12
REMARK SMILES IDX 17 13 76 14 12 15 6 16 7 17 79 18 80 19 8 20 10 21 9 22
REMARK SMILES IDX 78 23 11 24 5 25 1 26 2 27 3 28 82 29 4 30 81 31 24 32 25 33
REMARK SMILES IDX 26 34 27 36 28 37 29 38 75 39 30 40 74 41 31 42 32 43 33 44
REMARK SMILES IDX 68 45 34 46 73 47 67 48 69 49 35 50 72 51 66 52 65 53 36 55
REMARK SMILES IDX 58 56 43 57 57 58 44 59 47 60 56 61 70 62 45 63 46 64 55 66
REMARK SMILES IDX 71 67 48 68 37 69 38 70 42 71 39 72 41 73 40 74 59 75 60 76
REMARK SMILES IDX 64 77 61 78 63 79 62 80 49 81 50 82 54 83 51 84 53 85 52 86
REMARK H PARENT 21 6 25 35 69 54 47 65
REMARK Flexibility Score: inf
ROOT
ATOM      1  C   UNL A   1      39.246  21.373  26.070  1.00  0.00     0.042 C 
ENDROOT
BRANCH   1   2
ATOM      2  C   UNL A   1      38.098  21.945  25.250  1.00  0.00     0.117 C 
BRANCH   2   3
ATOM      3  N   UNL A   1      37.070  20.955  24.938  1.00  0.00    -0.356 N 
ATOM      4  C   UNL A   1      35.753  20.883  25.293  1.00  0.00     0.223 C 
ATOM      5  O   UNL A   1      35.093  19.936  24.862  1.00  0.00    -0.275 OA
ATOM      6  H   UNL A   1      37.379  20.211  24.373  1.00  0.00     0.163 HD
BRANCH   4   7
ATOM      7  C   UNL A   1      35.107  21.907  26.223  1.00  0.00     0.082 C 
ATOM      8  C   UNL A   1      31.829  23.847  25.105  1.00  0.00     0.228 C 
ATOM      9  O   UNL A   1      30.993  22.969  24.868  1.00  0.00    -0.274 OA
ATOM     10  N   UNL A   1      32.835  23.623  26.045  1.00  0.00    -0.342 N 
ATOM     11  C   UNL A   1      32.703  22.516  26.982  1.00  0.00     0.120 C 
ATOM     12  C   UNL A   1      34.144  24.259  26.127  1.00  0.00     0.120 C 
ATOM     13  C   UNL A   1      33.738  21.422  26.740  1.00  0.00     0.035 C 
ATOM     14  C   UNL A   1      35.178  23.298  25.579  1.00  0.00     0.035 C 
BRANCH   8  15
ATOM     15  C   UNL A   1      31.726  25.217  24.389  1.00  0.00     0.051 C 
ATOM     16  C   UNL A   1      32.147  27.734  24.765  1.00  0.00    -0.003 C 
ATOM     17  C   UNL A   1      33.005  27.685  23.465  1.00  0.00     0.015 C 
ATOM     18  C   UNL A   1      32.166  26.315  25.374  1.00  0.00     0.028 C 
ATOM     19  C   UNL A   1      30.676  28.035  24.380  1.00  0.00     0.015 C 
ATOM     20  C   UNL A   1      32.448  26.667  22.453  1.00  0.00    -0.009 C 
ATOM     21  C   UNL A   1      30.144  26.967  23.401  1.00  0.00    -0.009 C 
ATOM     22  C   UNL A   1      30.990  27.012  22.120  1.00  0.00     0.007 C 
ATOM     23  C   UNL A   1      32.500  25.257  23.057  1.00  0.00     0.020 C 
ATOM     24  C   UNL A   1      30.245  25.559  24.032  1.00  0.00     0.020 C 
BRANCH  16  25
ATOM     25  C   UNL A   1      32.701  28.774  25.756  1.00  0.00    -0.042 A 
ATOM     26  C   UNL A   1      34.373  31.825  28.355  1.00  0.00     0.044 C 
ATOM     27  C   UNL A   1      33.770  30.772  27.477  1.00  0.00    -0.051 A 
ATOM     28  C   UNL A   1      34.466  29.588  27.251  1.00  0.00     0.004 A 
ATOM     29  C   UNL A   1      32.528  30.947  26.864  1.00  0.00     0.004 A 
ATOM     30  C   UNL A   1      33.935  28.605  26.413  1.00  0.00     0.004 A 
ATOM     31  C   UNL A   1      31.998  29.961  26.020  1.00  0.00     0.004 A 
ENDBRANCH  16  25
ENDBRANCH   8  15
ENDBRANCH   4   7
ENDBRANCH   2   3
ENDBRANCH   1   2
BRANCH   1  32
ATOM     32  C   UNL A   1      39.973  22.409  26.904  1.00  0.00     0.118 C 
BRANCH  32  33
ATOM     33  N   UNL A   1      41.232  22.872  26.325  1.00  0.00    -0.352 N 
ATOM     34  C   UNL A   1      41.698  24.173  26.215  1.00  0.00     0.251 C 
ATOM     35  H   UNL A   1      41.823  22.172  25.968  1.00  0.00     0.163 HD
ATOM     36  O   UNL A   1      42.792  24.411  25.728  1.00  0.00    -0.269 OA
BRANCH  34  37
ATOM     37  C   UNL A   1      40.895  25.260  26.824  1.00  0.00     0.039 A 
ATOM     38  C   UNL A   1      40.835  26.481  26.146  1.00  0.00     0.014 A 
ATOM     39  C   UNL A   1      40.456  25.157  28.141  1.00  0.00     0.014 A 
ATOM     40  C   UNL A   1      40.588  27.642  26.871  1.00  0.00     0.010 A 
ATOM     41  C   UNL A   1      40.324  26.314  28.882  1.00  0.00     0.010 A 
ATOM     42  C   UNL A   1      40.460  27.557  28.259  1.00  0.00    -0.014 A 
BRANCH  42  43
ATOM     43  C   UNL A   1      40.613  28.713  29.133  1.00  0.00     0.031 A 
ATOM     44  C   UNL A   1      39.515  29.674  29.321  1.00  0.00     0.074 A 
ATOM     45  C   UNL A   1      41.767  28.901  29.813  1.00  0.00     0.049 A 
ATOM     46  N   UNL A   1      39.698  30.920  29.610  1.00  0.00    -0.248 NA
ATOM     47  C   UNL A   1      38.112  29.311  29.159  1.00  0.00     0.031 C 
ATOM     48  C   UNL A   1      42.019  29.845  30.899  1.00  0.00     0.029 A 
ATOM     49  N   UNL A   1      43.029  28.407  29.483  1.00  0.00    -0.354 N 
ATOM     50  C   UNL A   1      38.478  31.428  29.970  1.00  0.00     0.074 A 
ATOM     51  C   UNL A   1      37.510  30.422  29.592  1.00  0.00     0.031 C 
ATOM     52  C   UNL A   1      43.341  30.066  30.980  1.00  0.00     0.029 A 
ATOM     53  C   UNL A   1      43.968  29.386  29.860  1.00  0.00     0.049 A 
ATOM     54  H   UNL A   1      43.226  27.538  29.065  1.00  0.00     0.167 HD
ATOM     55  C   UNL A   1      38.398  32.577  30.693  1.00  0.00     0.031 A 
ATOM     56  C   UNL A   1      44.763  29.980  28.923  1.00  0.00     0.031 A 
ATOM     57  C   UNL A   1      39.698  33.172  30.981  1.00  0.00     0.049 A 
ATOM     58  C   UNL A   1      44.553  31.475  28.772  1.00  0.00     0.074 A 
ATOM     59  C   UNL A   1      40.502  33.249  32.106  1.00  0.00     0.029 A 
ATOM     60  N   UNL A   1      40.496  33.569  29.919  1.00  0.00    -0.354 N 
ATOM     61  N   UNL A   1      43.676  32.178  29.435  1.00  0.00    -0.248 NA
ATOM     62  C   UNL A   1      45.248  32.274  27.761  1.00  0.00     0.031 C 
ATOM     63  C   UNL A   1      41.789  33.710  31.709  1.00  0.00     0.029 A 
ATOM     64  C   UNL A   1      41.762  33.924  30.345  1.00  0.00     0.049 A 
ATOM     65  H   UNL A   1      40.199  33.596  28.981  1.00  0.00     0.167 HD
ATOM     66  C   UNL A   1      43.628  33.451  28.925  1.00  0.00     0.074 A 
ATOM     67  C   UNL A   1      44.636  33.463  27.880  1.00  0.00     0.031 C 
ATOM     68  C   UNL A   1      42.728  34.381  29.359  1.00  0.00     0.031 A 
BRANCH  55  69
ATOM     69  C   UNL A   1      37.108  32.961  31.360  1.00  0.00    -0.014 A 
ATOM     70  C   UNL A   1      36.780  32.434  32.619  1.00  0.00     0.009 A 
ATOM     71  C   UNL A   1      36.149  33.791  30.751  1.00  0.00     0.009 A 
ATOM     72  C   UNL A   1      35.519  32.632  33.191  1.00  0.00     0.001 A 
ATOM     73  C   UNL A   1      34.870  33.955  31.296  1.00  0.00     0.001 A 
ATOM     74  C   UNL A   1      34.551  33.364  32.512  1.00  0.00     0.000 A 
ENDBRANCH  55  69
BRANCH  56  75
ATOM     75  C   UNL A   1      45.140  29.065  27.810  1.00  0.00    -0.014 A 
ATOM     76  C   UNL A   1      46.223  28.182  28.004  1.00  0.00     0.009 A 
ATOM     77  C   UNL A   1      44.257  28.817  26.751  1.00  0.00     0.009 A 
ATOM     78  C   UNL A   1      46.348  27.024  27.232  1.00  0.00     0.001 A 
ATOM     79  C   UNL A   1      44.395  27.663  25.971  1.00  0.00     0.001 A 
ATOM     80  C   UNL A   1      45.417  26.751  26.235  1.00  0.00     0.000 A 
ENDBRANCH  56  75
BRANCH  68  81
ATOM     81  C   UNL A   1      42.633  35.803  28.858  1.00  0.00    -0.014 A 
ATOM     82  C   UNL A   1      41.964  36.170  27.683  1.00  0.00     0.009 A 
ATOM     83  C   UNL A   1      43.337  36.829  29.526  1.00  0.00     0.009 A 
ATOM     84  C   UNL A   1      41.926  37.504  27.250  1.00  0.00     0.001 A 
ATOM     85  C   UNL A   1      43.326  38.154  29.086  1.00  0.00     0.001 A 
ATOM     86  C   UNL A   1      42.603  38.496  27.953  1.00  0.00     0.000 A 
ENDBRANCH  68  81
ENDBRANCH  42  43
ENDBRANCH  34  37
ENDBRANCH  32  33
ENDBRANCH   1  32
TORSDOF 12
ENDMDL
MODEL 3
REMARK VINA RESULT:     -14.0      1.780      2.993
REMARK SMILES Cc1ccc([C@@]23C[C@@H]4C[C@@H](C[C@@](C(=O)N5CCC(C(=O)NCCCNC(=O)c6ccc(-c7c8nc(c(-c9ccccc9)c9ccc([nH]9)c(-c9ccccc9)c9nc(c(-c%10ccccc%10)c%10ccc7[nH]%10)C=C9)C=C8)cc6)CC5)(C4)C2)C3)cc1
REMARK SMILES IDX 23 1 22 2 21 3 19 4 20 5 18 7 13 8 14 9 15 10 16 11 77 12
REMARK SMILES IDX 17 13 76 14 12 15 6 16 7 17 79 18 80 19 8 20 10 21 9 22
REMARK SMILES IDX 78 23 11 24 5 25 1 26 2 27 3 28 82 29 4 30 81 31 24 32 25 33
REMARK SMILES IDX 26 34 27 36 28 37 29 38 75 39 30 40 74 41 31 42 32 43 33 44
REMARK SMILES IDX 68 45 34 46 73 47 67 48 69 49 35 50 72 51 66 52 65 53 36 55
REMARK SMILES IDX 58 56 43 57 57 58 44 59 47 60 56 61 70 62 45 63 46 64 55 66
REMARK SMILES IDX 71 67 48 68 37 69 38 70 42 71 39 72 41 73 40 74 59 75 60 76
REMARK SMILES IDX 64 77 61 78 63 79 62 80 49 81 50 82 54 83 51 84 53 85 52 86
REMARK H PARENT 21 6 25 35 69 54 47 65
REMARK Flexibility Score: inf
ROOT
ATOM      1  C   UNL A   1      33.606  32.959  27.984  1.00  0.00     0.042 C 
ENDROOT
BRANCH   1   2
ATOM      2  C   UNL A   1      33.103  31.649  27.392  1.00  0.00     0.117 C 
BRANCH   2   3
ATOM      3  N   UNL A   1      34.036  30.541  27.581  1.00  0.00    -0.356 N 
ATOM      4  C   UNL A   1      34.133  29.330  26.957  1.00  0.00     0.223 C 
ATOM      5  O   UNL A   1      35.048  28.579  27.300  1.00  0.00    -0.275 OA
ATOM      6  H   UNL A   1      34.713  30.693  28.279  1.00  0.00     0.163 HD
BRANCH   4   7
ATOM      7  C   UNL A   1      33.131  28.882  25.897  1.00  0.00     0.082 C 
ATOM      8  C   UNL A   1      31.898  25.110  25.767  1.00  0.00     0.228 C 
ATOM      9  O   UNL A   1      31.401  24.890  26.876  1.00  0.00    -0.274 OA
ATOM     10  N   UNL A   1      31.886  26.400  25.237  1.00  0.00    -0.342 N 
ATOM     11  C   UNL A   1      31.002  27.402  25.816  1.00  0.00     0.120 C 
ATOM     12  C   UNL A   1      32.793  26.973  24.250  1.00  0.00     0.120 C 
ATOM     13  C   UNL A   1      31.768  28.519  26.519  1.00  0.00     0.035 C 
ATOM     14  C   UNL A   1      33.793  27.852  24.971  1.00  0.00     0.035 C 
BRANCH   8  15
ATOM     15  C   UNL A   1      32.491  23.938  24.946  1.00  0.00     0.051 C 
ATOM     16  C   UNL A   1      34.687  22.643  24.562  1.00  0.00    -0.003 C 
ATOM     17  C   UNL A   1      33.867  21.353  24.865  1.00  0.00     0.015 C 
ATOM     18  C   UNL A   1      33.986  23.810  25.290  1.00  0.00     0.028 C 
ATOM     19  C   UNL A   1      34.599  22.946  23.045  1.00  0.00     0.015 C 
ATOM     20  C   UNL A   1      32.410  21.480  24.381  1.00  0.00    -0.009 C 
ATOM     21  C   UNL A   1      33.127  23.108  22.611  1.00  0.00    -0.009 C 
ATOM     22  C   UNL A   1      32.389  21.788  22.877  1.00  0.00     0.007 C 
ATOM     23  C   UNL A   1      31.713  22.621  25.133  1.00  0.00     0.020 C 
ATOM     24  C   UNL A   1      32.451  24.244  23.414  1.00  0.00     0.020 C 
BRANCH  16  25
ATOM     25  C   UNL A   1      36.147  22.492  25.028  1.00  0.00    -0.042 A 
ATOM     26  C   UNL A   1      40.177  21.984  26.567  1.00  0.00     0.044 C 
ATOM     27  C   UNL A   1      38.797  22.150  26.007  1.00  0.00    -0.051 A 
ATOM     28  C   UNL A   1      38.153  23.378  26.127  1.00  0.00     0.004 A 
ATOM     29  C   UNL A   1      38.128  21.100  25.375  1.00  0.00     0.004 A 
ATOM     30  C   UNL A   1      36.856  23.546  25.638  1.00  0.00     0.004 A 
ATOM     31  C   UNL A   1      36.825  21.270  24.888  1.00  0.00     0.004 A 
ENDBRANCH  16  25
ENDBRANCH   8  15
ENDBRANCH   4   7
ENDBRANCH   2   3
ENDBRANCH   1   2
BRANCH   1  32
ATOM     32  C   UNL A   1      35.005  32.868  28.562  1.00  0.00     0.118 C 
BRANCH  32  33
ATOM     33  N   UNL A   1      35.047  32.753  30.018  1.00  0.00    -0.352 N 
ATOM     34  C   UNL A   1      35.690  31.793  30.784  1.00  0.00     0.251 C 
ATOM     35  H   UNL A   1      34.556  33.444  30.518  1.00  0.00     0.163 HD
ATOM     36  O   UNL A   1      35.661  31.838  32.003  1.00  0.00    -0.269 OA
BRANCH  34  37
ATOM     37  C   UNL A   1      36.525  30.784  30.089  1.00  0.00     0.039 A 
ATOM     38  C   UNL A   1      36.656  29.528  30.686  1.00  0.00     0.014 A 
ATOM     39  C   UNL A   1      37.360  31.164  29.042  1.00  0.00     0.014 A 
ATOM     40  C   UNL A   1      37.789  28.768  30.413  1.00  0.00     0.010 A 
ATOM     41  C   UNL A   1      38.537  30.469  28.855  1.00  0.00     0.010 A 
ATOM     42  C   UNL A   1      38.782  29.307  29.593  1.00  0.00    -0.014 A 
BRANCH  42  43
ATOM     43  C   UNL A   1      40.148  28.798  29.576  1.00  0.00     0.031 A 
ATOM     44  C   UNL A   1      40.468  27.505  28.952  1.00  0.00     0.074 A 
ATOM     45  C   UNL A   1      41.151  29.530  30.110  1.00  0.00     0.049 A 
ATOM     46  N   UNL A   1      41.455  26.757  29.324  1.00  0.00    -0.248 NA
ATOM     47  C   UNL A   1      39.672  26.928  27.875  1.00  0.00     0.031 C 
ATOM     48  C   UNL A   1      42.588  29.305  29.978  1.00  0.00     0.029 A 
ATOM     49  N   UNL A   1      41.044  30.518  31.089  1.00  0.00    -0.354 N 
ATOM     50  C   UNL A   1      41.606  25.792  28.363  1.00  0.00     0.074 A 
ATOM     51  C   UNL A   1      40.427  25.882  27.531  1.00  0.00     0.031 C 
ATOM     52  C   UNL A   1      43.216  29.917  30.994  1.00  0.00     0.029 A 
ATOM     53  C   UNL A   1      42.197  30.431  31.892  1.00  0.00     0.049 A 
ATOM     54  H   UNL A   1      40.302  31.155  31.199  1.00  0.00     0.167 HD
ATOM     55  C   UNL A   1      42.776  25.107  28.256  1.00  0.00     0.031 A 
ATOM     56  C   UNL A   1      42.096  30.135  33.221  1.00  0.00     0.031 A 
ATOM     57  C   UNL A   1      43.765  25.489  29.258  1.00  0.00     0.049 A 
ATOM     58  C   UNL A   1      42.762  28.835  33.631  1.00  0.00     0.074 A 
ATOM     59  C   UNL A   1      44.923  26.248  29.238  1.00  0.00     0.029 A 
ATOM     60  N   UNL A   1      43.459  25.304  30.598  1.00  0.00    -0.354 N 
ATOM     61  N   UNL A   1      43.367  28.015  32.817  1.00  0.00    -0.248 NA
ATOM     62  C   UNL A   1      42.687  28.304  34.994  1.00  0.00     0.031 C 
ATOM     63  C   UNL A   1      45.317  26.505  30.582  1.00  0.00     0.029 A 
ATOM     64  C   UNL A   1      44.403  25.892  31.417  1.00  0.00     0.049 A 
ATOM     65  H   UNL A   1      42.669  24.815  30.925  1.00  0.00     0.167 HD
ATOM     66  C   UNL A   1      43.690  26.861  33.485  1.00  0.00     0.074 A 
ATOM     67  C   UNL A   1      43.248  27.093  34.848  1.00  0.00     0.031 C 
ATOM     68  C   UNL A   1      44.244  25.782  32.858  1.00  0.00     0.031 A 
BRANCH  55  69
ATOM     69  C   UNL A   1      43.065  24.295  27.027  1.00  0.00    -0.014 A 
ATOM     70  C   UNL A   1      43.451  22.950  27.144  1.00  0.00     0.009 A 
ATOM     71  C   UNL A   1      43.036  24.835  25.728  1.00  0.00     0.009 A 
ATOM     72  C   UNL A   1      43.892  22.215  26.039  1.00  0.00     0.001 A 
ATOM     73  C   UNL A   1      43.519  24.120  24.626  1.00  0.00     0.001 A 
ATOM     74  C   UNL A   1      43.960  22.811  24.785  1.00  0.00     0.000 A 
ENDBRANCH  55  69
BRANCH  56  75
ATOM     75  C   UNL A   1      40.865  30.688  33.851  1.00  0.00    -0.014 A 
ATOM     76  C   UNL A   1      40.857  32.046  34.232  1.00  0.00     0.009 A 
ATOM     77  C   UNL A   1      39.640  30.014  33.752  1.00  0.00     0.009 A 
ATOM     78  C   UNL A   1      39.652  32.737  34.394  1.00  0.00     0.001 A 
ATOM     79  C   UNL A   1      38.436  30.707  33.930  1.00  0.00     0.001 A 
ATOM     80  C   UNL A   1      38.443  32.072  34.214  1.00  0.00     0.000 A 
ENDBRANCH  56  75
BRANCH  68  81
ATOM     81  C   UNL A   1      44.643  24.491  33.533  1.00  0.00    -0.014 A 
ATOM     82  C   UNL A   1      43.725  23.548  34.012  1.00  0.00     0.009 A 
ATOM     83  C   UNL A   1      46.005  24.239  33.811  1.00  0.00     0.009 A 
ATOM     84  C   UNL A   1      44.150  22.375  34.654  1.00  0.00     0.001 A 
ATOM     85  C   UNL A   1      46.434  23.087  34.473  1.00  0.00     0.001 A 
ATOM     86  C   UNL A   1      45.503  22.142  34.880  1.00  0.00     0.000 A 
ENDBRANCH  68  81
ENDBRANCH  42  43
ENDBRANCH  34  37
ENDBRANCH  32  33
ENDBRANCH   1  32
TORSDOF 12
ENDMDL
