MODEL 1
REMARK VINA RESULT:     -12.1      0.000      0.000
REMARK SMILES O=C(C[C@H]1S/C(=[NH+]\N=C\c2cc(Br)ccc2OCc2ccccc2)NC1=O)NCCCNC(=O)c1ccc(-c2c3nc(c(-c4ccccc4)c4ccc([nH]4)c(-c4ccccc4)c4nc(c(-c5ccccc5)c5ccc2[nH]5)C=C4)C=C3)cc1
REMARK SMILES IDX 1 1 2 2 28 3 3 5 4 6 5 7 26 8 6 9 25 10 27 11 7 12 8 15 9 16
REMARK SMILES IDX 10 17 11 18 16 19 12 20 15 21 13 22 14 23 17 24 18 25 19 26
REMARK SMILES IDX 20 27 24 28 21 29 23 30 22 31 29 32 30 33 31 34 32 35 33 36
REMARK SMILES IDX 34 38 35 39 36 40 82 41 37 42 81 43 38 44 39 45 40 46 75 47
REMARK SMILES IDX 41 48 80 49 74 50 76 51 42 52 79 53 73 54 72 55 43 57 65 58
REMARK SMILES IDX 50 59 64 60 51 61 54 62 63 63 77 64 52 65 53 66 62 68 78 69
REMARK SMILES IDX 55 70 44 71 45 72 49 73 46 74 48 75 47 76 66 77 67 78 71 79
REMARK SMILES IDX 68 80 70 81 69 82 56 83 57 84 61 85 58 86 60 87 59 88
REMARK H PARENT 28 4 25 13 7 14 32 37 76 56 54 67
REMARK Flexibility Score: inf
ROOT
ATOM      1  O   UNL A   1      31.739  28.364  27.177  1.00  0.00    -0.275 OA
ATOM      2  C   UNL A   1      32.083  28.810  26.088  1.00  0.00     0.221 C 
ATOM      3  N   UNL A   1      33.188  29.611  25.898  1.00  0.00    -0.356 N 
ATOM      4  H   UNL A   1      33.460  29.831  24.978  1.00  0.00     0.163 HD
ENDROOT
BRANCH   2   5
ATOM      5  C   UNL A   1      31.327  28.481  24.818  1.00  0.00     0.127 C 
BRANCH   5   6
ATOM      6  C   UNL A   1      32.100  28.591  23.494  1.00  0.00     0.183 C 
ATOM      7  S   UNL A   1      33.399  27.338  23.172  1.00  0.00    -0.020 SA
ATOM      8  C   UNL A   1      31.114  28.373  22.356  1.00  0.00     0.322 C 
ATOM      9  C   UNL A   1      32.332  26.398  22.178  1.00  0.00     0.337 C 
ATOM     10  N   UNL A   1      31.277  27.144  21.784  1.00  0.00    -0.202 N 
ATOM     11  O   UNL A   1      30.216  29.138  22.051  1.00  0.00    -0.246 OA
ATOM     12  N   UNL A   1      32.396  25.158  21.838  1.00  0.00    -0.142 N 
ATOM     13  H   UNL A   1      30.646  26.813  21.105  1.00  0.00     0.316 HD
ATOM     14  H   UNL A   1      31.713  24.733  21.271  1.00  0.00     0.343 HD
BRANCH  12  15
ATOM     15  N   UNL A   1      33.498  24.456  22.328  1.00  0.00    -0.093 NA
ATOM     16  C   UNL A   1      33.107  23.663  23.280  1.00  0.00     0.170 C 
BRANCH  16  17
ATOM     17  C   UNL A   1      34.001  22.733  23.978  1.00  0.00     0.040 A 
ATOM     18  C   UNL A   1      35.242  23.271  24.366  1.00  0.00     0.029 A 
ATOM     19  C   UNL A   1      33.667  21.413  24.318  1.00  0.00     0.128 A 
ATOM     20  C   UNL A   1      36.141  22.504  25.102  1.00  0.00     0.018 A 
ATOM     21  C   UNL A   1      34.621  20.647  25.011  1.00  0.00     0.048 A 
ATOM     22  Br  UNL A   1      37.757  23.274  25.710  1.00  0.00    -0.051 Br
ATOM     23  C   UNL A   1      35.844  21.186  25.415  1.00  0.00     0.019 A 
BRANCH  19  24
ATOM     24  O   UNL A   1      32.529  20.683  24.112  1.00  0.00    -0.488 OA
BRANCH  24  25
ATOM     25  C   UNL A   1      32.433  19.599  23.194  1.00  0.00     0.265 C 
BRANCH  25  26
ATOM     26  C   UNL A   1      32.776  18.230  23.752  1.00  0.00    -0.011 A 
ATOM     27  C   UNL A   1      33.688  17.366  23.129  1.00  0.00     0.007 A 
ATOM     28  C   UNL A   1      32.230  17.848  24.990  1.00  0.00     0.007 A 
ATOM     29  C   UNL A   1      34.109  16.197  23.765  1.00  0.00     0.000 A 
ATOM     30  C   UNL A   1      32.642  16.669  25.616  1.00  0.00     0.000 A 
ATOM     31  C   UNL A   1      33.595  15.854  25.012  1.00  0.00     0.000 A 
ENDBRANCH  25  26
ENDBRANCH  24  25
ENDBRANCH  19  24
ENDBRANCH  16  17
ENDBRANCH  12  15
ENDBRANCH   5   6
ENDBRANCH   2   5
BRANCH   3  32
ATOM     32  C   UNL A   1      33.964  30.145  27.003  1.00  0.00     0.117 C 
BRANCH  32  33
ATOM     33  C   UNL A   1      33.832  31.658  27.116  1.00  0.00     0.042 C 
BRANCH  33  34
ATOM     34  C   UNL A   1      32.475  32.143  27.621  1.00  0.00     0.118 C 
BRANCH  34  35
ATOM     35  N   UNL A   1      32.336  33.592  27.598  1.00  0.00    -0.352 N 
ATOM     36  C   UNL A   1      33.018  34.549  28.313  1.00  0.00     0.251 C 
ATOM     37  H   UNL A   1      31.653  33.937  26.979  1.00  0.00     0.163 HD
ATOM     38  O   UNL A   1      32.619  35.710  28.325  1.00  0.00    -0.269 OA
BRANCH  36  39
ATOM     39  C   UNL A   1      34.221  34.180  29.094  1.00  0.00     0.039 A 
ATOM     40  C   UNL A   1      34.065  33.507  30.310  1.00  0.00     0.014 A 
ATOM     41  C   UNL A   1      35.503  34.494  28.635  1.00  0.00     0.014 A 
ATOM     42  C   UNL A   1      35.191  33.064  31.012  1.00  0.00     0.010 A 
ATOM     43  C   UNL A   1      36.621  33.988  29.295  1.00  0.00     0.010 A 
ATOM     44  C   UNL A   1      36.477  33.254  30.483  1.00  0.00    -0.014 A 
BRANCH  44  45
ATOM     45  C   UNL A   1      37.684  32.667  31.125  1.00  0.00     0.031 A 
ATOM     46  C   UNL A   1      38.356  31.463  30.527  1.00  0.00     0.074 A 
ATOM     47  C   UNL A   1      38.118  33.159  32.303  1.00  0.00     0.049 A 
ATOM     48  N   UNL A   1      39.334  30.738  31.009  1.00  0.00    -0.248 NA
ATOM     49  C   UNL A   1      37.845  30.996  29.228  1.00  0.00     0.031 C 
ATOM     50  C   UNL A   1      37.540  34.304  33.011  1.00  0.00     0.029 A 
ATOM     51  N   UNL A   1      39.137  32.743  33.125  1.00  0.00    -0.354 N 
ATOM     52  C   UNL A   1      39.540  29.720  30.087  1.00  0.00     0.074 A 
ATOM     53  C   UNL A   1      38.559  29.896  29.038  1.00  0.00     0.031 C 
ATOM     54  C   UNL A   1      38.224  34.509  34.149  1.00  0.00     0.029 A 
ATOM     55  C   UNL A   1      39.253  33.483  34.278  1.00  0.00     0.049 A 
ATOM     56  H   UNL A   1      39.729  31.987  32.908  1.00  0.00     0.167 HD
ATOM     57  C   UNL A   1      40.469  28.734  30.104  1.00  0.00     0.031 A 
ATOM     58  C   UNL A   1      40.081  33.342  35.331  1.00  0.00     0.031 A 
ATOM     59  C   UNL A   1      41.453  28.562  31.140  1.00  0.00     0.049 A 
ATOM     60  C   UNL A   1      41.083  32.223  35.340  1.00  0.00     0.074 A 
ATOM     61  C   UNL A   1      42.470  27.626  31.214  1.00  0.00     0.029 A 
ATOM     62  N   UNL A   1      41.541  29.339  32.283  1.00  0.00    -0.354 N 
ATOM     63  N   UNL A   1      41.302  31.304  34.433  1.00  0.00    -0.248 NA
ATOM     64  C   UNL A   1      41.957  32.125  36.519  1.00  0.00     0.031 C 
ATOM     65  C   UNL A   1      43.141  27.804  32.427  1.00  0.00     0.029 A 
ATOM     66  C   UNL A   1      42.579  28.889  33.082  1.00  0.00     0.049 A 
ATOM     67  H   UNL A   1      40.952  30.100  32.497  1.00  0.00     0.167 HD
ATOM     68  C   UNL A   1      42.357  30.540  34.914  1.00  0.00     0.074 A 
ATOM     69  C   UNL A   1      42.740  31.106  36.190  1.00  0.00     0.031 C 
ATOM     70  C   UNL A   1      42.957  29.466  34.345  1.00  0.00     0.031 A 
BRANCH  57  71
ATOM     71  C   UNL A   1      40.459  27.751  28.966  1.00  0.00    -0.014 A 
ATOM     72  C   UNL A   1      41.245  27.956  27.820  1.00  0.00     0.009 A 
ATOM     73  C   UNL A   1      39.687  26.583  29.058  1.00  0.00     0.009 A 
ATOM     74  C   UNL A   1      41.228  27.029  26.776  1.00  0.00     0.001 A 
ATOM     75  C   UNL A   1      39.696  25.643  28.026  1.00  0.00     0.001 A 
ATOM     76  C   UNL A   1      40.458  25.872  26.881  1.00  0.00     0.000 A 
ENDBRANCH  57  71
BRANCH  58  77
ATOM     77  C   UNL A   1      39.999  34.292  36.472  1.00  0.00    -0.014 A 
ATOM     78  C   UNL A   1      39.235  33.975  37.606  1.00  0.00     0.009 A 
ATOM     79  C   UNL A   1      40.678  35.520  36.434  1.00  0.00     0.009 A 
ATOM     80  C   UNL A   1      39.133  34.879  38.666  1.00  0.00     0.001 A 
ATOM     81  C   UNL A   1      40.597  36.409  37.507  1.00  0.00     0.001 A 
ATOM     82  C   UNL A   1      39.817  36.093  38.618  1.00  0.00     0.000 A 
ENDBRANCH  58  77
BRANCH  70  83
ATOM     83  C   UNL A   1      44.122  28.857  35.072  1.00  0.00    -0.014 A 
ATOM     84  C   UNL A   1      45.429  29.332  34.885  1.00  0.00     0.009 A 
ATOM     85  C   UNL A   1      43.896  27.832  36.004  1.00  0.00     0.009 A 
ATOM     86  C   UNL A   1      46.490  28.775  35.604  1.00  0.00     0.001 A 
ATOM     87  C   UNL A   1      44.953  27.297  36.740  1.00  0.00     0.001 A 
ATOM     88  C   UNL A   1      46.250  27.764  36.534  1.00  0.00     0.000 A 
ENDBRANCH  70  83
ENDBRANCH  44  45
ENDBRANCH  36  39
ENDBRANCH  34  35
ENDBRANCH  33  34
ENDBRANCH  32  33
ENDBRANCH   3  32
TORSDOF 16
ENDMDL
MODEL 2
REMARK VINA RESULT:     -11.9      0.455      5.730
REMARK SMILES O=C(C[C@H]1S/C(=[NH+]\N=C\c2cc(Br)ccc2OCc2ccccc2)NC1=O)NCCCNC(=O)c1ccc(-c2c3nc(c(-c4ccccc4)c4ccc([nH]4)c(-c4ccccc4)c4nc(c(-c5ccccc5)c5ccc2[nH]5)C=C4)C=C3)cc1
REMARK SMILES IDX 1 1 2 2 28 3 3 5 4 6 5 7 26 8 6 9 25 10 27 11 7 12 8 15 9 16
REMARK SMILES IDX 10 17 11 18 16 19 12 20 15 21 13 22 14 23 17 24 18 25 19 26
REMARK SMILES IDX 20 27 24 28 21 29 23 30 22 31 29 32 30 33 31 34 32 35 33 36
REMARK SMILES IDX 34 38 35 39 36 40 82 41 37 42 81 43 38 44 39 45 40 46 75 47
REMARK SMILES IDX 41 48 80 49 74 50 76 51 42 52 79 53 73 54 72 55 43 57 65 58
REMARK SMILES IDX 50 59 64 60 51 61 54 62 63 63 77 64 52 65 53 66 62 68 78 69
REMARK SMILES IDX 55 70 44 71 45 72 49 73 46 74 48 75 47 76 66 77 67 78 71 79
REMARK SMILES IDX 68 80 70 81 69 82 56 83 57 84 61 85 58 86 60 87 59 88
REMARK H PARENT 28 4 25 13 7 14 32 37 76 56 54 67
REMARK Flexibility Score: inf
ROOT
ATOM      1  O   UNL A   1      31.970  28.501  27.310  1.00  0.00    -0.275 OA
ATOM      2  C   UNL A   1      32.177  29.126  26.276  1.00  0.00     0.221 C 
ATOM      3  N   UNL A   1      33.141  30.102  26.147  1.00  0.00    -0.356 N 
ATOM      4  H   UNL A   1      33.321  30.474  25.253  1.00  0.00     0.163 HD
ENDROOT
BRANCH   2   5
ATOM      5  C   UNL A   1      31.399  28.849  25.007  1.00  0.00     0.127 C 
BRANCH   5   6
ATOM      6  C   UNL A   1      32.166  28.939  23.679  1.00  0.00     0.183 C 
ATOM      7  S   UNL A   1      33.476  27.693  23.378  1.00  0.00    -0.020 SA
ATOM      8  C   UNL A   1      31.179  28.690  22.549  1.00  0.00     0.322 C 
ATOM      9  C   UNL A   1      32.415  26.723  22.406  1.00  0.00     0.337 C 
ATOM     10  N   UNL A   1      31.352  27.452  22.001  1.00  0.00    -0.202 N 
ATOM     11  O   UNL A   1      30.273  29.441  22.231  1.00  0.00    -0.246 OA
ATOM     12  N   UNL A   1      32.490  25.477  22.091  1.00  0.00    -0.142 N 
ATOM     13  H   UNL A   1      30.722  27.101  21.330  1.00  0.00     0.316 HD
ATOM     14  H   UNL A   1      31.809  25.035  21.534  1.00  0.00     0.343 HD
BRANCH  12  15
ATOM     15  N   UNL A   1      33.599  24.795  22.591  1.00  0.00    -0.093 NA
ATOM     16  C   UNL A   1      33.198  23.888  23.428  1.00  0.00     0.170 C 
BRANCH  16  17
ATOM     17  C   UNL A   1      34.101  22.946  24.097  1.00  0.00     0.040 A 
ATOM     18  C   UNL A   1      35.352  23.472  24.464  1.00  0.00     0.029 A 
ATOM     19  C   UNL A   1      33.767  21.623  24.430  1.00  0.00     0.128 A 
ATOM     20  C   UNL A   1      36.263  22.693  25.173  1.00  0.00     0.018 A 
ATOM     21  C   UNL A   1      34.732  20.846  25.095  1.00  0.00     0.048 A 
ATOM     22  Br  UNL A   1      37.896  23.448  25.753  1.00  0.00    -0.051 Br
ATOM     23  C   UNL A   1      35.966  21.374  25.477  1.00  0.00     0.019 A 
BRANCH  19  24
ATOM     24  O   UNL A   1      32.621  20.902  24.241  1.00  0.00    -0.488 OA
BRANCH  24  25
ATOM     25  C   UNL A   1      32.528  19.761  23.395  1.00  0.00     0.265 C 
BRANCH  25  26
ATOM     26  C   UNL A   1      32.952  18.442  24.018  1.00  0.00    -0.011 A 
ATOM     27  C   UNL A   1      32.527  18.036  25.291  1.00  0.00     0.007 A 
ATOM     28  C   UNL A   1      33.725  17.551  23.254  1.00  0.00     0.007 A 
ATOM     29  C   UNL A   1      32.792  16.745  25.751  1.00  0.00     0.000 A 
ATOM     30  C   UNL A   1      34.002  16.265  23.724  1.00  0.00     0.000 A 
ATOM     31  C   UNL A   1      33.519  15.857  24.964  1.00  0.00     0.000 A 
ENDBRANCH  25  26
ENDBRANCH  24  25
ENDBRANCH  19  24
ENDBRANCH  16  17
ENDBRANCH  12  15
ENDBRANCH   5   6
ENDBRANCH   2   5
BRANCH   3  32
ATOM     32  C   UNL A   1      33.900  30.604  27.278  1.00  0.00     0.117 C 
BRANCH  32  33
ATOM     33  C   UNL A   1      33.882  32.125  27.349  1.00  0.00     0.042 C 
BRANCH  33  34
ATOM     34  C   UNL A   1      32.509  32.734  27.626  1.00  0.00     0.118 C 
BRANCH  34  35
ATOM     35  N   UNL A   1      32.528  34.188  27.700  1.00  0.00    -0.352 N 
ATOM     36  C   UNL A   1      33.248  35.014  28.531  1.00  0.00     0.251 C 
ATOM     37  H   UNL A   1      31.939  34.648  27.059  1.00  0.00     0.163 HD
ATOM     38  O   UNL A   1      32.976  36.209  28.600  1.00  0.00    -0.269 OA
BRANCH  36  39
ATOM     39  C   UNL A   1      34.338  34.462  29.370  1.00  0.00     0.039 A 
ATOM     40  C   UNL A   1      34.019  33.859  30.591  1.00  0.00     0.014 A 
ATOM     41  C   UNL A   1      35.671  34.536  28.959  1.00  0.00     0.014 A 
ATOM     42  C   UNL A   1      35.023  33.246  31.349  1.00  0.00     0.010 A 
ATOM     43  C   UNL A   1      36.657  33.861  29.675  1.00  0.00     0.010 A 
ATOM     44  C   UNL A   1      36.341  33.195  30.871  1.00  0.00    -0.014 A 
BRANCH  44  45
ATOM     45  C   UNL A   1      37.401  32.424  31.574  1.00  0.00     0.031 A 
ATOM     46  C   UNL A   1      37.934  32.893  32.899  1.00  0.00     0.074 A 
ATOM     47  C   UNL A   1      37.957  31.353  30.972  1.00  0.00     0.049 A 
ATOM     48  N   UNL A   1      38.939  32.428  33.598  1.00  0.00    -0.248 NA
ATOM     49  C   UNL A   1      37.263  34.053  33.509  1.00  0.00     0.031 C 
ATOM     50  C   UNL A   1      37.559  30.807  29.672  1.00  0.00     0.029 A 
ATOM     51  N   UNL A   1      38.992  30.541  31.368  1.00  0.00    -0.354 N 
ATOM     52  C   UNL A   1      39.036  33.250  34.714  1.00  0.00     0.074 A 
ATOM     53  C   UNL A   1      38.014  34.265  34.580  1.00  0.00     0.031 C 
ATOM     54  C   UNL A   1      38.328  29.743  29.387  1.00  0.00     0.029 A 
ATOM     55  C   UNL A   1      39.305  29.561  30.456  1.00  0.00     0.049 A 
ATOM     56  H   UNL A   1      39.466  30.651  32.224  1.00  0.00     0.167 HD
ATOM     57  C   UNL A   1      39.889  33.160  35.762  1.00  0.00     0.031 A 
ATOM     58  C   UNL A   1      40.279  28.631  30.466  1.00  0.00     0.031 A 
ATOM     59  C   UNL A   1      40.899  32.145  35.904  1.00  0.00     0.049 A 
ATOM     60  C   UNL A   1      41.232  28.570  31.627  1.00  0.00     0.074 A 
ATOM     61  C   UNL A   1      41.773  31.941  36.958  1.00  0.00     0.029 A 
ATOM     62  N   UNL A   1      41.174  31.167  34.962  1.00  0.00    -0.354 N 
ATOM     63  N   UNL A   1      41.272  29.319  32.701  1.00  0.00    -0.248 NA
ATOM     64  C   UNL A   1      42.272  27.532  31.578  1.00  0.00     0.031 C 
ATOM     65  C   UNL A   1      42.611  30.871  36.632  1.00  0.00     0.029 A 
ATOM     66  C   UNL A   1      42.220  30.371  35.399  1.00  0.00     0.049 A 
ATOM     67  H   UNL A   1      40.696  31.053  34.109  1.00  0.00     0.167 HD
ATOM     68  C   UNL A   1      42.317  28.823  33.469  1.00  0.00     0.074 A 
ATOM     69  C   UNL A   1      42.881  27.705  32.743  1.00  0.00     0.031 C 
ATOM     70  C   UNL A   1      42.767  29.256  34.672  1.00  0.00     0.031 A 
BRANCH  57  71
ATOM     71  C   UNL A   1      39.774  34.201  36.842  1.00  0.00    -0.014 A 
ATOM     72  C   UNL A   1      38.995  33.978  37.988  1.00  0.00     0.009 A 
ATOM     73  C   UNL A   1      40.489  35.403  36.731  1.00  0.00     0.009 A 
ATOM     74  C   UNL A   1      38.905  34.954  38.983  1.00  0.00     0.001 A 
ATOM     75  C   UNL A   1      40.422  36.364  37.742  1.00  0.00     0.001 A 
ATOM     76  C   UNL A   1      39.622  36.143  38.862  1.00  0.00     0.000 A 
ENDBRANCH  57  71
BRANCH  58  77
ATOM     77  C   UNL A   1      40.403  27.673  29.337  1.00  0.00    -0.014 A 
ATOM     78  C   UNL A   1      41.265  27.948  28.264  1.00  0.00     0.009 A 
ATOM     79  C   UNL A   1      39.660  26.482  29.321  1.00  0.00     0.009 A 
ATOM     80  C   UNL A   1      41.361  27.063  27.187  1.00  0.00     0.001 A 
ATOM     81  C   UNL A   1      39.779  25.586  28.257  1.00  0.00     0.001 A 
ATOM     82  C   UNL A   1      40.622  25.881  27.186  1.00  0.00     0.000 A 
ENDBRANCH  58  77
BRANCH  70  83
ATOM     83  C   UNL A   1      43.895  28.493  35.307  1.00  0.00    -0.014 A 
ATOM     84  C   UNL A   1      43.655  27.378  36.124  1.00  0.00     0.009 A 
ATOM     85  C   UNL A   1      45.220  28.861  35.029  1.00  0.00     0.009 A 
ATOM     86  C   UNL A   1      44.722  26.661  36.668  1.00  0.00     0.001 A 
ATOM     87  C   UNL A   1      46.285  28.126  35.551  1.00  0.00     0.001 A 
ATOM     88  C   UNL A   1      46.035  27.031  36.376  1.00  0.00     0.000 A 
ENDBRANCH  70  83
ENDBRANCH  44  45
ENDBRANCH  36  39
ENDBRANCH  34  35
ENDBRANCH  33  34
ENDBRANCH  32  33
ENDBRANCH   3  32
TORSDOF 16
ENDMDL
MODEL 3
REMARK VINA RESULT:     -11.7      4.077      7.448
REMARK SMILES O=C(C[C@H]1S/C(=[NH+]\N=C\c2cc(Br)ccc2OCc2ccccc2)NC1=O)NCCCNC(=O)c1ccc(-c2c3nc(c(-c4ccccc4)c4ccc([nH]4)c(-c4ccccc4)c4nc(c(-c5ccccc5)c5ccc2[nH]5)C=C4)C=C3)cc1
REMARK SMILES IDX 1 1 2 2 28 3 3 5 4 6 5 7 26 8 6 9 25 10 27 11 7 12 8 15 9 16
REMARK SMILES IDX 10 17 11 18 16 19 12 20 15 21 13 22 14 23 17 24 18 25 19 26
REMARK SMILES IDX 20 27 24 28 21 29 23 30 22 31 29 32 30 33 31 34 32 35 33 36
REMARK SMILES IDX 34 38 35 39 36 40 82 41 37 42 81 43 38 44 39 45 40 46 75 47
REMARK SMILES IDX 41 48 80 49 74 50 76 51 42 52 79 53 73 54 72 55 43 57 65 58
REMARK SMILES IDX 50 59 64 60 51 61 54 62 63 63 77 64 52 65 53 66 62 68 78 69
REMARK SMILES IDX 55 70 44 71 45 72 49 73 46 74 48 75 47 76 66 77 67 78 71 79
REMARK SMILES IDX 68 80 70 81 69 82 56 83 57 84 61 85 58 86 60 87 59 88
REMARK H PARENT 28 4 25 13 7 14 32 37 76 56 54 67
REMARK Flexibility Score: inf
ROOT
ATOM      1  O   UNL A   1      31.407  27.425  26.168  1.00  0.00    -0.275 OA
ATOM      2  C   UNL A   1      31.799  28.523  25.788  1.00  0.00     0.221 C 
ATOM      3  N   UNL A   1      32.858  29.200  26.352  1.00  0.00    -0.356 N 
ATOM      4  H   UNL A   1      33.182  30.020  25.915  1.00  0.00     0.163 HD
ENDROOT
BRANCH   2   5
ATOM      5  C   UNL A   1      31.161  29.234  24.613  1.00  0.00     0.127 C 
BRANCH   5   6
ATOM      6  C   UNL A   1      31.806  29.028  23.234  1.00  0.00     0.183 C 
ATOM      7  S   UNL A   1      33.104  27.741  23.095  1.00  0.00    -0.020 SA
ATOM      8  C   UNL A   1      30.727  28.542  22.279  1.00  0.00     0.322 C 
ATOM      9  C   UNL A   1      31.976  26.586  22.459  1.00  0.00     0.337 C 
ATOM     10  N   UNL A   1      30.871  27.213  22.001  1.00  0.00    -0.202 N 
ATOM     11  O   UNL A   1      29.785  29.208  21.888  1.00  0.00    -0.246 OA
ATOM     12  N   UNL A   1      32.043  25.301  22.417  1.00  0.00    -0.142 N 
ATOM     13  H   UNL A   1      30.189  26.726  21.482  1.00  0.00     0.316 HD
ATOM     14  H   UNL A   1      31.323  24.751  22.033  1.00  0.00     0.343 HD
BRANCH  12  15
ATOM     15  N   UNL A   1      33.203  24.741  22.952  1.00  0.00    -0.093 NA
ATOM     16  C   UNL A   1      32.881  23.726  23.696  1.00  0.00     0.170 C 
BRANCH  16  17
ATOM     17  C   UNL A   1      33.863  22.868  24.366  1.00  0.00     0.040 A 
ATOM     18  C   UNL A   1      35.058  23.506  24.743  1.00  0.00     0.029 A 
ATOM     19  C   UNL A   1      33.650  21.519  24.691  1.00  0.00     0.128 A 
ATOM     20  C   UNL A   1      36.033  22.811  25.454  1.00  0.00     0.018 A 
ATOM     21  C   UNL A   1      34.679  20.830  25.358  1.00  0.00     0.048 A 
ATOM     22  Br  UNL A   1      37.586  23.710  26.048  1.00  0.00    -0.051 Br
ATOM     23  C   UNL A   1      35.857  21.468  25.751  1.00  0.00     0.019 A 
BRANCH  19  24
ATOM     24  O   UNL A   1      32.577  20.696  24.492  1.00  0.00    -0.488 OA
BRANCH  24  25
ATOM     25  C   UNL A   1      32.522  19.688  23.487  1.00  0.00     0.265 C 
BRANCH  25  26
ATOM     26  C   UNL A   1      32.883  18.285  23.940  1.00  0.00    -0.011 A 
ATOM     27  C   UNL A   1      33.651  17.412  23.158  1.00  0.00     0.007 A 
ATOM     28  C   UNL A   1      32.512  17.876  25.233  1.00  0.00     0.007 A 
ATOM     29  C   UNL A   1      34.111  16.203  23.683  1.00  0.00     0.000 A 
ATOM     30  C   UNL A   1      32.960  16.658  25.750  1.00  0.00     0.000 A 
ATOM     31  C   UNL A   1      33.775  15.831  24.980  1.00  0.00     0.000 A 
ENDBRANCH  25  26
ENDBRANCH  24  25
ENDBRANCH  19  24
ENDBRANCH  16  17
ENDBRANCH  12  15
ENDBRANCH   5   6
ENDBRANCH   2   5
BRANCH   3  32
ATOM     32  C   UNL A   1      33.515  28.749  27.565  1.00  0.00     0.117 C 
BRANCH  32  33
ATOM     33  C   UNL A   1      34.914  29.333  27.710  1.00  0.00     0.042 C 
BRANCH  33  34
ATOM     34  C   UNL A   1      34.971  30.859  27.703  1.00  0.00     0.118 C 
BRANCH  34  35
ATOM     35  N   UNL A   1      34.723  31.451  29.010  1.00  0.00    -0.352 N 
ATOM     36  C   UNL A   1      35.528  31.480  30.125  1.00  0.00     0.251 C 
ATOM     37  H   UNL A   1      33.851  31.896  29.109  1.00  0.00     0.163 HD
ATOM     38  O   UNL A   1      35.068  31.835  31.208  1.00  0.00    -0.269 OA
BRANCH  36  39
ATOM     39  C   UNL A   1      36.945  31.059  30.034  1.00  0.00     0.039 A 
ATOM     40  C   UNL A   1      37.408  30.039  30.871  1.00  0.00     0.014 A 
ATOM     41  C   UNL A   1      37.820  31.664  29.128  1.00  0.00     0.014 A 
ATOM     42  C   UNL A   1      38.715  29.562  30.732  1.00  0.00     0.010 A 
ATOM     43  C   UNL A   1      39.095  31.138  28.937  1.00  0.00     0.010 A 
ATOM     44  C   UNL A   1      39.553  30.070  29.727  1.00  0.00    -0.014 A 
BRANCH  44  45
ATOM     45  C   UNL A   1      40.892  29.485  29.451  1.00  0.00     0.031 A 
ATOM     46  C   UNL A   1      42.120  30.353  29.455  1.00  0.00     0.074 A 
ATOM     47  C   UNL A   1      40.993  28.187  29.098  1.00  0.00     0.049 A 
ATOM     48  N   UNL A   1      43.347  30.050  29.115  1.00  0.00    -0.248 NA
ATOM     49  C   UNL A   1      41.940  31.752  29.875  1.00  0.00     0.031 C 
ATOM     50  C   UNL A   1      39.879  27.238  29.022  1.00  0.00     0.029 A 
ATOM     51  N   UNL A   1      42.084  27.446  28.716  1.00  0.00    -0.354 N 
ATOM     52  C   UNL A   1      44.079  31.223  29.257  1.00  0.00     0.074 A 
ATOM     53  C   UNL A   1      43.151  32.251  29.674  1.00  0.00     0.031 C 
ATOM     54  C   UNL A   1      40.347  26.040  28.636  1.00  0.00     0.029 A 
ATOM     55  C   UNL A   1      41.782  26.146  28.389  1.00  0.00     0.049 A 
ATOM     56  H   UNL A   1      42.998  27.812  28.681  1.00  0.00     0.167 HD
ATOM     57  C   UNL A   1      45.405  31.424  29.068  1.00  0.00     0.031 A 
ATOM     58  C   UNL A   1      42.563  25.153  27.924  1.00  0.00     0.031 A 
ATOM     59  C   UNL A   1      46.333  30.401  28.663  1.00  0.00     0.049 A 
ATOM     60  C   UNL A   1      44.026  25.409  27.694  1.00  0.00     0.074 A 
ATOM     61  C   UNL A   1      47.704  30.499  28.500  1.00  0.00     0.029 A 
ATOM     62  N   UNL A   1      45.985  29.097  28.352  1.00  0.00    -0.354 N 
ATOM     63  N   UNL A   1      44.712  26.508  27.888  1.00  0.00    -0.248 NA
ATOM     64  C   UNL A   1      44.825  24.284  27.186  1.00  0.00     0.031 C 
ATOM     65  C   UNL A   1      48.179  29.266  28.042  1.00  0.00     0.029 A 
ATOM     66  C   UNL A   1      47.111  28.385  27.974  1.00  0.00     0.049 A 
ATOM     67  H   UNL A   1      45.072  28.730  28.394  1.00  0.00     0.167 HD
ATOM     68  C   UNL A   1      46.025  26.199  27.558  1.00  0.00     0.074 A 
ATOM     69  C   UNL A   1      46.043  24.808  27.158  1.00  0.00     0.031 C 
ATOM     70  C   UNL A   1      47.119  26.999  27.587  1.00  0.00     0.031 A 
BRANCH  57  71
ATOM     71  C   UNL A   1      45.935  32.814  29.289  1.00  0.00    -0.014 A 
ATOM     72  C   UNL A   1      45.970  33.753  28.247  1.00  0.00     0.009 A 
ATOM     73  C   UNL A   1      46.364  33.203  30.567  1.00  0.00     0.009 A 
ATOM     74  C   UNL A   1      46.459  35.042  28.472  1.00  0.00     0.001 A 
ATOM     75  C   UNL A   1      46.823  34.501  30.797  1.00  0.00     0.001 A 
ATOM     76  C   UNL A   1      46.880  35.417  29.746  1.00  0.00     0.000 A 
ENDBRANCH  57  71
BRANCH  58  77
ATOM     77  C   UNL A   1      41.978  23.815  27.643  1.00  0.00    -0.014 A 
ATOM     78  C   UNL A   1      41.469  23.516  26.369  1.00  0.00     0.009 A 
ATOM     79  C   UNL A   1      41.920  22.833  28.644  1.00  0.00     0.009 A 
ATOM     80  C   UNL A   1      40.891  22.271  26.113  1.00  0.00     0.001 A 
ATOM     81  C   UNL A   1      41.368  21.579  28.376  1.00  0.00     0.001 A 
ATOM     82  C   UNL A   1      40.845  21.302  27.113  1.00  0.00     0.000 A 
ENDBRANCH  58  77
BRANCH  70  83
ATOM     83  C   UNL A   1      48.439  26.382  27.221  1.00  0.00    -0.014 A 
ATOM     84  C   UNL A   1      48.968  26.500  25.927  1.00  0.00     0.009 A 
ATOM     85  C   UNL A   1      49.191  25.725  28.207  1.00  0.00     0.009 A 
ATOM     86  C   UNL A   1      50.216  25.953  25.624  1.00  0.00     0.001 A 
ATOM     87  C   UNL A   1      50.449  25.202  27.909  1.00  0.00     0.001 A 
ATOM     88  C   UNL A   1      50.958  25.311  26.615  1.00  0.00     0.000 A 
ENDBRANCH  70  83
ENDBRANCH  44  45
ENDBRANCH  36  39
ENDBRANCH  34  35
ENDBRANCH  33  34
ENDBRANCH  32  33
ENDBRANCH   3  32
TORSDOF 16
ENDMDL
