MODEL 1
REMARK VINA RESULT:     -10.8      0.000      0.000
REMARK SMILES CC(=O)[C@H]1CC(C)=C(C)C[C@@H]1C(=O)NCCCNC(=O)c1ccc(-c2c3nc(c(-c4ccccc4)c4ccc([nH]4)c(-c4ccccc4)c4nc(c(-c5ccccc5)c5ccc2[nH]5)C=C4)C=C3)cc1
REMARK SMILES IDX 16 1 15 2 14 3 12 4 13 5 11 7 4 8 5 9 6 10 10 11 7 12 8 13
REMARK SMILES IDX 9 14 2 15 1 16 3 17 17 18 18 19 19 20 20 22 21 23 22 24
REMARK SMILES IDX 68 25 23 26 67 27 24 28 25 29 26 30 61 31 27 32 66 33 60 34
REMARK SMILES IDX 62 35 28 36 65 37 59 38 58 39 29 41 51 42 36 43 50 44 37 45
REMARK SMILES IDX 40 46 49 47 63 48 38 49 39 50 48 52 64 53 41 54 30 55 31 56
REMARK SMILES IDX 35 57 32 58 34 59 33 60 52 61 53 62 57 63 54 64 56 65 55 66
REMARK SMILES IDX 42 67 43 68 47 69 44 70 46 71 45 72
REMARK H PARENT 14 6 18 21 62 40 40 51
REMARK Flexibility Score: inf
ROOT
ATOM      1  C   UNL A   1      32.164  27.984  27.467  1.00  0.00     0.042 C 
ENDROOT
BRANCH   1   2
ATOM      2  C   UNL A   1      31.614  27.276  26.231  1.00  0.00     0.117 C 
BRANCH   2   3
ATOM      3  N   UNL A   1      31.558  25.835  26.419  1.00  0.00    -0.356 N 
ATOM      4  C   UNL A   1      32.283  24.846  25.820  1.00  0.00     0.224 C 
ATOM      5  O   UNL A   1      32.012  23.677  26.089  1.00  0.00    -0.275 OA
ATOM      6  H   UNL A   1      30.898  25.527  27.082  1.00  0.00     0.163 HD
BRANCH   4   7
ATOM      7  C   UNL A   1      33.438  25.227  24.902  1.00  0.00     0.093 C 
ATOM      8  C   UNL A   1      33.292  24.536  23.538  1.00  0.00     0.072 C 
ATOM      9  C   UNL A   1      34.387  23.557  23.107  1.00  0.00     0.043 C 
ATOM     10  C   UNL A   1      35.626  23.446  23.953  1.00  0.00    -0.074 C 
ATOM     11  C   UNL A   1      34.739  25.019  25.689  1.00  0.00     0.045 C 
ATOM     12  C   UNL A   1      36.648  22.487  23.388  1.00  0.00     0.039 C 
ATOM     13  C   UNL A   1      35.785  24.107  25.114  1.00  0.00    -0.074 C 
ATOM     14  C   UNL A   1      37.018  23.963  25.974  1.00  0.00     0.039 C 
BRANCH   8  15
ATOM     15  C   UNL A   1      33.068  25.554  22.414  1.00  0.00     0.134 C 
ATOM     16  C   UNL A   1      31.671  25.799  21.898  1.00  0.00     0.088 C 
ATOM     17  O   UNL A   1      34.017  26.175  21.931  1.00  0.00    -0.300 OA
ENDBRANCH   8  15
ENDBRANCH   4   7
ENDBRANCH   2   3
ENDBRANCH   1   2
BRANCH   1  18
ATOM     18  C   UNL A   1      33.518  28.652  27.232  1.00  0.00     0.118 C 
BRANCH  18  19
ATOM     19  N   UNL A   1      33.524  30.048  27.654  1.00  0.00    -0.352 N 
ATOM     20  C   UNL A   1      34.468  30.769  28.333  1.00  0.00     0.251 C 
ATOM     21  H   UNL A   1      32.716  30.554  27.411  1.00  0.00     0.163 HD
ATOM     22  O   UNL A   1      34.171  31.874  28.789  1.00  0.00    -0.269 OA
BRANCH  20  23
ATOM     23  C   UNL A   1      35.833  30.240  28.527  1.00  0.00     0.039 A 
ATOM     24  C   UNL A   1      36.722  30.259  27.448  1.00  0.00     0.014 A 
ATOM     25  C   UNL A   1      36.222  29.679  29.745  1.00  0.00     0.014 A 
ATOM     26  C   UNL A   1      38.018  29.767  27.608  1.00  0.00     0.010 A 
ATOM     27  C   UNL A   1      37.535  29.253  29.925  1.00  0.00     0.010 A 
ATOM     28  C   UNL A   1      38.445  29.289  28.858  1.00  0.00    -0.014 A 
BRANCH  28  29
ATOM     29  C   UNL A   1      39.841  28.831  29.067  1.00  0.00     0.031 A 
ATOM     30  C   UNL A   1      40.876  29.774  29.617  1.00  0.00     0.074 A 
ATOM     31  C   UNL A   1      40.188  27.582  28.699  1.00  0.00     0.049 A 
ATOM     32  N   UNL A   1      42.155  29.571  29.811  1.00  0.00    -0.248 NA
ATOM     33  C   UNL A   1      40.424  31.129  29.971  1.00  0.00     0.031 C 
ATOM     34  C   UNL A   1      39.286  26.585  28.117  1.00  0.00     0.029 A 
ATOM     35  N   UNL A   1      41.400  26.940  28.750  1.00  0.00    -0.354 N 
ATOM     36  C   UNL A   1      42.662  30.774  30.284  1.00  0.00     0.074 A 
ATOM     37  C   UNL A   1      41.562  31.715  30.315  1.00  0.00     0.031 C 
ATOM     38  C   UNL A   1      39.970  25.452  27.890  1.00  0.00     0.029 A 
ATOM     39  C   UNL A   1      41.363  25.654  28.268  1.00  0.00     0.049 A 
ATOM     40  H   UNL A   1      42.219  27.362  29.100  1.00  0.00     0.167 HD
ATOM     41  C   UNL A   1      43.926  31.067  30.669  1.00  0.00     0.031 A 
ATOM     42  C   UNL A   1      42.346  24.743  28.137  1.00  0.00     0.031 A 
ATOM     43  C   UNL A   1      45.012  30.124  30.664  1.00  0.00     0.049 A 
ATOM     44  C   UNL A   1      43.741  25.101  28.569  1.00  0.00     0.074 A 
ATOM     45  C   UNL A   1      46.309  30.304  31.115  1.00  0.00     0.029 A 
ATOM     46  N   UNL A   1      44.931  28.829  30.181  1.00  0.00    -0.354 N 
ATOM     47  N   UNL A   1      44.182  26.215  29.099  1.00  0.00    -0.248 NA
ATOM     48  C   UNL A   1      44.771  24.067  28.394  1.00  0.00     0.031 C 
ATOM     49  C   UNL A   1      47.027  29.132  30.854  1.00  0.00     0.029 A 
ATOM     50  C   UNL A   1      46.163  28.206  30.293  1.00  0.00     0.049 A 
ATOM     51  H   UNL A   1      44.117  28.412  29.813  1.00  0.00     0.167 HD
ATOM     52  C   UNL A   1      45.531  26.005  29.350  1.00  0.00     0.074 A 
ATOM     53  C   UNL A   1      45.831  24.652  28.932  1.00  0.00     0.031 C 
ATOM     54  C   UNL A   1      46.442  26.856  29.881  1.00  0.00     0.031 A 
BRANCH  41  55
ATOM     55  C   UNL A   1      44.215  32.470  31.126  1.00  0.00    -0.014 A 
ATOM     56  C   UNL A   1      44.116  32.833  32.478  1.00  0.00     0.009 A 
ATOM     57  C   UNL A   1      44.662  33.424  30.198  1.00  0.00     0.009 A 
ATOM     58  C   UNL A   1      44.435  34.129  32.887  1.00  0.00     0.001 A 
ATOM     59  C   UNL A   1      45.006  34.711  30.613  1.00  0.00     0.001 A 
ATOM     60  C   UNL A   1      44.886  35.064  31.956  1.00  0.00     0.000 A 
ENDBRANCH  41  55
BRANCH  42  61
ATOM     61  C   UNL A   1      42.056  23.397  27.575  1.00  0.00    -0.014 A 
ATOM     62  C   UNL A   1      42.296  23.126  26.219  1.00  0.00     0.009 A 
ATOM     63  C   UNL A   1      41.502  22.389  28.380  1.00  0.00     0.009 A 
ATOM     64  C   UNL A   1      41.950  21.888  25.672  1.00  0.00     0.001 A 
ATOM     65  C   UNL A   1      41.187  21.142  27.837  1.00  0.00     0.001 A 
ATOM     66  C   UNL A   1      41.398  20.898  26.481  1.00  0.00     0.000 A 
ENDBRANCH  42  61
BRANCH  54  67
ATOM     67  C   UNL A   1      47.836  26.334  30.081  1.00  0.00    -0.014 A 
ATOM     68  C   UNL A   1      48.811  26.454  29.080  1.00  0.00     0.009 A 
ATOM     69  C   UNL A   1      48.185  25.745  31.307  1.00  0.00     0.009 A 
ATOM     70  C   UNL A   1      50.101  25.961  29.291  1.00  0.00     0.001 A 
ATOM     71  C   UNL A   1      49.483  25.282  31.525  1.00  0.00     0.001 A 
ATOM     72  C   UNL A   1      50.436  25.381  30.513  1.00  0.00     0.000 A 
ENDBRANCH  54  67
ENDBRANCH  28  29
ENDBRANCH  20  23
ENDBRANCH  18  19
ENDBRANCH   1  18
TORSDOF 11
ENDMDL
MODEL 2
REMARK VINA RESULT:     -10.7      0.508      6.231
REMARK SMILES CC(=O)[C@H]1CC(C)=C(C)C[C@@H]1C(=O)NCCCNC(=O)c1ccc(-c2c3nc(c(-c4ccccc4)c4ccc([nH]4)c(-c4ccccc4)c4nc(c(-c5ccccc5)c5ccc2[nH]5)C=C4)C=C3)cc1
REMARK SMILES IDX 16 1 15 2 14 3 12 4 13 5 11 7 4 8 5 9 6 10 10 11 7 12 8 13
REMARK SMILES IDX 9 14 2 15 1 16 3 17 17 18 18 19 19 20 20 22 21 23 22 24
REMARK SMILES IDX 68 25 23 26 67 27 24 28 25 29 26 30 61 31 27 32 66 33 60 34
REMARK SMILES IDX 62 35 28 36 65 37 59 38 58 39 29 41 51 42 36 43 50 44 37 45
REMARK SMILES IDX 40 46 49 47 63 48 38 49 39 50 48 52 64 53 41 54 30 55 31 56
REMARK SMILES IDX 35 57 32 58 34 59 33 60 52 61 53 62 57 63 54 64 56 65 55 66
REMARK SMILES IDX 42 67 43 68 47 69 44 70 46 71 45 72
REMARK H PARENT 14 6 18 21 62 40 40 51
REMARK Flexibility Score: inf
ROOT
ATOM      1  C   UNL A   1      32.171  27.996  27.528  1.00  0.00     0.042 C 
ENDROOT
BRANCH   1   2
ATOM      2  C   UNL A   1      31.632  27.238  26.317  1.00  0.00     0.117 C 
BRANCH   2   3
ATOM      3  N   UNL A   1      31.631  25.802  26.542  1.00  0.00    -0.356 N 
ATOM      4  C   UNL A   1      32.372  24.823  25.945  1.00  0.00     0.224 C 
ATOM      5  O   UNL A   1      32.150  23.652  26.250  1.00  0.00    -0.275 OA
ATOM      6  H   UNL A   1      31.000  25.488  27.230  1.00  0.00     0.163 HD
BRANCH   4   7
ATOM      7  C   UNL A   1      33.487  25.220  24.985  1.00  0.00     0.093 C 
ATOM      8  C   UNL A   1      33.275  24.564  23.613  1.00  0.00     0.072 C 
ATOM      9  C   UNL A   1      34.342  23.590  23.108  1.00  0.00     0.043 C 
ATOM     10  C   UNL A   1      35.618  23.451  23.894  1.00  0.00    -0.074 C 
ATOM     11  C   UNL A   1      34.821  24.984  25.707  1.00  0.00     0.045 C 
ATOM     12  C   UNL A   1      36.606  22.500  23.260  1.00  0.00     0.039 C 
ATOM     13  C   UNL A   1      35.834  24.081  25.063  1.00  0.00    -0.074 C 
ATOM     14  C   UNL A   1      37.103  23.908  25.862  1.00  0.00     0.039 C 
BRANCH   8  15
ATOM     15  C   UNL A   1      33.007  25.612  22.525  1.00  0.00     0.134 C 
ATOM     16  C   UNL A   1      31.595  26.082  22.276  1.00  0.00     0.088 C 
ATOM     17  O   UNL A   1      33.935  26.073  21.857  1.00  0.00    -0.300 OA
ENDBRANCH   8  15
ENDBRANCH   4   7
ENDBRANCH   2   3
ENDBRANCH   1   2
BRANCH   1  18
ATOM     18  C   UNL A   1      33.536  28.639  27.283  1.00  0.00     0.118 C 
BRANCH  18  19
ATOM     19  N   UNL A   1      33.545  30.057  27.621  1.00  0.00    -0.352 N 
ATOM     20  C   UNL A   1      34.491  30.815  28.256  1.00  0.00     0.251 C 
ATOM     21  H   UNL A   1      32.739  30.550  27.346  1.00  0.00     0.163 HD
ATOM     22  O   UNL A   1      34.196  31.946  28.644  1.00  0.00    -0.269 OA
BRANCH  20  23
ATOM     23  C   UNL A   1      35.853  30.295  28.484  1.00  0.00     0.039 A 
ATOM     24  C   UNL A   1      36.786  30.373  27.445  1.00  0.00     0.014 A 
ATOM     25  C   UNL A   1      36.200  29.685  29.691  1.00  0.00     0.014 A 
ATOM     26  C   UNL A   1      38.082  29.891  27.637  1.00  0.00     0.010 A 
ATOM     27  C   UNL A   1      37.511  29.268  29.906  1.00  0.00     0.010 A 
ATOM     28  C   UNL A   1      38.463  29.362  28.881  1.00  0.00    -0.014 A 
BRANCH  28  29
ATOM     29  C   UNL A   1      39.855  28.912  29.129  1.00  0.00     0.031 A 
ATOM     30  C   UNL A   1      40.303  27.546  28.686  1.00  0.00     0.074 A 
ATOM     31  C   UNL A   1      40.697  29.713  29.812  1.00  0.00     0.049 A 
ATOM     32  N   UNL A   1      41.458  26.958  28.868  1.00  0.00    -0.248 NA
ATOM     33  C   UNL A   1      39.317  26.721  27.969  1.00  0.00     0.031 C 
ATOM     34  C   UNL A   1      40.371  31.044  30.330  1.00  0.00     0.029 A 
ATOM     35  N   UNL A   1      41.999  29.518  30.199  1.00  0.00    -0.354 N 
ATOM     36  C   UNL A   1      41.331  25.692  28.312  1.00  0.00     0.074 A 
ATOM     37  C   UNL A   1      39.976  25.580  27.818  1.00  0.00     0.031 C 
ATOM     38  C   UNL A   1      41.451  31.555  30.942  1.00  0.00     0.029 A 
ATOM     39  C   UNL A   1      42.530  30.574  30.899  1.00  0.00     0.049 A 
ATOM     40  H   UNL A   1      42.505  28.698  29.993  1.00  0.00     0.167 HD
ATOM     41  C   UNL A   1      42.262  24.715  28.212  1.00  0.00     0.031 A 
ATOM     42  C   UNL A   1      43.747  30.730  31.453  1.00  0.00     0.031 A 
ATOM     43  C   UNL A   1      43.617  24.836  28.679  1.00  0.00     0.049 A 
ATOM     44  C   UNL A   1      44.757  29.624  31.328  1.00  0.00     0.074 A 
ATOM     45  C   UNL A   1      44.656  23.932  28.547  1.00  0.00     0.029 A 
ATOM     46  N   UNL A   1      44.118  25.926  29.371  1.00  0.00    -0.354 N 
ATOM     47  N   UNL A   1      44.647  28.468  30.719  1.00  0.00    -0.248 NA
ATOM     48  C   UNL A   1      46.065  29.850  31.960  1.00  0.00     0.031 C 
ATOM     49  C   UNL A   1      45.774  24.453  29.208  1.00  0.00     0.029 A 
ATOM     50  C   UNL A   1      45.445  25.705  29.701  1.00  0.00     0.049 A 
ATOM     51  H   UNL A   1      43.607  26.738  29.594  1.00  0.00     0.167 HD
ATOM     52  C   UNL A   1      45.879  27.846  30.866  1.00  0.00     0.074 A 
ATOM     53  C   UNL A   1      46.726  28.758  31.606  1.00  0.00     0.031 C 
ATOM     54  C   UNL A   1      46.276  26.627  30.428  1.00  0.00     0.031 A 
BRANCH  41  55
ATOM     55  C   UNL A   1      41.852  23.415  27.576  1.00  0.00    -0.014 A 
ATOM     56  C   UNL A   1      42.153  23.130  26.236  1.00  0.00     0.009 A 
ATOM     57  C   UNL A   1      41.216  22.433  28.353  1.00  0.00     0.009 A 
ATOM     58  C   UNL A   1      41.805  21.898  25.679  1.00  0.00     0.001 A 
ATOM     59  C   UNL A   1      40.893  21.192  27.802  1.00  0.00     0.001 A 
ATOM     60  C   UNL A   1      41.182  20.928  26.464  1.00  0.00     0.000 A 
ENDBRANCH  41  55
BRANCH  42  61
ATOM     61  C   UNL A   1      44.091  31.983  32.176  1.00  0.00    -0.014 A 
ATOM     62  C   UNL A   1      44.681  33.058  31.494  1.00  0.00     0.009 A 
ATOM     63  C   UNL A   1      43.869  32.097  33.557  1.00  0.00     0.009 A 
ATOM     64  C   UNL A   1      45.078  34.205  32.186  1.00  0.00     0.001 A 
ATOM     65  C   UNL A   1      44.238  33.257  34.241  1.00  0.00     0.001 A 
ATOM     66  C   UNL A   1      44.855  34.304  33.557  1.00  0.00     0.000 A 
ENDBRANCH  42  61
BRANCH  54  67
ATOM     67  C   UNL A   1      47.700  26.229  30.696  1.00  0.00    -0.014 A 
ATOM     68  C   UNL A   1      48.086  25.688  31.931  1.00  0.00     0.009 A 
ATOM     69  C   UNL A   1      48.660  26.368  29.681  1.00  0.00     0.009 A 
ATOM     70  C   UNL A   1      49.416  25.325  32.156  1.00  0.00     0.001 A 
ATOM     71  C   UNL A   1      49.980  25.975  29.899  1.00  0.00     0.001 A 
ATOM     72  C   UNL A   1      50.359  25.465  31.139  1.00  0.00     0.000 A 
ENDBRANCH  54  67
ENDBRANCH  28  29
ENDBRANCH  20  23
ENDBRANCH  18  19
ENDBRANCH   1  18
TORSDOF 11
ENDMDL
MODEL 3
REMARK VINA RESULT:     -10.6      2.470      7.791
REMARK SMILES CC(=O)[C@H]1CC(C)=C(C)C[C@@H]1C(=O)NCCCNC(=O)c1ccc(-c2c3nc(c(-c4ccccc4)c4ccc([nH]4)c(-c4ccccc4)c4nc(c(-c5ccccc5)c5ccc2[nH]5)C=C4)C=C3)cc1
REMARK SMILES IDX 16 1 15 2 14 3 12 4 13 5 11 7 4 8 5 9 6 10 10 11 7 12 8 13
REMARK SMILES IDX 9 14 2 15 1 16 3 17 17 18 18 19 19 20 20 22 21 23 22 24
REMARK SMILES IDX 68 25 23 26 67 27 24 28 25 29 26 30 61 31 27 32 66 33 60 34
REMARK SMILES IDX 62 35 28 36 65 37 59 38 58 39 29 41 51 42 36 43 50 44 37 45
REMARK SMILES IDX 40 46 49 47 63 48 38 49 39 50 48 52 64 53 41 54 30 55 31 56
REMARK SMILES IDX 35 57 32 58 34 59 33 60 52 61 53 62 57 63 54 64 56 65 55 66
REMARK SMILES IDX 42 67 43 68 47 69 44 70 46 71 45 72
REMARK H PARENT 14 6 18 21 62 40 40 51
REMARK Flexibility Score: inf
ROOT
ATOM      1  C   UNL A   1      36.345  23.207  23.965  1.00  0.00     0.042 C 
ENDROOT
BRANCH   1   2
ATOM      2  C   UNL A   1      34.824  23.176  24.100  1.00  0.00     0.117 C 
BRANCH   2   3
ATOM      3  N   UNL A   1      34.199  24.263  23.365  1.00  0.00    -0.356 N 
ATOM      4  C   UNL A   1      33.399  25.274  23.812  1.00  0.00     0.224 C 
ATOM      5  O   UNL A   1      32.921  26.052  22.987  1.00  0.00    -0.275 OA
ATOM      6  H   UNL A   1      34.382  24.271  22.398  1.00  0.00     0.163 HD
BRANCH   4   7
ATOM      7  C   UNL A   1      33.188  25.444  25.312  1.00  0.00     0.093 C 
ATOM      8  C   UNL A   1      31.691  25.558  25.635  1.00  0.00     0.072 C 
ATOM      9  C   UNL A   1      31.191  26.854  26.277  1.00  0.00     0.043 C 
ATOM     10  C   UNL A   1      32.204  27.878  26.713  1.00  0.00    -0.074 C 
ATOM     11  C   UNL A   1      34.124  26.565  25.784  1.00  0.00     0.045 C 
ATOM     12  C   UNL A   1      31.582  29.084  27.378  1.00  0.00     0.039 C 
ATOM     13  C   UNL A   1      33.524  27.746  26.493  1.00  0.00    -0.074 C 
ATOM     14  C   UNL A   1      34.530  28.796  26.902  1.00  0.00     0.039 C 
BRANCH   8  15
ATOM     15  C   UNL A   1      31.206  24.371  26.475  1.00  0.00     0.134 C 
ATOM     16  C   UNL A   1      32.189  23.305  26.897  1.00  0.00     0.088 C 
ATOM     17  O   UNL A   1      30.023  24.281  26.811  1.00  0.00    -0.300 OA
ENDBRANCH   8  15
ENDBRANCH   4   7
ENDBRANCH   2   3
ENDBRANCH   1   2
BRANCH   1  18
ATOM     18  C   UNL A   1      37.062  23.593  25.260  1.00  0.00     0.118 C 
BRANCH  18  19
ATOM     19  N   UNL A   1      38.170  22.696  25.563  1.00  0.00    -0.352 N 
ATOM     20  C   UNL A   1      39.386  22.946  26.140  1.00  0.00     0.251 C 
ATOM     21  H   UNL A   1      38.020  21.756  25.311  1.00  0.00     0.163 HD
ATOM     22  O   UNL A   1      40.265  22.085  26.092  1.00  0.00    -0.269 OA
BRANCH  20  23
ATOM     23  C   UNL A   1      39.656  24.231  26.814  1.00  0.00     0.039 A 
ATOM     24  C   UNL A   1      39.157  24.432  28.105  1.00  0.00     0.014 A 
ATOM     25  C   UNL A   1      40.349  25.255  26.164  1.00  0.00     0.014 A 
ATOM     26  C   UNL A   1      39.402  25.638  28.764  1.00  0.00     0.010 A 
ATOM     27  C   UNL A   1      40.653  26.429  26.847  1.00  0.00     0.010 A 
ATOM     28  C   UNL A   1      40.179  26.635  28.151  1.00  0.00    -0.014 A 
BRANCH  28  29
ATOM     29  C   UNL A   1      40.512  27.893  28.864  1.00  0.00     0.031 A 
ATOM     30  C   UNL A   1      41.837  28.044  29.562  1.00  0.00     0.074 A 
ATOM     31  C   UNL A   1      39.592  28.874  28.937  1.00  0.00     0.049 A 
ATOM     32  N   UNL A   1      42.279  29.042  30.283  1.00  0.00    -0.248 NA
ATOM     33  C   UNL A   1      42.779  26.917  29.457  1.00  0.00     0.031 C 
ATOM     34  C   UNL A   1      38.256  28.833  28.338  1.00  0.00     0.029 A 
ATOM     35  N   UNL A   1      39.637  30.097  29.559  1.00  0.00    -0.354 N 
ATOM     36  C   UNL A   1      43.534  28.656  30.737  1.00  0.00     0.074 A 
ATOM     37  C   UNL A   1      43.770  27.317  30.241  1.00  0.00     0.031 C 
ATOM     38  C   UNL A   1      37.621  29.987  28.598  1.00  0.00     0.029 A 
ATOM     39  C   UNL A   1      38.484  30.830  29.418  1.00  0.00     0.049 A 
ATOM     40  H   UNL A   1      40.423  30.418  30.059  1.00  0.00     0.167 HD
ATOM     41  C   UNL A   1      44.414  29.356  31.489  1.00  0.00     0.031 A 
ATOM     42  C   UNL A   1      38.155  32.042  29.903  1.00  0.00     0.031 A 
ATOM     43  C   UNL A   1      44.190  30.697  31.960  1.00  0.00     0.049 A 
ATOM     44  C   UNL A   1      39.154  32.792  30.740  1.00  0.00     0.074 A 
ATOM     45  C   UNL A   1      45.057  31.520  32.657  1.00  0.00     0.029 A 
ATOM     46  N   UNL A   1      43.015  31.408  31.784  1.00  0.00    -0.354 N 
ATOM     47  N   UNL A   1      40.371  32.447  31.083  1.00  0.00    -0.248 NA
ATOM     48  C   UNL A   1      38.734  34.107  31.247  1.00  0.00     0.031 C 
ATOM     49  C   UNL A   1      44.386  32.711  32.952  1.00  0.00     0.029 A 
ATOM     50  C   UNL A   1      43.122  32.650  32.388  1.00  0.00     0.049 A 
ATOM     51  H   UNL A   1      42.221  31.080  31.302  1.00  0.00     0.167 HD
ATOM     52  C   UNL A   1      40.872  33.514  31.816  1.00  0.00     0.074 A 
ATOM     53  C   UNL A   1      39.836  34.524  31.854  1.00  0.00     0.031 C 
ATOM     54  C   UNL A   1      42.085  33.647  32.408  1.00  0.00     0.031 A 
BRANCH  41  55
ATOM     55  C   UNL A   1      45.708  28.688  31.863  1.00  0.00    -0.014 A 
ATOM     56  C   UNL A   1      45.821  27.914  33.028  1.00  0.00     0.009 A 
ATOM     57  C   UNL A   1      46.811  28.778  30.998  1.00  0.00     0.009 A 
ATOM     58  C   UNL A   1      47.018  27.264  33.331  1.00  0.00     0.001 A 
ATOM     59  C   UNL A   1      47.998  28.105  31.289  1.00  0.00     0.001 A 
ATOM     60  C   UNL A   1      48.103  27.354  32.459  1.00  0.00     0.000 A 
ENDBRANCH  41  55
BRANCH  42  61
ATOM     61  C   UNL A   1      36.823  32.634  29.613  1.00  0.00    -0.014 A 
ATOM     62  C   UNL A   1      35.791  32.565  30.562  1.00  0.00     0.009 A 
ATOM     63  C   UNL A   1      36.562  33.238  28.373  1.00  0.00     0.009 A 
ATOM     64  C   UNL A   1      34.516  33.049  30.261  1.00  0.00     0.001 A 
ATOM     65  C   UNL A   1      35.296  33.751  28.086  1.00  0.00     0.001 A 
ATOM     66  C   UNL A   1      34.270  33.643  29.025  1.00  0.00     0.000 A 
ENDBRANCH  42  61
BRANCH  54  67
ATOM     67  C   UNL A   1      42.371  34.947  33.104  1.00  0.00    -0.014 A 
ATOM     68  C   UNL A   1      43.117  35.959  32.483  1.00  0.00     0.009 A 
ATOM     69  C   UNL A   1      41.853  35.172  34.389  1.00  0.00     0.009 A 
ATOM     70  C   UNL A   1      43.370  37.159  33.151  1.00  0.00     0.001 A 
ATOM     71  C   UNL A   1      42.080  36.384  35.041  1.00  0.00     0.001 A 
ATOM     72  C   UNL A   1      42.847  37.372  34.426  1.00  0.00     0.000 A 
ENDBRANCH  54  67
ENDBRANCH  28  29
ENDBRANCH  20  23
ENDBRANCH  18  19
ENDBRANCH   1  18
TORSDOF 11
ENDMDL
