MODEL 1
REMARK VINA RESULT:      -9.1      0.000      0.000
REMARK SMILES C[C@@H](C(=O)NCCCNC(=O)c1ccc(-c2c3nc(c(-c4ccccc4)c4ccc([nH]4)c(-c4ccccc4)c4nc(c(-c5ccccc5)c5ccc2[nH]5)C=C4)C=C3)cc1)c1ccc(O[C@H]2CCCC2=O)cc1F
REMARK SMILES IDX 6 1 5 2 3 3 4 4 2 6 1 7 60 8 61 9 72 10 62 11 71 12 73 13
REMARK SMILES IDX 63 14 64 15 65 16 66 17 69 18 67 19 68 20 70 21 7 22 8 23
REMARK SMILES IDX 9 24 10 25 11 27 12 28 13 29 59 30 14 31 58 32 15 33 16 34
REMARK SMILES IDX 17 35 52 36 18 37 57 38 51 39 53 40 19 41 56 42 50 43 49 44
REMARK SMILES IDX 20 46 42 47 27 48 41 49 28 50 31 51 40 52 54 53 29 54 30 55
REMARK SMILES IDX 39 57 55 58 32 59 21 60 22 61 26 62 23 63 25 64 24 65 43 66
REMARK SMILES IDX 44 67 48 68 45 69 47 70 46 71 33 72 34 73 38 74 35 75 37 76
REMARK SMILES IDX 36 77
REMARK H PARENT 5 5 9 26 53 45 31 56
REMARK Flexibility Score: inf
ROOT
ATOM      1  C   UNL A   1      45.221  22.260  24.066  1.00  0.00     0.117 C 
ENDROOT
BRANCH   1   2
ATOM      2  N   UNL A   1      45.793  22.573  25.362  1.00  0.00    -0.356 N 
ATOM      3  C   UNL A   1      46.475  23.677  25.784  1.00  0.00     0.227 C 
ATOM      4  O   UNL A   1      47.063  23.585  26.863  1.00  0.00    -0.274 OA
ATOM      5  H   UNL A   1      45.668  21.876  26.046  1.00  0.00     0.163 HD
BRANCH   3   6
ATOM      6  C   UNL A   1      46.484  24.958  24.931  1.00  0.00     0.108 C 
ATOM      7  C   UNL A   1      47.878  25.173  24.334  1.00  0.00     0.023 C 
BRANCH   6   8
ATOM      8  C   UNL A   1      45.965  26.154  25.728  1.00  0.00     0.000 A 
ATOM      9  C   UNL A   1      44.658  26.645  25.625  1.00  0.00     0.011 A 
ATOM     10  C   UNL A   1      46.837  26.824  26.596  1.00  0.00     0.130 A 
ATOM     11  C   UNL A   1      44.264  27.770  26.358  1.00  0.00     0.047 A 
ATOM     12  C   UNL A   1      46.451  27.959  27.313  1.00  0.00     0.086 A 
ATOM     13  F   UNL A   1      48.090  26.369  26.755  1.00  0.00    -0.207 F 
ATOM     14  C   UNL A   1      45.155  28.439  27.201  1.00  0.00     0.123 A 
BRANCH  14  15
ATOM     15  O   UNL A   1      44.608  29.517  27.824  1.00  0.00    -0.483 OA
BRANCH  15  16
ATOM     16  C   UNL A   1      44.405  30.745  27.174  1.00  0.00     0.239 C 
ATOM     17  C   UNL A   1      43.866  31.856  28.086  1.00  0.00     0.054 C 
ATOM     18  C   UNL A   1      45.457  31.451  26.321  1.00  0.00     0.173 C 
ATOM     19  C   UNL A   1      44.759  33.078  27.874  1.00  0.00     0.012 C 
ATOM     20  C   UNL A   1      45.371  32.943  26.487  1.00  0.00     0.080 C 
ATOM     21  O   UNL A   1      46.226  30.898  25.549  1.00  0.00    -0.296 OA
ENDBRANCH  15  16
ENDBRANCH  14  15
ENDBRANCH   6   8
ENDBRANCH   3   6
ENDBRANCH   1   2
BRANCH   1  22
ATOM     22  C   UNL A   1      45.021  20.752  23.900  1.00  0.00     0.042 C 
BRANCH  22  23
ATOM     23  C   UNL A   1      44.636  20.022  25.182  1.00  0.00     0.118 C 
BRANCH  23  24
ATOM     24  N   UNL A   1      43.262  19.550  25.165  1.00  0.00    -0.352 N 
ATOM     25  C   UNL A   1      42.156  20.038  25.809  1.00  0.00     0.251 C 
ATOM     26  H   UNL A   1      43.102  18.755  24.606  1.00  0.00     0.163 HD
ATOM     27  O   UNL A   1      41.116  19.383  25.794  1.00  0.00    -0.269 OA
BRANCH  25  28
ATOM     28  C   UNL A   1      42.191  21.332  26.533  1.00  0.00     0.039 A 
ATOM     29  C   UNL A   1      42.319  22.506  25.782  1.00  0.00     0.014 A 
ATOM     30  C   UNL A   1      42.180  21.403  27.929  1.00  0.00     0.014 A 
ATOM     31  C   UNL A   1      42.415  23.743  26.425  1.00  0.00     0.010 A 
ATOM     32  C   UNL A   1      42.208  22.642  28.569  1.00  0.00     0.010 A 
ATOM     33  C   UNL A   1      42.352  23.822  27.825  1.00  0.00    -0.014 A 
BRANCH  33  34
ATOM     34  C   UNL A   1      42.499  25.128  28.517  1.00  0.00     0.031 A 
ATOM     35  C   UNL A   1      43.805  25.492  29.173  1.00  0.00     0.074 A 
ATOM     36  C   UNL A   1      41.458  25.978  28.582  1.00  0.00     0.049 A 
ATOM     37  N   UNL A   1      44.125  26.579  29.831  1.00  0.00    -0.248 NA
ATOM     38  C   UNL A   1      44.885  24.497  29.097  1.00  0.00     0.031 C 
ATOM     39  C   UNL A   1      40.126  25.733  28.025  1.00  0.00     0.029 A 
ATOM     40  N   UNL A   1      41.359  27.225  29.147  1.00  0.00    -0.354 N 
ATOM     41  C   UNL A   1      45.432  26.389  30.261  1.00  0.00     0.074 A 
ATOM     42  C   UNL A   1      45.830  25.065  29.831  1.00  0.00     0.031 C 
ATOM     43  C   UNL A   1      39.351  26.805  28.256  1.00  0.00     0.029 A 
ATOM     44  C   UNL A   1      40.122  27.800  28.996  1.00  0.00     0.049 A 
ATOM     45  H   UNL A   1      42.104  27.664  29.617  1.00  0.00     0.167 HD
ATOM     46  C   UNL A   1      46.241  27.242  30.934  1.00  0.00     0.031 A 
ATOM     47  C   UNL A   1      39.662  28.999  29.400  1.00  0.00     0.031 A 
ATOM     48  C   UNL A   1      45.858  28.564  31.351  1.00  0.00     0.049 A 
ATOM     49  C   UNL A   1      40.584  29.943  30.117  1.00  0.00     0.074 A 
ATOM     50  C   UNL A   1      46.617  29.518  32.007  1.00  0.00     0.029 A 
ATOM     51  N   UNL A   1      44.606  29.122  31.144  1.00  0.00    -0.354 N 
ATOM     52  N   UNL A   1      41.835  29.767  30.470  1.00  0.00    -0.248 NA
ATOM     53  C   UNL A   1      40.036  31.260  30.471  1.00  0.00     0.031 C 
ATOM     54  C   UNL A   1      45.815  30.644  32.222  1.00  0.00     0.029 A 
ATOM     55  C   UNL A   1      44.570  30.405  31.663  1.00  0.00     0.049 A 
ATOM     56  H   UNL A   1      43.854  28.672  30.696  1.00  0.00     0.167 HD
ATOM     57  C   UNL A   1      42.231  30.959  31.061  1.00  0.00     0.074 A 
ATOM     58  C   UNL A   1      41.093  31.854  31.008  1.00  0.00     0.031 C 
ATOM     59  C   UNL A   1      43.432  31.284  31.599  1.00  0.00     0.031 A 
BRANCH  46  60
ATOM     60  C   UNL A   1      47.625  26.758  31.259  1.00  0.00    -0.014 A 
ATOM     61  C   UNL A   1      47.891  26.072  32.456  1.00  0.00     0.009 A 
ATOM     62  C   UNL A   1      48.677  26.980  30.357  1.00  0.00     0.009 A 
ATOM     63  C   UNL A   1      49.189  25.660  32.761  1.00  0.00     0.001 A 
ATOM     64  C   UNL A   1      49.968  26.541  30.653  1.00  0.00     0.001 A 
ATOM     65  C   UNL A   1      50.225  25.892  31.859  1.00  0.00     0.000 A 
ENDBRANCH  46  60
BRANCH  47  66
ATOM     66  C   UNL A   1      38.261  29.390  29.099  1.00  0.00    -0.014 A 
ATOM     67  C   UNL A   1      37.911  29.857  27.823  1.00  0.00     0.009 A 
ATOM     68  C   UNL A   1      37.267  29.292  30.084  1.00  0.00     0.009 A 
ATOM     69  C   UNL A   1      36.596  30.238  27.545  1.00  0.00     0.001 A 
ATOM     70  C   UNL A   1      35.948  29.652  29.797  1.00  0.00     0.001 A 
ATOM     71  C   UNL A   1      35.616  30.131  28.531  1.00  0.00     0.000 A 
ENDBRANCH  47  66
BRANCH  59  72
ATOM     72  C   UNL A   1      43.587  32.677  32.136  1.00  0.00    -0.014 A 
ATOM     73  C   UNL A   1      43.328  32.973  33.483  1.00  0.00     0.009 A 
ATOM     74  C   UNL A   1      44.030  33.702  31.286  1.00  0.00     0.009 A 
ATOM     75  C   UNL A   1      43.476  34.277  33.960  1.00  0.00     0.001 A 
ATOM     76  C   UNL A   1      44.200  35.001  31.771  1.00  0.00     0.001 A 
ATOM     77  C   UNL A   1      43.914  35.287  33.105  1.00  0.00     0.000 A 
ENDBRANCH  59  72
ENDBRANCH  33  34
ENDBRANCH  25  28
ENDBRANCH  23  24
ENDBRANCH  22  23
ENDBRANCH   1  22
TORSDOF 13
ENDMDL
MODEL 2
REMARK VINA RESULT:      -9.0      4.460     10.619
REMARK SMILES C[C@@H](C(=O)NCCCNC(=O)c1ccc(-c2c3nc(c(-c4ccccc4)c4ccc([nH]4)c(-c4ccccc4)c4nc(c(-c5ccccc5)c5ccc2[nH]5)C=C4)C=C3)cc1)c1ccc(O[C@H]2CCCC2=O)cc1F
REMARK SMILES IDX 6 1 5 2 3 3 4 4 2 6 1 7 60 8 61 9 72 10 62 11 71 12 73 13
REMARK SMILES IDX 63 14 64 15 65 16 66 17 69 18 67 19 68 20 70 21 7 22 8 23
REMARK SMILES IDX 9 24 10 25 11 27 12 28 13 29 59 30 14 31 58 32 15 33 16 34
REMARK SMILES IDX 17 35 52 36 18 37 57 38 51 39 53 40 19 41 56 42 50 43 49 44
REMARK SMILES IDX 20 46 42 47 27 48 41 49 28 50 31 51 40 52 54 53 29 54 30 55
REMARK SMILES IDX 39 57 55 58 32 59 21 60 22 61 26 62 23 63 25 64 24 65 43 66
REMARK SMILES IDX 44 67 48 68 45 69 47 70 46 71 33 72 34 73 38 74 35 75 37 76
REMARK SMILES IDX 36 77
REMARK H PARENT 5 5 9 26 53 45 31 56
REMARK Flexibility Score: inf
ROOT
ATOM      1  C   UNL A   1      33.941  34.420  32.908  1.00  0.00     0.117 C 
ENDROOT
BRANCH   1   2
ATOM      2  N   UNL A   1      35.319  34.850  32.768  1.00  0.00    -0.356 N 
ATOM      3  C   UNL A   1      36.427  34.514  33.491  1.00  0.00     0.227 C 
ATOM      4  O   UNL A   1      37.431  35.208  33.319  1.00  0.00    -0.274 OA
ATOM      5  H   UNL A   1      35.481  35.485  32.034  1.00  0.00     0.163 HD
BRANCH   3   6
ATOM      6  C   UNL A   1      36.390  33.319  34.461  1.00  0.00     0.108 C 
ATOM      7  C   UNL A   1      36.180  33.821  35.893  1.00  0.00     0.023 C 
BRANCH   6   8
ATOM      8  C   UNL A   1      37.626  32.436  34.293  1.00  0.00     0.000 A 
ATOM      9  C   UNL A   1      38.886  32.759  34.810  1.00  0.00     0.011 A 
ATOM     10  C   UNL A   1      37.517  31.245  33.562  1.00  0.00     0.130 A 
ATOM     11  C   UNL A   1      39.981  31.920  34.584  1.00  0.00     0.047 A 
ATOM     12  C   UNL A   1      38.614  30.416  33.318  1.00  0.00     0.086 A 
ATOM     13  F   UNL A   1      36.322  30.876  33.076  1.00  0.00    -0.207 F 
ATOM     14  C   UNL A   1      39.859  30.748  33.832  1.00  0.00     0.123 A 
BRANCH  14  15
ATOM     15  O   UNL A   1      41.025  30.061  33.701  1.00  0.00    -0.483 OA
BRANCH  15  16
ATOM     16  C   UNL A   1      41.176  28.737  34.142  1.00  0.00     0.239 C 
ATOM     17  C   UNL A   1      42.158  27.906  33.304  1.00  0.00     0.054 C 
ATOM     18  C   UNL A   1      41.499  28.341  35.581  1.00  0.00     0.173 C 
ATOM     19  C   UNL A   1      43.126  27.242  34.281  1.00  0.00     0.012 C 
ATOM     20  C   UNL A   1      42.407  27.143  35.619  1.00  0.00     0.080 C 
ATOM     21  O   UNL A   1      41.036  28.871  36.579  1.00  0.00    -0.296 OA
ENDBRANCH  15  16
ENDBRANCH  14  15
ENDBRANCH   6   8
ENDBRANCH   3   6
ENDBRANCH   1   2
BRANCH   1  22
ATOM     22  C   UNL A   1      32.981  35.428  32.274  1.00  0.00     0.042 C 
BRANCH  22  23
ATOM     23  C   UNL A   1      33.424  35.949  30.910  1.00  0.00     0.118 C 
BRANCH  23  24
ATOM     24  N   UNL A   1      32.834  35.206  29.810  1.00  0.00    -0.352 N 
ATOM     25  C   UNL A   1      33.384  34.244  29.003  1.00  0.00     0.251 C 
ATOM     26  H   UNL A   1      31.896  35.429  29.613  1.00  0.00     0.163 HD
ATOM     27  O   UNL A   1      32.759  33.863  28.016  1.00  0.00    -0.269 OA
BRANCH  25  28
ATOM     28  C   UNL A   1      34.717  33.664  29.291  1.00  0.00     0.039 A 
ATOM     29  C   UNL A   1      35.822  34.169  28.596  1.00  0.00     0.014 A 
ATOM     30  C   UNL A   1      34.886  32.588  30.167  1.00  0.00     0.014 A 
ATOM     31  C   UNL A   1      37.089  33.612  28.792  1.00  0.00     0.010 A 
ATOM     32  C   UNL A   1      36.160  32.077  30.414  1.00  0.00     0.010 A 
ATOM     33  C   UNL A   1      37.270  32.567  29.709  1.00  0.00    -0.014 A 
BRANCH  33  34
ATOM     34  C   UNL A   1      38.605  31.940  29.890  1.00  0.00     0.031 A 
ATOM     35  C   UNL A   1      39.687  32.670  30.639  1.00  0.00     0.074 A 
ATOM     36  C   UNL A   1      38.857  30.727  29.363  1.00  0.00     0.049 A 
ATOM     37  N   UNL A   1      40.916  32.292  30.893  1.00  0.00    -0.248 NA
ATOM     38  C   UNL A   1      39.353  34.008  31.151  1.00  0.00     0.031 C 
ATOM     39  C   UNL A   1      37.911  29.928  28.581  1.00  0.00     0.029 A 
ATOM     40  N   UNL A   1      39.990  29.954  29.409  1.00  0.00    -0.354 N 
ATOM     41  C   UNL A   1      41.502  33.351  31.575  1.00  0.00     0.074 A 
ATOM     42  C   UNL A   1      40.512  34.403  31.654  1.00  0.00     0.031 C 
ATOM     43  C   UNL A   1      38.496  28.768  28.240  1.00  0.00     0.029 A 
ATOM     44  C   UNL A   1      39.861  28.751  28.758  1.00  0.00     0.049 A 
ATOM     45  H   UNL A   1      40.816  30.235  29.863  1.00  0.00     0.167 HD
ATOM     46  C   UNL A   1      42.744  33.438  32.110  1.00  0.00     0.031 A 
ATOM     47  C   UNL A   1      40.740  27.745  28.603  1.00  0.00     0.031 A 
ATOM     48  C   UNL A   1      43.728  32.391  32.049  1.00  0.00     0.049 A 
ATOM     49  C   UNL A   1      42.101  27.847  29.230  1.00  0.00     0.074 A 
ATOM     50  C   UNL A   1      45.002  32.369  32.590  1.00  0.00     0.029 A 
ATOM     51  N   UNL A   1      43.543  31.174  31.412  1.00  0.00    -0.354 N 
ATOM     52  N   UNL A   1      42.622  28.835  29.918  1.00  0.00    -0.248 NA
ATOM     53  C   UNL A   1      42.988  26.684  29.078  1.00  0.00     0.031 C 
ATOM     54  C   UNL A   1      45.598  31.148  32.256  1.00  0.00     0.029 A 
ATOM     55  C   UNL A   1      44.680  30.395  31.544  1.00  0.00     0.049 A 
ATOM     56  H   UNL A   1      42.725  30.905  30.937  1.00  0.00     0.167 HD
ATOM     57  C   UNL A   1      43.883  28.403  30.304  1.00  0.00     0.074 A 
ATOM     58  C   UNL A   1      44.045  27.060  29.785  1.00  0.00     0.031 C 
ATOM     59  C   UNL A   1      44.824  29.060  31.025  1.00  0.00     0.031 A 
BRANCH  46  60
ATOM     60  C   UNL A   1      43.100  34.720  32.807  1.00  0.00    -0.014 A 
ATOM     61  C   UNL A   1      43.720  35.774  32.114  1.00  0.00     0.009 A 
ATOM     62  C   UNL A   1      42.806  34.884  34.169  1.00  0.00     0.009 A 
ATOM     63  C   UNL A   1      44.077  36.946  32.782  1.00  0.00     0.001 A 
ATOM     64  C   UNL A   1      43.140  36.069  34.828  1.00  0.00     0.001 A 
ATOM     65  C   UNL A   1      43.785  37.093  34.137  1.00  0.00     0.000 A 
ENDBRANCH  46  60
BRANCH  47  66
ATOM     66  C   UNL A   1      40.343  26.529  27.849  1.00  0.00    -0.014 A 
ATOM     67  C   UNL A   1      40.758  26.349  26.520  1.00  0.00     0.009 A 
ATOM     68  C   UNL A   1      39.554  25.540  28.455  1.00  0.00     0.009 A 
ATOM     69  C   UNL A   1      40.372  25.212  25.806  1.00  0.00     0.001 A 
ATOM     70  C   UNL A   1      39.189  24.393  27.746  1.00  0.00     0.001 A 
ATOM     71  C   UNL A   1      39.592  24.234  26.421  1.00  0.00     0.000 A 
ENDBRANCH  47  66
BRANCH  59  72
ATOM     72  C   UNL A   1      46.095  28.320  31.329  1.00  0.00    -0.014 A 
ATOM     73  C   UNL A   1      46.229  27.548  32.493  1.00  0.00     0.009 A 
ATOM     74  C   UNL A   1      47.162  28.372  30.419  1.00  0.00     0.009 A 
ATOM     75  C   UNL A   1      47.421  26.872  32.757  1.00  0.00     0.001 A 
ATOM     76  C   UNL A   1      48.345  27.676  30.674  1.00  0.00     0.001 A 
ATOM     77  C   UNL A   1      48.475  26.934  31.846  1.00  0.00     0.000 A 
ENDBRANCH  59  72
ENDBRANCH  33  34
ENDBRANCH  25  28
ENDBRANCH  23  24
ENDBRANCH  22  23
ENDBRANCH   1  22
TORSDOF 13
ENDMDL
MODEL 3
REMARK VINA RESULT:      -9.0      4.499     10.852
REMARK SMILES C[C@@H](C(=O)NCCCNC(=O)c1ccc(-c2c3nc(c(-c4ccccc4)c4ccc([nH]4)c(-c4ccccc4)c4nc(c(-c5ccccc5)c5ccc2[nH]5)C=C4)C=C3)cc1)c1ccc(O[C@H]2CCCC2=O)cc1F
REMARK SMILES IDX 6 1 5 2 3 3 4 4 2 6 1 7 60 8 61 9 72 10 62 11 71 12 73 13
REMARK SMILES IDX 63 14 64 15 65 16 66 17 69 18 67 19 68 20 70 21 7 22 8 23
REMARK SMILES IDX 9 24 10 25 11 27 12 28 13 29 59 30 14 31 58 32 15 33 16 34
REMARK SMILES IDX 17 35 52 36 18 37 57 38 51 39 53 40 19 41 56 42 50 43 49 44
REMARK SMILES IDX 20 46 42 47 27 48 41 49 28 50 31 51 40 52 54 53 29 54 30 55
REMARK SMILES IDX 39 57 55 58 32 59 21 60 22 61 26 62 23 63 25 64 24 65 43 66
REMARK SMILES IDX 44 67 48 68 45 69 47 70 46 71 33 72 34 73 38 74 35 75 37 76
REMARK SMILES IDX 36 77
REMARK H PARENT 5 5 9 26 53 45 31 56
REMARK Flexibility Score: inf
ROOT
ATOM      1  C   UNL A   1      33.874  34.576  32.671  1.00  0.00     0.117 C 
ENDROOT
BRANCH   1   2
ATOM      2  N   UNL A   1      35.260  34.999  32.618  1.00  0.00    -0.356 N 
ATOM      3  C   UNL A   1      36.323  34.642  33.396  1.00  0.00     0.227 C 
ATOM      4  O   UNL A   1      37.339  35.332  33.296  1.00  0.00    -0.274 OA
ATOM      5  H   UNL A   1      35.467  35.647  31.907  1.00  0.00     0.163 HD
BRANCH   3   6
ATOM      6  C   UNL A   1      36.225  33.429  34.339  1.00  0.00     0.108 C 
ATOM      7  C   UNL A   1      35.856  33.898  35.750  1.00  0.00     0.023 C 
BRANCH   6   8
ATOM      8  C   UNL A   1      37.496  32.583  34.283  1.00  0.00     0.000 A 
ATOM      9  C   UNL A   1      38.698  32.951  34.899  1.00  0.00     0.011 A 
ATOM     10  C   UNL A   1      37.485  31.384  33.559  1.00  0.00     0.130 A 
ATOM     11  C   UNL A   1      39.834  32.144  34.773  1.00  0.00     0.047 A 
ATOM     12  C   UNL A   1      38.623  30.588  33.415  1.00  0.00     0.086 A 
ATOM     13  F   UNL A   1      36.346  30.973  32.979  1.00  0.00    -0.207 F 
ATOM     14  C   UNL A   1      39.810  30.963  34.027  1.00  0.00     0.123 A 
BRANCH  14  15
ATOM     15  O   UNL A   1      41.004  30.312  33.999  1.00  0.00    -0.483 OA
BRANCH  15  16
ATOM     16  C   UNL A   1      41.116  28.928  34.208  1.00  0.00     0.239 C 
ATOM     17  C   UNL A   1      41.765  28.169  33.042  1.00  0.00     0.054 C 
ATOM     18  C   UNL A   1      41.739  28.293  35.449  1.00  0.00     0.173 C 
ATOM     19  C   UNL A   1      42.867  27.295  33.639  1.00  0.00     0.012 C 
ATOM     20  C   UNL A   1      42.493  27.042  35.092  1.00  0.00     0.080 C 
ATOM     21  O   UNL A   1      41.596  28.694  36.594  1.00  0.00    -0.296 OA
ENDBRANCH  15  16
ENDBRANCH  14  15
ENDBRANCH   6   8
ENDBRANCH   3   6
ENDBRANCH   1   2
BRANCH   1  22
ATOM     22  C   UNL A   1      32.968  35.558  31.925  1.00  0.00     0.042 C 
BRANCH  22  23
ATOM     23  C   UNL A   1      33.433  35.897  30.512  1.00  0.00     0.118 C 
BRANCH  23  24
ATOM     24  N   UNL A   1      32.752  35.111  29.497  1.00  0.00    -0.352 N 
ATOM     25  C   UNL A   1      33.231  34.112  28.690  1.00  0.00     0.251 C 
ATOM     26  H   UNL A   1      31.802  35.331  29.369  1.00  0.00     0.163 HD
ATOM     27  O   UNL A   1      32.527  33.694  27.774  1.00  0.00    -0.269 OA
BRANCH  25  28
ATOM     28  C   UNL A   1      34.582  33.537  28.892  1.00  0.00     0.039 A 
ATOM     29  C   UNL A   1      34.742  32.552  29.872  1.00  0.00     0.014 A 
ATOM     30  C   UNL A   1      35.700  34.003  28.192  1.00  0.00     0.014 A 
ATOM     31  C   UNL A   1      36.009  32.023  30.136  1.00  0.00     0.010 A 
ATOM     32  C   UNL A   1      36.953  33.428  28.408  1.00  0.00     0.010 A 
ATOM     33  C   UNL A   1      37.124  32.451  29.400  1.00  0.00    -0.014 A 
BRANCH  33  34
ATOM     34  C   UNL A   1      38.480  31.928  29.706  1.00  0.00     0.031 A 
ATOM     35  C   UNL A   1      38.896  30.570  29.205  1.00  0.00     0.074 A 
ATOM     36  C   UNL A   1      39.332  32.656  30.451  1.00  0.00     0.049 A 
ATOM     37  N   UNL A   1      40.032  29.939  29.374  1.00  0.00    -0.248 NA
ATOM     38  C   UNL A   1      37.900  29.814  28.432  1.00  0.00     0.031 C 
ATOM     39  C   UNL A   1      39.042  33.969  31.033  1.00  0.00     0.029 A 
ATOM     40  N   UNL A   1      40.619  32.392  30.847  1.00  0.00    -0.354 N 
ATOM     41  C   UNL A   1      39.877  28.710  28.747  1.00  0.00     0.074 A 
ATOM     42  C   UNL A   1      38.525  28.664  28.234  1.00  0.00     0.031 C 
ATOM     43  C   UNL A   1      40.128  34.405  31.691  1.00  0.00     0.029 A 
ATOM     44  C   UNL A   1      41.179  33.396  31.598  1.00  0.00     0.049 A 
ATOM     45  H   UNL A   1      41.094  31.562  30.616  1.00  0.00     0.167 HD
ATOM     46  C   UNL A   1      40.782  27.714  28.588  1.00  0.00     0.031 A 
ATOM     47  C   UNL A   1      42.406  33.496  32.144  1.00  0.00     0.031 A 
ATOM     48  C   UNL A   1      42.132  27.758  29.081  1.00  0.00     0.049 A 
ATOM     49  C   UNL A   1      43.404  32.395  31.931  1.00  0.00     0.074 A 
ATOM     50  C   UNL A   1      43.135  26.814  28.940  1.00  0.00     0.029 A 
ATOM     51  N   UNL A   1      42.671  28.810  29.804  1.00  0.00    -0.354 N 
ATOM     52  N   UNL A   1      43.258  31.261  31.288  1.00  0.00    -0.248 NA
ATOM     53  C   UNL A   1      44.745  32.599  32.498  1.00  0.00     0.031 C 
ATOM     54  C   UNL A   1      44.274  27.284  29.604  1.00  0.00     0.029 A 
ATOM     55  C   UNL A   1      43.990  28.538  30.121  1.00  0.00     0.049 A 
ATOM     56  H   UNL A   1      42.186  29.628  30.057  1.00  0.00     0.167 HD
ATOM     57  C   UNL A   1      44.493  30.630  31.350  1.00  0.00     0.074 A 
ATOM     58  C   UNL A   1      45.380  31.512  32.081  1.00  0.00     0.031 C 
ATOM     59  C   UNL A   1      44.860  29.427  30.846  1.00  0.00     0.031 A 
BRANCH  46  60
ATOM     60  C   UNL A   1      40.326  26.489  27.847  1.00  0.00    -0.014 A 
ATOM     61  C   UNL A   1      40.675  26.283  26.502  1.00  0.00     0.009 A 
ATOM     62  C   UNL A   1      39.547  25.522  28.501  1.00  0.00     0.009 A 
ATOM     63  C   UNL A   1      40.215  25.158  25.816  1.00  0.00     0.001 A 
ATOM     64  C   UNL A   1      39.111  24.384  27.819  1.00  0.00     0.001 A 
ATOM     65  C   UNL A   1      39.436  24.209  26.475  1.00  0.00     0.000 A 
ENDBRANCH  46  60
BRANCH  47  66
ATOM     66  C   UNL A   1      42.770  34.709  32.918  1.00  0.00    -0.014 A 
ATOM     67  C   UNL A   1      42.574  34.753  34.307  1.00  0.00     0.009 A 
ATOM     68  C   UNL A   1      43.323  35.826  32.274  1.00  0.00     0.009 A 
ATOM     69  C   UNL A   1      42.904  35.901  35.032  1.00  0.00     0.001 A 
ATOM     70  C   UNL A   1      43.674  36.963  33.005  1.00  0.00     0.001 A 
ATOM     71  C   UNL A   1      43.457  37.002  34.381  1.00  0.00     0.000 A 
ENDBRANCH  47  66
BRANCH  59  72
ATOM     72  C   UNL A   1      46.292  29.014  31.032  1.00  0.00    -0.014 A 
ATOM     73  C   UNL A   1      47.252  29.239  30.034  1.00  0.00     0.009 A 
ATOM     74  C   UNL A   1      46.690  28.419  32.239  1.00  0.00     0.009 A 
ATOM     75  C   UNL A   1      48.577  28.844  30.228  1.00  0.00     0.001 A 
ATOM     76  C   UNL A   1      48.020  28.046  32.440  1.00  0.00     0.001 A 
ATOM     77  C   UNL A   1      48.959  28.250  31.430  1.00  0.00     0.000 A 
ENDBRANCH  59  72
ENDBRANCH  33  34
ENDBRANCH  25  28
ENDBRANCH  23  24
ENDBRANCH  22  23
ENDBRANCH   1  22
TORSDOF 13
ENDMDL
