MODEL 1
REMARK VINA RESULT:     -11.1      0.000      0.000
REMARK SMILES CCOc1cccc(C(=O)NCCCNC(=O)c2ccc(-c3c4nc(c(-c5ccccc5)c5ccc([nH]5)c(-c5ccccc5)c5nc(c(-c6ccccc6)c6ccc3[nH]6)C=C5)C=C4)cc2)c1OCc1ccc(Br)cc1
REMARK SMILES IDX 12 1 11 2 9 3 10 4 8 6 4 7 5 8 66 9 6 10 7 11 3 12 2 13 1 14
REMARK SMILES IDX 67 15 68 16 69 17 70 18 75 19 71 20 74 21 72 22 73 23 13 24
REMARK SMILES IDX 14 25 15 26 16 27 17 29 18 30 19 31 65 32 20 33 64 34 21 35
REMARK SMILES IDX 22 36 23 37 58 38 24 39 63 40 57 41 59 42 25 43 62 44 56 45
REMARK SMILES IDX 55 46 26 48 48 49 33 50 47 51 34 52 37 53 46 54 60 55 35 56
REMARK SMILES IDX 36 57 45 59 61 60 38 61 27 62 28 63 32 64 29 65 31 66 30 67
REMARK SMILES IDX 49 68 50 69 54 70 51 71 53 72 52 73 39 74 40 75 44 76 41 77
REMARK SMILES IDX 43 78 42 79
REMARK H PARENT 11 5 15 28 59 47 37 58
REMARK Flexibility Score: inf
ROOT
ATOM      1  C   UNL A   1      31.437  30.603  25.731  1.00  0.00     0.118 C 
ENDROOT
BRANCH   1   2
ATOM      2  N   UNL A   1      32.274  29.630  26.424  1.00  0.00    -0.352 N 
ATOM      3  C   UNL A   1      33.071  28.612  25.902  1.00  0.00     0.255 C 
ATOM      4  O   UNL A   1      33.757  27.944  26.674  1.00  0.00    -0.269 OA
ATOM      5  H   UNL A   1      32.278  29.704  27.406  1.00  0.00     0.163 HD
BRANCH   3   6
ATOM      6  C   UNL A   1      33.018  28.232  24.456  1.00  0.00     0.085 A 
ATOM      7  C   UNL A   1      32.634  26.405  22.977  1.00  0.00     0.162 A 
ATOM      8  C   UNL A   1      33.569  26.910  22.073  1.00  0.00     0.050 A 
ATOM      9  C   UNL A   1      32.177  27.223  24.010  1.00  0.00     0.174 A 
ATOM     10  C   UNL A   1      34.146  28.162  22.320  1.00  0.00     0.005 A 
ATOM     11  C   UNL A   1      33.946  28.773  23.562  1.00  0.00     0.018 A 
BRANCH   7  12
ATOM     12  O   UNL A   1      32.607  25.058  23.258  1.00  0.00    -0.490 OA
BRANCH  12  13
ATOM     13  C   UNL A   1      33.742  24.265  22.950  1.00  0.00     0.226 C 
ATOM     14  C   UNL A   1      33.241  23.243  21.933  1.00  0.00     0.049 C 
ENDBRANCH  12  13
ENDBRANCH   7  12
BRANCH   9  15
ATOM     15  O   UNL A   1      30.950  27.178  24.615  1.00  0.00    -0.484 OA
BRANCH  15  16
ATOM     16  C   UNL A   1      29.760  27.022  23.857  1.00  0.00     0.265 C 
BRANCH  16  17
ATOM     17  C   UNL A   1      29.257  28.234  23.109  1.00  0.00    -0.011 A 
ATOM     18  C   UNL A   1      30.189  28.971  22.361  1.00  0.00     0.008 A 
ATOM     19  C   UNL A   1      27.931  28.683  23.167  1.00  0.00     0.008 A 
ATOM     20  C   UNL A   1      29.812  30.145  21.709  1.00  0.00     0.016 A 
ATOM     21  C   UNL A   1      27.557  29.872  22.537  1.00  0.00     0.016 A 
ATOM     22  C   UNL A   1      28.499  30.597  21.812  1.00  0.00     0.017 A 
ATOM     23  Br  UNL A   1      27.994  32.208  20.966  1.00  0.00    -0.051 Br
ENDBRANCH  16  17
ENDBRANCH  15  16
ENDBRANCH   9  15
ENDBRANCH   3   6
ENDBRANCH   1   2
BRANCH   1  24
ATOM     24  C   UNL A   1      31.234  31.946  26.397  1.00  0.00     0.042 C 
BRANCH  24  25
ATOM     25  C   UNL A   1      32.445  32.483  27.131  1.00  0.00     0.118 C 
BRANCH  25  26
ATOM     26  N   UNL A   1      32.314  33.873  27.566  1.00  0.00    -0.352 N 
ATOM     27  C   UNL A   1      33.063  34.653  28.423  1.00  0.00     0.251 C 
ATOM     28  H   UNL A   1      31.542  34.342  27.173  1.00  0.00     0.163 HD
ATOM     29  O   UNL A   1      32.667  35.774  28.710  1.00  0.00    -0.269 OA
BRANCH  27  30
ATOM     30  C   UNL A   1      34.315  34.143  29.035  1.00  0.00     0.039 A 
ATOM     31  C   UNL A   1      34.241  33.373  30.201  1.00  0.00     0.014 A 
ATOM     32  C   UNL A   1      35.563  34.412  28.479  1.00  0.00     0.014 A 
ATOM     33  C   UNL A   1      35.402  32.802  30.735  1.00  0.00     0.010 A 
ATOM     34  C   UNL A   1      36.684  33.718  28.911  1.00  0.00     0.010 A 
ATOM     35  C   UNL A   1      36.627  32.920  30.059  1.00  0.00    -0.014 A 
BRANCH  35  36
ATOM     36  C   UNL A   1      37.859  32.245  30.544  1.00  0.00     0.031 A 
ATOM     37  C   UNL A   1      38.631  32.813  31.709  1.00  0.00     0.074 A 
ATOM     38  C   UNL A   1      38.321  31.155  29.899  1.00  0.00     0.049 A 
ATOM     39  N   UNL A   1      39.741  32.382  32.254  1.00  0.00    -0.248 NA
ATOM     40  C   UNL A   1      38.112  34.049  32.320  1.00  0.00     0.031 C 
ATOM     41  C   UNL A   1      37.712  30.545  28.714  1.00  0.00     0.029 A 
ATOM     42  N   UNL A   1      39.414  30.364  30.151  1.00  0.00    -0.354 N 
ATOM     43  C   UNL A   1      40.058  33.303  33.246  1.00  0.00     0.074 A 
ATOM     44  C   UNL A   1      39.069  34.354  33.181  1.00  0.00     0.031 C 
ATOM     45  C   UNL A   1      38.405  29.446  28.378  1.00  0.00     0.029 A 
ATOM     46  C   UNL A   1      39.534  29.300  29.289  1.00  0.00     0.049 A 
ATOM     47  H   UNL A   1      40.052  30.542  30.880  1.00  0.00     0.167 HD
ATOM     48  C   UNL A   1      41.061  33.265  34.155  1.00  0.00     0.031 A 
ATOM     49  C   UNL A   1      40.448  28.313  29.242  1.00  0.00     0.031 A 
ATOM     50  C   UNL A   1      42.033  32.210  34.234  1.00  0.00     0.049 A 
ATOM     51  C   UNL A   1      41.546  28.286  30.268  1.00  0.00     0.074 A 
ATOM     52  C   UNL A   1      43.049  32.041  35.158  1.00  0.00     0.029 A 
ATOM     53  N   UNL A   1      42.111  31.143  33.353  1.00  0.00    -0.354 N 
ATOM     54  N   UNL A   1      41.779  29.118  31.254  1.00  0.00    -0.248 NA
ATOM     55  C   UNL A   1      42.497  27.169  30.184  1.00  0.00     0.031 C 
ATOM     56  C   UNL A   1      43.778  30.902  34.800  1.00  0.00     0.029 A 
ATOM     57  C   UNL A   1      43.173  30.325  33.694  1.00  0.00     0.049 A 
ATOM     58  H   UNL A   1      41.499  30.990  32.596  1.00  0.00     0.167 HD
ATOM     59  C   UNL A   1      42.885  28.613  31.924  1.00  0.00     0.074 A 
ATOM     60  C   UNL A   1      43.258  27.388  31.247  1.00  0.00     0.031 C 
ATOM     61  C   UNL A   1      43.536  29.115  33.002  1.00  0.00     0.031 A 
BRANCH  48  62
ATOM     62  C   UNL A   1      41.150  34.404  35.136  1.00  0.00    -0.014 A 
ATOM     63  C   UNL A   1      41.941  35.536  34.874  1.00  0.00     0.009 A 
ATOM     64  C   UNL A   1      40.415  34.357  36.331  1.00  0.00     0.009 A 
ATOM     65  C   UNL A   1      42.029  36.573  35.805  1.00  0.00     0.001 A 
ATOM     66  C   UNL A   1      40.476  35.412  37.244  1.00  0.00     0.001 A 
ATOM     67  C   UNL A   1      41.292  36.513  36.986  1.00  0.00     0.000 A 
ENDBRANCH  48  62
BRANCH  49  68
ATOM     68  C   UNL A   1      40.349  27.251  28.204  1.00  0.00    -0.014 A 
ATOM     69  C   UNL A   1      39.610  26.083  28.447  1.00  0.00     0.009 A 
ATOM     70  C   UNL A   1      41.001  27.394  26.969  1.00  0.00     0.009 A 
ATOM     71  C   UNL A   1      39.550  25.068  27.489  1.00  0.00     0.001 A 
ATOM     72  C   UNL A   1      40.913  26.393  26.000  1.00  0.00     0.001 A 
ATOM     73  C   UNL A   1      40.197  25.225  26.265  1.00  0.00     0.000 A 
ENDBRANCH  49  68
BRANCH  61  74
ATOM     74  C   UNL A   1      44.698  28.319  33.529  1.00  0.00    -0.014 A 
ATOM     75  C   UNL A   1      44.512  27.261  34.433  1.00  0.00     0.009 A 
ATOM     76  C   UNL A   1      45.999  28.625  33.099  1.00  0.00     0.009 A 
ATOM     77  C   UNL A   1      45.610  26.562  34.936  1.00  0.00     0.001 A 
ATOM     78  C   UNL A   1      47.091  27.899  33.574  1.00  0.00     0.001 A 
ATOM     79  C   UNL A   1      46.897  26.879  34.504  1.00  0.00     0.000 A 
ENDBRANCH  61  74
ENDBRANCH  35  36
ENDBRANCH  27  30
ENDBRANCH  25  26
ENDBRANCH  24  25
ENDBRANCH   1  24
TORSDOF 15
ENDMDL
MODEL 2
REMARK VINA RESULT:     -11.1      1.834      3.329
REMARK SMILES CCOc1cccc(C(=O)NCCCNC(=O)c2ccc(-c3c4nc(c(-c5ccccc5)c5ccc([nH]5)c(-c5ccccc5)c5nc(c(-c6ccccc6)c6ccc3[nH]6)C=C5)C=C4)cc2)c1OCc1ccc(Br)cc1
REMARK SMILES IDX 12 1 11 2 9 3 10 4 8 6 4 7 5 8 66 9 6 10 7 11 3 12 2 13 1 14
REMARK SMILES IDX 67 15 68 16 69 17 70 18 75 19 71 20 74 21 72 22 73 23 13 24
REMARK SMILES IDX 14 25 15 26 16 27 17 29 18 30 19 31 65 32 20 33 64 34 21 35
REMARK SMILES IDX 22 36 23 37 58 38 24 39 63 40 57 41 59 42 25 43 62 44 56 45
REMARK SMILES IDX 55 46 26 48 48 49 33 50 47 51 34 52 37 53 46 54 60 55 35 56
REMARK SMILES IDX 36 57 45 59 61 60 38 61 27 62 28 63 32 64 29 65 31 66 30 67
REMARK SMILES IDX 49 68 50 69 54 70 51 71 53 72 52 73 39 74 40 75 44 76 41 77
REMARK SMILES IDX 43 78 42 79
REMARK H PARENT 11 5 15 28 59 47 37 58
REMARK Flexibility Score: inf
ROOT
ATOM      1  C   UNL A   1      31.481  30.441  25.704  1.00  0.00     0.118 C 
ENDROOT
BRANCH   1   2
ATOM      2  N   UNL A   1      32.676  29.647  25.970  1.00  0.00    -0.352 N 
ATOM      3  C   UNL A   1      32.991  28.352  25.559  1.00  0.00     0.255 C 
ATOM      4  O   UNL A   1      34.097  27.896  25.844  1.00  0.00    -0.269 OA
ATOM      5  H   UNL A   1      33.360  30.091  26.521  1.00  0.00     0.163 HD
BRANCH   3   6
ATOM      6  C   UNL A   1      31.982  27.466  24.898  1.00  0.00     0.085 A 
ATOM      7  C   UNL A   1      30.566  27.278  22.993  1.00  0.00     0.162 A 
ATOM      8  C   UNL A   1      29.600  26.613  23.748  1.00  0.00     0.050 A 
ATOM      9  C   UNL A   1      31.848  27.436  23.518  1.00  0.00     0.174 A 
ATOM     10  C   UNL A   1      29.891  26.268  25.074  1.00  0.00     0.005 A 
ATOM     11  C   UNL A   1      31.042  26.787  25.677  1.00  0.00     0.018 A 
BRANCH   7  12
ATOM     12  O   UNL A   1      30.189  28.252  22.098  1.00  0.00    -0.490 OA
BRANCH  12  13
ATOM     13  C   UNL A   1      29.775  29.518  22.588  1.00  0.00     0.226 C 
ATOM     14  C   UNL A   1      28.294  29.611  22.231  1.00  0.00     0.049 C 
ENDBRANCH  12  13
ENDBRANCH   7  12
BRANCH   9  15
ATOM     15  O   UNL A   1      33.021  27.517  22.818  1.00  0.00    -0.484 OA
BRANCH  15  16
ATOM     16  C   UNL A   1      33.526  26.404  22.095  1.00  0.00     0.265 C 
BRANCH  16  17
ATOM     17  C   UNL A   1      33.558  25.075  22.812  1.00  0.00    -0.011 A 
ATOM     18  C   UNL A   1      34.462  24.930  23.876  1.00  0.00     0.008 A 
ATOM     19  C   UNL A   1      32.776  23.975  22.436  1.00  0.00     0.008 A 
ATOM     20  C   UNL A   1      34.601  23.708  24.533  1.00  0.00     0.016 A 
ATOM     21  C   UNL A   1      32.932  22.742  23.075  1.00  0.00     0.016 A 
ATOM     22  C   UNL A   1      33.844  22.615  24.119  1.00  0.00     0.017 A 
ATOM     23  Br  UNL A   1      34.060  20.946  24.977  1.00  0.00    -0.051 Br
ENDBRANCH  16  17
ENDBRANCH  15  16
ENDBRANCH   9  15
ENDBRANCH   3   6
ENDBRANCH   1   2
BRANCH   1  24
ATOM     24  C   UNL A   1      31.279  31.692  26.530  1.00  0.00     0.042 C 
BRANCH  24  25
ATOM     25  C   UNL A   1      32.552  32.320  27.058  1.00  0.00     0.118 C 
BRANCH  25  26
ATOM     26  N   UNL A   1      32.377  33.672  27.588  1.00  0.00    -0.352 N 
ATOM     27  C   UNL A   1      33.130  34.432  28.460  1.00  0.00     0.251 C 
ATOM     28  H   UNL A   1      31.566  34.126  27.262  1.00  0.00     0.163 HD
ATOM     29  O   UNL A   1      32.696  35.512  28.836  1.00  0.00    -0.269 OA
BRANCH  27  30
ATOM     30  C   UNL A   1      34.432  33.946  28.981  1.00  0.00     0.039 A 
ATOM     31  C   UNL A   1      34.451  33.127  30.115  1.00  0.00     0.014 A 
ATOM     32  C   UNL A   1      35.636  34.287  28.371  1.00  0.00     0.014 A 
ATOM     33  C   UNL A   1      35.659  32.581  30.561  1.00  0.00     0.010 A 
ATOM     34  C   UNL A   1      36.804  33.619  28.712  1.00  0.00     0.010 A 
ATOM     35  C   UNL A   1      36.840  32.774  29.826  1.00  0.00    -0.014 A 
BRANCH  35  36
ATOM     36  C   UNL A   1      38.121  32.128  30.214  1.00  0.00     0.031 A 
ATOM     37  C   UNL A   1      39.047  32.803  31.195  1.00  0.00     0.074 A 
ATOM     38  C   UNL A   1      38.483  30.964  29.639  1.00  0.00     0.049 A 
ATOM     39  N   UNL A   1      40.218  32.408  31.632  1.00  0.00    -0.248 NA
ATOM     40  C   UNL A   1      38.625  34.109  31.729  1.00  0.00     0.031 C 
ATOM     41  C   UNL A   1      37.715  30.241  28.621  1.00  0.00     0.029 A 
ATOM     42  N   UNL A   1      39.594  30.181  29.829  1.00  0.00    -0.354 N 
ATOM     43  C   UNL A   1      40.673  33.424  32.463  1.00  0.00     0.074 A 
ATOM     44  C   UNL A   1      39.692  34.485  32.414  1.00  0.00     0.031 C 
ATOM     45  C   UNL A   1      38.348  29.097  28.320  1.00  0.00     0.029 A 
ATOM     46  C   UNL A   1      39.588  29.026  29.083  1.00  0.00     0.049 A 
ATOM     47  H   UNL A   1      40.326  30.423  30.442  1.00  0.00     0.167 HD
ATOM     48  C   UNL A   1      41.789  33.464  33.230  1.00  0.00     0.031 A 
ATOM     49  C   UNL A   1      40.480  28.019  29.025  1.00  0.00     0.031 A 
ATOM     50  C   UNL A   1      42.755  32.402  33.295  1.00  0.00     0.049 A 
ATOM     51  C   UNL A   1      41.706  28.080  29.892  1.00  0.00     0.074 A 
ATOM     52  C   UNL A   1      43.885  32.312  34.089  1.00  0.00     0.029 A 
ATOM     53  N   UNL A   1      42.704  31.244  32.536  1.00  0.00    -0.354 N 
ATOM     54  N   UNL A   1      42.076  29.010  30.739  1.00  0.00    -0.248 NA
ATOM     55  C   UNL A   1      42.628  26.939  29.807  1.00  0.00     0.031 C 
ATOM     56  C   UNL A   1      44.550  31.124  33.765  1.00  0.00     0.029 A 
ATOM     57  C   UNL A   1      43.797  30.444  32.821  1.00  0.00     0.049 A 
ATOM     58  H   UNL A   1      41.995  31.023  31.889  1.00  0.00     0.167 HD
ATOM     59  C   UNL A   1      43.259  28.555  31.307  1.00  0.00     0.074 A 
ATOM     60  C   UNL A   1      43.527  27.255  30.727  1.00  0.00     0.031 C 
ATOM     61  C   UNL A   1      44.053  29.158  32.226  1.00  0.00     0.031 A 
BRANCH  48  62
ATOM     62  C   UNL A   1      42.019  34.701  34.057  1.00  0.00    -0.014 A 
ATOM     63  C   UNL A   1      42.752  35.790  33.556  1.00  0.00     0.009 A 
ATOM     64  C   UNL A   1      41.476  34.790  35.348  1.00  0.00     0.009 A 
ATOM     65  C   UNL A   1      42.974  36.921  34.346  1.00  0.00     0.001 A 
ATOM     66  C   UNL A   1      41.668  35.936  36.122  1.00  0.00     0.001 A 
ATOM     67  C   UNL A   1      42.426  36.995  35.625  1.00  0.00     0.000 A 
ENDBRANCH  48  62
BRANCH  49  68
ATOM     68  C   UNL A   1      40.233  26.852  28.134  1.00  0.00    -0.014 A 
ATOM     69  C   UNL A   1      39.517  25.739  28.600  1.00  0.00     0.009 A 
ATOM     70  C   UNL A   1      40.720  26.842  26.818  1.00  0.00     0.009 A 
ATOM     71  C   UNL A   1      39.321  24.627  27.778  1.00  0.00     0.001 A 
ATOM     72  C   UNL A   1      40.494  25.742  25.987  1.00  0.00     0.001 A 
ATOM     73  C   UNL A   1      39.805  24.631  26.471  1.00  0.00     0.000 A 
ENDBRANCH  49  68
BRANCH  61  74
ATOM     74  C   UNL A   1      45.269  28.397  32.680  1.00  0.00    -0.014 A 
ATOM     75  C   UNL A   1      46.514  28.562  32.052  1.00  0.00     0.009 A 
ATOM     76  C   UNL A   1      45.168  27.514  33.766  1.00  0.00     0.009 A 
ATOM     77  C   UNL A   1      47.618  27.817  32.468  1.00  0.00     0.001 A 
ATOM     78  C   UNL A   1      46.282  26.799  34.205  1.00  0.00     0.001 A 
ATOM     79  C   UNL A   1      47.502  26.940  33.546  1.00  0.00     0.000 A 
ENDBRANCH  61  74
ENDBRANCH  35  36
ENDBRANCH  27  30
ENDBRANCH  25  26
ENDBRANCH  24  25
ENDBRANCH   1  24
TORSDOF 15
ENDMDL
MODEL 3
REMARK VINA RESULT:     -11.0      5.008      9.199
REMARK SMILES CCOc1cccc(C(=O)NCCCNC(=O)c2ccc(-c3c4nc(c(-c5ccccc5)c5ccc([nH]5)c(-c5ccccc5)c5nc(c(-c6ccccc6)c6ccc3[nH]6)C=C5)C=C4)cc2)c1OCc1ccc(Br)cc1
REMARK SMILES IDX 12 1 11 2 9 3 10 4 8 6 4 7 5 8 66 9 6 10 7 11 3 12 2 13 1 14
REMARK SMILES IDX 67 15 68 16 69 17 70 18 75 19 71 20 74 21 72 22 73 23 13 24
REMARK SMILES IDX 14 25 15 26 16 27 17 29 18 30 19 31 65 32 20 33 64 34 21 35
REMARK SMILES IDX 22 36 23 37 58 38 24 39 63 40 57 41 59 42 25 43 62 44 56 45
REMARK SMILES IDX 55 46 26 48 48 49 33 50 47 51 34 52 37 53 46 54 60 55 35 56
REMARK SMILES IDX 36 57 45 59 61 60 38 61 27 62 28 63 32 64 29 65 31 66 30 67
REMARK SMILES IDX 49 68 50 69 54 70 51 71 53 72 52 73 39 74 40 75 44 76 41 77
REMARK SMILES IDX 43 78 42 79
REMARK H PARENT 11 5 15 28 59 47 37 58
REMARK Flexibility Score: inf
ROOT
ATOM      1  C   UNL A   1      36.510  20.667  25.000  1.00  0.00     0.118 C 
ENDROOT
BRANCH   1   2
ATOM      2  N   UNL A   1      36.652  22.067  25.384  1.00  0.00    -0.352 N 
ATOM      3  C   UNL A   1      35.728  23.108  25.300  1.00  0.00     0.255 C 
ATOM      4  O   UNL A   1      36.039  24.210  25.751  1.00  0.00    -0.269 OA
ATOM      5  H   UNL A   1      37.529  22.313  25.758  1.00  0.00     0.163 HD
BRANCH   3   6
ATOM      6  C   UNL A   1      34.431  22.956  24.570  1.00  0.00     0.085 A 
ATOM      7  C   UNL A   1      32.526  21.546  24.339  1.00  0.00     0.162 A 
ATOM      8  C   UNL A   1      32.434  21.855  22.981  1.00  0.00     0.050 A 
ATOM      9  C   UNL A   1      33.347  22.322  25.157  1.00  0.00     0.174 A 
ATOM     10  C   UNL A   1      33.288  22.826  22.444  1.00  0.00     0.005 A 
ATOM     11  C   UNL A   1      34.354  23.300  23.217  1.00  0.00     0.018 A 
BRANCH   7  12
ATOM     12  O   UNL A   1      32.356  20.248  24.762  1.00  0.00    -0.490 OA
BRANCH  12  13
ATOM     13  C   UNL A   1      32.528  19.190  23.832  1.00  0.00     0.226 C 
ATOM     14  C   UNL A   1      33.744  18.419  24.337  1.00  0.00     0.049 C 
ENDBRANCH  12  13
ENDBRANCH   7  12
BRANCH   9  15
ATOM     15  O   UNL A   1      33.176  22.576  26.491  1.00  0.00    -0.484 OA
BRANCH  15  16
ATOM     16  C   UNL A   1      32.055  23.307  26.964  1.00  0.00     0.265 C 
BRANCH  16  17
ATOM     17  C   UNL A   1      31.760  24.627  26.293  1.00  0.00    -0.011 A 
ATOM     18  C   UNL A   1      30.499  24.790  25.700  1.00  0.00     0.008 A 
ATOM     19  C   UNL A   1      32.695  25.667  26.188  1.00  0.00     0.008 A 
ATOM     20  C   UNL A   1      30.186  25.952  24.995  1.00  0.00     0.016 A 
ATOM     21  C   UNL A   1      32.394  26.820  25.461  1.00  0.00     0.016 A 
ATOM     22  C   UNL A   1      31.142  26.956  24.868  1.00  0.00     0.017 A 
ATOM     23  Br  UNL A   1      30.738  28.514  23.878  1.00  0.00    -0.051 Br
ENDBRANCH  16  17
ENDBRANCH  15  16
ENDBRANCH   9  15
ENDBRANCH   3   6
ENDBRANCH   1   2
BRANCH   1  24
ATOM     24  C   UNL A   1      37.779  19.868  24.803  1.00  0.00     0.042 C 
BRANCH  24  25
ATOM     25  C   UNL A   1      38.907  20.218  25.751  1.00  0.00     0.118 C 
BRANCH  25  26
ATOM     26  N   UNL A   1      39.938  19.187  25.862  1.00  0.00    -0.352 N 
ATOM     27  C   UNL A   1      41.293  19.252  26.113  1.00  0.00     0.251 C 
ATOM     28  H   UNL A   1      39.601  18.271  25.731  1.00  0.00     0.163 HD
ATOM     29  O   UNL A   1      41.963  18.230  26.040  1.00  0.00    -0.269 OA
BRANCH  27  30
ATOM     30  C   UNL A   1      41.959  20.541  26.426  1.00  0.00     0.039 A 
ATOM     31  C   UNL A   1      42.360  21.375  25.376  1.00  0.00     0.014 A 
ATOM     32  C   UNL A   1      42.197  20.941  27.738  1.00  0.00     0.014 A 
ATOM     33  C   UNL A   1      42.900  22.636  25.654  1.00  0.00     0.010 A 
ATOM     34  C   UNL A   1      42.578  22.247  28.011  1.00  0.00     0.010 A 
ATOM     35  C   UNL A   1      42.957  23.108  26.975  1.00  0.00    -0.014 A 
BRANCH  35  36
ATOM     36  C   UNL A   1      43.431  24.479  27.298  1.00  0.00     0.031 A 
ATOM     37  C   UNL A   1      42.452  25.542  27.732  1.00  0.00     0.074 A 
ATOM     38  C   UNL A   1      44.734  24.789  27.142  1.00  0.00     0.049 A 
ATOM     39  N   UNL A   1      42.674  26.798  28.027  1.00  0.00    -0.248 NA
ATOM     40  C   UNL A   1      41.033  25.156  27.808  1.00  0.00     0.031 C 
ATOM     41  C   UNL A   1      45.775  23.876  26.661  1.00  0.00     0.029 A 
ATOM     42  N   UNL A   1      45.408  25.961  27.375  1.00  0.00    -0.354 N 
ATOM     43  C   UNL A   1      41.427  27.349  28.296  1.00  0.00     0.074 A 
ATOM     44  C   UNL A   1      40.446  26.315  28.059  1.00  0.00     0.031 C 
ATOM     45  C   UNL A   1      46.960  24.505  26.688  1.00  0.00     0.029 A 
ATOM     46  C   UNL A   1      46.760  25.876  27.140  1.00  0.00     0.049 A 
ATOM     47  H   UNL A   1      44.965  26.786  27.681  1.00  0.00     0.167 HD
ATOM     48  C   UNL A   1      41.120  28.593  28.736  1.00  0.00     0.031 A 
ATOM     49  C   UNL A   1      47.731  26.798  27.278  1.00  0.00     0.031 A 
ATOM     50  C   UNL A   1      42.097  29.616  28.992  1.00  0.00     0.049 A 
ATOM     51  C   UNL A   1      47.368  28.169  27.778  1.00  0.00     0.074 A 
ATOM     52  C   UNL A   1      41.899  30.887  29.502  1.00  0.00     0.029 A 
ATOM     53  N   UNL A   1      43.456  29.484  28.755  1.00  0.00    -0.354 N 
ATOM     54  N   UNL A   1      46.194  28.645  28.112  1.00  0.00    -0.248 NA
ATOM     55  C   UNL A   1      48.474  29.124  27.937  1.00  0.00     0.031 C 
ATOM     56  C   UNL A   1      43.134  31.545  29.518  1.00  0.00     0.029 A 
ATOM     57  C   UNL A   1      44.108  30.660  29.083  1.00  0.00     0.049 A 
ATOM     58  H   UNL A   1      43.892  28.673  28.406  1.00  0.00     0.167 HD
ATOM     59  C   UNL A   1      46.420  29.944  28.546  1.00  0.00     0.074 A 
ATOM     60  C   UNL A   1      47.849  30.170  28.457  1.00  0.00     0.031 C 
ATOM     61  C   UNL A   1      45.529  30.869  28.978  1.00  0.00     0.031 A 
BRANCH  48  62
ATOM     62  C   UNL A   1      39.666  28.909  28.966  1.00  0.00    -0.014 A 
ATOM     63  C   UNL A   1      38.854  29.410  27.934  1.00  0.00     0.009 A 
ATOM     64  C   UNL A   1      39.092  28.680  30.226  1.00  0.00     0.009 A 
ATOM     65  C   UNL A   1      37.513  29.718  28.171  1.00  0.00     0.001 A 
ATOM     66  C   UNL A   1      37.741  28.954  30.451  1.00  0.00     0.001 A 
ATOM     67  C   UNL A   1      36.956  29.484  29.427  1.00  0.00     0.000 A 
ENDBRANCH  48  62
BRANCH  49  68
ATOM     68  C   UNL A   1      49.144  26.449  26.969  1.00  0.00    -0.014 A 
ATOM     69  C   UNL A   1      49.660  26.641  25.677  1.00  0.00     0.009 A 
ATOM     70  C   UNL A   1      49.982  25.913  27.959  1.00  0.00     0.009 A 
ATOM     71  C   UNL A   1      50.973  26.275  25.376  1.00  0.00     0.001 A 
ATOM     72  C   UNL A   1      51.305  25.579  27.664  1.00  0.00     0.001 A 
ATOM     73  C   UNL A   1      51.797  25.749  26.370  1.00  0.00     0.000 A 
ENDBRANCH  49  68
BRANCH  61  74
ATOM     74  C   UNL A   1      46.083  32.197  29.417  1.00  0.00    -0.014 A 
ATOM     75  C   UNL A   1      46.463  32.430  30.748  1.00  0.00     0.009 A 
ATOM     76  C   UNL A   1      46.242  33.227  28.475  1.00  0.00     0.009 A 
ATOM     77  C   UNL A   1      46.941  33.683  31.136  1.00  0.00     0.001 A 
ATOM     78  C   UNL A   1      46.754  34.465  28.858  1.00  0.00     0.001 A 
ATOM     79  C   UNL A   1      47.089  34.697  30.191  1.00  0.00     0.000 A 
ENDBRANCH  61  74
ENDBRANCH  35  36
ENDBRANCH  27  30
ENDBRANCH  25  26
ENDBRANCH  24  25
ENDBRANCH   1  24
TORSDOF 15
ENDMDL
