MODEL 1
REMARK VINA RESULT:     -10.0      0.000      0.000
REMARK SMILES C[C@@H]1CCC[C@@]1(C[NH3+])C(=O)NCCCNC(=O)c1ccc(-c2c3nc(c(-c4ccccc4)c4ccc([nH]4)c(-c4ccccc4)c4nc(c(-c5ccccc5)c5ccc2[nH]5)C=C4)C=C3)cc1
REMARK SMILES IDX 13 1 12 2 11 3 9 4 10 5 6 7 1 8 2 9 3 10 4 11 5 12 7 13 8 14
REMARK SMILES IDX 14 18 15 19 16 20 17 22 18 23 19 24 65 25 20 26 64 27 21 28
REMARK SMILES IDX 22 29 23 30 58 31 24 32 63 33 57 34 59 35 25 36 62 37 56 38
REMARK SMILES IDX 55 39 26 41 48 42 33 43 47 44 34 45 37 46 46 47 60 48 35 49
REMARK SMILES IDX 36 50 45 52 61 53 38 54 27 55 28 56 32 57 29 58 31 59 30 60
REMARK SMILES IDX 49 61 50 62 54 63 51 64 53 65 52 66 39 67 40 68 44 69 41 70
REMARK SMILES IDX 43 71 42 72
REMARK H PARENT 11 6 8 15 8 16 8 17 15 21 59 40 37 51
REMARK Flexibility Score: inf
ROOT
ATOM      1  C   UNL A   1      32.219  27.960  27.326  1.00  0.00     0.042 C 
ENDROOT
BRANCH   1   2
ATOM      2  C   UNL A   1      31.986  26.872  26.278  1.00  0.00     0.117 C 
BRANCH   2   3
ATOM      3  N   UNL A   1      31.365  25.695  26.858  1.00  0.00    -0.355 N 
ATOM      4  C   UNL A   1      31.414  24.370  26.545  1.00  0.00     0.232 C 
ATOM      5  O   UNL A   1      30.685  23.647  27.231  1.00  0.00    -0.274 OA
ATOM      6  H   UNL A   1      30.793  25.895  27.635  1.00  0.00     0.163 HD
BRANCH   4   7
ATOM      7  C   UNL A   1      32.362  23.791  25.453  1.00  0.00     0.100 C 
ATOM      8  C   UNL A   1      34.826  24.184  24.647  1.00  0.00     0.009 C 
ATOM      9  C   UNL A   1      33.813  24.247  25.786  1.00  0.00     0.007 C 
ATOM     10  C   UNL A   1      34.221  23.301  26.924  1.00  0.00     0.005 C 
ATOM     11  C   UNL A   1      33.601  21.957  26.577  1.00  0.00     0.002 C 
ATOM     12  C   UNL A   1      32.437  22.245  25.628  1.00  0.00     0.023 C 
BRANCH   7  13
ATOM     13  C   UNL A   1      31.790  24.161  24.058  1.00  0.00     0.276 C 
BRANCH  13  14
ATOM     14  N   UNL A   1      30.334  24.172  23.899  1.00  0.00    -0.357 N 
ATOM     15  H   UNL A   1      29.891  24.148  24.817  1.00  0.00     0.344 HD
ATOM     16  H   UNL A   1      30.045  23.355  23.360  1.00  0.00     0.344 HD
ATOM     17  H   UNL A   1      30.052  25.021  23.407  1.00  0.00     0.344 HD
ENDBRANCH  13  14
ENDBRANCH   7  13
ENDBRANCH   4   7
ENDBRANCH   2   3
ENDBRANCH   1   2
BRANCH   1  18
ATOM     18  C   UNL A   1      33.607  28.597  27.260  1.00  0.00     0.118 C 
BRANCH  18  19
ATOM     19  N   UNL A   1      33.584  30.003  27.635  1.00  0.00    -0.352 N 
ATOM     20  C   UNL A   1      34.515  30.753  28.307  1.00  0.00     0.251 C 
ATOM     21  H   UNL A   1      32.773  30.493  27.365  1.00  0.00     0.163 HD
ATOM     22  O   UNL A   1      34.208  31.876  28.708  1.00  0.00    -0.269 OA
BRANCH  20  23
ATOM     23  C   UNL A   1      35.877  30.237  28.567  1.00  0.00     0.039 A 
ATOM     24  C   UNL A   1      36.818  30.274  27.532  1.00  0.00     0.014 A 
ATOM     25  C   UNL A   1      36.218  29.658  29.793  1.00  0.00     0.014 A 
ATOM     26  C   UNL A   1      38.108  29.778  27.738  1.00  0.00     0.010 A 
ATOM     27  C   UNL A   1      37.523  29.213  30.017  1.00  0.00     0.010 A 
ATOM     28  C   UNL A   1      38.478  29.263  28.990  1.00  0.00    -0.014 A 
BRANCH  28  29
ATOM     29  C   UNL A   1      39.860  28.780  29.243  1.00  0.00     0.031 A 
ATOM     30  C   UNL A   1      40.887  29.692  29.858  1.00  0.00     0.074 A 
ATOM     31  C   UNL A   1      40.212  27.538  28.855  1.00  0.00     0.049 A 
ATOM     32  N   UNL A   1      42.157  29.468  30.087  1.00  0.00    -0.248 NA
ATOM     33  C   UNL A   1      40.434  31.037  30.246  1.00  0.00     0.031 C 
ATOM     34  C   UNL A   1      39.325  26.567  28.212  1.00  0.00     0.029 A 
ATOM     35  N   UNL A   1      41.418  26.887  28.932  1.00  0.00    -0.354 N 
ATOM     36  C   UNL A   1      42.660  30.650  30.617  1.00  0.00     0.074 A 
ATOM     37  C   UNL A   1      41.566  31.596  30.653  1.00  0.00     0.031 C 
ATOM     38  C   UNL A   1      40.014  25.441  27.963  1.00  0.00     0.029 A 
ATOM     39  C   UNL A   1      41.396  25.623  28.396  1.00  0.00     0.049 A 
ATOM     40  H   UNL A   1      42.222  27.288  29.334  1.00  0.00     0.167 HD
ATOM     41  C   UNL A   1      43.917  30.921  31.041  1.00  0.00     0.031 A 
ATOM     42  C   UNL A   1      42.379  24.714  28.256  1.00  0.00     0.031 A 
ATOM     43  C   UNL A   1      45.000  29.974  31.036  1.00  0.00     0.049 A 
ATOM     44  C   UNL A   1      43.761  25.037  28.750  1.00  0.00     0.074 A 
ATOM     45  C   UNL A   1      46.285  30.133  31.530  1.00  0.00     0.029 A 
ATOM     46  N   UNL A   1      44.927  28.695  30.512  1.00  0.00    -0.354 N 
ATOM     47  N   UNL A   1      44.197  26.131  29.325  1.00  0.00    -0.248 NA
ATOM     48  C   UNL A   1      44.784  23.994  28.585  1.00  0.00     0.031 C 
ATOM     49  C   UNL A   1      47.003  28.963  31.263  1.00  0.00     0.029 A 
ATOM     50  C   UNL A   1      46.152  28.063  30.644  1.00  0.00     0.049 A 
ATOM     51  H   UNL A   1      44.125  28.295  30.104  1.00  0.00     0.167 HD
ATOM     52  C   UNL A   1      45.536  25.898  29.612  1.00  0.00     0.074 A 
ATOM     53  C   UNL A   1      45.836  24.555  29.163  1.00  0.00     0.031 C 
ATOM     54  C   UNL A   1      46.435  26.725  30.197  1.00  0.00     0.031 A 
BRANCH  41  55
ATOM     55  C   UNL A   1      44.200  32.307  31.546  1.00  0.00    -0.014 A 
ATOM     56  C   UNL A   1      44.212  32.595  32.919  1.00  0.00     0.009 A 
ATOM     57  C   UNL A   1      44.519  33.326  30.634  1.00  0.00     0.009 A 
ATOM     58  C   UNL A   1      44.514  33.883  33.368  1.00  0.00     0.001 A 
ATOM     59  C   UNL A   1      44.841  34.607  31.086  1.00  0.00     0.001 A 
ATOM     60  C   UNL A   1      44.833  34.885  32.452  1.00  0.00     0.000 A 
ENDBRANCH  41  55
BRANCH  42  61
ATOM     61  C   UNL A   1      42.097  23.402  27.618  1.00  0.00    -0.014 A 
ATOM     62  C   UNL A   1      42.338  23.210  26.250  1.00  0.00     0.009 A 
ATOM     63  C   UNL A   1      41.568  22.344  28.372  1.00  0.00     0.009 A 
ATOM     64  C   UNL A   1      42.026  21.992  25.642  1.00  0.00     0.001 A 
ATOM     65  C   UNL A   1      41.281  21.119  27.766  1.00  0.00     0.001 A 
ATOM     66  C   UNL A   1      41.500  20.947  26.400  1.00  0.00     0.000 A 
ENDBRANCH  42  61
BRANCH  54  67
ATOM     67  C   UNL A   1      47.821  26.189  30.412  1.00  0.00    -0.014 A 
ATOM     68  C   UNL A   1      48.258  25.797  31.686  1.00  0.00     0.009 A 
ATOM     69  C   UNL A   1      48.687  26.042  29.318  1.00  0.00     0.009 A 
ATOM     70  C   UNL A   1      49.548  25.294  31.864  1.00  0.00     0.001 A 
ATOM     71  C   UNL A   1      49.967  25.517  29.494  1.00  0.00     0.001 A 
ATOM     72  C   UNL A   1      50.399  25.151  30.768  1.00  0.00     0.000 A 
ENDBRANCH  54  67
ENDBRANCH  28  29
ENDBRANCH  20  23
ENDBRANCH  18  19
ENDBRANCH   1  18
TORSDOF 12
ENDMDL
MODEL 2
REMARK VINA RESULT:      -9.9      3.062      7.530
REMARK SMILES C[C@@H]1CCC[C@@]1(C[NH3+])C(=O)NCCCNC(=O)c1ccc(-c2c3nc(c(-c4ccccc4)c4ccc([nH]4)c(-c4ccccc4)c4nc(c(-c5ccccc5)c5ccc2[nH]5)C=C4)C=C3)cc1
REMARK SMILES IDX 13 1 12 2 11 3 9 4 10 5 6 7 1 8 2 9 3 10 4 11 5 12 7 13 8 14
REMARK SMILES IDX 14 18 15 19 16 20 17 22 18 23 19 24 65 25 20 26 64 27 21 28
REMARK SMILES IDX 22 29 23 30 58 31 24 32 63 33 57 34 59 35 25 36 62 37 56 38
REMARK SMILES IDX 55 39 26 41 48 42 33 43 47 44 34 45 37 46 46 47 60 48 35 49
REMARK SMILES IDX 36 50 45 52 61 53 38 54 27 55 28 56 32 57 29 58 31 59 30 60
REMARK SMILES IDX 49 61 50 62 54 63 51 64 53 65 52 66 39 67 40 68 44 69 41 70
REMARK SMILES IDX 43 71 42 72
REMARK H PARENT 11 6 8 15 8 16 8 17 15 21 59 40 37 51
REMARK Flexibility Score: inf
ROOT
ATOM      1  C   UNL A   1      37.771  19.568  24.971  1.00  0.00     0.042 C 
ENDROOT
BRANCH   1   2
ATOM      2  C   UNL A   1      36.539  20.472  25.002  1.00  0.00     0.117 C 
BRANCH   2   3
ATOM      3  N   UNL A   1      35.310  19.702  24.926  1.00  0.00    -0.355 N 
ATOM      4  C   UNL A   1      34.015  19.989  25.236  1.00  0.00     0.232 C 
ATOM      5  O   UNL A   1      33.228  19.046  25.104  1.00  0.00    -0.274 OA
ATOM      6  H   UNL A   1      35.438  18.790  24.579  1.00  0.00     0.163 HD
BRANCH   4   7
ATOM      7  C   UNL A   1      33.539  21.410  25.662  1.00  0.00     0.100 C 
ATOM      8  C   UNL A   1      34.207  23.892  25.144  1.00  0.00     0.009 C 
ATOM      9  C   UNL A   1      34.163  22.440  24.676  1.00  0.00     0.007 C 
ATOM     10  C   UNL A   1      33.282  22.302  23.427  1.00  0.00     0.005 C 
ATOM     11  C   UNL A   1      31.872  22.075  23.947  1.00  0.00     0.002 C 
ATOM     12  C   UNL A   1      32.014  21.532  25.370  1.00  0.00     0.023 C 
BRANCH   7  13
ATOM     13  C   UNL A   1      33.827  21.592  27.176  1.00  0.00     0.276 C 
BRANCH  13  14
ATOM     14  N   UNL A   1      32.779  22.195  28.002  1.00  0.00    -0.357 N 
ATOM     15  H   UNL A   1      32.844  21.832  28.953  1.00  0.00     0.344 HD
ATOM     16  H   UNL A   1      31.864  21.966  27.612  1.00  0.00     0.344 HD
ATOM     17  H   UNL A   1      32.898  23.209  28.017  1.00  0.00     0.344 HD
ENDBRANCH  13  14
ENDBRANCH   7  13
ENDBRANCH   4   7
ENDBRANCH   2   3
ENDBRANCH   1   2
BRANCH   1  18
ATOM     18  C   UNL A   1      38.962  20.117  25.758  1.00  0.00     0.118 C 
BRANCH  18  19
ATOM     19  N   UNL A   1      40.064  19.168  25.818  1.00  0.00    -0.352 N 
ATOM     20  C   UNL A   1      41.407  19.385  25.986  1.00  0.00     0.251 C 
ATOM     21  H   UNL A   1      39.805  18.223  25.724  1.00  0.00     0.163 HD
ATOM     22  O   UNL A   1      42.195  18.458  25.798  1.00  0.00    -0.269 OA
BRANCH  20  23
ATOM     23  C   UNL A   1      41.930  20.712  26.381  1.00  0.00     0.039 A 
ATOM     24  C   UNL A   1      42.230  21.640  25.377  1.00  0.00     0.014 A 
ATOM     25  C   UNL A   1      42.191  21.028  27.717  1.00  0.00     0.014 A 
ATOM     26  C   UNL A   1      42.744  22.896  25.714  1.00  0.00     0.010 A 
ATOM     27  C   UNL A   1      42.653  22.302  28.057  1.00  0.00     0.010 A 
ATOM     28  C   UNL A   1      42.938  23.246  27.059  1.00  0.00    -0.014 A 
BRANCH  28  29
ATOM     29  C   UNL A   1      43.433  24.594  27.437  1.00  0.00     0.031 A 
ATOM     30  C   UNL A   1      42.471  25.665  27.874  1.00  0.00     0.074 A 
ATOM     31  C   UNL A   1      44.746  24.878  27.321  1.00  0.00     0.049 A 
ATOM     32  N   UNL A   1      42.712  26.917  28.173  1.00  0.00    -0.248 NA
ATOM     33  C   UNL A   1      41.052  25.287  27.967  1.00  0.00     0.031 C 
ATOM     34  C   UNL A   1      45.779  23.943  26.872  1.00  0.00     0.029 A 
ATOM     35  N   UNL A   1      45.432  26.042  27.558  1.00  0.00    -0.354 N 
ATOM     36  C   UNL A   1      41.475  27.483  28.460  1.00  0.00     0.074 A 
ATOM     37  C   UNL A   1      40.483  26.445  28.275  1.00  0.00     0.031 C 
ATOM     38  C   UNL A   1      46.968  24.568  26.876  1.00  0.00     0.029 A 
ATOM     39  C   UNL A   1      46.776  25.953  27.293  1.00  0.00     0.049 A 
ATOM     40  H   UNL A   1      45.001  26.865  27.888  1.00  0.00     0.167 HD
ATOM     41  C   UNL A   1      41.191  28.748  28.848  1.00  0.00     0.031 A 
ATOM     42  C   UNL A   1      47.747  26.883  27.366  1.00  0.00     0.031 A 
ATOM     43  C   UNL A   1      42.176  29.774  29.063  1.00  0.00     0.049 A 
ATOM     44  C   UNL A   1      47.404  28.276  27.815  1.00  0.00     0.074 A 
ATOM     45  C   UNL A   1      41.989  31.061  29.542  1.00  0.00     0.029 A 
ATOM     46  N   UNL A   1      43.530  29.634  28.812  1.00  0.00    -0.354 N 
ATOM     47  N   UNL A   1      46.241  28.768  28.162  1.00  0.00    -0.248 NA
ATOM     48  C   UNL A   1      48.514  29.239  27.892  1.00  0.00     0.031 C 
ATOM     49  C   UNL A   1      43.227  31.712  29.539  1.00  0.00     0.029 A 
ATOM     50  C   UNL A   1      44.188  30.817  29.099  1.00  0.00     0.049 A 
ATOM     51  H   UNL A   1      43.961  28.813  28.477  1.00  0.00     0.167 HD
ATOM     52  C   UNL A   1      46.482  30.089  28.521  1.00  0.00     0.074 A 
ATOM     53  C   UNL A   1      47.903  30.315  28.365  1.00  0.00     0.031 C 
ATOM     54  C   UNL A   1      45.602  31.028  28.944  1.00  0.00     0.031 A 
BRANCH  41  55
ATOM     55  C   UNL A   1      39.748  29.106  29.063  1.00  0.00    -0.014 A 
ATOM     56  C   UNL A   1      38.952  29.591  28.015  1.00  0.00     0.009 A 
ATOM     57  C   UNL A   1      39.161  28.895  30.322  1.00  0.00     0.009 A 
ATOM     58  C   UNL A   1      37.603  29.882  28.229  1.00  0.00     0.001 A 
ATOM     59  C   UNL A   1      37.808  29.167  30.527  1.00  0.00     0.001 A 
ATOM     60  C   UNL A   1      37.031  29.665  29.481  1.00  0.00     0.000 A 
ENDBRANCH  41  55
BRANCH  42  61
ATOM     61  C   UNL A   1      49.145  26.533  27.006  1.00  0.00    -0.014 A 
ATOM     62  C   UNL A   1      49.592  26.661  25.683  1.00  0.00     0.009 A 
ATOM     63  C   UNL A   1      50.031  26.051  27.981  1.00  0.00     0.009 A 
ATOM     64  C   UNL A   1      50.892  26.283  25.336  1.00  0.00     0.001 A 
ATOM     65  C   UNL A   1      51.338  25.699  27.636  1.00  0.00     0.001 A 
ATOM     66  C   UNL A   1      51.763  25.806  26.313  1.00  0.00     0.000 A 
ENDBRANCH  42  61
BRANCH  54  67
ATOM     67  C   UNL A   1      46.157  32.377  29.296  1.00  0.00    -0.014 A 
ATOM     68  C   UNL A   1      46.218  33.408  28.345  1.00  0.00     0.009 A 
ATOM     69  C   UNL A   1      46.593  32.630  30.605  1.00  0.00     0.009 A 
ATOM     70  C   UNL A   1      46.732  34.658  28.695  1.00  0.00     0.001 A 
ATOM     71  C   UNL A   1      47.083  33.887  30.958  1.00  0.00     0.001 A 
ATOM     72  C   UNL A   1      47.160  34.898  30.000  1.00  0.00     0.000 A 
ENDBRANCH  54  67
ENDBRANCH  28  29
ENDBRANCH  20  23
ENDBRANCH  18  19
ENDBRANCH   1  18
TORSDOF 12
ENDMDL
MODEL 3
REMARK VINA RESULT:      -9.9      3.637      8.043
REMARK SMILES C[C@@H]1CCC[C@@]1(C[NH3+])C(=O)NCCCNC(=O)c1ccc(-c2c3nc(c(-c4ccccc4)c4ccc([nH]4)c(-c4ccccc4)c4nc(c(-c5ccccc5)c5ccc2[nH]5)C=C4)C=C3)cc1
REMARK SMILES IDX 13 1 12 2 11 3 9 4 10 5 6 7 1 8 2 9 3 10 4 11 5 12 7 13 8 14
REMARK SMILES IDX 14 18 15 19 16 20 17 22 18 23 19 24 65 25 20 26 64 27 21 28
REMARK SMILES IDX 22 29 23 30 58 31 24 32 63 33 57 34 59 35 25 36 62 37 56 38
REMARK SMILES IDX 55 39 26 41 48 42 33 43 47 44 34 45 37 46 46 47 60 48 35 49
REMARK SMILES IDX 36 50 45 52 61 53 38 54 27 55 28 56 32 57 29 58 31 59 30 60
REMARK SMILES IDX 49 61 50 62 54 63 51 64 53 65 52 66 39 67 40 68 44 69 41 70
REMARK SMILES IDX 43 71 42 72
REMARK H PARENT 11 6 8 15 8 16 8 17 15 21 59 40 37 51
REMARK Flexibility Score: inf
ROOT
ATOM      1  C   UNL A   1      31.269  32.283  26.484  1.00  0.00     0.042 C 
ENDROOT
BRANCH   1   2
ATOM      2  C   UNL A   1      31.406  30.857  25.952  1.00  0.00     0.117 C 
BRANCH   2   3
ATOM      3  N   UNL A   1      32.688  30.275  26.307  1.00  0.00    -0.355 N 
ATOM      4  C   UNL A   1      33.144  28.992  26.352  1.00  0.00     0.232 C 
ATOM      5  O   UNL A   1      34.296  28.865  26.777  1.00  0.00    -0.274 OA
ATOM      6  H   UNL A   1      33.364  30.942  26.566  1.00  0.00     0.163 HD
BRANCH   4   7
ATOM      7  C   UNL A   1      32.309  27.777  25.849  1.00  0.00     0.100 C 
ATOM      8  C   UNL A   1      30.670  27.264  23.866  1.00  0.00     0.009 C 
ATOM      9  C   UNL A   1      31.844  28.084  24.395  1.00  0.00     0.007 C 
ATOM     10  C   UNL A   1      33.107  27.816  23.563  1.00  0.00     0.005 C 
ATOM     11  C   UNL A   1      33.776  26.617  24.215  1.00  0.00     0.002 C 
ATOM     12  C   UNL A   1      33.266  26.562  25.656  1.00  0.00     0.023 C 
BRANCH   7  13
ATOM     13  C   UNL A   1      31.218  27.457  26.904  1.00  0.00     0.276 C 
BRANCH  13  14
ATOM     14  N   UNL A   1      31.484  27.828  28.296  1.00  0.00    -0.357 N 
ATOM     15  H   UNL A   1      31.428  28.842  28.394  1.00  0.00     0.344 HD
ATOM     16  H   UNL A   1      32.419  27.513  28.558  1.00  0.00     0.344 HD
ATOM     17  H   UNL A   1      30.793  27.388  28.904  1.00  0.00     0.344 HD
ENDBRANCH  13  14
ENDBRANCH   7  13
ENDBRANCH   4   7
ENDBRANCH   2   3
ENDBRANCH   1   2
BRANCH   1  18
ATOM     18  C   UNL A   1      32.551  32.840  27.102  1.00  0.00     0.118 C 
BRANCH  18  19
ATOM     19  N   UNL A   1      32.371  34.188  27.620  1.00  0.00    -0.352 N 
ATOM     20  C   UNL A   1      33.031  34.843  28.627  1.00  0.00     0.251 C 
ATOM     21  H   UNL A   1      31.664  34.712  27.177  1.00  0.00     0.163 HD
ATOM     22  O   UNL A   1      32.581  35.909  29.049  1.00  0.00    -0.269 OA
BRANCH  20  23
ATOM     23  C   UNL A   1      34.267  34.291  29.225  1.00  0.00     0.039 A 
ATOM     24  C   UNL A   1      34.167  33.545  30.405  1.00  0.00     0.014 A 
ATOM     25  C   UNL A   1      35.526  34.553  28.676  1.00  0.00     0.014 A 
ATOM     26  C   UNL A   1      35.316  33.026  31.006  1.00  0.00     0.010 A 
ATOM     27  C   UNL A   1      36.668  33.988  29.246  1.00  0.00     0.010 A 
ATOM     28  C   UNL A   1      36.575  33.223  30.419  1.00  0.00    -0.014 A 
BRANCH  28  29
ATOM     29  C   UNL A   1      37.802  32.634  31.016  1.00  0.00     0.031 A 
ATOM     30  C   UNL A   1      38.444  31.422  30.397  1.00  0.00     0.074 A 
ATOM     31  C   UNL A   1      38.299  33.148  32.157  1.00  0.00     0.049 A 
ATOM     32  N   UNL A   1      39.474  30.730  30.817  1.00  0.00    -0.248 NA
ATOM     33  C   UNL A   1      37.840  30.909  29.157  1.00  0.00     0.031 C 
ATOM     34  C   UNL A   1      37.749  34.296  32.882  1.00  0.00     0.029 A 
ATOM     35  N   UNL A   1      39.374  32.760  32.918  1.00  0.00    -0.354 N 
ATOM     36  C   UNL A   1      39.622  29.685  29.912  1.00  0.00     0.074 A 
ATOM     37  C   UNL A   1      38.563  29.819  28.935  1.00  0.00     0.031 C 
ATOM     38  C   UNL A   1      38.496  34.524  33.974  1.00  0.00     0.029 A 
ATOM     39  C   UNL A   1      39.554  33.520  34.047  1.00  0.00     0.049 A 
ATOM     40  H   UNL A   1      39.961  32.007  32.676  1.00  0.00     0.167 HD
ATOM     41  C   UNL A   1      40.558  28.708  29.893  1.00  0.00     0.031 A 
ATOM     42  C   UNL A   1      40.460  33.418  35.037  1.00  0.00     0.031 A 
ATOM     43  C   UNL A   1      41.631  28.589  30.844  1.00  0.00     0.049 A 
ATOM     44  C   UNL A   1      41.496  32.331  34.981  1.00  0.00     0.074 A 
ATOM     45  C   UNL A   1      42.678  27.682  30.852  1.00  0.00     0.029 A 
ATOM     46  N   UNL A   1      41.794  29.398  31.955  1.00  0.00    -0.354 N 
ATOM     47  N   UNL A   1      41.670  31.403  34.073  1.00  0.00    -0.248 NA
ATOM     48  C   UNL A   1      42.469  32.286  36.083  1.00  0.00     0.031 C 
ATOM     49  C   UNL A   1      43.451  27.916  31.994  1.00  0.00     0.029 A 
ATOM     50  C   UNL A   1      42.908  28.995  32.671  1.00  0.00     0.049 A 
ATOM     51  H   UNL A   1      41.204  30.148  32.201  1.00  0.00     0.167 HD
ATOM     52  C   UNL A   1      42.785  30.680  34.480  1.00  0.00     0.074 A 
ATOM     53  C   UNL A   1      43.254  31.287  35.708  1.00  0.00     0.031 C 
ATOM     54  C   UNL A   1      43.366  29.610  33.889  1.00  0.00     0.031 A 
BRANCH  41  55
ATOM     55  C   UNL A   1      40.466  27.673  28.807  1.00  0.00    -0.014 A 
ATOM     56  C   UNL A   1      39.730  26.493  28.985  1.00  0.00     0.009 A 
ATOM     57  C   UNL A   1      41.075  27.915  27.566  1.00  0.00     0.009 A 
ATOM     58  C   UNL A   1      39.627  25.561  27.949  1.00  0.00     0.001 A 
ATOM     59  C   UNL A   1      40.953  26.993  26.525  1.00  0.00     0.001 A 
ATOM     60  C   UNL A   1      40.233  25.815  26.720  1.00  0.00     0.000 A 
ENDBRANCH  41  55
BRANCH  42  61
ATOM     61  C   UNL A   1      40.433  34.372  36.175  1.00  0.00    -0.014 A 
ATOM     62  C   UNL A   1      39.655  34.105  37.310  1.00  0.00     0.009 A 
ATOM     63  C   UNL A   1      41.171  35.564  36.121  1.00  0.00     0.009 A 
ATOM     64  C   UNL A   1      39.592  35.027  38.357  1.00  0.00     0.001 A 
ATOM     65  C   UNL A   1      41.127  36.472  37.181  1.00  0.00     0.001 A 
ATOM     66  C   UNL A   1      40.329  36.207  38.293  1.00  0.00     0.000 A 
ENDBRANCH  42  61
BRANCH  54  67
ATOM     67  C   UNL A   1      44.592  29.046  34.545  1.00  0.00    -0.014 A 
ATOM     68  C   UNL A   1      45.871  29.537  34.239  1.00  0.00     0.009 A 
ATOM     69  C   UNL A   1      44.462  28.034  35.508  1.00  0.00     0.009 A 
ATOM     70  C   UNL A   1      46.998  29.003  34.866  1.00  0.00     0.001 A 
ATOM     71  C   UNL A   1      45.589  27.519  36.150  1.00  0.00     0.001 A 
ATOM     72  C   UNL A   1      46.856  27.999  35.823  1.00  0.00     0.000 A 
ENDBRANCH  54  67
ENDBRANCH  28  29
ENDBRANCH  20  23
ENDBRANCH  18  19
ENDBRANCH   1  18
TORSDOF 12
ENDMDL
