MODEL 1
REMARK VINA RESULT:     -11.7      0.000      0.000
REMARK SMILES C[C@H]1CCC[C@@](NC(=O)N2CCO[C@H](C#N)C2)(C(=O)NCCCNC(=O)c2ccc(-c3c4nc(c(-c5ccccc5)c5ccc([nH]5)c(-c5ccccc5)c5nc(c(-c6ccccc6)c6ccc3[nH]6)C=C5)C=C4)cc2)C1
REMARK SMILES IDX 21 1 20 2 18 3 19 4 6 6 1 7 2 8 3 9 75 10 4 11 5 12 7 13
REMARK SMILES IDX 8 14 9 16 10 17 11 18 17 19 12 20 14 21 13 22 15 23 16 24
REMARK SMILES IDX 22 25 23 26 24 27 25 28 26 30 27 31 28 32 74 33 29 34 73 35
REMARK SMILES IDX 30 36 31 37 32 38 67 39 33 40 72 41 66 42 68 43 34 44 71 45
REMARK SMILES IDX 65 46 64 47 35 49 57 50 42 51 56 52 43 53 46 54 55 55 69 56
REMARK SMILES IDX 44 57 45 58 54 60 70 61 47 62 36 63 37 64 41 65 38 66 40 67
REMARK SMILES IDX 39 68 58 69 59 70 63 71 60 72 62 73 61 74 48 75 49 76 53 77
REMARK SMILES IDX 50 78 52 79 51 80
REMARK H PARENT 20 5 7 15 24 29 68 48 46 59
REMARK Flexibility Score: inf
ROOT
ATOM      1  C   UNL A   1      32.036  29.918  25.401  1.00  0.00     0.117 C 
ENDROOT
BRANCH   1   2
ATOM      2  N   UNL A   1      33.193  29.602  24.570  1.00  0.00    -0.354 N 
ATOM      3  C   UNL A   1      33.289  28.812  23.456  1.00  0.00     0.245 C 
ATOM      4  O   UNL A   1      34.381  28.784  22.885  1.00  0.00    -0.272 OA
ATOM      5  H   UNL A   1      34.037  30.021  24.856  1.00  0.00     0.163 HD
BRANCH   3   6
ATOM      6  C   UNL A   1      32.102  27.922  23.023  1.00  0.00     0.121 C 
ATOM      7  C   UNL A   1      29.485  25.891  25.167  1.00  0.00     0.008 C 
ATOM      8  C   UNL A   1      30.049  26.603  23.938  1.00  0.00    -0.011 C 
ATOM      9  C   UNL A   1      29.127  27.773  23.585  1.00  0.00     0.003 C 
ATOM     10  C   UNL A   1      31.512  27.061  24.173  1.00  0.00     0.042 C 
ATOM     11  C   UNL A   1      29.639  28.494  22.360  1.00  0.00     0.003 C 
ATOM     12  C   UNL A   1      31.039  29.002  22.620  1.00  0.00     0.039 C 
BRANCH   6  13
ATOM     13  N   UNL A   1      32.490  27.045  21.889  1.00  0.00    -0.323 N 
ATOM     14  C   UNL A   1      32.878  25.753  21.735  1.00  0.00     0.318 C 
ATOM     15  H   UNL A   1      32.459  27.524  21.030  1.00  0.00     0.166 HD
ATOM     16  O   UNL A   1      33.137  25.405  20.578  1.00  0.00    -0.249 OA
BRANCH  14  17
ATOM     17  N   UNL A   1      33.202  24.954  22.801  1.00  0.00    -0.319 N 
ATOM     18  C   UNL A   1      34.504  25.184  23.454  1.00  0.00     0.150 C 
ATOM     19  C   UNL A   1      32.671  23.607  23.081  1.00  0.00     0.169 C 
ATOM     20  C   UNL A   1      34.419  24.858  24.952  1.00  0.00     0.183 C 
ATOM     21  C   UNL A   1      32.654  23.316  24.602  1.00  0.00     0.240 C 
ATOM     22  O   UNL A   1      33.978  23.509  25.161  1.00  0.00    -0.360 OA
BRANCH  21  23
ATOM     23  C   UNL A   1      32.174  21.950  24.881  1.00  0.00     0.096 C 
ATOM     24  N   UNL A   1      31.783  20.886  25.122  1.00  0.00    -0.195 NA
ENDBRANCH  21  23
ENDBRANCH  14  17
ENDBRANCH   6  13
ENDBRANCH   3   6
ENDBRANCH   1   2
BRANCH   1  25
ATOM     25  C   UNL A   1      32.129  29.221  26.739  1.00  0.00     0.042 C 
BRANCH  25  26
ATOM     26  C   UNL A   1      33.503  29.396  27.360  1.00  0.00     0.118 C 
BRANCH  26  27
ATOM     27  N   UNL A   1      33.696  30.714  27.951  1.00  0.00    -0.352 N 
ATOM     28  C   UNL A   1      34.826  31.225  28.538  1.00  0.00     0.251 C 
ATOM     29  H   UNL A   1      32.915  31.314  27.928  1.00  0.00     0.163 HD
ATOM     30  O   UNL A   1      34.826  32.344  29.035  1.00  0.00    -0.269 OA
BRANCH  28  31
ATOM     31  C   UNL A   1      36.006  30.352  28.633  1.00  0.00     0.039 A 
ATOM     32  C   UNL A   1      36.896  30.342  27.558  1.00  0.00     0.014 A 
ATOM     33  C   UNL A   1      36.313  29.703  29.832  1.00  0.00     0.014 A 
ATOM     34  C   UNL A   1      38.145  29.752  27.719  1.00  0.00     0.010 A 
ATOM     35  C   UNL A   1      37.594  29.198  30.019  1.00  0.00     0.010 A 
ATOM     36  C   UNL A   1      38.526  29.232  28.968  1.00  0.00    -0.014 A 
BRANCH  36  37
ATOM     37  C   UNL A   1      39.911  28.758  29.195  1.00  0.00     0.031 A 
ATOM     38  C   UNL A   1      40.929  29.679  29.803  1.00  0.00     0.074 A 
ATOM     39  C   UNL A   1      40.258  27.515  28.804  1.00  0.00     0.049 A 
ATOM     40  N   UNL A   1      42.194  29.455  30.047  1.00  0.00    -0.248 NA
ATOM     41  C   UNL A   1      40.474  31.031  30.166  1.00  0.00     0.031 C 
ATOM     42  C   UNL A   1      39.364  26.543  28.166  1.00  0.00     0.029 A 
ATOM     43  N   UNL A   1      41.459  26.853  28.880  1.00  0.00    -0.354 N 
ATOM     44  C   UNL A   1      42.688  30.641  30.575  1.00  0.00     0.074 A 
ATOM     45  C   UNL A   1      41.601  31.594  30.578  1.00  0.00     0.031 C 
ATOM     46  C   UNL A   1      40.039  25.406  27.939  1.00  0.00     0.029 A 
ATOM     47  C   UNL A   1      41.424  25.582  28.359  1.00  0.00     0.049 A 
ATOM     48  H   UNL A   1      42.269  27.253  29.272  1.00  0.00     0.167 HD
ATOM     49  C   UNL A   1      43.936  30.905  31.025  1.00  0.00     0.031 A 
ATOM     50  C   UNL A   1      42.403  24.668  28.215  1.00  0.00     0.031 A 
ATOM     51  C   UNL A   1      45.010  29.950  31.026  1.00  0.00     0.049 A 
ATOM     52  C   UNL A   1      43.790  25.009  28.693  1.00  0.00     0.074 A 
ATOM     53  C   UNL A   1      46.290  30.100  31.529  1.00  0.00     0.029 A 
ATOM     54  N   UNL A   1      44.937  28.677  30.483  1.00  0.00    -0.354 N 
ATOM     55  N   UNL A   1      44.214  26.099  29.286  1.00  0.00    -0.248 NA
ATOM     56  C   UNL A   1      44.832  23.993  28.487  1.00  0.00     0.031 C 
ATOM     57  C   UNL A   1      47.017  28.951  31.213  1.00  0.00     0.029 A 
ATOM     58  C   UNL A   1      46.168  28.053  30.589  1.00  0.00     0.049 A 
ATOM     59  H   UNL A   1      44.131  28.278  30.082  1.00  0.00     0.167 HD
ATOM     60  C   UNL A   1      45.563  25.890  29.542  1.00  0.00     0.074 A 
ATOM     61  C   UNL A   1      45.879  24.559  29.068  1.00  0.00     0.031 C 
ATOM     62  C   UNL A   1      46.463  26.727  30.111  1.00  0.00     0.031 A 
BRANCH  49  63
ATOM     63  C   UNL A   1      44.224  32.290  31.532  1.00  0.00    -0.014 A 
ATOM     64  C   UNL A   1      44.690  33.304  30.680  1.00  0.00     0.009 A 
ATOM     65  C   UNL A   1      43.946  32.604  32.872  1.00  0.00     0.009 A 
ATOM     66  C   UNL A   1      44.893  34.597  31.167  1.00  0.00     0.001 A 
ATOM     67  C   UNL A   1      44.120  33.904  33.348  1.00  0.00     0.001 A 
ATOM     68  C   UNL A   1      44.598  34.898  32.497  1.00  0.00     0.000 A 
ENDBRANCH  49  63
BRANCH  50  69
ATOM     69  C   UNL A   1      42.132  23.361  27.556  1.00  0.00    -0.014 A 
ATOM     70  C   UNL A   1      41.566  22.293  28.270  1.00  0.00     0.009 A 
ATOM     71  C   UNL A   1      42.486  23.157  26.211  1.00  0.00     0.009 A 
ATOM     72  C   UNL A   1      41.408  21.042  27.670  1.00  0.00     0.001 A 
ATOM     73  C   UNL A   1      42.288  21.917  25.601  1.00  0.00     0.001 A 
ATOM     74  C   UNL A   1      41.766  20.856  26.335  1.00  0.00     0.000 A 
ENDBRANCH  50  69
BRANCH  62  75
ATOM     75  C   UNL A   1      47.870  26.223  30.277  1.00  0.00    -0.014 A 
ATOM     76  C   UNL A   1      48.803  26.305  29.231  1.00  0.00     0.009 A 
ATOM     77  C   UNL A   1      48.284  25.716  31.519  1.00  0.00     0.009 A 
ATOM     78  C   UNL A   1      50.113  25.862  29.418  1.00  0.00     0.001 A 
ATOM     79  C   UNL A   1      49.604  25.308  31.714  1.00  0.00     0.001 A 
ATOM     80  C   UNL A   1      50.514  25.372  30.660  1.00  0.00     0.000 A 
ENDBRANCH  62  75
ENDBRANCH  36  37
ENDBRANCH  28  31
ENDBRANCH  26  27
ENDBRANCH  25  26
ENDBRANCH   1  25
TORSDOF 13
ENDMDL
MODEL 2
REMARK VINA RESULT:     -11.6      2.099      7.481
REMARK SMILES C[C@H]1CCC[C@@](NC(=O)N2CCO[C@H](C#N)C2)(C(=O)NCCCNC(=O)c2ccc(-c3c4nc(c(-c5ccccc5)c5ccc([nH]5)c(-c5ccccc5)c5nc(c(-c6ccccc6)c6ccc3[nH]6)C=C5)C=C4)cc2)C1
REMARK SMILES IDX 21 1 20 2 18 3 19 4 6 6 1 7 2 8 3 9 75 10 4 11 5 12 7 13
REMARK SMILES IDX 8 14 9 16 10 17 11 18 17 19 12 20 14 21 13 22 15 23 16 24
REMARK SMILES IDX 22 25 23 26 24 27 25 28 26 30 27 31 28 32 74 33 29 34 73 35
REMARK SMILES IDX 30 36 31 37 32 38 67 39 33 40 72 41 66 42 68 43 34 44 71 45
REMARK SMILES IDX 65 46 64 47 35 49 57 50 42 51 56 52 43 53 46 54 55 55 69 56
REMARK SMILES IDX 44 57 45 58 54 60 70 61 47 62 36 63 37 64 41 65 38 66 40 67
REMARK SMILES IDX 39 68 58 69 59 70 63 71 60 72 62 73 61 74 48 75 49 76 53 77
REMARK SMILES IDX 50 78 52 79 51 80
REMARK H PARENT 20 5 7 15 24 29 68 48 46 59
REMARK Flexibility Score: inf
ROOT
ATOM      1  C   UNL A   1      36.060  21.105  25.156  1.00  0.00     0.117 C 
ENDROOT
BRANCH   1   2
ATOM      2  N   UNL A   1      35.608  21.700  26.410  1.00  0.00    -0.354 N 
ATOM      3  C   UNL A   1      34.340  21.956  26.856  1.00  0.00     0.245 C 
ATOM      4  O   UNL A   1      34.230  22.389  28.006  1.00  0.00    -0.272 OA
ATOM      5  H   UNL A   1      36.327  21.958  27.031  1.00  0.00     0.163 HD
BRANCH   3   6
ATOM      6  C   UNL A   1      33.130  21.808  25.907  1.00  0.00     0.121 C 
ATOM      7  C   UNL A   1      32.748  22.642  22.068  1.00  0.00     0.008 C 
ATOM      8  C   UNL A   1      32.415  21.982  23.406  1.00  0.00    -0.011 C 
ATOM      9  C   UNL A   1      32.553  20.465  23.251  1.00  0.00     0.003 C 
ATOM     10  C   UNL A   1      33.308  22.537  24.547  1.00  0.00     0.042 C 
ATOM     11  C   UNL A   1      32.212  19.771  24.549  1.00  0.00     0.003 C 
ATOM     12  C   UNL A   1      33.134  20.263  25.643  1.00  0.00     0.039 C 
BRANCH   6  13
ATOM     13  N   UNL A   1      31.884  22.276  26.566  1.00  0.00    -0.323 N 
ATOM     14  C   UNL A   1      31.125  23.402  26.545  1.00  0.00     0.318 C 
ATOM     15  H   UNL A   1      31.515  21.595  27.174  1.00  0.00     0.166 HD
ATOM     16  O   UNL A   1      30.135  23.395  27.284  1.00  0.00    -0.249 OA
BRANCH  14  17
ATOM     17  N   UNL A   1      31.549  24.559  25.945  1.00  0.00    -0.319 N 
ATOM     18  C   UNL A   1      32.490  25.410  26.695  1.00  0.00     0.150 C 
ATOM     19  C   UNL A   1      30.844  25.309  24.889  1.00  0.00     0.169 C 
ATOM     20  C   UNL A   1      33.434  26.147  25.732  1.00  0.00     0.183 C 
ATOM     21  C   UNL A   1      31.840  26.069  23.979  1.00  0.00     0.240 C 
ATOM     22  O   UNL A   1      32.693  26.925  24.782  1.00  0.00    -0.360 OA
BRANCH  21  23
ATOM     23  C   UNL A   1      31.134  26.862  22.956  1.00  0.00     0.096 C 
ATOM     24  N   UNL A   1      30.563  27.463  22.146  1.00  0.00    -0.195 NA
ENDBRANCH  21  23
ENDBRANCH  14  17
ENDBRANCH   6  13
ENDBRANCH   3   6
ENDBRANCH   1   2
BRANCH   1  25
ATOM     25  C   UNL A   1      37.365  21.724  24.709  1.00  0.00     0.042 C 
BRANCH  25  26
ATOM     26  C   UNL A   1      38.450  21.544  25.754  1.00  0.00     0.118 C 
BRANCH  26  27
ATOM     27  N   UNL A   1      39.172  20.285  25.614  1.00  0.00    -0.352 N 
ATOM     28  C   UNL A   1      40.459  19.997  25.994  1.00  0.00     0.251 C 
ATOM     29  H   UNL A   1      38.673  19.549  25.192  1.00  0.00     0.163 HD
ATOM     30  O   UNL A   1      40.950  18.898  25.770  1.00  0.00    -0.269 OA
BRANCH  28  31
ATOM     31  C   UNL A   1      41.258  21.078  26.593  1.00  0.00     0.039 A 
ATOM     32  C   UNL A   1      41.895  21.970  25.731  1.00  0.00     0.014 A 
ATOM     33  C   UNL A   1      41.221  21.305  27.972  1.00  0.00     0.014 A 
ATOM     34  C   UNL A   1      42.424  23.149  26.246  1.00  0.00     0.010 A 
ATOM     35  C   UNL A   1      41.668  22.523  28.468  1.00  0.00     0.010 A 
ATOM     36  C   UNL A   1      42.259  23.462  27.606  1.00  0.00    -0.014 A 
BRANCH  36  37
ATOM     37  C   UNL A   1      42.666  24.788  28.127  1.00  0.00     0.031 A 
ATOM     38  C   UNL A   1      41.635  25.856  28.351  1.00  0.00     0.074 A 
ATOM     39  C   UNL A   1      43.973  25.040  28.349  1.00  0.00     0.049 A 
ATOM     40  N   UNL A   1      41.804  27.083  28.768  1.00  0.00    -0.248 NA
ATOM     41  C   UNL A   1      40.237  25.509  28.047  1.00  0.00     0.031 C 
ATOM     42  C   UNL A   1      45.070  24.091  28.133  1.00  0.00     0.029 A 
ATOM     43  N   UNL A   1      44.603  26.171  28.804  1.00  0.00    -0.354 N 
ATOM     44  C   UNL A   1      40.539  27.657  28.761  1.00  0.00     0.074 A 
ATOM     45  C   UNL A   1      39.620  26.661  28.260  1.00  0.00     0.031 C 
ATOM     46  C   UNL A   1      46.229  24.671  28.482  1.00  0.00     0.029 A 
ATOM     47  C   UNL A   1      45.969  26.046  28.891  1.00  0.00     0.049 A 
ATOM     48  H   UNL A   1      44.121  26.995  29.045  1.00  0.00     0.167 HD
ATOM     49  C   UNL A   1      40.179  28.903  29.149  1.00  0.00     0.031 A 
ATOM     50  C   UNL A   1      46.910  26.945  29.240  1.00  0.00     0.031 A 
ATOM     51  C   UNL A   1      41.099  29.886  29.653  1.00  0.00     0.049 A 
ATOM     52  C   UNL A   1      46.477  28.333  29.630  1.00  0.00     0.074 A 
ATOM     53  C   UNL A   1      40.819  31.150  30.140  1.00  0.00     0.029 A 
ATOM     54  N   UNL A   1      42.473  29.724  29.718  1.00  0.00    -0.354 N 
ATOM     55  N   UNL A   1      45.266  28.827  29.718  1.00  0.00    -0.248 NA
ATOM     56  C   UNL A   1      47.541  29.288  29.973  1.00  0.00     0.031 C 
ATOM     57  C   UNL A   1      42.031  31.785  30.418  1.00  0.00     0.029 A 
ATOM     58  C   UNL A   1      43.060  30.887  30.185  1.00  0.00     0.049 A 
ATOM     59  H   UNL A   1      42.959  28.904  29.470  1.00  0.00     0.167 HD
ATOM     60  C   UNL A   1      45.421  30.138  30.146  1.00  0.00     0.074 A 
ATOM     61  C   UNL A   1      46.840  30.355  30.330  1.00  0.00     0.031 C 
ATOM     62  C   UNL A   1      44.475  31.084  30.361  1.00  0.00     0.031 A 
BRANCH  49  63
ATOM     63  C   UNL A   1      38.733  29.291  29.019  1.00  0.00    -0.014 A 
ATOM     64  C   UNL A   1      38.203  29.760  27.807  1.00  0.00     0.009 A 
ATOM     65  C   UNL A   1      37.870  29.106  30.112  1.00  0.00     0.009 A 
ATOM     66  C   UNL A   1      36.842  30.057  27.701  1.00  0.00     0.001 A 
ATOM     67  C   UNL A   1      36.507  29.374  29.993  1.00  0.00     0.001 A 
ATOM     68  C   UNL A   1      35.995  29.854  28.790  1.00  0.00     0.000 A 
ENDBRANCH  49  63
BRANCH  50  69
ATOM     69  C   UNL A   1      48.355  26.587  29.201  1.00  0.00    -0.014 A 
ATOM     70  C   UNL A   1      49.114  26.768  28.034  1.00  0.00     0.009 A 
ATOM     71  C   UNL A   1      48.974  26.012  30.323  1.00  0.00     0.009 A 
ATOM     72  C   UNL A   1      50.442  26.338  27.977  1.00  0.00     0.001 A 
ATOM     73  C   UNL A   1      50.314  25.620  30.277  1.00  0.00     0.001 A 
ATOM     74  C   UNL A   1      51.041  25.767  29.099  1.00  0.00     0.000 A 
ENDBRANCH  50  69
BRANCH  62  75
ATOM     75  C   UNL A   1      44.937  32.431  30.843  1.00  0.00    -0.014 A 
ATOM     76  C   UNL A   1      45.102  32.699  32.211  1.00  0.00     0.009 A 
ATOM     77  C   UNL A   1      45.273  33.425  29.910  1.00  0.00     0.009 A 
ATOM     78  C   UNL A   1      45.565  33.946  32.635  1.00  0.00     0.001 A 
ATOM     79  C   UNL A   1      45.771  34.657  30.335  1.00  0.00     0.001 A 
ATOM     80  C   UNL A   1      45.907  34.919  31.697  1.00  0.00     0.000 A 
ENDBRANCH  62  75
ENDBRANCH  36  37
ENDBRANCH  28  31
ENDBRANCH  26  27
ENDBRANCH  25  26
ENDBRANCH   1  25
TORSDOF 13
ENDMDL
MODEL 3
REMARK VINA RESULT:     -11.5      2.227      6.721
REMARK SMILES C[C@H]1CCC[C@@](NC(=O)N2CCO[C@H](C#N)C2)(C(=O)NCCCNC(=O)c2ccc(-c3c4nc(c(-c5ccccc5)c5ccc([nH]5)c(-c5ccccc5)c5nc(c(-c6ccccc6)c6ccc3[nH]6)C=C5)C=C4)cc2)C1
REMARK SMILES IDX 21 1 20 2 18 3 19 4 6 6 1 7 2 8 3 9 75 10 4 11 5 12 7 13
REMARK SMILES IDX 8 14 9 16 10 17 11 18 17 19 12 20 14 21 13 22 15 23 16 24
REMARK SMILES IDX 22 25 23 26 24 27 25 28 26 30 27 31 28 32 74 33 29 34 73 35
REMARK SMILES IDX 30 36 31 37 32 38 67 39 33 40 72 41 66 42 68 43 34 44 71 45
REMARK SMILES IDX 65 46 64 47 35 49 57 50 42 51 56 52 43 53 46 54 55 55 69 56
REMARK SMILES IDX 44 57 45 58 54 60 70 61 47 62 36 63 37 64 41 65 38 66 40 67
REMARK SMILES IDX 39 68 58 69 59 70 63 71 60 72 62 73 61 74 48 75 49 76 53 77
REMARK SMILES IDX 50 78 52 79 51 80
REMARK H PARENT 20 5 7 15 24 29 68 48 46 59
REMARK Flexibility Score: inf
ROOT
ATOM      1  C   UNL A   1      31.947  29.951  25.467  1.00  0.00     0.117 C 
ENDROOT
BRANCH   1   2
ATOM      2  N   UNL A   1      33.111  29.669  24.634  1.00  0.00    -0.354 N 
ATOM      3  C   UNL A   1      33.227  28.888  23.516  1.00  0.00     0.245 C 
ATOM      4  O   UNL A   1      34.319  28.891  22.943  1.00  0.00    -0.272 OA
ATOM      5  H   UNL A   1      33.944  30.109  24.921  1.00  0.00     0.163 HD
BRANCH   3   6
ATOM      6  C   UNL A   1      32.064  27.968  23.079  1.00  0.00     0.121 C 
ATOM      7  C   UNL A   1      29.479  25.888  25.216  1.00  0.00     0.008 C 
ATOM      8  C   UNL A   1      30.035  26.607  23.987  1.00  0.00    -0.011 C 
ATOM      9  C   UNL A   1      29.089  27.754  23.623  1.00  0.00     0.003 C 
ATOM     10  C   UNL A   1      31.485  27.100  24.230  1.00  0.00     0.042 C 
ATOM     11  C   UNL A   1      29.592  28.481  22.397  1.00  0.00     0.003 C 
ATOM     12  C   UNL A   1      30.979  29.022  22.664  1.00  0.00     0.039 C 
BRANCH   6  13
ATOM     13  N   UNL A   1      32.479  27.095  21.953  1.00  0.00    -0.323 N 
ATOM     14  C   UNL A   1      32.874  25.804  21.805  1.00  0.00     0.318 C 
ATOM     15  H   UNL A   1      32.466  27.576  21.094  1.00  0.00     0.166 HD
ATOM     16  O   UNL A   1      33.159  25.460  20.654  1.00  0.00    -0.249 OA
BRANCH  14  17
ATOM     17  N   UNL A   1      33.177  25.004  22.876  1.00  0.00    -0.319 N 
ATOM     18  C   UNL A   1      34.464  25.233  23.556  1.00  0.00     0.150 C 
ATOM     19  C   UNL A   1      32.640  23.656  23.143  1.00  0.00     0.169 C 
ATOM     20  C   UNL A   1      34.348  24.906  25.052  1.00  0.00     0.183 C 
ATOM     21  C   UNL A   1      32.592  23.362  24.663  1.00  0.00     0.240 C 
ATOM     22  O   UNL A   1      33.904  23.556  25.250  1.00  0.00    -0.360 OA
BRANCH  21  23
ATOM     23  C   UNL A   1      32.107  21.996  24.929  1.00  0.00     0.096 C 
ATOM     24  N   UNL A   1      31.751  20.911  25.129  1.00  0.00    -0.195 NA
ENDBRANCH  21  23
ENDBRANCH  14  17
ENDBRANCH   6  13
ENDBRANCH   3   6
ENDBRANCH   1   2
BRANCH   1  25
ATOM     25  C   UNL A   1      32.332  30.002  26.929  1.00  0.00     0.042 C 
BRANCH  25  26
ATOM     26  C   UNL A   1      33.318  31.124  27.202  1.00  0.00     0.118 C 
BRANCH  26  27
ATOM     27  N   UNL A   1      32.668  32.412  27.416  1.00  0.00    -0.352 N 
ATOM     28  C   UNL A   1      33.146  33.500  28.101  1.00  0.00     0.251 C 
ATOM     29  H   UNL A   1      31.772  32.512  27.020  1.00  0.00     0.163 HD
ATOM     30  O   UNL A   1      32.463  34.508  28.237  1.00  0.00    -0.269 OA
BRANCH  28  31
ATOM     31  C   UNL A   1      34.464  33.384  28.745  1.00  0.00     0.039 A 
ATOM     32  C   UNL A   1      34.536  32.703  29.960  1.00  0.00     0.014 A 
ATOM     33  C   UNL A   1      35.620  33.781  28.067  1.00  0.00     0.014 A 
ATOM     34  C   UNL A   1      35.782  32.336  30.457  1.00  0.00     0.010 A 
ATOM     35  C   UNL A   1      36.855  33.332  28.519  1.00  0.00     0.010 A 
ATOM     36  C   UNL A   1      36.945  32.592  29.710  1.00  0.00    -0.014 A 
BRANCH  36  37
ATOM     37  C   UNL A   1      38.254  32.055  30.148  1.00  0.00     0.031 A 
ATOM     38  C   UNL A   1      38.742  30.740  29.614  1.00  0.00     0.074 A 
ATOM     39  C   UNL A   1      38.975  32.733  31.065  1.00  0.00     0.049 A 
ATOM     40  N   UNL A   1      39.842  30.095  29.905  1.00  0.00    -0.248 NA
ATOM     41  C   UNL A   1      37.876  30.049  28.646  1.00  0.00     0.031 C 
ATOM     42  C   UNL A   1      38.584  34.004  31.684  1.00  0.00     0.029 A 
ATOM     43  N   UNL A   1      40.188  32.447  31.642  1.00  0.00    -0.354 N 
ATOM     44  C   UNL A   1      39.791  28.919  29.169  1.00  0.00     0.074 A 
ATOM     45  C   UNL A   1      38.536  28.917  28.452  1.00  0.00     0.031 C 
ATOM     46  C   UNL A   1      39.550  34.399  32.527  1.00  0.00     0.029 A 
ATOM     47  C   UNL A   1      40.600  33.388  32.556  1.00  0.00     0.049 A 
ATOM     48  H   UNL A   1      40.712  31.644  31.421  1.00  0.00     0.167 HD
ATOM     49  C   UNL A   1      40.715  27.934  29.093  1.00  0.00     0.031 A 
ATOM     50  C   UNL A   1      41.691  33.421  33.346  1.00  0.00     0.031 A 
ATOM     51  C   UNL A   1      41.964  27.946  29.804  1.00  0.00     0.049 A 
ATOM     52  C   UNL A   1      42.681  32.290  33.262  1.00  0.00     0.074 A 
ATOM     53  C   UNL A   1      42.998  27.029  29.734  1.00  0.00     0.029 A 
ATOM     54  N   UNL A   1      42.341  28.910  30.724  1.00  0.00    -0.354 N 
ATOM     55  N   UNL A   1      42.668  31.235  32.483  1.00  0.00    -0.248 NA
ATOM     56  C   UNL A   1      43.840  32.354  34.164  1.00  0.00     0.031 C 
ATOM     57  C   UNL A   1      43.962  27.392  30.677  1.00  0.00     0.029 A 
ATOM     58  C   UNL A   1      43.569  28.579  31.272  1.00  0.00     0.049 A 
ATOM     59  H   UNL A   1      41.815  29.711  30.954  1.00  0.00     0.167 HD
ATOM     60  C   UNL A   1      43.822  30.526  32.785  1.00  0.00     0.074 A 
ATOM     61  C   UNL A   1      44.528  31.283  33.796  1.00  0.00     0.031 C 
ATOM     62  C   UNL A   1      44.256  29.346  32.278  1.00  0.00     0.031 A 
BRANCH  49  63
ATOM     63  C   UNL A   1      40.405  26.741  28.233  1.00  0.00    -0.014 A 
ATOM     64  C   UNL A   1      39.608  25.684  28.700  1.00  0.00     0.009 A 
ATOM     65  C   UNL A   1      40.855  26.716  26.903  1.00  0.00     0.009 A 
ATOM     66  C   UNL A   1      39.289  24.616  27.858  1.00  0.00     0.001 A 
ATOM     67  C   UNL A   1      40.508  25.664  26.055  1.00  0.00     0.001 A 
ATOM     68  C   UNL A   1      39.729  24.613  26.535  1.00  0.00     0.000 A 
ENDBRANCH  49  63
BRANCH  50  69
ATOM     69  C   UNL A   1      41.895  34.533  34.314  1.00  0.00    -0.014 A 
ATOM     70  C   UNL A   1      41.388  34.458  35.620  1.00  0.00     0.009 A 
ATOM     71  C   UNL A   1      42.560  35.705  33.918  1.00  0.00     0.009 A 
ATOM     72  C   UNL A   1      41.499  35.547  36.489  1.00  0.00     0.001 A 
ATOM     73  C   UNL A   1      42.706  36.777  34.801  1.00  0.00     0.001 A 
ATOM     74  C   UNL A   1      42.160  36.704  36.080  1.00  0.00     0.000 A 
ENDBRANCH  50  69
BRANCH  62  75
ATOM     75  C   UNL A   1      45.567  28.814  32.787  1.00  0.00    -0.014 A 
ATOM     76  C   UNL A   1      45.617  27.874  33.828  1.00  0.00     0.009 A 
ATOM     77  C   UNL A   1      46.765  29.213  32.172  1.00  0.00     0.009 A 
ATOM     78  C   UNL A   1      46.843  27.368  34.263  1.00  0.00     0.001 A 
ATOM     79  C   UNL A   1      47.985  28.676  32.584  1.00  0.00     0.001 A 
ATOM     80  C   UNL A   1      48.024  27.762  33.635  1.00  0.00     0.000 A 
ENDBRANCH  62  75
ENDBRANCH  36  37
ENDBRANCH  28  31
ENDBRANCH  26  27
ENDBRANCH  25  26
ENDBRANCH   1  25
TORSDOF 13
ENDMDL
