MODEL 1
REMARK VINA RESULT:     -11.7      0.000      0.000
REMARK SMILES COc1ccc(C(=O)/C=C/c2c(F)cccc2F)cc1CC(=O)NCCCNC(=O)c1ccc(-c2c3nc(c(-c4ccccc4)c4ccc([nH]4)c(-c4ccccc4)c4nc(c(-c5ccccc5)c5ccc2[nH]5)C=C4)C=C3)cc1
REMARK SMILES IDX 25 1 24 2 22 3 23 4 21 6 20 7 3 8 4 9 5 10 19 11 6 12 2 13
REMARK SMILES IDX 1 14 7 15 8 16 9 17 10 18 11 19 12 20 17 21 13 22 14 23
REMARK SMILES IDX 16 24 18 25 15 26 26 27 27 28 28 29 29 30 30 32 31 33 32 34
REMARK SMILES IDX 78 35 33 36 77 37 34 38 35 39 36 40 71 41 37 42 76 43 70 44
REMARK SMILES IDX 72 45 38 46 75 47 69 48 68 49 39 51 61 52 46 53 60 54 47 55
REMARK SMILES IDX 50 56 59 57 73 58 48 59 49 60 58 62 74 63 51 64 40 65 41 66
REMARK SMILES IDX 45 67 42 68 44 69 43 70 62 71 63 72 67 73 64 74 66 75 65 76
REMARK SMILES IDX 52 77 53 78 57 79 54 80 56 81 55 82
REMARK H PARENT 24 5 28 31 72 50 50 61
REMARK Flexibility Score: inf
ROOT
ATOM      1  C   UNL A   1      36.946  20.898  24.990  1.00  0.00     0.117 C 
ENDROOT
BRANCH   1   2
ATOM      2  N   UNL A   1      37.291  22.036  25.818  1.00  0.00    -0.356 N 
ATOM      3  C   UNL A   1      36.872  23.328  25.702  1.00  0.00     0.224 C 
ATOM      4  O   UNL A   1      37.310  24.167  26.491  1.00  0.00    -0.275 OA
ATOM      5  H   UNL A   1      37.911  21.852  26.562  1.00  0.00     0.163 HD
BRANCH   3   6
ATOM      6  C   UNL A   1      35.839  23.694  24.652  1.00  0.00     0.139 C 
BRANCH   6   7
ATOM      7  C   UNL A   1      34.518  24.195  25.193  1.00  0.00     0.004 A 
ATOM      8  C   UNL A   1      33.530  23.443  25.845  1.00  0.00     0.122 A 
ATOM      9  C   UNL A   1      32.382  24.100  26.324  1.00  0.00     0.047 A 
ATOM     10  C   UNL A   1      32.214  25.482  26.205  1.00  0.00     0.016 A 
ATOM     11  C   UNL A   1      34.289  25.588  25.024  1.00  0.00     0.020 A 
ATOM     12  C   UNL A   1      33.179  26.250  25.557  1.00  0.00     0.022 A 
BRANCH   8  13
ATOM     13  O   UNL A   1      33.431  22.094  26.027  1.00  0.00    -0.496 OA
ATOM     14  C   UNL A   1      32.892  21.248  25.030  1.00  0.00     0.278 C 
ENDBRANCH   8  13
BRANCH  12  15
ATOM     15  C   UNL A   1      32.947  27.723  25.423  1.00  0.00     0.185 C 
ATOM     16  O   UNL A   1      33.859  28.506  25.681  1.00  0.00    -0.289 OA
BRANCH  15  17
ATOM     17  C   UNL A   1      31.621  28.290  25.038  1.00  0.00     0.053 C 
ATOM     18  C   UNL A   1      31.421  29.252  24.128  1.00  0.00     0.018 C 
BRANCH  18  19
ATOM     19  C   UNL A   1      30.095  29.712  23.710  1.00  0.00     0.046 A 
ATOM     20  C   UNL A   1      29.342  28.963  22.798  1.00  0.00     0.133 A 
ATOM     21  C   UNL A   1      29.587  30.940  24.129  1.00  0.00     0.133 A 
ATOM     22  F   UNL A   1      29.787  27.769  22.376  1.00  0.00    -0.206 F 
ATOM     23  C   UNL A   1      28.134  29.440  22.290  1.00  0.00     0.040 A 
ATOM     24  C   UNL A   1      28.378  31.428  23.634  1.00  0.00     0.040 A 
ATOM     25  F   UNL A   1      30.275  31.691  25.001  1.00  0.00    -0.206 F 
ATOM     26  C   UNL A   1      27.653  30.683  22.703  1.00  0.00     0.006 A 
ENDBRANCH  18  19
ENDBRANCH  15  17
ENDBRANCH  12  15
ENDBRANCH   6   7
ENDBRANCH   3   6
ENDBRANCH   1   2
BRANCH   1  27
ATOM     27  C   UNL A   1      38.032  19.829  25.001  1.00  0.00     0.042 C 
BRANCH  27  28
ATOM     28  C   UNL A   1      39.095  20.060  26.066  1.00  0.00     0.118 C 
BRANCH  28  29
ATOM     29  N   UNL A   1      40.170  19.079  25.998  1.00  0.00    -0.352 N 
ATOM     30  C   UNL A   1      41.530  19.253  26.033  1.00  0.00     0.251 C 
ATOM     31  H   UNL A   1      39.873  18.144  25.913  1.00  0.00     0.163 HD
ATOM     32  O   UNL A   1      42.270  18.316  25.751  1.00  0.00    -0.269 OA
BRANCH  30  33
ATOM     33  C   UNL A   1      42.104  20.564  26.398  1.00  0.00     0.039 A 
ATOM     34  C   UNL A   1      42.499  21.432  25.376  1.00  0.00     0.014 A 
ATOM     35  C   UNL A   1      42.276  20.928  27.735  1.00  0.00     0.014 A 
ATOM     36  C   UNL A   1      43.010  22.691  25.698  1.00  0.00     0.010 A 
ATOM     37  C   UNL A   1      42.707  22.213  28.052  1.00  0.00     0.010 A 
ATOM     38  C   UNL A   1      43.083  23.104  27.038  1.00  0.00    -0.014 A 
BRANCH  38  39
ATOM     39  C   UNL A   1      43.543  24.468  27.397  1.00  0.00     0.031 A 
ATOM     40  C   UNL A   1      42.552  25.514  27.826  1.00  0.00     0.074 A 
ATOM     41  C   UNL A   1      44.847  24.783  27.271  1.00  0.00     0.049 A 
ATOM     42  N   UNL A   1      42.757  26.774  28.120  1.00  0.00    -0.248 NA
ATOM     43  C   UNL A   1      41.142  25.100  27.912  1.00  0.00     0.031 C 
ATOM     44  C   UNL A   1      45.900  23.869  26.824  1.00  0.00     0.029 A 
ATOM     45  N   UNL A   1      45.507  25.963  27.501  1.00  0.00    -0.354 N 
ATOM     46  C   UNL A   1      41.505  27.303  28.407  1.00  0.00     0.074 A 
ATOM     47  C   UNL A   1      40.541  26.244  28.204  1.00  0.00     0.031 C 
ATOM     48  C   UNL A   1      47.077  24.515  26.839  1.00  0.00     0.029 A 
ATOM     49  C   UNL A   1      46.857  25.896  27.253  1.00  0.00     0.049 A 
ATOM     50  H   UNL A   1      45.056  26.780  27.815  1.00  0.00     0.167 HD
ATOM     51  C   UNL A   1      41.188  28.553  28.820  1.00  0.00     0.031 A 
ATOM     52  C   UNL A   1      47.809  26.844  27.338  1.00  0.00     0.031 A 
ATOM     53  C   UNL A   1      42.149  29.603  29.028  1.00  0.00     0.049 A 
ATOM     54  C   UNL A   1      47.427  28.228  27.782  1.00  0.00     0.074 A 
ATOM     55  C   UNL A   1      41.934  30.886  29.500  1.00  0.00     0.029 A 
ATOM     56  N   UNL A   1      43.507  29.492  28.772  1.00  0.00    -0.354 N 
ATOM     57  N   UNL A   1      46.249  28.692  28.121  1.00  0.00    -0.248 NA
ATOM     58  C   UNL A   1      48.511  29.217  27.865  1.00  0.00     0.031 C 
ATOM     59  C   UNL A   1      43.154  31.569  29.477  1.00  0.00     0.029 A 
ATOM     60  C   UNL A   1      44.138  30.692  29.051  1.00  0.00     0.049 A 
ATOM     61  H   UNL A   1      43.955  28.681  28.440  1.00  0.00     0.167 HD
ATOM     62  C   UNL A   1      46.455  30.016  28.487  1.00  0.00     0.074 A 
ATOM     63  C   UNL A   1      47.873  30.275  28.343  1.00  0.00     0.031 C 
ATOM     64  C   UNL A   1      45.551  30.934  28.907  1.00  0.00     0.031 A 
BRANCH  51  65
ATOM     65  C   UNL A   1      39.735  28.855  29.067  1.00  0.00    -0.014 A 
ATOM     66  C   UNL A   1      38.904  29.328  28.039  1.00  0.00     0.009 A 
ATOM     67  C   UNL A   1      39.181  28.623  30.335  1.00  0.00     0.009 A 
ATOM     68  C   UNL A   1      37.556  29.598  28.286  1.00  0.00     0.001 A 
ATOM     69  C   UNL A   1      37.826  28.866  30.572  1.00  0.00     0.001 A 
ATOM     70  C   UNL A   1      37.017  29.362  29.550  1.00  0.00     0.000 A 
ENDBRANCH  51  65
BRANCH  52  71
ATOM     71  C   UNL A   1      49.220  26.513  27.009  1.00  0.00    -0.014 A 
ATOM     72  C   UNL A   1      49.690  26.627  25.693  1.00  0.00     0.009 A 
ATOM     73  C   UNL A   1      50.104  26.078  28.009  1.00  0.00     0.009 A 
ATOM     74  C   UNL A   1      51.006  26.282  25.377  1.00  0.00     0.001 A 
ATOM     75  C   UNL A   1      51.430  25.764  27.697  1.00  0.00     0.001 A 
ATOM     76  C   UNL A   1      51.876  25.856  26.380  1.00  0.00     0.000 A 
ENDBRANCH  52  71
BRANCH  64  77
ATOM     77  C   UNL A   1      46.071  32.293  29.283  1.00  0.00    -0.014 A 
ATOM     78  C   UNL A   1      46.526  32.568  30.581  1.00  0.00     0.009 A 
ATOM     79  C   UNL A   1      46.148  33.298  28.306  1.00  0.00     0.009 A 
ATOM     80  C   UNL A   1      47.018  33.835  30.902  1.00  0.00     0.001 A 
ATOM     81  C   UNL A   1      46.669  34.554  28.622  1.00  0.00     0.001 A 
ATOM     82  C   UNL A   1      47.095  34.824  29.920  1.00  0.00     0.000 A 
ENDBRANCH  64  77
ENDBRANCH  38  39
ENDBRANCH  30  33
ENDBRANCH  28  29
ENDBRANCH  27  28
ENDBRANCH   1  27
TORSDOF 15
ENDMDL
MODEL 2
REMARK VINA RESULT:     -11.6      1.399      6.002
REMARK SMILES COc1ccc(C(=O)/C=C/c2c(F)cccc2F)cc1CC(=O)NCCCNC(=O)c1ccc(-c2c3nc(c(-c4ccccc4)c4ccc([nH]4)c(-c4ccccc4)c4nc(c(-c5ccccc5)c5ccc2[nH]5)C=C4)C=C3)cc1
REMARK SMILES IDX 25 1 24 2 22 3 23 4 21 6 20 7 3 8 4 9 5 10 19 11 6 12 2 13
REMARK SMILES IDX 1 14 7 15 8 16 9 17 10 18 11 19 12 20 17 21 13 22 14 23
REMARK SMILES IDX 16 24 18 25 15 26 26 27 27 28 28 29 29 30 30 32 31 33 32 34
REMARK SMILES IDX 78 35 33 36 77 37 34 38 35 39 36 40 71 41 37 42 76 43 70 44
REMARK SMILES IDX 72 45 38 46 75 47 69 48 68 49 39 51 61 52 46 53 60 54 47 55
REMARK SMILES IDX 50 56 59 57 73 58 48 59 49 60 58 62 74 63 51 64 40 65 41 66
REMARK SMILES IDX 45 67 42 68 44 69 43 70 62 71 63 72 67 73 64 74 66 75 65 76
REMARK SMILES IDX 52 77 53 78 57 79 54 80 56 81 55 82
REMARK H PARENT 24 5 28 31 72 50 50 61
REMARK Flexibility Score: inf
ROOT
ATOM      1  C   UNL A   1      37.042  20.057  24.840  1.00  0.00     0.117 C 
ENDROOT
BRANCH   1   2
ATOM      2  N   UNL A   1      37.135  21.343  25.501  1.00  0.00    -0.356 N 
ATOM      3  C   UNL A   1      36.873  22.580  24.990  1.00  0.00     0.224 C 
ATOM      4  O   UNL A   1      37.048  23.566  25.707  1.00  0.00    -0.275 OA
ATOM      5  H   UNL A   1      37.426  21.322  26.441  1.00  0.00     0.163 HD
BRANCH   3   6
ATOM      6  C   UNL A   1      36.322  22.713  23.582  1.00  0.00     0.139 C 
BRANCH   6   7
ATOM      7  C   UNL A   1      34.836  22.984  23.494  1.00  0.00     0.004 A 
ATOM      8  C   UNL A   1      33.804  22.237  24.079  1.00  0.00     0.122 A 
ATOM      9  C   UNL A   1      32.477  22.677  23.924  1.00  0.00     0.047 A 
ATOM     10  C   UNL A   1      32.159  23.854  23.240  1.00  0.00     0.016 A 
ATOM     11  C   UNL A   1      34.480  24.138  22.745  1.00  0.00     0.020 A 
ATOM     12  C   UNL A   1      33.167  24.610  22.647  1.00  0.00     0.022 A 
BRANCH   8  13
ATOM     13  O   UNL A   1      33.847  21.038  24.730  1.00  0.00    -0.496 OA
ATOM     14  C   UNL A   1      33.643  20.946  26.127  1.00  0.00     0.278 C 
ENDBRANCH   8  13
BRANCH  12  15
ATOM     15  C   UNL A   1      32.783  25.848  21.896  1.00  0.00     0.185 C 
ATOM     16  O   UNL A   1      33.627  26.433  21.221  1.00  0.00    -0.289 OA
BRANCH  15  17
ATOM     17  C   UNL A   1      31.415  26.439  21.980  1.00  0.00     0.053 C 
ATOM     18  C   UNL A   1      31.031  27.392  22.839  1.00  0.00     0.018 C 
BRANCH  18  19
ATOM     19  C   UNL A   1      29.705  28.014  22.823  1.00  0.00     0.046 A 
ATOM     20  C   UNL A   1      29.520  29.270  22.233  1.00  0.00     0.133 A 
ATOM     21  C   UNL A   1      28.620  27.424  23.468  1.00  0.00     0.133 A 
ATOM     22  F   UNL A   1      30.534  29.869  21.591  1.00  0.00    -0.206 F 
ATOM     23  C   UNL A   1      28.297  29.936  22.314  1.00  0.00     0.040 A 
ATOM     24  C   UNL A   1      27.390  28.076  23.553  1.00  0.00     0.040 A 
ATOM     25  F   UNL A   1      28.752  26.222  24.047  1.00  0.00    -0.206 F 
ATOM     26  C   UNL A   1      27.229  29.340  22.985  1.00  0.00     0.006 A 
ENDBRANCH  18  19
ENDBRANCH  15  17
ENDBRANCH  12  15
ENDBRANCH   6   7
ENDBRANCH   3   6
ENDBRANCH   1   2
BRANCH   1  27
ATOM     27  C   UNL A   1      38.132  19.096  25.298  1.00  0.00     0.042 C 
BRANCH  27  28
ATOM     28  C   UNL A   1      39.413  19.797  25.727  1.00  0.00     0.118 C 
BRANCH  28  29
ATOM     29  N   UNL A   1      40.534  18.875  25.854  1.00  0.00    -0.352 N 
ATOM     30  C   UNL A   1      41.866  19.125  26.063  1.00  0.00     0.251 C 
ATOM     31  H   UNL A   1      40.297  17.922  25.778  1.00  0.00     0.163 HD
ATOM     32  O   UNL A   1      42.682  18.219  25.931  1.00  0.00    -0.269 OA
BRANCH  30  33
ATOM     33  C   UNL A   1      42.320  20.480  26.434  1.00  0.00     0.039 A 
ATOM     34  C   UNL A   1      42.790  21.331  25.429  1.00  0.00     0.014 A 
ATOM     35  C   UNL A   1      42.309  20.905  27.764  1.00  0.00     0.014 A 
ATOM     36  C   UNL A   1      43.190  22.628  25.752  1.00  0.00     0.010 A 
ATOM     37  C   UNL A   1      42.627  22.224  28.073  1.00  0.00     0.010 A 
ATOM     38  C   UNL A   1      43.077  23.096  27.072  1.00  0.00    -0.014 A 
BRANCH  38  39
ATOM     39  C   UNL A   1      43.415  24.498  27.421  1.00  0.00     0.031 A 
ATOM     40  C   UNL A   1      44.849  24.950  27.437  1.00  0.00     0.074 A 
ATOM     41  C   UNL A   1      42.435  25.345  27.791  1.00  0.00     0.049 A 
ATOM     42  N   UNL A   1      45.343  26.115  27.774  1.00  0.00    -0.248 NA
ATOM     43  C   UNL A   1      45.864  23.958  27.047  1.00  0.00     0.031 C 
ATOM     44  C   UNL A   1      41.009  25.014  27.858  1.00  0.00     0.029 A 
ATOM     45  N   UNL A   1      42.490  26.657  28.188  1.00  0.00    -0.354 N 
ATOM     46  C   UNL A   1      46.721  25.989  27.655  1.00  0.00     0.074 A 
ATOM     47  C   UNL A   1      46.990  24.622  27.263  1.00  0.00     0.031 C 
ATOM     48  C   UNL A   1      40.324  26.102  28.243  1.00  0.00     0.029 A 
ATOM     49  C   UNL A   1      41.262  27.191  28.494  1.00  0.00     0.049 A 
ATOM     50  H   UNL A   1      43.330  27.166  28.247  1.00  0.00     0.167 HD
ATOM     51  C   UNL A   1      47.677  26.931  27.837  1.00  0.00     0.031 A 
ATOM     52  C   UNL A   1      40.929  28.418  28.936  1.00  0.00     0.031 A 
ATOM     53  C   UNL A   1      47.408  28.292  28.219  1.00  0.00     0.049 A 
ATOM     54  C   UNL A   1      42.011  29.439  29.147  1.00  0.00     0.074 A 
ATOM     55  C   UNL A   1      48.302  29.336  28.372  1.00  0.00     0.029 A 
ATOM     56  N   UNL A   1      46.149  28.794  28.512  1.00  0.00    -0.354 N 
ATOM     57  N   UNL A   1      43.303  29.326  28.958  1.00  0.00    -0.248 NA
ATOM     58  C   UNL A   1      41.585  30.763  29.623  1.00  0.00     0.031 C 
ATOM     59  C   UNL A   1      47.592  30.457  28.813  1.00  0.00     0.029 A 
ATOM     60  C   UNL A   1      46.248  30.128  28.872  1.00  0.00     0.049 A 
ATOM     61  H   UNL A   1      45.311  28.280  28.471  1.00  0.00     0.167 HD
ATOM     62  C   UNL A   1      43.841  30.570  29.262  1.00  0.00     0.074 A 
ATOM     63  C   UNL A   1      42.732  31.427  29.631  1.00  0.00     0.031 C 
ATOM     64  C   UNL A   1      45.135  30.968  29.234  1.00  0.00     0.031 A 
BRANCH  51  65
ATOM     65  C   UNL A   1      49.108  26.517  27.631  1.00  0.00    -0.014 A 
ATOM     66  C   UNL A   1      49.955  26.254  28.719  1.00  0.00     0.009 A 
ATOM     67  C   UNL A   1      49.604  26.346  26.329  1.00  0.00     0.009 A 
ATOM     68  C   UNL A   1      51.280  25.866  28.508  1.00  0.00     0.001 A 
ATOM     69  C   UNL A   1      50.921  25.929  26.120  1.00  0.00     0.001 A 
ATOM     70  C   UNL A   1      51.760  25.698  27.210  1.00  0.00     0.000 A 
ENDBRANCH  51  65
BRANCH  52  71
ATOM     71  C   UNL A   1      39.505  28.754  29.198  1.00  0.00    -0.014 A 
ATOM     72  C   UNL A   1      38.696  29.270  28.175  1.00  0.00     0.009 A 
ATOM     73  C   UNL A   1      38.949  28.567  30.473  1.00  0.00     0.009 A 
ATOM     74  C   UNL A   1      37.368  29.620  28.431  1.00  0.00     0.001 A 
ATOM     75  C   UNL A   1      37.611  28.887  30.718  1.00  0.00     0.001 A 
ATOM     76  C   UNL A   1      36.825  29.423  29.700  1.00  0.00     0.000 A 
ENDBRANCH  52  71
BRANCH  64  77
ATOM     77  C   UNL A   1      45.423  32.405  29.571  1.00  0.00    -0.014 A 
ATOM     78  C   UNL A   1      45.730  32.800  30.882  1.00  0.00     0.009 A 
ATOM     79  C   UNL A   1      45.430  33.367  28.549  1.00  0.00     0.009 A 
ATOM     80  C   UNL A   1      46.007  34.139  31.167  1.00  0.00     0.001 A 
ATOM     81  C   UNL A   1      45.738  34.698  28.832  1.00  0.00     0.001 A 
ATOM     82  C   UNL A   1      46.017  35.084  30.141  1.00  0.00     0.000 A 
ENDBRANCH  64  77
ENDBRANCH  38  39
ENDBRANCH  30  33
ENDBRANCH  28  29
ENDBRANCH  27  28
ENDBRANCH   1  27
TORSDOF 15
ENDMDL
MODEL 3
REMARK VINA RESULT:     -11.6      4.589      9.969
REMARK SMILES COc1ccc(C(=O)/C=C/c2c(F)cccc2F)cc1CC(=O)NCCCNC(=O)c1ccc(-c2c3nc(c(-c4ccccc4)c4ccc([nH]4)c(-c4ccccc4)c4nc(c(-c5ccccc5)c5ccc2[nH]5)C=C4)C=C3)cc1
REMARK SMILES IDX 25 1 24 2 22 3 23 4 21 6 20 7 3 8 4 9 5 10 19 11 6 12 2 13
REMARK SMILES IDX 1 14 7 15 8 16 9 17 10 18 11 19 12 20 17 21 13 22 14 23
REMARK SMILES IDX 16 24 18 25 15 26 26 27 27 28 28 29 29 30 30 32 31 33 32 34
REMARK SMILES IDX 78 35 33 36 77 37 34 38 35 39 36 40 71 41 37 42 76 43 70 44
REMARK SMILES IDX 72 45 38 46 75 47 69 48 68 49 39 51 61 52 46 53 60 54 47 55
REMARK SMILES IDX 50 56 59 57 73 58 48 59 49 60 58 62 74 63 51 64 40 65 41 66
REMARK SMILES IDX 45 67 42 68 44 69 43 70 62 71 63 72 67 73 64 74 66 75 65 76
REMARK SMILES IDX 52 77 53 78 57 79 54 80 56 81 55 82
REMARK H PARENT 24 5 28 31 72 50 50 61
REMARK Flexibility Score: inf
ROOT
ATOM      1  C   UNL A   1      31.696  30.613  26.490  1.00  0.00     0.117 C 
ENDROOT
BRANCH   1   2
ATOM      2  N   UNL A   1      33.089  30.256  26.670  1.00  0.00    -0.356 N 
ATOM      3  C   UNL A   1      33.638  29.013  26.780  1.00  0.00     0.224 C 
ATOM      4  O   UNL A   1      34.852  28.916  26.967  1.00  0.00    -0.275 OA
ATOM      5  H   UNL A   1      33.722  31.010  26.721  1.00  0.00     0.163 HD
BRANCH   3   6
ATOM      6  C   UNL A   1      32.763  27.784  26.615  1.00  0.00     0.139 C 
BRANCH   6   7
ATOM      7  C   UNL A   1      33.146  26.869  25.473  1.00  0.00     0.004 A 
ATOM      8  C   UNL A   1      32.928  27.087  24.105  1.00  0.00     0.122 A 
ATOM      9  C   UNL A   1      33.401  26.136  23.183  1.00  0.00     0.047 A 
ATOM     10  C   UNL A   1      34.115  25.003  23.584  1.00  0.00     0.016 A 
ATOM     11  C   UNL A   1      33.811  25.674  25.858  1.00  0.00     0.020 A 
ATOM     12  C   UNL A   1      34.339  24.762  24.937  1.00  0.00     0.022 A 
BRANCH   8  13
ATOM     13  O   UNL A   1      32.216  28.065  23.473  1.00  0.00    -0.496 OA
ATOM     14  C   UNL A   1      30.804  28.121  23.548  1.00  0.00     0.278 C 
ENDBRANCH   8  13
BRANCH  12  15
ATOM     15  C   UNL A   1      35.080  23.521  25.329  1.00  0.00     0.185 C 
ATOM     16  O   UNL A   1      36.004  23.597  26.137  1.00  0.00    -0.289 OA
BRANCH  15  17
ATOM     17  C   UNL A   1      34.777  22.189  24.729  1.00  0.00     0.053 C 
ATOM     18  C   UNL A   1      34.512  21.070  25.415  1.00  0.00     0.018 C 
BRANCH  18  19
ATOM     19  C   UNL A   1      34.124  19.805  24.787  1.00  0.00     0.046 A 
ATOM     20  C   UNL A   1      32.787  19.561  24.453  1.00  0.00     0.133 A 
ATOM     21  C   UNL A   1      35.048  18.780  24.589  1.00  0.00     0.133 A 
ATOM     22  F   UNL A   1      31.866  20.524  24.615  1.00  0.00    -0.206 F 
ATOM     23  C   UNL A   1      32.373  18.320  23.970  1.00  0.00     0.040 A 
ATOM     24  C   UNL A   1      34.650  17.534  24.103  1.00  0.00     0.040 A 
ATOM     25  F   UNL A   1      36.339  18.968  24.896  1.00  0.00    -0.206 F 
ATOM     26  C   UNL A   1      33.308  17.298  23.802  1.00  0.00     0.006 A 
ENDBRANCH  18  19
ENDBRANCH  15  17
ENDBRANCH  12  15
ENDBRANCH   6   7
ENDBRANCH   3   6
ENDBRANCH   1   2
BRANCH   1  27
ATOM     27  C   UNL A   1      31.427  32.071  26.843  1.00  0.00     0.042 C 
BRANCH  27  28
ATOM     28  C   UNL A   1      32.688  32.922  26.894  1.00  0.00     0.118 C 
BRANCH  28  29
ATOM     29  N   UNL A   1      32.519  34.114  27.715  1.00  0.00    -0.352 N 
ATOM     30  C   UNL A   1      33.220  34.536  28.816  1.00  0.00     0.251 C 
ATOM     31  H   UNL A   1      31.786  34.709  27.436  1.00  0.00     0.163 HD
ATOM     32  O   UNL A   1      32.788  35.464  29.492  1.00  0.00    -0.269 OA
BRANCH  30  33
ATOM     33  C   UNL A   1      34.484  33.872  29.194  1.00  0.00     0.039 A 
ATOM     34  C   UNL A   1      35.650  34.198  28.495  1.00  0.00     0.014 A 
ATOM     35  C   UNL A   1      34.520  32.918  30.213  1.00  0.00     0.014 A 
ATOM     36  C   UNL A   1      36.861  33.610  28.860  1.00  0.00     0.010 A 
ATOM     37  C   UNL A   1      35.740  32.396  30.630  1.00  0.00     0.010 A 
ATOM     38  C   UNL A   1      36.922  32.732  29.955  1.00  0.00    -0.014 A 
BRANCH  38  39
ATOM     39  C   UNL A   1      38.213  32.162  30.412  1.00  0.00     0.031 A 
ATOM     40  C   UNL A   1      38.712  30.863  29.844  1.00  0.00     0.074 A 
ATOM     41  C   UNL A   1      38.902  32.783  31.390  1.00  0.00     0.049 A 
ATOM     42  N   UNL A   1      39.784  30.182  30.163  1.00  0.00    -0.248 NA
ATOM     43  C   UNL A   1      37.888  30.233  28.800  1.00  0.00     0.031 C 
ATOM     44  C   UNL A   1      38.502  34.027  32.051  1.00  0.00     0.029 A 
ATOM     45  N   UNL A   1      40.083  32.446  32.002  1.00  0.00    -0.354 N 
ATOM     46  C   UNL A   1      39.752  29.038  29.374  1.00  0.00     0.074 A 
ATOM     47  C   UNL A   1      38.532  29.093  28.598  1.00  0.00     0.031 C 
ATOM     48  C   UNL A   1      39.435  34.362  32.957  1.00  0.00     0.029 A 
ATOM     49  C   UNL A   1      40.473  33.338  32.972  1.00  0.00     0.049 A 
ATOM     50  H   UNL A   1      40.601  31.643  31.768  1.00  0.00     0.167 HD
ATOM     51  C   UNL A   1      40.666  28.042  29.289  1.00  0.00     0.031 A 
ATOM     52  C   UNL A   1      41.543  33.327  33.789  1.00  0.00     0.031 A 
ATOM     53  C   UNL A   1      41.882  27.993  30.055  1.00  0.00     0.049 A 
ATOM     54  C   UNL A   1      42.532  32.200  33.686  1.00  0.00     0.074 A 
ATOM     55  C   UNL A   1      42.899  27.057  29.998  1.00  0.00     0.029 A 
ATOM     56  N   UNL A   1      42.243  28.920  31.021  1.00  0.00    -0.354 N 
ATOM     57  N   UNL A   1      42.525  31.164  32.882  1.00  0.00    -0.248 NA
ATOM     58  C   UNL A   1      43.683  32.247  34.598  1.00  0.00     0.031 C 
ATOM     59  C   UNL A   1      43.849  27.385  30.969  1.00  0.00     0.029 A 
ATOM     60  C   UNL A   1      43.455  28.562  31.586  1.00  0.00     0.049 A 
ATOM     61  H   UNL A   1      41.716  29.714  31.268  1.00  0.00     0.167 HD
ATOM     62  C   UNL A   1      43.683  30.455  33.169  1.00  0.00     0.074 A 
ATOM     63  C   UNL A   1      44.377  31.187  34.210  1.00  0.00     0.031 C 
ATOM     64  C   UNL A   1      44.134  29.302  32.619  1.00  0.00     0.031 A 
BRANCH  51  65
ATOM     65  C   UNL A   1      40.377  26.916  28.334  1.00  0.00    -0.014 A 
ATOM     66  C   UNL A   1      39.570  25.830  28.710  1.00  0.00     0.009 A 
ATOM     67  C   UNL A   1      40.884  26.962  27.026  1.00  0.00     0.009 A 
ATOM     68  C   UNL A   1      39.310  24.795  27.809  1.00  0.00     0.001 A 
ATOM     69  C   UNL A   1      40.598  25.941  26.117  1.00  0.00     0.001 A 
ATOM     70  C   UNL A   1      39.819  24.855  26.512  1.00  0.00     0.000 A 
ENDBRANCH  51  65
BRANCH  52  71
ATOM     71  C   UNL A   1      41.743  34.426  34.769  1.00  0.00    -0.014 A 
ATOM     72  C   UNL A   1      41.204  34.335  36.061  1.00  0.00     0.009 A 
ATOM     73  C   UNL A   1      42.468  35.575  34.417  1.00  0.00     0.009 A 
ATOM     74  C   UNL A   1      41.361  35.383  36.970  1.00  0.00     0.001 A 
ATOM     75  C   UNL A   1      42.652  36.609  35.339  1.00  0.00     0.001 A 
ATOM     76  C   UNL A   1      42.089  36.517  36.610  1.00  0.00     0.000 A 
ENDBRANCH  52  71
BRANCH  64  77
ATOM     77  C   UNL A   1      45.460  28.780  33.098  1.00  0.00    -0.014 A 
ATOM     78  C   UNL A   1      46.664  29.187  32.505  1.00  0.00     0.009 A 
ATOM     79  C   UNL A   1      45.502  27.901  34.192  1.00  0.00     0.009 A 
ATOM     80  C   UNL A   1      47.883  28.699  32.979  1.00  0.00     0.001 A 
ATOM     81  C   UNL A   1      46.724  27.439  34.683  1.00  0.00     0.001 A 
ATOM     82  C   UNL A   1      47.912  27.830  34.071  1.00  0.00     0.000 A 
ENDBRANCH  64  77
ENDBRANCH  38  39
ENDBRANCH  30  33
ENDBRANCH  28  29
ENDBRANCH  27  28
ENDBRANCH   1  27
TORSDOF 15
ENDMDL
