MODEL 1
REMARK VINA RESULT:     -11.2      0.000      0.000
REMARK SMILES C[C@@H](C(=O)NCCCNC(=O)c1ccc(-c2c3nc(c(-c4ccccc4)c4ccc([nH]4)c(-c4ccccc4)c4nc(c(-c5ccccc5)c5ccc2[nH]5)C=C4)C=C3)cc1)c1ccc(N[C@H]2CCC[C@@H]2O)cc1F
REMARK SMILES IDX 6 1 5 2 3 3 4 4 2 6 1 7 60 8 61 9 72 10 62 11 71 12 73 13
REMARK SMILES IDX 63 14 64 15 65 17 66 18 69 19 67 20 68 21 70 22 7 24 8 25
REMARK SMILES IDX 9 26 10 27 11 29 12 30 13 31 59 32 14 33 58 34 15 35 16 36
REMARK SMILES IDX 17 37 52 38 18 39 57 40 51 41 53 42 19 43 56 44 50 45 49 46
REMARK SMILES IDX 20 48 42 49 27 50 41 51 28 52 31 53 40 54 54 55 29 56 30 57
REMARK SMILES IDX 39 59 55 60 32 61 21 62 22 63 26 64 23 65 25 66 24 67 43 68
REMARK SMILES IDX 44 69 48 70 45 71 47 72 46 73 33 74 34 75 38 76 35 77 37 78
REMARK SMILES IDX 36 79
REMARK H PARENT 5 5 64 16 70 23 9 28 53 47 31 58
REMARK Flexibility Score: inf
ROOT
ATOM      1  C   UNL A   1      33.020  27.522  25.038  1.00  0.00     0.117 C 
ENDROOT
BRANCH   1   2
ATOM      2  N   UNL A   1      32.243  26.699  25.944  1.00  0.00    -0.356 N 
ATOM      3  C   UNL A   1      31.629  25.496  25.742  1.00  0.00     0.227 C 
ATOM      4  O   UNL A   1      30.927  25.074  26.663  1.00  0.00    -0.274 OA
ATOM      5  H   UNL A   1      32.142  27.066  26.852  1.00  0.00     0.163 HD
BRANCH   3   6
ATOM      6  C   UNL A   1      31.855  24.721  24.434  1.00  0.00     0.108 C 
ATOM      7  C   UNL A   1      30.566  24.646  23.610  1.00  0.00     0.023 C 
BRANCH   6   8
ATOM      8  C   UNL A   1      32.498  23.367  24.707  1.00  0.00     0.000 A 
ATOM      9  C   UNL A   1      31.694  22.220  24.719  1.00  0.00     0.009 A 
ATOM     10  C   UNL A   1      33.868  23.186  24.899  1.00  0.00     0.129 A 
ATOM     11  C   UNL A   1      32.251  20.948  24.928  1.00  0.00     0.026 A 
ATOM     12  C   UNL A   1      34.414  21.921  25.118  1.00  0.00     0.065 A 
ATOM     13  F   UNL A   1      34.708  24.231  24.883  1.00  0.00    -0.207 F 
ATOM     14  C   UNL A   1      33.621  20.768  25.120  1.00  0.00     0.037 A 
BRANCH  14  15
ATOM     15  N   UNL A   1      34.232  19.553  25.349  1.00  0.00    -0.380 N 
ATOM     16  H   UNL A   1      34.891  19.546  26.081  1.00  0.00     0.160 HD
BRANCH  15  17
ATOM     17  C   UNL A   1      34.047  18.275  24.671  1.00  0.00     0.107 C 
ATOM     18  C   UNL A   1      35.316  17.423  24.564  1.00  0.00     0.027 C 
ATOM     19  C   UNL A   1      32.961  17.369  25.283  1.00  0.00     0.136 C 
ATOM     20  C   UNL A   1      34.900  16.004  24.957  1.00  0.00     0.005 C 
ATOM     21  C   UNL A   1      33.385  15.978  24.827  1.00  0.00     0.034 C 
BRANCH  19  22
ATOM     22  O   UNL A   1      31.650  17.675  24.822  1.00  0.00    -0.391 OA
ATOM     23  H   UNL A   1      31.513  18.635  24.848  1.00  0.00     0.211 HD
ENDBRANCH  19  22
ENDBRANCH  15  17
ENDBRANCH  14  15
ENDBRANCH   6   8
ENDBRANCH   3   6
ENDBRANCH   1   2
BRANCH   1  24
ATOM     24  C   UNL A   1      33.942  28.476  25.797  1.00  0.00     0.042 C 
BRANCH  24  25
ATOM     25  C   UNL A   1      33.564  28.681  27.262  1.00  0.00     0.118 C 
BRANCH  25  26
ATOM     26  N   UNL A   1      33.596  30.080  27.659  1.00  0.00    -0.352 N 
ATOM     27  C   UNL A   1      34.577  30.796  28.299  1.00  0.00     0.251 C 
ATOM     28  H   UNL A   1      32.788  30.595  27.433  1.00  0.00     0.163 HD
ATOM     29  O   UNL A   1      34.330  31.929  28.705  1.00  0.00    -0.269 OA
BRANCH  27  30
ATOM     30  C   UNL A   1      35.920  30.216  28.526  1.00  0.00     0.039 A 
ATOM     31  C   UNL A   1      36.848  30.250  27.480  1.00  0.00     0.014 A 
ATOM     32  C   UNL A   1      36.260  29.607  29.737  1.00  0.00     0.014 A 
ATOM     33  C   UNL A   1      38.135  29.739  27.671  1.00  0.00     0.010 A 
ATOM     34  C   UNL A   1      37.563  29.154  29.948  1.00  0.00     0.010 A 
ATOM     35  C   UNL A   1      38.514  29.220  28.919  1.00  0.00    -0.014 A 
BRANCH  35  36
ATOM     36  C   UNL A   1      39.907  28.770  29.170  1.00  0.00     0.031 A 
ATOM     37  C   UNL A   1      40.912  29.696  29.798  1.00  0.00     0.074 A 
ATOM     38  C   UNL A   1      40.285  27.538  28.774  1.00  0.00     0.049 A 
ATOM     39  N   UNL A   1      42.183  29.491  30.037  1.00  0.00    -0.248 NA
ATOM     40  C   UNL A   1      40.433  31.031  30.191  1.00  0.00     0.031 C 
ATOM     41  C   UNL A   1      39.419  26.554  28.121  1.00  0.00     0.029 A 
ATOM     42  N   UNL A   1      41.501  26.907  28.856  1.00  0.00    -0.354 N 
ATOM     43  C   UNL A   1      42.658  30.674  30.590  1.00  0.00     0.074 A 
ATOM     44  C   UNL A   1      41.549  31.602  30.621  1.00  0.00     0.031 C 
ATOM     45  C   UNL A   1      40.126  25.438  27.879  1.00  0.00     0.029 A 
ATOM     46  C   UNL A   1      41.501  25.641  28.323  1.00  0.00     0.049 A 
ATOM     47  H   UNL A   1      42.299  27.323  29.257  1.00  0.00     0.167 HD
ATOM     48  C   UNL A   1      43.902  30.957  31.045  1.00  0.00     0.031 A 
ATOM     49  C   UNL A   1      42.497  24.744  28.195  1.00  0.00     0.031 A 
ATOM     50  C   UNL A   1      45.005  30.033  31.031  1.00  0.00     0.049 A 
ATOM     51  C   UNL A   1      43.871  25.091  28.697  1.00  0.00     0.074 A 
ATOM     52  C   UNL A   1      46.284  30.211  31.530  1.00  0.00     0.029 A 
ATOM     53  N   UNL A   1      44.961  28.758  30.491  1.00  0.00    -0.354 N 
ATOM     54  N   UNL A   1      44.283  26.189  29.281  1.00  0.00    -0.248 NA
ATOM     55  C   UNL A   1      44.913  24.067  28.529  1.00  0.00     0.031 C 
ATOM     56  C   UNL A   1      47.028  29.059  31.250  1.00  0.00     0.029 A 
ATOM     57  C   UNL A   1      46.197  28.148  30.620  1.00  0.00     0.049 A 
ATOM     58  H   UNL A   1      44.168  28.347  30.076  1.00  0.00     0.167 HD
ATOM     59  C   UNL A   1      45.625  25.979  29.571  1.00  0.00     0.074 A 
ATOM     60  C   UNL A   1      45.953  24.644  29.115  1.00  0.00     0.031 C 
ATOM     61  C   UNL A   1      46.508  26.820  30.163  1.00  0.00     0.031 A 
BRANCH  48  62
ATOM     62  C   UNL A   1      44.146  32.333  31.596  1.00  0.00    -0.014 A 
ATOM     63  C   UNL A   1      43.901  32.628  32.946  1.00  0.00     0.009 A 
ATOM     64  C   UNL A   1      44.685  33.332  30.769  1.00  0.00     0.009 A 
ATOM     65  C   UNL A   1      44.168  33.901  33.451  1.00  0.00     0.001 A 
ATOM     66  C   UNL A   1      44.972  34.598  31.283  1.00  0.00     0.001 A 
ATOM     67  C   UNL A   1      44.708  34.884  32.621  1.00  0.00     0.000 A 
ENDBRANCH  48  62
BRANCH  49  68
ATOM     68  C   UNL A   1      42.238  23.425  27.565  1.00  0.00    -0.014 A 
ATOM     69  C   UNL A   1      42.502  23.224  26.202  1.00  0.00     0.009 A 
ATOM     70  C   UNL A   1      41.706  22.366  28.317  1.00  0.00     0.009 A 
ATOM     71  C   UNL A   1      42.213  21.999  25.598  1.00  0.00     0.001 A 
ATOM     72  C   UNL A   1      41.443  21.133  27.717  1.00  0.00     0.001 A 
ATOM     73  C   UNL A   1      41.687  20.954  26.357  1.00  0.00     0.000 A 
ENDBRANCH  49  68
BRANCH  61  74
ATOM     74  C   UNL A   1      47.903  26.308  30.377  1.00  0.00    -0.014 A 
ATOM     75  C   UNL A   1      48.293  25.752  31.605  1.00  0.00     0.009 A 
ATOM     76  C   UNL A   1      48.830  26.354  29.324  1.00  0.00     0.009 A 
ATOM     77  C   UNL A   1      49.594  25.281  31.783  1.00  0.00     0.001 A 
ATOM     78  C   UNL A   1      50.123  25.858  29.497  1.00  0.00     0.001 A 
ATOM     79  C   UNL A   1      50.506  25.329  30.729  1.00  0.00     0.000 A 
ENDBRANCH  61  74
ENDBRANCH  35  36
ENDBRANCH  27  30
ENDBRANCH  25  26
ENDBRANCH  24  25
ENDBRANCH   1  24
TORSDOF 14
ENDMDL
MODEL 2
REMARK VINA RESULT:     -11.1      2.895      7.221
REMARK SMILES C[C@@H](C(=O)NCCCNC(=O)c1ccc(-c2c3nc(c(-c4ccccc4)c4ccc([nH]4)c(-c4ccccc4)c4nc(c(-c5ccccc5)c5ccc2[nH]5)C=C4)C=C3)cc1)c1ccc(N[C@H]2CCC[C@@H]2O)cc1F
REMARK SMILES IDX 6 1 5 2 3 3 4 4 2 6 1 7 60 8 61 9 72 10 62 11 71 12 73 13
REMARK SMILES IDX 63 14 64 15 65 17 66 18 69 19 67 20 68 21 70 22 7 24 8 25
REMARK SMILES IDX 9 26 10 27 11 29 12 30 13 31 59 32 14 33 58 34 15 35 16 36
REMARK SMILES IDX 17 37 52 38 18 39 57 40 51 41 53 42 19 43 56 44 50 45 49 46
REMARK SMILES IDX 20 48 42 49 27 50 41 51 28 52 31 53 40 54 54 55 29 56 30 57
REMARK SMILES IDX 39 59 55 60 32 61 21 62 22 63 26 64 23 65 25 66 24 67 43 68
REMARK SMILES IDX 44 69 48 70 45 71 47 72 46 73 33 74 34 75 38 76 35 77 37 78
REMARK SMILES IDX 36 79
REMARK H PARENT 5 5 64 16 70 23 9 28 53 47 31 58
REMARK Flexibility Score: inf
ROOT
ATOM      1  C   UNL A   1      31.767  29.846  26.240  1.00  0.00     0.117 C 
ENDROOT
BRANCH   1   2
ATOM      2  N   UNL A   1      31.209  29.406  24.976  1.00  0.00    -0.356 N 
ATOM      3  C   UNL A   1      31.820  28.883  23.872  1.00  0.00     0.227 C 
ATOM      4  O   UNL A   1      31.108  28.705  22.881  1.00  0.00    -0.274 OA
ATOM      5  H   UNL A   1      30.232  29.497  24.903  1.00  0.00     0.163 HD
BRANCH   3   6
ATOM      6  C   UNL A   1      33.311  28.515  23.913  1.00  0.00     0.108 C 
ATOM      7  C   UNL A   1      34.044  29.055  22.682  1.00  0.00     0.023 C 
BRANCH   6   8
ATOM      8  C   UNL A   1      33.497  27.020  24.143  1.00  0.00     0.000 A 
ATOM      9  C   UNL A   1      33.485  26.155  23.041  1.00  0.00     0.009 A 
ATOM     10  C   UNL A   1      33.734  26.454  25.394  1.00  0.00     0.129 A 
ATOM     11  C   UNL A   1      33.691  24.775  23.202  1.00  0.00     0.026 A 
ATOM     12  C   UNL A   1      33.927  25.080  25.550  1.00  0.00     0.065 A 
ATOM     13  F   UNL A   1      33.780  27.216  26.497  1.00  0.00    -0.207 F 
ATOM     14  C   UNL A   1      33.928  24.209  24.455  1.00  0.00     0.037 A 
BRANCH  14  15
ATOM     15  N   UNL A   1      34.119  22.863  24.688  1.00  0.00    -0.380 N 
ATOM     16  H   UNL A   1      33.388  22.413  25.172  1.00  0.00     0.160 HD
BRANCH  15  17
ATOM     17  C   UNL A   1      35.241  22.006  24.326  1.00  0.00     0.107 C 
ATOM     18  C   UNL A   1      36.546  22.756  24.035  1.00  0.00     0.027 C 
ATOM     19  C   UNL A   1      35.584  20.916  25.360  1.00  0.00     0.136 C 
ATOM     20  C   UNL A   1      37.643  21.986  24.774  1.00  0.00     0.005 C 
ATOM     21  C   UNL A   1      37.048  20.617  25.064  1.00  0.00     0.034 C 
BRANCH  19  22
ATOM     22  O   UNL A   1      34.789  19.743  25.223  1.00  0.00    -0.391 OA
ATOM     23  H   UNL A   1      35.055  19.264  24.422  1.00  0.00     0.211 HD
ENDBRANCH  19  22
ENDBRANCH  15  17
ENDBRANCH  14  15
ENDBRANCH   6   8
ENDBRANCH   3   6
ENDBRANCH   1   2
BRANCH   1  24
ATOM     24  C   UNL A   1      31.525  31.337  26.473  1.00  0.00     0.042 C 
BRANCH  24  25
ATOM     25  C   UNL A   1      32.783  32.130  26.821  1.00  0.00     0.118 C 
BRANCH  25  26
ATOM     26  N   UNL A   1      32.483  33.420  27.421  1.00  0.00    -0.352 N 
ATOM     27  C   UNL A   1      33.148  34.117  28.399  1.00  0.00     0.251 C 
ATOM     28  H   UNL A   1      31.678  33.864  27.071  1.00  0.00     0.163 HD
ATOM     29  O   UNL A   1      32.623  35.112  28.894  1.00  0.00    -0.269 OA
BRANCH  27  30
ATOM     30  C   UNL A   1      34.476  33.676  28.882  1.00  0.00     0.039 A 
ATOM     31  C   UNL A   1      34.545  32.938  30.069  1.00  0.00     0.014 A 
ATOM     32  C   UNL A   1      35.651  34.012  28.204  1.00  0.00     0.014 A 
ATOM     33  C   UNL A   1      35.779  32.481  30.536  1.00  0.00     0.010 A 
ATOM     34  C   UNL A   1      36.876  33.501  28.637  1.00  0.00     0.010 A 
ATOM     35  C   UNL A   1      36.951  32.727  29.804  1.00  0.00    -0.014 A 
BRANCH  35  36
ATOM     36  C   UNL A   1      38.255  32.158  30.231  1.00  0.00     0.031 A 
ATOM     37  C   UNL A   1      38.740  30.847  29.676  1.00  0.00     0.074 A 
ATOM     38  C   UNL A   1      38.979  32.798  31.171  1.00  0.00     0.049 A 
ATOM     39  N   UNL A   1      39.822  30.175  29.978  1.00  0.00    -0.248 NA
ATOM     40  C   UNL A   1      37.890  30.197  28.666  1.00  0.00     0.031 C 
ATOM     41  C   UNL A   1      38.606  34.059  31.817  1.00  0.00     0.029 A 
ATOM     42  N   UNL A   1      40.178  32.469  31.753  1.00  0.00    -0.354 N 
ATOM     43  C   UNL A   1      39.775  29.018  29.210  1.00  0.00     0.074 A 
ATOM     44  C   UNL A   1      38.542  29.063  28.454  1.00  0.00     0.031 C 
ATOM     45  C   UNL A   1      39.565  34.405  32.691  1.00  0.00     0.029 A 
ATOM     46  C   UNL A   1      40.599  33.375  32.696  1.00  0.00     0.049 A 
ATOM     47  H   UNL A   1      40.687  31.660  31.518  1.00  0.00     0.167 HD
ATOM     48  C   UNL A   1      40.683  28.016  29.131  1.00  0.00     0.031 A 
ATOM     49  C   UNL A   1      41.689  33.375  33.486  1.00  0.00     0.031 A 
ATOM     50  C   UNL A   1      41.918  27.974  29.869  1.00  0.00     0.049 A 
ATOM     51  C   UNL A   1      42.672  32.243  33.385  1.00  0.00     0.074 A 
ATOM     52  C   UNL A   1      42.928  27.030  29.804  1.00  0.00     0.029 A 
ATOM     53  N   UNL A   1      42.309  28.915  30.807  1.00  0.00    -0.354 N 
ATOM     54  N   UNL A   1      42.645  31.193  32.602  1.00  0.00    -0.248 NA
ATOM     55  C   UNL A   1      43.843  32.304  34.274  1.00  0.00     0.031 C 
ATOM     56  C   UNL A   1      43.911  27.376  30.737  1.00  0.00     0.029 A 
ATOM     57  C   UNL A   1      43.534  28.561  31.347  1.00  0.00     0.049 A 
ATOM     58  H   UNL A   1      41.793  29.717  31.053  1.00  0.00     0.167 HD
ATOM     59  C   UNL A   1      43.804  30.482  32.887  1.00  0.00     0.074 A 
ATOM     60  C   UNL A   1      44.520  31.227  33.900  1.00  0.00     0.031 C 
ATOM     61  C   UNL A   1      44.234  29.312  32.354  1.00  0.00     0.031 A 
BRANCH  48  62
ATOM     62  C   UNL A   1      40.374  26.868  28.212  1.00  0.00    -0.014 A 
ATOM     63  C   UNL A   1      40.874  26.833  26.901  1.00  0.00     0.009 A 
ATOM     64  C   UNL A   1      39.625  25.778  28.684  1.00  0.00     0.009 A 
ATOM     65  C   UNL A   1      40.608  25.742  26.073  1.00  0.00     0.001 A 
ATOM     66  C   UNL A   1      39.381  24.677  27.860  1.00  0.00     0.001 A 
ATOM     67  C   UNL A   1      39.867  24.662  26.554  1.00  0.00     0.000 A 
ENDBRANCH  48  62
BRANCH  49  68
ATOM     68  C   UNL A   1      41.916  34.486  34.445  1.00  0.00    -0.014 A 
ATOM     69  C   UNL A   1      41.319  34.461  35.715  1.00  0.00     0.009 A 
ATOM     70  C   UNL A   1      42.714  35.584  34.090  1.00  0.00     0.009 A 
ATOM     71  C   UNL A   1      41.493  35.528  36.598  1.00  0.00     0.001 A 
ATOM     72  C   UNL A   1      42.909  36.637  34.986  1.00  0.00     0.001 A 
ATOM     73  C   UNL A   1      42.290  36.613  36.235  1.00  0.00     0.000 A 
ENDBRANCH  49  68
BRANCH  61  74
ATOM     74  C   UNL A   1      45.555  28.786  32.837  1.00  0.00    -0.014 A 
ATOM     75  C   UNL A   1      45.631  27.900  33.923  1.00  0.00     0.009 A 
ATOM     76  C   UNL A   1      46.736  29.157  32.176  1.00  0.00     0.009 A 
ATOM     77  C   UNL A   1      46.868  27.422  34.357  1.00  0.00     0.001 A 
ATOM     78  C   UNL A   1      47.969  28.657  32.595  1.00  0.00     0.001 A 
ATOM     79  C   UNL A   1      48.035  27.796  33.691  1.00  0.00     0.000 A 
ENDBRANCH  61  74
ENDBRANCH  35  36
ENDBRANCH  27  30
ENDBRANCH  25  26
ENDBRANCH  24  25
ENDBRANCH   1  24
TORSDOF 14
ENDMDL
MODEL 3
REMARK VINA RESULT:     -10.9      2.136      7.952
REMARK SMILES C[C@@H](C(=O)NCCCNC(=O)c1ccc(-c2c3nc(c(-c4ccccc4)c4ccc([nH]4)c(-c4ccccc4)c4nc(c(-c5ccccc5)c5ccc2[nH]5)C=C4)C=C3)cc1)c1ccc(N[C@H]2CCC[C@@H]2O)cc1F
REMARK SMILES IDX 6 1 5 2 3 3 4 4 2 6 1 7 60 8 61 9 72 10 62 11 71 12 73 13
REMARK SMILES IDX 63 14 64 15 65 17 66 18 69 19 67 20 68 21 70 22 7 24 8 25
REMARK SMILES IDX 9 26 10 27 11 29 12 30 13 31 59 32 14 33 58 34 15 35 16 36
REMARK SMILES IDX 17 37 52 38 18 39 57 40 51 41 53 42 19 43 56 44 50 45 49 46
REMARK SMILES IDX 20 48 42 49 27 50 41 51 28 52 31 53 40 54 54 55 29 56 30 57
REMARK SMILES IDX 39 59 55 60 32 61 21 62 22 63 26 64 23 65 25 66 24 67 43 68
REMARK SMILES IDX 44 69 48 70 45 71 47 72 46 73 33 74 34 75 38 76 35 77 37 78
REMARK SMILES IDX 36 79
REMARK H PARENT 5 5 64 16 70 23 9 28 53 47 31 58
REMARK Flexibility Score: inf
ROOT
ATOM      1  C   UNL A   1      36.631  20.580  24.684  1.00  0.00     0.117 C 
ENDROOT
BRANCH   1   2
ATOM      2  N   UNL A   1      35.326  20.024  24.987  1.00  0.00    -0.356 N 
ATOM      3  C   UNL A   1      34.258  20.573  25.637  1.00  0.00     0.227 C 
ATOM      4  O   UNL A   1      33.305  19.824  25.861  1.00  0.00    -0.274 OA
ATOM      5  H   UNL A   1      35.188  19.102  24.672  1.00  0.00     0.163 HD
BRANCH   3   6
ATOM      6  C   UNL A   1      34.266  22.061  26.020  1.00  0.00     0.108 C 
ATOM      7  C   UNL A   1      33.790  22.260  27.462  1.00  0.00     0.023 C 
BRANCH   6   8
ATOM      8  C   UNL A   1      33.506  22.892  24.993  1.00  0.00     0.000 A 
ATOM      9  C   UNL A   1      32.227  23.367  25.312  1.00  0.00     0.009 A 
ATOM     10  C   UNL A   1      34.031  23.261  23.755  1.00  0.00     0.129 A 
ATOM     11  C   UNL A   1      31.506  24.168  24.412  1.00  0.00     0.026 A 
ATOM     12  C   UNL A   1      33.306  24.048  22.859  1.00  0.00     0.065 A 
ATOM     13  F   UNL A   1      35.256  22.864  23.382  1.00  0.00    -0.207 F 
ATOM     14  C   UNL A   1      32.032  24.536  23.173  1.00  0.00     0.037 A 
BRANCH  14  15
ATOM     15  N   UNL A   1      31.375  25.303  22.234  1.00  0.00    -0.380 N 
ATOM     16  H   UNL A   1      30.868  24.796  21.559  1.00  0.00     0.160 HD
BRANCH  15  17
ATOM     17  C   UNL A   1      31.317  26.753  22.092  1.00  0.00     0.107 C 
ATOM     18  C   UNL A   1      30.183  27.423  22.875  1.00  0.00     0.027 C 
ATOM     19  C   UNL A   1      32.613  27.493  22.477  1.00  0.00     0.136 C 
ATOM     20  C   UNL A   1      30.812  28.636  23.565  1.00  0.00     0.005 C 
ATOM     21  C   UNL A   1      32.114  28.891  22.821  1.00  0.00     0.034 C 
BRANCH  19  22
ATOM     22  O   UNL A   1      33.566  27.541  21.422  1.00  0.00    -0.391 OA
ATOM     23  H   UNL A   1      33.106  27.651  20.575  1.00  0.00     0.211 HD
ENDBRANCH  19  22
ENDBRANCH  15  17
ENDBRANCH  14  15
ENDBRANCH   6   8
ENDBRANCH   3   6
ENDBRANCH   1   2
BRANCH   1  24
ATOM     24  C   UNL A   1      37.750  19.584  24.987  1.00  0.00     0.042 C 
BRANCH  24  25
ATOM     25  C   UNL A   1      38.934  20.182  25.744  1.00  0.00     0.118 C 
BRANCH  25  26
ATOM     26  N   UNL A   1      40.071  19.278  25.810  1.00  0.00    -0.352 N 
ATOM     27  C   UNL A   1      41.386  19.530  26.113  1.00  0.00     0.251 C 
ATOM     28  H   UNL A   1      39.866  18.337  25.606  1.00  0.00     0.163 HD
ATOM     29  O   UNL A   1      42.226  18.651  25.933  1.00  0.00    -0.269 OA
BRANCH  27  30
ATOM     30  C   UNL A   1      41.810  20.850  26.630  1.00  0.00     0.039 A 
ATOM     31  C   UNL A   1      42.295  21.798  25.724  1.00  0.00     0.014 A 
ATOM     32  C   UNL A   1      41.772  21.149  27.995  1.00  0.00     0.014 A 
ATOM     33  C   UNL A   1      42.676  23.065  26.176  1.00  0.00     0.010 A 
ATOM     34  C   UNL A   1      42.092  22.433  28.437  1.00  0.00     0.010 A 
ATOM     35  C   UNL A   1      42.543  23.405  27.530  1.00  0.00    -0.014 A 
BRANCH  35  36
ATOM     36  C   UNL A   1      42.843  24.779  28.009  1.00  0.00     0.031 A 
ATOM     37  C   UNL A   1      44.244  25.172  28.389  1.00  0.00     0.074 A 
ATOM     38  C   UNL A   1      41.834  25.660  28.161  1.00  0.00     0.049 A 
ATOM     39  N   UNL A   1      44.677  26.306  28.879  1.00  0.00    -0.248 NA
ATOM     40  C   UNL A   1      45.292  24.153  28.212  1.00  0.00     0.031 C 
ATOM     41  C   UNL A   1      40.424  25.396  27.864  1.00  0.00     0.029 A 
ATOM     42  N   UNL A   1      41.840  26.956  28.613  1.00  0.00    -0.354 N 
ATOM     43  C   UNL A   1      46.040  26.131  29.086  1.00  0.00     0.074 A 
ATOM     44  C   UNL A   1      46.356  24.774  28.699  1.00  0.00     0.031 C 
ATOM     45  C   UNL A   1      39.706  26.501  28.123  1.00  0.00     0.029 A 
ATOM     46  C   UNL A   1      40.595  27.536  28.640  1.00  0.00     0.049 A 
ATOM     47  H   UNL A   1      42.660  27.426  28.893  1.00  0.00     0.167 HD
ATOM     48  C   UNL A   1      46.948  27.026  29.543  1.00  0.00     0.031 A 
ATOM     49  C   UNL A   1      40.207  28.760  29.045  1.00  0.00     0.031 A 
ATOM     50  C   UNL A   1      46.642  28.382  29.914  1.00  0.00     0.049 A 
ATOM     51  C   UNL A   1      41.236  29.727  29.560  1.00  0.00     0.074 A 
ATOM     52  C   UNL A   1      47.510  29.379  30.327  1.00  0.00     0.029 A 
ATOM     53  N   UNL A   1      45.370  28.931  29.920  1.00  0.00    -0.354 N 
ATOM     54  N   UNL A   1      42.531  29.567  29.682  1.00  0.00    -0.248 NA
ATOM     55  C   UNL A   1      40.747  31.048  29.984  1.00  0.00     0.031 C 
ATOM     56  C   UNL A   1      46.756  30.520  30.626  1.00  0.00     0.029 A 
ATOM     57  C   UNL A   1      45.426  30.245  30.353  1.00  0.00     0.049 A 
ATOM     58  H   UNL A   1      44.549  28.458  29.654  1.00  0.00     0.167 HD
ATOM     59  C   UNL A   1      43.013  30.774  30.174  1.00  0.00     0.074 A 
ATOM     60  C   UNL A   1      41.877  31.660  30.311  1.00  0.00     0.031 C 
ATOM     61  C   UNL A   1      44.288  31.115  30.484  1.00  0.00     0.031 A 
BRANCH  48  62
ATOM     62  C   UNL A   1      48.373  26.566  29.675  1.00  0.00    -0.014 A 
ATOM     63  C   UNL A   1      49.289  26.733  28.625  1.00  0.00     0.009 A 
ATOM     64  C   UNL A   1      48.820  26.015  30.887  1.00  0.00     0.009 A 
ATOM     65  C   UNL A   1      50.618  26.334  28.777  1.00  0.00     0.001 A 
ATOM     66  C   UNL A   1      50.155  25.638  31.044  1.00  0.00     0.001 A 
ATOM     67  C   UNL A   1      51.051  25.792  29.988  1.00  0.00     0.000 A 
ENDBRANCH  48  62
BRANCH  49  68
ATOM     68  C   UNL A   1      38.776  29.149  28.981  1.00  0.00    -0.014 A 
ATOM     69  C   UNL A   1      37.949  29.006  30.106  1.00  0.00     0.009 A 
ATOM     70  C   UNL A   1      38.223  29.645  27.790  1.00  0.00     0.009 A 
ATOM     71  C   UNL A   1      36.592  29.325  30.031  1.00  0.00     0.001 A 
ATOM     72  C   UNL A   1      36.871  29.990  27.727  1.00  0.00     0.001 A 
ATOM     73  C   UNL A   1      36.055  29.820  28.843  1.00  0.00     0.000 A 
ENDBRANCH  49  68
BRANCH  61  74
ATOM     74  C   UNL A   1      44.521  32.515  30.974  1.00  0.00    -0.014 A 
ATOM     75  C   UNL A   1      44.742  33.571  30.078  1.00  0.00     0.009 A 
ATOM     76  C   UNL A   1      44.487  32.785  32.351  1.00  0.00     0.009 A 
ATOM     77  C   UNL A   1      44.955  34.866  30.553  1.00  0.00     0.001 A 
ATOM     78  C   UNL A   1      44.675  34.084  32.822  1.00  0.00     0.001 A 
ATOM     79  C   UNL A   1      44.918  35.123  31.923  1.00  0.00     0.000 A 
ENDBRANCH  61  74
ENDBRANCH  35  36
ENDBRANCH  27  30
ENDBRANCH  25  26
ENDBRANCH  24  25
ENDBRANCH   1  24
TORSDOF 14
ENDMDL
