MODEL 1
REMARK VINA RESULT:     -12.4      0.000      0.000
REMARK SMILES C=CCn1nc(C(=O)NCCCNC(=O)c2ccc(-c3c4nc(c(-c5ccccc5)c5ccc([nH]5)c(-c5ccccc5)c5nc(c(-c6ccccc6)c6ccc3[nH]6)C=C5)C=C4)cc2)c2c1CC[C@@H]([NH+]1CCC(C(C)(C)O)CC1)C2
REMARK SMILES IDX 10 1 9 2 7 3 8 4 6 6 4 7 5 8 65 9 64 10 66 11 79 12 67 13
REMARK SMILES IDX 68 14 3 15 2 16 1 17 69 18 70 19 78 20 71 22 77 23 72 24
REMARK SMILES IDX 73 25 74 26 75 27 76 28 11 30 12 31 13 32 14 33 15 35 16 36
REMARK SMILES IDX 17 37 63 38 18 39 62 40 19 41 20 42 21 43 56 44 22 45 61 46
REMARK SMILES IDX 55 47 57 48 23 49 60 50 54 51 53 52 24 54 46 55 31 56 45 57
REMARK SMILES IDX 32 58 35 59 44 60 58 61 33 62 34 63 43 65 59 66 36 67 25 68
REMARK SMILES IDX 26 69 30 70 27 71 29 72 28 73 47 74 48 75 52 76 49 77 51 78
REMARK SMILES IDX 50 79 37 80 38 81 42 82 39 83 41 84 40 85
REMARK H PARENT 9 5 69 21 76 29 13 34 57 53 35 64
REMARK Flexibility Score: inf
ROOT
ATOM      1  C   UNL A   1      33.566  29.747  26.660  1.00  0.00     0.118 C 
ENDROOT
BRANCH   1   2
ATOM      2  N   UNL A   1      32.465  29.193  27.454  1.00  0.00    -0.351 N 
ATOM      3  C   UNL A   1      31.525  28.184  27.303  1.00  0.00     0.272 C 
ATOM      4  O   UNL A   1      30.867  27.966  28.329  1.00  0.00    -0.267 OA
ATOM      5  H   UNL A   1      32.368  29.656  28.317  1.00  0.00     0.163 HD
BRANCH   3   6
ATOM      6  C   UNL A   1      31.286  27.406  26.052  1.00  0.00     0.153 A 
ATOM      7  N   UNL A   1      31.128  27.061  23.921  1.00  0.00    -0.265 N 
ATOM      8  N   UNL A   1      31.216  28.041  24.855  1.00  0.00    -0.167 NA
ATOM      9  C   UNL A   1      30.923  25.834  24.477  1.00  0.00     0.043 A 
ATOM     10  C   UNL A   1      31.210  26.014  25.805  1.00  0.00     0.012 A 
ATOM     11  C   UNL A   1      30.682  24.523  23.818  1.00  0.00     0.062 C 
ATOM     12  C   UNL A   1      31.495  24.875  26.669  1.00  0.00     0.105 C 
ATOM     13  C   UNL A   1      30.890  23.362  24.824  1.00  0.00     0.072 C 
ATOM     14  C   UNL A   1      31.897  23.571  25.982  1.00  0.00     0.189 C 
BRANCH   7  15
ATOM     15  C   UNL A   1      31.408  27.373  22.520  1.00  0.00     0.171 C 
BRANCH  15  16
ATOM     16  C   UNL A   1      32.876  27.223  22.187  1.00  0.00    -0.011 C 
ATOM     17  C   UNL A   1      33.534  26.058  22.104  1.00  0.00     0.006 C 
ENDBRANCH  15  16
ENDBRANCH   7  15
BRANCH  14  18
ATOM     18  N   UNL A   1      33.374  23.501  25.928  1.00  0.00    -0.332 N 
ATOM     19  C   UNL A   1      34.050  23.366  24.653  1.00  0.00     0.262 C 
ATOM     20  C   UNL A   1      34.020  22.656  26.917  1.00  0.00     0.262 C 
ATOM     21  H   UNL A   1      33.510  24.480  26.182  1.00  0.00     0.348 HD
ATOM     22  C   UNL A   1      33.992  21.956  24.100  1.00  0.00     0.068 C 
ATOM     23  C   UNL A   1      33.854  21.185  26.594  1.00  0.00     0.068 C 
ATOM     24  C   UNL A   1      34.128  20.798  25.117  1.00  0.00     0.031 C 
BRANCH  24  25
ATOM     25  C   UNL A   1      33.297  19.528  24.710  1.00  0.00     0.062 C 
ATOM     26  C   UNL A   1      32.390  19.750  23.498  1.00  0.00     0.042 C 
ATOM     27  C   UNL A   1      34.226  18.337  24.468  1.00  0.00     0.042 C 
BRANCH  25  28
ATOM     28  O   UNL A   1      32.424  19.148  25.776  1.00  0.00    -0.390 OA
ATOM     29  H   UNL A   1      31.699  19.789  25.844  1.00  0.00     0.211 HD
ENDBRANCH  25  28
ENDBRANCH  24  25
ENDBRANCH  14  18
ENDBRANCH   3   6
ENDBRANCH   1   2
BRANCH   1  30
ATOM     30  C   UNL A   1      34.957  29.290  27.146  1.00  0.00     0.042 C 
BRANCH  30  31
ATOM     31  C   UNL A   1      35.894  30.320  27.699  1.00  0.00     0.118 C 
BRANCH  31  32
ATOM     32  N   UNL A   1      36.016  30.261  29.161  1.00  0.00    -0.352 N 
ATOM     33  C   UNL A   1      36.834  29.412  29.890  1.00  0.00     0.251 C 
ATOM     34  H   UNL A   1      35.458  30.887  29.677  1.00  0.00     0.163 HD
ATOM     35  O   UNL A   1      36.584  29.116  31.055  1.00  0.00    -0.269 OA
BRANCH  33  36
ATOM     36  C   UNL A   1      38.016  28.877  29.202  1.00  0.00     0.039 A 
ATOM     37  C   UNL A   1      38.617  29.503  28.112  1.00  0.00     0.014 A 
ATOM     38  C   UNL A   1      38.627  27.813  29.846  1.00  0.00     0.014 A 
ATOM     39  C   UNL A   1      39.898  29.091  27.755  1.00  0.00     0.010 A 
ATOM     40  C   UNL A   1      39.978  27.711  29.737  1.00  0.00     0.010 A 
ATOM     41  C   UNL A   1      40.588  28.213  28.609  1.00  0.00    -0.014 A 
BRANCH  41  42
ATOM     42  C   UNL A   1      41.978  27.833  28.422  1.00  0.00     0.031 A 
ATOM     43  C   UNL A   1      42.158  26.623  27.599  1.00  0.00     0.074 A 
ATOM     44  C   UNL A   1      43.019  28.611  28.800  1.00  0.00     0.049 A 
ATOM     45  N   UNL A   1      42.278  25.417  28.035  1.00  0.00    -0.248 NA
ATOM     46  C   UNL A   1      41.979  26.721  26.143  1.00  0.00     0.031 C 
ATOM     47  C   UNL A   1      43.008  29.994  29.311  1.00  0.00     0.029 A 
ATOM     48  N   UNL A   1      44.349  28.341  28.730  1.00  0.00    -0.354 N 
ATOM     49  C   UNL A   1      42.477  24.635  26.907  1.00  0.00     0.074 A 
ATOM     50  C   UNL A   1      42.039  25.433  25.791  1.00  0.00     0.031 C 
ATOM     51  C   UNL A   1      44.258  30.505  29.295  1.00  0.00     0.029 A 
ATOM     52  C   UNL A   1      45.175  29.429  28.986  1.00  0.00     0.049 A 
ATOM     53  H   UNL A   1      44.700  27.446  28.516  1.00  0.00     0.167 HD
ATOM     54  C   UNL A   1      43.306  23.556  26.967  1.00  0.00     0.031 A 
ATOM     55  C   UNL A   1      46.528  29.433  28.986  1.00  0.00     0.031 A 
ATOM     56  C   UNL A   1      43.691  23.288  28.335  1.00  0.00     0.049 A 
ATOM     57  C   UNL A   1      46.959  28.039  29.211  1.00  0.00     0.074 A 
ATOM     58  C   UNL A   1      43.076  22.835  29.480  1.00  0.00     0.029 A 
ATOM     59  N   UNL A   1      44.833  23.951  28.719  1.00  0.00    -0.354 N 
ATOM     60  N   UNL A   1      46.742  27.401  30.326  1.00  0.00    -0.248 NA
ATOM     61  C   UNL A   1      47.290  27.203  28.067  1.00  0.00     0.031 C 
ATOM     62  C   UNL A   1      43.750  23.479  30.563  1.00  0.00     0.029 A 
ATOM     63  C   UNL A   1      44.793  24.254  30.054  1.00  0.00     0.049 A 
ATOM     64  H   UNL A   1      45.577  24.178  28.117  1.00  0.00     0.167 HD
ATOM     65  C   UNL A   1      46.466  26.104  29.931  1.00  0.00     0.074 A 
ATOM     66  C   UNL A   1      46.992  26.003  28.575  1.00  0.00     0.031 C 
ATOM     67  C   UNL A   1      45.568  25.340  30.621  1.00  0.00     0.031 A 
BRANCH  54  68
ATOM     68  C   UNL A   1      44.192  23.103  25.828  1.00  0.00    -0.014 A 
ATOM     69  C   UNL A   1      44.254  21.725  25.547  1.00  0.00     0.009 A 
ATOM     70  C   UNL A   1      45.178  23.910  25.230  1.00  0.00     0.009 A 
ATOM     71  C   UNL A   1      45.287  21.179  24.777  1.00  0.00     0.001 A 
ATOM     72  C   UNL A   1      46.193  23.372  24.433  1.00  0.00     0.001 A 
ATOM     73  C   UNL A   1      46.263  22.003  24.228  1.00  0.00     0.000 A 
ENDBRANCH  54  68
BRANCH  55  74
ATOM     74  C   UNL A   1      47.474  30.500  28.614  1.00  0.00    -0.014 A 
ATOM     75  C   UNL A   1      47.586  30.934  27.284  1.00  0.00     0.009 A 
ATOM     76  C   UNL A   1      48.039  31.305  29.620  1.00  0.00     0.009 A 
ATOM     77  C   UNL A   1      48.189  32.160  26.977  1.00  0.00     0.001 A 
ATOM     78  C   UNL A   1      48.637  32.532  29.313  1.00  0.00     0.001 A 
ATOM     79  C   UNL A   1      48.694  32.968  27.994  1.00  0.00     0.000 A 
ENDBRANCH  55  74
BRANCH  67  80
ATOM     80  C   UNL A   1      45.234  25.768  32.027  1.00  0.00    -0.014 A 
ATOM     81  C   UNL A   1      44.193  26.653  32.353  1.00  0.00     0.009 A 
ATOM     82  C   UNL A   1      45.957  25.175  33.073  1.00  0.00     0.009 A 
ATOM     83  C   UNL A   1      43.905  26.953  33.690  1.00  0.00     0.001 A 
ATOM     84  C   UNL A   1      45.657  25.458  34.406  1.00  0.00     0.001 A 
ATOM     85  C   UNL A   1      44.635  26.352  34.714  1.00  0.00     0.000 A 
ENDBRANCH  67  80
ENDBRANCH  41  42
ENDBRANCH  33  36
ENDBRANCH  31  32
ENDBRANCH  30  31
ENDBRANCH   1  30
TORSDOF 15
ENDMDL
MODEL 2
REMARK VINA RESULT:     -12.3      2.319      6.213
REMARK SMILES C=CCn1nc(C(=O)NCCCNC(=O)c2ccc(-c3c4nc(c(-c5ccccc5)c5ccc([nH]5)c(-c5ccccc5)c5nc(c(-c6ccccc6)c6ccc3[nH]6)C=C5)C=C4)cc2)c2c1CC[C@@H]([NH+]1CCC(C(C)(C)O)CC1)C2
REMARK SMILES IDX 10 1 9 2 7 3 8 4 6 6 4 7 5 8 65 9 64 10 66 11 79 12 67 13
REMARK SMILES IDX 68 14 3 15 2 16 1 17 69 18 70 19 78 20 71 22 77 23 72 24
REMARK SMILES IDX 73 25 74 26 75 27 76 28 11 30 12 31 13 32 14 33 15 35 16 36
REMARK SMILES IDX 17 37 63 38 18 39 62 40 19 41 20 42 21 43 56 44 22 45 61 46
REMARK SMILES IDX 55 47 57 48 23 49 60 50 54 51 53 52 24 54 46 55 31 56 45 57
REMARK SMILES IDX 32 58 35 59 44 60 58 61 33 62 34 63 43 65 59 66 36 67 25 68
REMARK SMILES IDX 26 69 30 70 27 71 29 72 28 73 47 74 48 75 52 76 49 77 51 78
REMARK SMILES IDX 50 79 37 80 38 81 42 82 39 83 41 84 40 85
REMARK H PARENT 9 5 69 21 76 29 13 34 57 53 35 64
REMARK Flexibility Score: inf
ROOT
ATOM      1  C   UNL A   1      33.747  29.652  27.105  1.00  0.00     0.118 C 
ENDROOT
BRANCH   1   2
ATOM      2  N   UNL A   1      33.969  29.475  25.667  1.00  0.00    -0.351 N 
ATOM      3  C   UNL A   1      33.339  28.807  24.627  1.00  0.00     0.272 C 
ATOM      4  O   UNL A   1      33.813  29.072  23.513  1.00  0.00    -0.267 OA
ATOM      5  H   UNL A   1      34.772  29.955  25.360  1.00  0.00     0.163 HD
BRANCH   3   6
ATOM      6  C   UNL A   1      32.202  27.853  24.775  1.00  0.00     0.153 A 
ATOM      7  N   UNL A   1      30.196  27.088  24.500  1.00  0.00    -0.265 N 
ATOM      8  N   UNL A   1      30.961  28.199  24.351  1.00  0.00    -0.167 NA
ATOM      9  C   UNL A   1      30.837  26.110  25.201  1.00  0.00     0.043 A 
ATOM     10  C   UNL A   1      32.148  26.506  25.209  1.00  0.00     0.012 A 
ATOM     11  C   UNL A   1      30.334  24.789  25.659  1.00  0.00     0.062 C 
ATOM     12  C   UNL A   1      33.214  25.557  25.508  1.00  0.00     0.105 C 
ATOM     13  C   UNL A   1      31.513  23.870  26.070  1.00  0.00     0.072 C 
ATOM     14  C   UNL A   1      32.876  24.075  25.367  1.00  0.00     0.189 C 
BRANCH   7  15
ATOM     15  C   UNL A   1      28.914  26.994  23.801  1.00  0.00     0.171 C 
BRANCH  15  16
ATOM     16  C   UNL A   1      28.444  28.339  23.296  1.00  0.00    -0.011 C 
ATOM     17  C   UNL A   1      27.163  28.698  23.128  1.00  0.00     0.006 C 
ENDBRANCH  15  16
ENDBRANCH   7  15
BRANCH  14  18
ATOM     18  N   UNL A   1      33.281  23.625  24.016  1.00  0.00    -0.332 N 
ATOM     19  C   UNL A   1      33.395  22.209  23.724  1.00  0.00     0.262 C 
ATOM     20  C   UNL A   1      34.381  24.342  23.396  1.00  0.00     0.262 C 
ATOM     21  H   UNL A   1      32.405  23.903  23.573  1.00  0.00     0.348 HD
ATOM     22  C   UNL A   1      34.663  21.592  24.279  1.00  0.00     0.068 C 
ATOM     23  C   UNL A   1      35.715  23.971  24.012  1.00  0.00     0.068 C 
ATOM     24  C   UNL A   1      35.949  22.450  24.211  1.00  0.00     0.031 C 
BRANCH  24  25
ATOM     25  C   UNL A   1      36.922  22.188  25.416  1.00  0.00     0.062 C 
ATOM     26  C   UNL A   1      37.826  20.969  25.222  1.00  0.00     0.042 C 
ATOM     27  C   UNL A   1      37.762  23.433  25.706  1.00  0.00     0.042 C 
BRANCH  25  28
ATOM     28  O   UNL A   1      36.172  21.922  26.604  1.00  0.00    -0.390 OA
ATOM     29  H   UNL A   1      36.767  21.932  27.371  1.00  0.00     0.211 HD
ENDBRANCH  25  28
ENDBRANCH  24  25
ENDBRANCH  14  18
ENDBRANCH   3   6
ENDBRANCH   1   2
BRANCH   1  30
ATOM     30  C   UNL A   1      33.370  31.098  27.489  1.00  0.00     0.042 C 
BRANCH  30  31
ATOM     31  C   UNL A   1      34.472  32.074  27.765  1.00  0.00     0.118 C 
BRANCH  31  32
ATOM     32  N   UNL A   1      34.499  32.531  29.161  1.00  0.00    -0.352 N 
ATOM     33  C   UNL A   1      35.248  31.991  30.195  1.00  0.00     0.251 C 
ATOM     34  H   UNL A   1      33.926  33.299  29.386  1.00  0.00     0.163 HD
ATOM     35  O   UNL A   1      34.917  32.122  31.370  1.00  0.00    -0.269 OA
BRANCH  33  36
ATOM     36  C   UNL A   1      36.457  31.247  29.820  1.00  0.00     0.039 A 
ATOM     37  C   UNL A   1      37.706  31.845  29.660  1.00  0.00     0.014 A 
ATOM     38  C   UNL A   1      36.319  29.868  29.844  1.00  0.00     0.014 A 
ATOM     39  C   UNL A   1      38.822  31.013  29.629  1.00  0.00     0.010 A 
ATOM     40  C   UNL A   1      37.408  29.139  30.202  1.00  0.00     0.010 A 
ATOM     41  C   UNL A   1      38.660  29.653  29.943  1.00  0.00    -0.014 A 
BRANCH  41  42
ATOM     42  C   UNL A   1      39.766  28.722  30.091  1.00  0.00     0.031 A 
ATOM     43  C   UNL A   1      40.222  28.559  31.483  1.00  0.00     0.074 A 
ATOM     44  C   UNL A   1      40.215  27.935  29.086  1.00  0.00     0.049 A 
ATOM     45  N   UNL A   1      41.182  29.205  32.051  1.00  0.00    -0.248 NA
ATOM     46  C   UNL A   1      39.411  27.754  32.409  1.00  0.00     0.031 C 
ATOM     47  C   UNL A   1      39.642  27.724  27.744  1.00  0.00     0.029 A 
ATOM     48  N   UNL A   1      41.267  27.074  29.088  1.00  0.00    -0.354 N 
ATOM     49  C   UNL A   1      41.276  28.677  33.330  1.00  0.00     0.074 A 
ATOM     50  C   UNL A   1      40.032  27.992  33.567  1.00  0.00     0.031 C 
ATOM     51  C   UNL A   1      40.218  26.653  27.156  1.00  0.00     0.029 A 
ATOM     52  C   UNL A   1      41.337  26.242  27.977  1.00  0.00     0.049 A 
ATOM     53  H   UNL A   1      41.929  27.044  29.817  1.00  0.00     0.167 HD
ATOM     54  C   UNL A   1      42.495  28.554  33.925  1.00  0.00     0.031 A 
ATOM     55  C   UNL A   1      42.279  25.304  27.729  1.00  0.00     0.031 A 
ATOM     56  C   UNL A   1      43.511  29.226  33.145  1.00  0.00     0.049 A 
ATOM     57  C   UNL A   1      43.471  25.678  28.516  1.00  0.00     0.074 A 
ATOM     58  C   UNL A   1      43.835  30.527  32.828  1.00  0.00     0.029 A 
ATOM     59  N   UNL A   1      44.098  28.417  32.201  1.00  0.00    -0.354 N 
ATOM     60  N   UNL A   1      44.166  26.755  28.282  1.00  0.00    -0.248 NA
ATOM     61  C   UNL A   1      43.682  25.070  29.821  1.00  0.00     0.031 C 
ATOM     62  C   UNL A   1      44.410  30.475  31.521  1.00  0.00     0.029 A 
ATOM     63  C   UNL A   1      44.477  29.144  31.105  1.00  0.00     0.049 A 
ATOM     64  H   UNL A   1      44.227  27.447  32.299  1.00  0.00     0.167 HD
ATOM     65  C   UNL A   1      44.539  27.202  29.537  1.00  0.00     0.074 A 
ATOM     66  C   UNL A   1      44.377  26.047  30.412  1.00  0.00     0.031 C 
ATOM     67  C   UNL A   1      44.647  28.538  29.799  1.00  0.00     0.031 A 
BRANCH  54  68
ATOM     68  C   UNL A   1      42.878  27.418  34.847  1.00  0.00    -0.014 A 
ATOM     69  C   UNL A   1      43.249  26.191  34.263  1.00  0.00     0.009 A 
ATOM     70  C   UNL A   1      42.606  27.399  36.227  1.00  0.00     0.009 A 
ATOM     71  C   UNL A   1      43.270  25.004  35.004  1.00  0.00     0.001 A 
ATOM     72  C   UNL A   1      42.657  26.221  36.978  1.00  0.00     0.001 A 
ATOM     73  C   UNL A   1      42.965  25.018  36.361  1.00  0.00     0.000 A 
ENDBRANCH  54  68
BRANCH  55  74
ATOM     74  C   UNL A   1      42.172  24.013  27.027  1.00  0.00    -0.014 A 
ATOM     75  C   UNL A   1      43.063  23.677  25.995  1.00  0.00     0.009 A 
ATOM     76  C   UNL A   1      41.391  22.985  27.584  1.00  0.00     0.009 A 
ATOM     77  C   UNL A   1      43.211  22.348  25.578  1.00  0.00     0.001 A 
ATOM     78  C   UNL A   1      41.542  21.657  27.170  1.00  0.00     0.001 A 
ATOM     79  C   UNL A   1      42.466  21.336  26.181  1.00  0.00     0.000 A 
ENDBRANCH  55  74
BRANCH  67  80
ATOM     80  C   UNL A   1      44.780  29.465  28.618  1.00  0.00    -0.014 A 
ATOM     81  C   UNL A   1      43.692  30.065  27.962  1.00  0.00     0.009 A 
ATOM     82  C   UNL A   1      46.077  29.810  28.209  1.00  0.00     0.009 A 
ATOM     83  C   UNL A   1      43.901  30.966  26.911  1.00  0.00     0.001 A 
ATOM     84  C   UNL A   1      46.286  30.723  27.175  1.00  0.00     0.001 A 
ATOM     85  C   UNL A   1      45.198  31.295  26.521  1.00  0.00     0.000 A 
ENDBRANCH  67  80
ENDBRANCH  41  42
ENDBRANCH  33  36
ENDBRANCH  31  32
ENDBRANCH  30  31
ENDBRANCH   1  30
TORSDOF 15
ENDMDL
MODEL 3
REMARK VINA RESULT:     -12.1      2.626      7.648
REMARK SMILES C=CCn1nc(C(=O)NCCCNC(=O)c2ccc(-c3c4nc(c(-c5ccccc5)c5ccc([nH]5)c(-c5ccccc5)c5nc(c(-c6ccccc6)c6ccc3[nH]6)C=C5)C=C4)cc2)c2c1CC[C@@H]([NH+]1CCC(C(C)(C)O)CC1)C2
REMARK SMILES IDX 10 1 9 2 7 3 8 4 6 6 4 7 5 8 65 9 64 10 66 11 79 12 67 13
REMARK SMILES IDX 68 14 3 15 2 16 1 17 69 18 70 19 78 20 71 22 77 23 72 24
REMARK SMILES IDX 73 25 74 26 75 27 76 28 11 30 12 31 13 32 14 33 15 35 16 36
REMARK SMILES IDX 17 37 63 38 18 39 62 40 19 41 20 42 21 43 56 44 22 45 61 46
REMARK SMILES IDX 55 47 57 48 23 49 60 50 54 51 53 52 24 54 46 55 31 56 45 57
REMARK SMILES IDX 32 58 35 59 44 60 58 61 33 62 34 63 43 65 59 66 36 67 25 68
REMARK SMILES IDX 26 69 30 70 27 71 29 72 28 73 47 74 48 75 52 76 49 77 51 78
REMARK SMILES IDX 50 79 37 80 38 81 42 82 39 83 41 84 40 85
REMARK H PARENT 9 5 69 21 76 29 13 34 57 53 35 64
REMARK Flexibility Score: inf
ROOT
ATOM      1  C   UNL A   1      37.166  21.136  25.321  1.00  0.00     0.118 C 
ENDROOT
BRANCH   1   2
ATOM      2  N   UNL A   1      37.211  21.987  24.128  1.00  0.00    -0.351 N 
ATOM      3  C   UNL A   1      36.305  22.739  23.395  1.00  0.00     0.272 C 
ATOM      4  O   UNL A   1      36.837  23.438  22.523  1.00  0.00    -0.267 OA
ATOM      5  H   UNL A   1      38.118  22.038  23.750  1.00  0.00     0.163 HD
BRANCH   3   6
ATOM      6  C   UNL A   1      34.825  22.744  23.593  1.00  0.00     0.153 A 
ATOM      7  N   UNL A   1      32.931  22.158  24.460  1.00  0.00    -0.265 N 
ATOM      8  N   UNL A   1      34.238  21.804  24.375  1.00  0.00    -0.167 NA
ATOM      9  C   UNL A   1      32.610  23.160  23.594  1.00  0.00     0.043 A 
ATOM     10  C   UNL A   1      33.821  23.657  23.191  1.00  0.00     0.012 A 
ATOM     11  C   UNL A   1      31.288  23.773  23.303  1.00  0.00     0.062 C 
ATOM     12  C   UNL A   1      33.921  24.977  22.579  1.00  0.00     0.105 C 
ATOM     13  C   UNL A   1      31.465  25.117  22.550  1.00  0.00     0.072 C 
ATOM     14  C   UNL A   1      32.754  25.934  22.809  1.00  0.00     0.189 C 
BRANCH   7  15
ATOM     15  C   UNL A   1      32.094  21.583  25.513  1.00  0.00     0.171 C 
BRANCH  15  16
ATOM     16  C   UNL A   1      31.791  22.583  26.605  1.00  0.00    -0.011 C 
ATOM     17  C   UNL A   1      30.581  23.100  26.867  1.00  0.00     0.006 C 
ENDBRANCH  15  16
ENDBRANCH   7  15
BRANCH  14  18
ATOM     18  N   UNL A   1      33.070  26.793  23.972  1.00  0.00    -0.332 N 
ATOM     19  C   UNL A   1      32.130  26.906  25.070  1.00  0.00     0.262 C 
ATOM     20  C   UNL A   1      33.640  28.097  23.680  1.00  0.00     0.262 C 
ATOM     21  H   UNL A   1      33.801  26.178  24.330  1.00  0.00     0.348 HD
ATOM     22  C   UNL A   1      30.958  27.814  24.754  1.00  0.00     0.068 C 
ATOM     23  C   UNL A   1      32.600  29.059  23.144  1.00  0.00     0.068 C 
ATOM     24  C   UNL A   1      31.261  29.086  23.927  1.00  0.00     0.031 C 
BRANCH  24  25
ATOM     25  C   UNL A   1      30.072  29.498  22.985  1.00  0.00     0.062 C 
ATOM     26  C   UNL A   1      29.053  28.381  22.758  1.00  0.00     0.042 C 
ATOM     27  C   UNL A   1      29.378  30.753  23.518  1.00  0.00     0.042 C 
BRANCH  25  28
ATOM     28  O   UNL A   1      30.567  29.833  21.686  1.00  0.00    -0.390 OA
ATOM     29  H   UNL A   1      30.091  30.607  21.348  1.00  0.00     0.211 HD
ENDBRANCH  25  28
ENDBRANCH  24  25
ENDBRANCH  14  18
ENDBRANCH   3   6
ENDBRANCH   1   2
BRANCH   1  30
ATOM     30  C   UNL A   1      38.303  20.094  25.369  1.00  0.00     0.042 C 
BRANCH  30  31
ATOM     31  C   UNL A   1      39.569  20.452  26.084  1.00  0.00     0.118 C 
BRANCH  31  32
ATOM     32  N   UNL A   1      40.642  19.470  25.879  1.00  0.00    -0.352 N 
ATOM     33  C   UNL A   1      41.997  19.737  25.762  1.00  0.00     0.251 C 
ATOM     34  H   UNL A   1      40.371  18.526  25.817  1.00  0.00     0.163 HD
ATOM     35  O   UNL A   1      42.760  18.968  25.182  1.00  0.00    -0.269 OA
BRANCH  33  36
ATOM     36  C   UNL A   1      42.482  20.986  26.362  1.00  0.00     0.039 A 
ATOM     37  C   UNL A   1      42.769  22.132  25.621  1.00  0.00     0.014 A 
ATOM     38  C   UNL A   1      42.433  21.020  27.746  1.00  0.00     0.014 A 
ATOM     39  C   UNL A   1      42.902  23.333  26.312  1.00  0.00     0.010 A 
ATOM     40  C   UNL A   1      42.177  22.220  28.331  1.00  0.00     0.010 A 
ATOM     41  C   UNL A   1      42.562  23.369  27.676  1.00  0.00    -0.014 A 
BRANCH  41  42
ATOM     42  C   UNL A   1      42.515  24.589  28.462  1.00  0.00     0.031 A 
ATOM     43  C   UNL A   1      41.339  25.433  28.181  1.00  0.00     0.074 A 
ATOM     44  C   UNL A   1      43.358  24.845  29.490  1.00  0.00     0.049 A 
ATOM     45  N   UNL A   1      41.288  26.414  27.347  1.00  0.00    -0.248 NA
ATOM     46  C   UNL A   1      40.029  25.029  28.713  1.00  0.00     0.031 C 
ATOM     47  C   UNL A   1      44.352  23.956  30.119  1.00  0.00     0.029 A 
ATOM     48  N   UNL A   1      43.447  25.964  30.256  1.00  0.00    -0.354 N 
ATOM     49  C   UNL A   1      40.007  26.932  27.464  1.00  0.00     0.074 A 
ATOM     50  C   UNL A   1      39.225  25.909  28.110  1.00  0.00     0.031 C 
ATOM     51  C   UNL A   1      44.776  24.488  31.287  1.00  0.00     0.029 A 
ATOM     52  C   UNL A   1      44.258  25.836  31.377  1.00  0.00     0.049 A 
ATOM     53  H   UNL A   1      42.976  26.800  30.034  1.00  0.00     0.167 HD
ATOM     54  C   UNL A   1      39.804  28.273  27.343  1.00  0.00     0.031 A 
ATOM     55  C   UNL A   1      44.521  26.792  32.297  1.00  0.00     0.031 A 
ATOM     56  C   UNL A   1      41.007  28.929  26.882  1.00  0.00     0.049 A 
ATOM     57  C   UNL A   1      44.268  28.092  31.646  1.00  0.00     0.074 A 
ATOM     58  C   UNL A   1      41.746  28.971  25.721  1.00  0.00     0.029 A 
ATOM     59  N   UNL A   1      41.831  29.336  27.905  1.00  0.00    -0.354 N 
ATOM     60  N   UNL A   1      44.984  28.540  30.654  1.00  0.00    -0.248 NA
ATOM     61  C   UNL A   1      42.977  28.739  31.826  1.00  0.00     0.031 C 
ATOM     62  C   UNL A   1      43.102  29.160  26.130  1.00  0.00     0.029 A 
ATOM     63  C   UNL A   1      43.144  29.292  27.519  1.00  0.00     0.049 A 
ATOM     64  H   UNL A   1      41.520  29.619  28.794  1.00  0.00     0.167 HD
ATOM     65  C   UNL A   1      44.073  29.182  29.835  1.00  0.00     0.074 A 
ATOM     66  C   UNL A   1      42.913  29.430  30.683  1.00  0.00     0.031 C 
ATOM     67  C   UNL A   1      44.226  29.173  28.477  1.00  0.00     0.031 A 
BRANCH  54  68
ATOM     68  C   UNL A   1      38.773  29.049  28.132  1.00  0.00    -0.014 A 
ATOM     69  C   UNL A   1      38.784  28.924  29.534  1.00  0.00     0.009 A 
ATOM     70  C   UNL A   1      37.630  29.642  27.564  1.00  0.00     0.009 A 
ATOM     71  C   UNL A   1      37.683  29.299  30.312  1.00  0.00     0.001 A 
ATOM     72  C   UNL A   1      36.541  30.048  28.341  1.00  0.00     0.001 A 
ATOM     73  C   UNL A   1      36.556  29.853  29.713  1.00  0.00     0.000 A 
ENDBRANCH  54  68
BRANCH  55  74
ATOM     74  C   UNL A   1      44.782  26.672  33.743  1.00  0.00    -0.014 A 
ATOM     75  C   UNL A   1      43.789  26.987  34.683  1.00  0.00     0.009 A 
ATOM     76  C   UNL A   1      45.905  25.950  34.185  1.00  0.00     0.009 A 
ATOM     77  C   UNL A   1      43.887  26.541  36.007  1.00  0.00     0.001 A 
ATOM     78  C   UNL A   1      46.000  25.502  35.507  1.00  0.00     0.001 A 
ATOM     79  C   UNL A   1      44.982  25.781  36.413  1.00  0.00     0.000 A 
ENDBRANCH  55  74
BRANCH  67  80
ATOM     80  C   UNL A   1      45.595  28.844  27.939  1.00  0.00    -0.014 A 
ATOM     81  C   UNL A   1      46.603  29.797  27.721  1.00  0.00     0.009 A 
ATOM     82  C   UNL A   1      45.898  27.491  27.725  1.00  0.00     0.009 A 
ATOM     83  C   UNL A   1      47.872  29.404  27.277  1.00  0.00     0.001 A 
ATOM     84  C   UNL A   1      47.167  27.098  27.302  1.00  0.00     0.001 A 
ATOM     85  C   UNL A   1      48.152  28.055  27.072  1.00  0.00     0.000 A 
ENDBRANCH  67  80
ENDBRANCH  41  42
ENDBRANCH  33  36
ENDBRANCH  31  32
ENDBRANCH  30  31
ENDBRANCH   1  30
TORSDOF 15
ENDMDL
