MODEL 1
REMARK VINA RESULT:     -10.4      0.000      0.000
REMARK SMILES O=C(CN(CC(F)(F)F)C(=O)[C@H]1C[C@H]2CC[C@@H]1[NH2+]2)NCCCNC(=O)c1ccc(-c2c3nc(c(-c4ccccc4)c4ccc([nH]4)c(-c4ccccc4)c4nc(c(-c5ccccc5)c5ccc2[nH]5)C=C4)C=C3)cc1
REMARK SMILES IDX 20 1 19 2 1 3 2 4 3 6 4 7 5 8 6 9 7 10 8 11 9 12 10 13 11 14
REMARK SMILES IDX 12 15 13 16 17 17 14 18 16 19 18 20 15 21 21 24 22 25 23 26
REMARK SMILES IDX 24 27 25 29 26 30 27 31 73 32 28 33 72 34 29 35 30 36 31 37
REMARK SMILES IDX 66 38 32 39 71 40 65 41 67 42 33 43 70 44 64 45 63 46 34 48
REMARK SMILES IDX 56 49 41 50 55 51 42 52 45 53 54 54 68 55 43 56 44 57 53 59
REMARK SMILES IDX 69 60 46 61 35 62 36 63 40 64 37 65 39 66 38 67 57 68 58 69
REMARK SMILES IDX 62 70 59 71 61 72 60 73 47 74 48 75 52 76 49 77 51 78 50 79
REMARK H PARENT 19 5 18 22 18 23 23 28 67 47 45 58
REMARK Flexibility Score: inf
ROOT
ATOM      1  C   UNL A   1      31.786  29.638  26.900  1.00  0.00     0.117 C 
ENDROOT
BRANCH   1   2
ATOM      2  N   UNL A   1      31.521  28.798  25.748  1.00  0.00    -0.354 N 
ATOM      3  O   UNL A   1      31.168  26.878  26.944  1.00  0.00    -0.273 OA
ATOM      4  C   UNL A   1      31.089  27.495  25.883  1.00  0.00     0.239 C 
ATOM      5  H   UNL A   1      31.653  29.169  24.846  1.00  0.00     0.163 HD
BRANCH   4   6
ATOM      6  C   UNL A   1      30.625  26.802  24.581  1.00  0.00     0.219 C 
BRANCH   6   7
ATOM      7  N   UNL A   1      30.686  27.605  23.338  1.00  0.00    -0.324 N 
BRANCH   7   8
ATOM      8  C   UNL A   1      31.807  27.302  22.421  1.00  0.00     0.235 C 
BRANCH   8   9
ATOM      9  C   UNL A   1      33.133  28.033  22.672  1.00  0.00     0.406 C 
ATOM     10  F   UNL A   1      33.966  27.958  21.616  1.00  0.00    -0.169 F 
ATOM     11  F   UNL A   1      32.895  29.345  22.905  1.00  0.00    -0.169 F 
ATOM     12  F   UNL A   1      33.773  27.532  23.749  1.00  0.00    -0.169 F 
ENDBRANCH   8   9
ENDBRANCH   7   8
BRANCH   7  13
ATOM     13  C   UNL A   1      29.517  28.283  23.001  1.00  0.00     0.232 C 
ATOM     14  O   UNL A   1      28.434  27.810  23.370  1.00  0.00    -0.274 OA
BRANCH  13  15
ATOM     15  C   UNL A   1      29.491  29.564  22.162  1.00  0.00     0.142 C 
ATOM     16  C   UNL A   1      28.051  29.857  21.653  1.00  0.00     0.084 C 
ATOM     17  C   UNL A   1      29.876  30.927  22.738  1.00  0.00     0.195 C 
ATOM     18  C   UNL A   1      27.874  31.352  21.936  1.00  0.00     0.183 C 
ATOM     19  C   UNL A   1      29.075  31.284  23.995  1.00  0.00     0.072 C 
ATOM     20  N   UNL A   1      29.253  31.820  21.740  1.00  0.00    -0.341 N 
ATOM     21  C   UNL A   1      27.687  31.593  23.436  1.00  0.00     0.071 C 
ATOM     22  H   UNL A   1      29.369  32.807  21.969  1.00  0.00     0.346 HD
ATOM     23  H   UNL A   1      29.623  31.779  20.790  1.00  0.00     0.346 HD
ENDBRANCH  13  15
ENDBRANCH   7  13
ENDBRANCH   6   7
ENDBRANCH   4   6
ENDBRANCH   1   2
BRANCH   1  24
ATOM     24  C   UNL A   1      31.518  31.118  26.653  1.00  0.00     0.042 C 
BRANCH  24  25
ATOM     25  C   UNL A   1      32.746  32.014  26.789  1.00  0.00     0.118 C 
BRANCH  25  26
ATOM     26  N   UNL A   1      32.453  33.312  27.385  1.00  0.00    -0.352 N 
ATOM     27  C   UNL A   1      33.137  34.043  28.322  1.00  0.00     0.251 C 
ATOM     28  H   UNL A   1      31.626  33.734  27.060  1.00  0.00     0.163 HD
ATOM     29  O   UNL A   1      32.626  35.073  28.767  1.00  0.00    -0.269 OA
BRANCH  27  30
ATOM     30  C   UNL A   1      34.460  33.615  28.827  1.00  0.00     0.039 A 
ATOM     31  C   UNL A   1      34.516  32.852  29.999  1.00  0.00     0.014 A 
ATOM     32  C   UNL A   1      35.646  33.984  28.189  1.00  0.00     0.014 A 
ATOM     33  C   UNL A   1      35.746  32.404  30.488  1.00  0.00     0.010 A 
ATOM     34  C   UNL A   1      36.866  33.475  28.633  1.00  0.00     0.010 A 
ATOM     35  C   UNL A   1      36.931  32.678  29.787  1.00  0.00    -0.014 A 
BRANCH  35  36
ATOM     36  C   UNL A   1      38.240  32.135  30.238  1.00  0.00     0.031 A 
ATOM     37  C   UNL A   1      38.750  30.825  29.698  1.00  0.00     0.074 A 
ATOM     38  C   UNL A   1      38.946  32.787  31.182  1.00  0.00     0.049 A 
ATOM     39  N   UNL A   1      39.829  30.160  30.026  1.00  0.00    -0.248 NA
ATOM     40  C   UNL A   1      37.927  30.165  28.672  1.00  0.00     0.031 C 
ATOM     41  C   UNL A   1      38.556  34.051  31.811  1.00  0.00     0.029 A 
ATOM     42  N   UNL A   1      40.137  32.470  31.787  1.00  0.00    -0.354 N 
ATOM     43  C   UNL A   1      39.807  28.999  29.262  1.00  0.00     0.074 A 
ATOM     44  C   UNL A   1      38.583  29.029  28.489  1.00  0.00     0.031 C 
ATOM     45  C   UNL A   1      39.501  34.413  32.693  1.00  0.00     0.029 A 
ATOM     46  C   UNL A   1      40.539  33.388  32.728  1.00  0.00     0.049 A 
ATOM     47  H   UNL A   1      40.655  31.663  31.566  1.00  0.00     0.167 HD
ATOM     48  C   UNL A   1      40.727  28.007  29.194  1.00  0.00     0.031 A 
ATOM     49  C   UNL A   1      41.613  33.399  33.539  1.00  0.00     0.031 A 
ATOM     50  C   UNL A   1      41.946  27.977  29.959  1.00  0.00     0.049 A 
ATOM     51  C   UNL A   1      42.602  32.267  33.471  1.00  0.00     0.074 A 
ATOM     52  C   UNL A   1      42.964  27.039  29.919  1.00  0.00     0.029 A 
ATOM     53  N   UNL A   1      42.312  28.923  30.903  1.00  0.00    -0.354 N 
ATOM     54  N   UNL A   1      42.596  31.211  32.697  1.00  0.00    -0.248 NA
ATOM     55  C   UNL A   1      43.751  32.339  34.384  1.00  0.00     0.031 C 
ATOM     56  C   UNL A   1      43.916  27.386  30.883  1.00  0.00     0.029 A 
ATOM     57  C   UNL A   1      43.524  28.575  31.475  1.00  0.00     0.049 A 
ATOM     58  H   UNL A   1      41.787  29.723  31.133  1.00  0.00     0.167 HD
ATOM     59  C   UNL A   1      43.754  30.508  33.007  1.00  0.00     0.074 A 
ATOM     60  C   UNL A   1      44.445  31.267  34.027  1.00  0.00     0.031 C 
ATOM     61  C   UNL A   1      44.204  29.337  32.492  1.00  0.00     0.031 A 
BRANCH  48  62
ATOM     62  C   UNL A   1      40.440  26.857  28.266  1.00  0.00    -0.014 A 
ATOM     63  C   UNL A   1      39.645  25.773  28.672  1.00  0.00     0.009 A 
ATOM     64  C   UNL A   1      40.941  26.877  26.955  1.00  0.00     0.009 A 
ATOM     65  C   UNL A   1      39.389  24.715  27.797  1.00  0.00     0.001 A 
ATOM     66  C   UNL A   1      40.657  25.834  26.072  1.00  0.00     0.001 A 
ATOM     67  C   UNL A   1      39.892  24.749  26.496  1.00  0.00     0.000 A 
ENDBRANCH  48  62
BRANCH  49  68
ATOM     68  C   UNL A   1      41.818  34.523  34.491  1.00  0.00    -0.014 A 
ATOM     69  C   UNL A   1      41.280  34.466  35.787  1.00  0.00     0.009 A 
ATOM     70  C   UNL A   1      42.538  35.665  34.106  1.00  0.00     0.009 A 
ATOM     71  C   UNL A   1      41.434  35.541  36.666  1.00  0.00     0.001 A 
ATOM     72  C   UNL A   1      42.718  36.723  34.998  1.00  0.00     0.001 A 
ATOM     73  C   UNL A   1      42.157  36.666  36.273  1.00  0.00     0.000 A 
ENDBRANCH  49  68
BRANCH  61  74
ATOM     74  C   UNL A   1      45.526  28.824  32.994  1.00  0.00    -0.014 A 
ATOM     75  C   UNL A   1      45.604  27.957  34.095  1.00  0.00     0.009 A 
ATOM     76  C   UNL A   1      46.708  29.187  32.330  1.00  0.00     0.009 A 
ATOM     77  C   UNL A   1      46.844  27.493  34.540  1.00  0.00     0.001 A 
ATOM     78  C   UNL A   1      47.942  28.696  32.757  1.00  0.00     0.001 A 
ATOM     79  C   UNL A   1      48.010  27.857  33.868  1.00  0.00     0.000 A 
ENDBRANCH  61  74
ENDBRANCH  35  36
ENDBRANCH  27  30
ENDBRANCH  25  26
ENDBRANCH  24  25
ENDBRANCH   1  24
TORSDOF 15
ENDMDL
MODEL 2
REMARK VINA RESULT:     -10.4      0.456      5.978
REMARK SMILES O=C(CN(CC(F)(F)F)C(=O)[C@H]1C[C@H]2CC[C@@H]1[NH2+]2)NCCCNC(=O)c1ccc(-c2c3nc(c(-c4ccccc4)c4ccc([nH]4)c(-c4ccccc4)c4nc(c(-c5ccccc5)c5ccc2[nH]5)C=C4)C=C3)cc1
REMARK SMILES IDX 20 1 19 2 1 3 2 4 3 6 4 7 5 8 6 9 7 10 8 11 9 12 10 13 11 14
REMARK SMILES IDX 12 15 13 16 17 17 14 18 16 19 18 20 15 21 21 24 22 25 23 26
REMARK SMILES IDX 24 27 25 29 26 30 27 31 73 32 28 33 72 34 29 35 30 36 31 37
REMARK SMILES IDX 66 38 32 39 71 40 65 41 67 42 33 43 70 44 64 45 63 46 34 48
REMARK SMILES IDX 56 49 41 50 55 51 42 52 45 53 54 54 68 55 43 56 44 57 53 59
REMARK SMILES IDX 69 60 46 61 35 62 36 63 40 64 37 65 39 66 38 67 57 68 58 69
REMARK SMILES IDX 62 70 59 71 61 72 60 73 47 74 48 75 52 76 49 77 51 78 50 79
REMARK H PARENT 19 5 18 22 18 23 23 28 67 47 45 58
REMARK Flexibility Score: inf
ROOT
ATOM      1  C   UNL A   1      32.070  30.206  26.960  1.00  0.00     0.117 C 
ENDROOT
BRANCH   1   2
ATOM      2  N   UNL A   1      31.544  29.384  25.888  1.00  0.00    -0.354 N 
ATOM      3  O   UNL A   1      32.443  27.420  26.646  1.00  0.00    -0.273 OA
ATOM      4  C   UNL A   1      31.663  28.009  25.900  1.00  0.00     0.239 C 
ATOM      5  H   UNL A   1      31.091  29.820  25.130  1.00  0.00     0.163 HD
BRANCH   4   6
ATOM      6  C   UNL A   1      30.856  27.255  24.819  1.00  0.00     0.219 C 
BRANCH   6   7
ATOM      7  N   UNL A   1      30.882  27.819  23.450  1.00  0.00    -0.324 N 
BRANCH   7   8
ATOM      8  C   UNL A   1      32.026  27.417  22.601  1.00  0.00     0.235 C 
BRANCH   8   9
ATOM      9  C   UNL A   1      33.343  28.182  22.793  1.00  0.00     0.406 C 
ATOM     10  F   UNL A   1      34.120  27.631  23.746  1.00  0.00    -0.169 F 
ATOM     11  F   UNL A   1      34.050  28.172  21.639  1.00  0.00    -0.169 F 
ATOM     12  F   UNL A   1      33.117  29.469  23.127  1.00  0.00    -0.169 F 
ENDBRANCH   8   9
ENDBRANCH   7   8
BRANCH   7  13
ATOM     13  C   UNL A   1      29.681  28.357  22.998  1.00  0.00     0.232 C 
ATOM     14  O   UNL A   1      28.631  27.747  23.243  1.00  0.00    -0.274 OA
BRANCH  13  15
ATOM     15  C   UNL A   1      29.584  29.646  22.176  1.00  0.00     0.142 C 
ATOM     16  C   UNL A   1      28.133  29.860  21.659  1.00  0.00     0.084 C 
ATOM     17  C   UNL A   1      29.881  31.022  22.775  1.00  0.00     0.195 C 
ATOM     18  C   UNL A   1      27.863  31.337  21.961  1.00  0.00     0.183 C 
ATOM     19  C   UNL A   1      29.050  31.312  24.029  1.00  0.00     0.072 C 
ATOM     20  N   UNL A   1      29.213  31.890  21.783  1.00  0.00    -0.341 N 
ATOM     21  C   UNL A   1      27.650  31.545  23.462  1.00  0.00     0.071 C 
ATOM     22  H   UNL A   1      29.268  32.878  22.027  1.00  0.00     0.346 HD
ATOM     23  H   UNL A   1      29.593  31.885  20.836  1.00  0.00     0.346 HD
ENDBRANCH  13  15
ENDBRANCH   7  13
ENDBRANCH   6   7
ENDBRANCH   4   6
ENDBRANCH   1   2
BRANCH   1  24
ATOM     24  C   UNL A   1      31.609  31.657  26.900  1.00  0.00     0.042 C 
BRANCH  24  25
ATOM     25  C   UNL A   1      32.742  32.679  26.855  1.00  0.00     0.118 C 
BRANCH  25  26
ATOM     26  N   UNL A   1      32.472  33.879  27.638  1.00  0.00    -0.352 N 
ATOM     27  C   UNL A   1      33.152  34.435  28.691  1.00  0.00     0.251 C 
ATOM     28  H   UNL A   1      31.665  34.373  27.365  1.00  0.00     0.163 HD
ATOM     29  O   UNL A   1      32.659  35.400  29.280  1.00  0.00    -0.269 OA
BRANCH  27  30
ATOM     30  C   UNL A   1      34.449  33.891  29.151  1.00  0.00     0.039 A 
ATOM     31  C   UNL A   1      34.462  33.034  30.258  1.00  0.00     0.014 A 
ATOM     32  C   UNL A   1      35.653  34.242  28.537  1.00  0.00     0.014 A 
ATOM     33  C   UNL A   1      35.665  32.477  30.701  1.00  0.00     0.010 A 
ATOM     34  C   UNL A   1      36.842  33.628  28.932  1.00  0.00     0.010 A 
ATOM     35  C   UNL A   1      36.862  32.738  30.017  1.00  0.00    -0.014 A 
BRANCH  35  36
ATOM     36  C   UNL A   1      38.138  32.085  30.414  1.00  0.00     0.031 A 
ATOM     37  C   UNL A   1      39.078  32.765  31.374  1.00  0.00     0.074 A 
ATOM     38  C   UNL A   1      38.486  30.907  29.862  1.00  0.00     0.049 A 
ATOM     39  N   UNL A   1      40.264  32.384  31.778  1.00  0.00    -0.248 NA
ATOM     40  C   UNL A   1      38.637  34.051  31.936  1.00  0.00     0.031 C 
ATOM     41  C   UNL A   1      37.682  30.152  28.897  1.00  0.00     0.029 A 
ATOM     42  N   UNL A   1      39.613  30.139  30.026  1.00  0.00    -0.354 N 
ATOM     43  C   UNL A   1      40.717  33.388  32.625  1.00  0.00     0.074 A 
ATOM     44  C   UNL A   1      39.699  34.416  32.639  1.00  0.00     0.031 C 
ATOM     45  C   UNL A   1      38.331  29.021  28.575  1.00  0.00     0.029 A 
ATOM     46  C   UNL A   1      39.613  28.991  29.270  1.00  0.00     0.049 A 
ATOM     47  H   UNL A   1      40.351  30.388  30.629  1.00  0.00     0.167 HD
ATOM     48  C   UNL A   1      41.867  33.444  33.341  1.00  0.00     0.031 A 
ATOM     49  C   UNL A   1      40.544  28.028  29.139  1.00  0.00     0.031 A 
ATOM     50  C   UNL A   1      42.879  32.422  33.331  1.00  0.00     0.049 A 
ATOM     51  C   UNL A   1      41.828  28.131  29.917  1.00  0.00     0.074 A 
ATOM     52  C   UNL A   1      44.054  32.367  34.062  1.00  0.00     0.029 A 
ATOM     53  N   UNL A   1      42.842  31.278  32.549  1.00  0.00    -0.354 N 
ATOM     54  N   UNL A   1      42.210  29.056  30.762  1.00  0.00    -0.248 NA
ATOM     55  C   UNL A   1      42.803  27.048  29.728  1.00  0.00     0.031 C 
ATOM     56  C   UNL A   1      44.755  31.219  33.678  1.00  0.00     0.029 A 
ATOM     57  C   UNL A   1      43.987  30.526  32.757  1.00  0.00     0.049 A 
ATOM     58  H   UNL A   1      42.111  31.036  31.936  1.00  0.00     0.167 HD
ATOM     59  C   UNL A   1      43.456  28.652  31.227  1.00  0.00     0.074 A 
ATOM     60  C   UNL A   1      43.755  27.391  30.584  1.00  0.00     0.031 C 
ATOM     61  C   UNL A   1      44.277  29.272  32.110  1.00  0.00     0.031 A 
BRANCH  48  62
ATOM     62  C   UNL A   1      42.097  34.667  34.188  1.00  0.00    -0.014 A 
ATOM     63  C   UNL A   1      41.728  34.696  35.542  1.00  0.00     0.009 A 
ATOM     64  C   UNL A   1      42.729  35.791  33.633  1.00  0.00     0.009 A 
ATOM     65  C   UNL A   1      41.951  35.840  36.312  1.00  0.00     0.001 A 
ATOM     66  C   UNL A   1      42.979  36.921  34.413  1.00  0.00     0.001 A 
ATOM     67  C   UNL A   1      42.580  36.950  35.748  1.00  0.00     0.000 A 
ENDBRANCH  48  62
BRANCH  49  68
ATOM     68  C   UNL A   1      40.301  26.872  28.235  1.00  0.00    -0.014 A 
ATOM     69  C   UNL A   1      39.547  25.771  28.672  1.00  0.00     0.009 A 
ATOM     70  C   UNL A   1      40.832  26.856  26.936  1.00  0.00     0.009 A 
ATOM     71  C   UNL A   1      39.356  24.667  27.839  1.00  0.00     0.001 A 
ATOM     72  C   UNL A   1      40.612  25.764  26.094  1.00  0.00     0.001 A 
ATOM     73  C   UNL A   1      39.883  24.666  26.549  1.00  0.00     0.000 A 
ENDBRANCH  49  68
BRANCH  61  74
ATOM     74  C   UNL A   1      45.563  28.575  32.463  1.00  0.00    -0.014 A 
ATOM     75  C   UNL A   1      45.628  27.647  33.513  1.00  0.00     0.009 A 
ATOM     76  C   UNL A   1      46.718  28.827  31.706  1.00  0.00     0.009 A 
ATOM     77  C   UNL A   1      46.834  27.011  33.819  1.00  0.00     0.001 A 
ATOM     78  C   UNL A   1      47.913  28.166  31.994  1.00  0.00     0.001 A 
ATOM     79  C   UNL A   1      47.973  27.267  33.056  1.00  0.00     0.000 A 
ENDBRANCH  61  74
ENDBRANCH  35  36
ENDBRANCH  27  30
ENDBRANCH  25  26
ENDBRANCH  24  25
ENDBRANCH   1  24
TORSDOF 15
ENDMDL
MODEL 3
REMARK VINA RESULT:     -10.4      1.819      6.756
REMARK SMILES O=C(CN(CC(F)(F)F)C(=O)[C@H]1C[C@H]2CC[C@@H]1[NH2+]2)NCCCNC(=O)c1ccc(-c2c3nc(c(-c4ccccc4)c4ccc([nH]4)c(-c4ccccc4)c4nc(c(-c5ccccc5)c5ccc2[nH]5)C=C4)C=C3)cc1
REMARK SMILES IDX 20 1 19 2 1 3 2 4 3 6 4 7 5 8 6 9 7 10 8 11 9 12 10 13 11 14
REMARK SMILES IDX 12 15 13 16 17 17 14 18 16 19 18 20 15 21 21 24 22 25 23 26
REMARK SMILES IDX 24 27 25 29 26 30 27 31 73 32 28 33 72 34 29 35 30 36 31 37
REMARK SMILES IDX 66 38 32 39 71 40 65 41 67 42 33 43 70 44 64 45 63 46 34 48
REMARK SMILES IDX 56 49 41 50 55 51 42 52 45 53 54 54 68 55 43 56 44 57 53 59
REMARK SMILES IDX 69 60 46 61 35 62 36 63 40 64 37 65 39 66 38 67 57 68 58 69
REMARK SMILES IDX 62 70 59 71 61 72 60 73 47 74 48 75 52 76 49 77 51 78 50 79
REMARK H PARENT 19 5 18 22 18 23 23 28 67 47 45 58
REMARK Flexibility Score: inf
ROOT
ATOM      1  C   UNL A   1      31.404  30.448  26.264  1.00  0.00     0.117 C 
ENDROOT
BRANCH   1   2
ATOM      2  N   UNL A   1      31.681  30.077  24.891  1.00  0.00    -0.354 N 
ATOM      3  O   UNL A   1      33.670  29.035  25.334  1.00  0.00    -0.273 OA
ATOM      4  C   UNL A   1      32.744  29.263  24.558  1.00  0.00     0.239 C 
ATOM      5  H   UNL A   1      31.094  30.415  24.177  1.00  0.00     0.163 HD
BRANCH   4   6
ATOM      6  C   UNL A   1      32.778  28.764  23.095  1.00  0.00     0.219 C 
BRANCH   6   7
ATOM      7  N   UNL A   1      32.104  27.476  22.812  1.00  0.00    -0.324 N 
BRANCH   7   8
ATOM      8  C   UNL A   1      30.678  27.559  22.425  1.00  0.00     0.235 C 
BRANCH   8   9
ATOM      9  C   UNL A   1      29.639  27.402  23.545  1.00  0.00     0.406 C 
ATOM     10  F   UNL A   1      28.833  26.340  23.349  1.00  0.00    -0.169 F 
ATOM     11  F   UNL A   1      30.267  27.219  24.730  1.00  0.00    -0.169 F 
ATOM     12  F   UNL A   1      28.866  28.503  23.653  1.00  0.00    -0.169 F 
ENDBRANCH   8   9
ENDBRANCH   7   8
BRANCH   7  13
ATOM     13  C   UNL A   1      32.947  26.391  22.592  1.00  0.00     0.232 C 
ATOM     14  O   UNL A   1      33.875  26.520  21.782  1.00  0.00    -0.274 OA
BRANCH  13  15
ATOM     15  C   UNL A   1      32.770  25.027  23.266  1.00  0.00     0.142 C 
ATOM     16  C   UNL A   1      33.955  24.083  22.917  1.00  0.00     0.084 C 
ATOM     17  C   UNL A   1      32.713  24.867  24.786  1.00  0.00     0.195 C 
ATOM     18  C   UNL A   1      34.329  23.470  24.269  1.00  0.00     0.183 C 
ATOM     19  C   UNL A   1      33.928  25.479  25.490  1.00  0.00     0.072 C 
ATOM     20  N   UNL A   1      33.007  23.425  24.910  1.00  0.00    -0.341 N 
ATOM     21  C   UNL A   1      35.050  24.500  25.142  1.00  0.00     0.071 C 
ATOM     22  H   UNL A   1      33.052  23.115  25.880  1.00  0.00     0.346 HD
ATOM     23  H   UNL A   1      32.324  22.779  24.513  1.00  0.00     0.346 HD
ENDBRANCH  13  15
ENDBRANCH   7  13
ENDBRANCH   6   7
ENDBRANCH   4   6
ENDBRANCH   1   2
BRANCH   1  24
ATOM     24  C   UNL A   1      31.357  31.954  26.493  1.00  0.00     0.042 C 
BRANCH  24  25
ATOM     25  C   UNL A   1      32.658  32.555  27.018  1.00  0.00     0.118 C 
BRANCH  25  26
ATOM     26  N   UNL A   1      32.482  33.857  27.649  1.00  0.00    -0.352 N 
ATOM     27  C   UNL A   1      33.227  34.499  28.605  1.00  0.00     0.251 C 
ATOM     28  H   UNL A   1      31.695  34.360  27.337  1.00  0.00     0.163 HD
ATOM     29  O   UNL A   1      32.810  35.558  29.079  1.00  0.00    -0.269 OA
BRANCH  27  30
ATOM     30  C   UNL A   1      34.506  33.940  29.096  1.00  0.00     0.039 A 
ATOM     31  C   UNL A   1      34.490  33.127  30.235  1.00  0.00     0.014 A 
ATOM     32  C   UNL A   1      35.723  34.236  28.478  1.00  0.00     0.014 A 
ATOM     33  C   UNL A   1      35.675  32.557  30.709  1.00  0.00     0.010 A 
ATOM     34  C   UNL A   1      36.894  33.608  28.906  1.00  0.00     0.010 A 
ATOM     35  C   UNL A   1      36.883  32.761  30.025  1.00  0.00    -0.014 A 
BRANCH  35  36
ATOM     36  C   UNL A   1      38.139  32.091  30.456  1.00  0.00     0.031 A 
ATOM     37  C   UNL A   1      39.049  32.747  31.462  1.00  0.00     0.074 A 
ATOM     38  C   UNL A   1      38.499  30.919  29.897  1.00  0.00     0.049 A 
ATOM     39  N   UNL A   1      40.216  32.351  31.902  1.00  0.00    -0.248 NA
ATOM     40  C   UNL A   1      38.596  34.027  32.029  1.00  0.00     0.031 C 
ATOM     41  C   UNL A   1      37.725  30.187  28.891  1.00  0.00     0.029 A 
ATOM     42  N   UNL A   1      39.613  30.140  30.089  1.00  0.00    -0.354 N 
ATOM     43  C   UNL A   1      40.645  33.337  32.782  1.00  0.00     0.074 A 
ATOM     44  C   UNL A   1      39.634  34.372  32.777  1.00  0.00     0.031 C 
ATOM     45  C   UNL A   1      38.377  29.057  28.573  1.00  0.00     0.029 A 
ATOM     46  C   UNL A   1      39.633  29.005  29.314  1.00  0.00     0.049 A 
ATOM     47  H   UNL A   1      40.330  30.373  30.722  1.00  0.00     0.167 HD
ATOM     48  C   UNL A   1      41.768  33.371  33.540  1.00  0.00     0.031 A 
ATOM     49  C   UNL A   1      40.561  28.037  29.201  1.00  0.00     0.031 A 
ATOM     50  C   UNL A   1      42.773  32.341  33.549  1.00  0.00     0.049 A 
ATOM     51  C   UNL A   1      41.816  28.117  30.026  1.00  0.00     0.074 A 
ATOM     52  C   UNL A   1      43.919  32.265  34.322  1.00  0.00     0.029 A 
ATOM     53  N   UNL A   1      42.756  31.212  32.747  1.00  0.00    -0.354 N 
ATOM     54  N   UNL A   1      42.174  29.025  30.900  1.00  0.00    -0.248 NA
ATOM     55  C   UNL A   1      42.790  27.030  29.854  1.00  0.00     0.031 C 
ATOM     56  C   UNL A   1      44.626  31.119  33.944  1.00  0.00     0.029 A 
ATOM     57  C   UNL A   1      43.887  30.448  32.984  1.00  0.00     0.049 A 
ATOM     58  H   UNL A   1      42.046  30.986  32.104  1.00  0.00     0.167 HD
ATOM     59  C   UNL A   1      43.399  28.604  31.404  1.00  0.00     0.074 A 
ATOM     60  C   UNL A   1      43.712  27.351  30.751  1.00  0.00     0.031 C 
ATOM     61  C   UNL A   1      44.192  29.202  32.327  1.00  0.00     0.031 A 
BRANCH  48  62
ATOM     62  C   UNL A   1      41.976  34.578  34.415  1.00  0.00    -0.014 A 
ATOM     63  C   UNL A   1      42.636  35.721  33.936  1.00  0.00     0.009 A 
ATOM     64  C   UNL A   1      41.471  34.586  35.725  1.00  0.00     0.009 A 
ATOM     65  C   UNL A   1      42.820  36.832  34.764  1.00  0.00     0.001 A 
ATOM     66  C   UNL A   1      41.628  35.709  36.539  1.00  0.00     0.001 A 
ATOM     67  C   UNL A   1      42.312  36.826  36.063  1.00  0.00     0.000 A 
ENDBRANCH  48  62
BRANCH  49  68
ATOM     68  C   UNL A   1      40.343  26.899  28.268  1.00  0.00    -0.014 A 
ATOM     69  C   UNL A   1      40.846  26.944  26.958  1.00  0.00     0.009 A 
ATOM     70  C   UNL A   1      39.618  25.768  28.677  1.00  0.00     0.009 A 
ATOM     71  C   UNL A   1      40.602  25.895  26.069  1.00  0.00     0.001 A 
ATOM     72  C   UNL A   1      39.404  24.707  27.796  1.00  0.00     0.001 A 
ATOM     73  C   UNL A   1      39.886  24.776  26.490  1.00  0.00     0.000 A 
ENDBRANCH  49  68
BRANCH  61  74
ATOM     74  C   UNL A   1      45.458  28.490  32.714  1.00  0.00    -0.014 A 
ATOM     75  C   UNL A   1      45.477  27.539  33.746  1.00  0.00     0.009 A 
ATOM     76  C   UNL A   1      46.643  28.749  32.008  1.00  0.00     0.009 A 
ATOM     77  C   UNL A   1      46.667  26.889  34.085  1.00  0.00     0.001 A 
ATOM     78  C   UNL A   1      47.823  28.075  32.328  1.00  0.00     0.001 A 
ATOM     79  C   UNL A   1      47.836  27.153  33.372  1.00  0.00     0.000 A 
ENDBRANCH  61  74
ENDBRANCH  35  36
ENDBRANCH  27  30
ENDBRANCH  25  26
ENDBRANCH  24  25
ENDBRANCH   1  24
TORSDOF 15
ENDMDL
