MODEL 1
REMARK VINA RESULT:      -9.3      0.000      0.000
REMARK SMILES COc1cc(/C=N/NC(=O)c2cccnc2)ccc1OCC(=O)NCCCNC(=O)c1ccc(-c2c3nc(c(-c4ccccc4)c4ccc([nH]4)c(-c4ccccc4)c4nc(c(-c5ccccc5)c5ccc2[nH]5)C=C4)C=C3)cc1
REMARK SMILES IDX 22 1 23 2 24 3 21 5 20 6 19 7 3 8 4 9 5 10 18 11 17 12 2 13
REMARK SMILES IDX 1 14 6 15 7 16 8 17 9 18 10 20 11 21 12 22 16 23 13 24 15 25
REMARK SMILES IDX 14 26 25 27 26 28 27 29 28 30 29 31 30 33 31 34 32 35 78 36
REMARK SMILES IDX 33 37 77 38 34 39 35 40 36 41 71 42 37 43 76 44 70 45 72 46
REMARK SMILES IDX 38 47 75 48 69 49 68 50 39 52 61 53 46 54 60 55 47 56 50 57
REMARK SMILES IDX 59 58 73 59 48 60 49 61 58 63 74 64 51 65 40 66 41 67 45 68
REMARK SMILES IDX 42 69 44 70 43 71 62 72 63 73 67 74 64 75 66 76 65 77 52 78
REMARK SMILES IDX 53 79 57 80 54 81 56 82 55 83
REMARK H PARENT 24 4 8 19 28 32 72 51 50 62
REMARK Flexibility Score: inf
ROOT
ATOM      1  C   UNL A   1      35.498  35.053  33.228  1.00  0.00     0.257 C 
ATOM      2  O   UNL A   1      36.687  35.337  33.069  1.00  0.00    -0.271 OA
ATOM      3  N   UNL A   1      34.577  35.791  32.542  1.00  0.00    -0.353 N 
ATOM      4  H   UNL A   1      34.917  36.611  32.118  1.00  0.00     0.163 HD
ENDROOT
BRANCH   1   5
ATOM      5  C   UNL A   1      35.043  33.873  34.096  1.00  0.00     0.329 C 
BRANCH   5   6
ATOM      6  O   UNL A   1      35.534  32.589  33.752  1.00  0.00    -0.480 OA
BRANCH   6   7
ATOM      7  C   UNL A   1      36.820  32.240  34.057  1.00  0.00     0.161 A 
ATOM      8  C   UNL A   1      37.567  31.149  33.592  1.00  0.00     0.161 A 
ATOM      9  C   UNL A   1      38.870  30.936  34.068  1.00  0.00     0.060 A 
ATOM     10  C   UNL A   1      39.440  31.836  34.973  1.00  0.00    -0.002 A 
ATOM     11  C   UNL A   1      37.405  33.115  34.988  1.00  0.00     0.051 A 
ATOM     12  C   UNL A   1      38.715  32.933  35.429  1.00  0.00     0.014 A 
BRANCH   8  13
ATOM     13  O   UNL A   1      36.985  30.216  32.778  1.00  0.00    -0.493 OA
ATOM     14  C   UNL A   1      37.786  29.045  32.600  1.00  0.00     0.278 C 
ENDBRANCH   8  13
BRANCH  10  15
ATOM     15  C   UNL A   1      40.780  31.605  35.543  1.00  0.00     0.141 C 
ATOM     16  N   UNL A   1      41.011  30.609  36.337  1.00  0.00    -0.180 NA
BRANCH  16  17
ATOM     17  N   UNL A   1      42.229  30.546  36.953  1.00  0.00    -0.243 N 
ATOM     18  C   UNL A   1      43.187  29.545  36.932  1.00  0.00     0.272 C 
ATOM     19  H   UNL A   1      42.464  31.335  37.494  1.00  0.00     0.194 HD
ATOM     20  O   UNL A   1      44.212  29.646  37.603  1.00  0.00    -0.267 OA
BRANCH  18  21
ATOM     21  C   UNL A   1      43.005  28.333  36.112  1.00  0.00     0.059 A 
ATOM     22  C   UNL A   1      42.360  28.333  34.874  1.00  0.00     0.017 A 
ATOM     23  C   UNL A   1      43.481  27.127  36.606  1.00  0.00     0.124 A 
ATOM     24  C   UNL A   1      42.155  27.122  34.216  1.00  0.00     0.021 A 
ATOM     25  N   UNL A   1      43.286  25.935  35.990  1.00  0.00    -0.264 NA
ATOM     26  C   UNL A   1      42.624  25.960  34.812  1.00  0.00     0.111 A 
ENDBRANCH  18  21
ENDBRANCH  16  17
ENDBRANCH  10  15
ENDBRANCH   6   7
ENDBRANCH   5   6
ENDBRANCH   1   5
BRANCH   3  27
ATOM     27  C   UNL A   1      33.163  35.529  32.358  1.00  0.00     0.117 C 
BRANCH  27  28
ATOM     28  C   UNL A   1      32.527  36.400  31.282  1.00  0.00     0.042 C 
BRANCH  28  29
ATOM     29  C   UNL A   1      33.210  36.346  29.919  1.00  0.00     0.118 C 
BRANCH  29  30
ATOM     30  N   UNL A   1      32.619  35.363  29.022  1.00  0.00    -0.352 N 
ATOM     31  C   UNL A   1      33.143  34.233  28.453  1.00  0.00     0.251 C 
ATOM     32  H   UNL A   1      31.681  35.541  28.783  1.00  0.00     0.163 HD
ATOM     33  O   UNL A   1      32.498  33.646  27.581  1.00  0.00    -0.269 OA
BRANCH  31  34
ATOM     34  C   UNL A   1      34.471  33.716  28.845  1.00  0.00     0.039 A 
ATOM     35  C   UNL A   1      34.574  32.952  30.011  1.00  0.00     0.014 A 
ATOM     36  C   UNL A   1      35.621  34.012  28.109  1.00  0.00     0.014 A 
ATOM     37  C   UNL A   1      35.812  32.434  30.399  1.00  0.00     0.010 A 
ATOM     38  C   UNL A   1      36.837  33.424  28.446  1.00  0.00     0.010 A 
ATOM     39  C   UNL A   1      36.949  32.635  29.600  1.00  0.00    -0.014 A 
BRANCH  39  40
ATOM     40  C   UNL A   1      38.257  32.028  29.964  1.00  0.00     0.031 A 
ATOM     41  C   UNL A   1      39.220  32.765  30.857  1.00  0.00     0.074 A 
ATOM     42  C   UNL A   1      38.598  30.829  29.455  1.00  0.00     0.049 A 
ATOM     43  N   UNL A   1      40.408  32.400  31.267  1.00  0.00    -0.248 NA
ATOM     44  C   UNL A   1      38.805  34.096  31.330  1.00  0.00     0.031 C 
ATOM     45  C   UNL A   1      37.775  30.029  28.543  1.00  0.00     0.029 A 
ATOM     46  N   UNL A   1      39.726  30.069  29.634  1.00  0.00    -0.354 N 
ATOM     47  C   UNL A   1      40.887  33.458  32.031  1.00  0.00     0.074 A 
ATOM     48  C   UNL A   1      39.885  34.502  31.981  1.00  0.00     0.031 C 
ATOM     49  C   UNL A   1      38.410  28.878  28.274  1.00  0.00     0.029 A 
ATOM     50  C   UNL A   1      39.698  28.872  28.959  1.00  0.00     0.049 A 
ATOM     51  H   UNL A   1      40.485  30.354  30.193  1.00  0.00     0.167 HD
ATOM     52  C   UNL A   1      42.044  33.548  32.731  1.00  0.00     0.031 A 
ATOM     53  C   UNL A   1      40.606  27.880  28.899  1.00  0.00     0.031 A 
ATOM     54  C   UNL A   1      43.036  32.508  32.789  1.00  0.00     0.049 A 
ATOM     55  C   UNL A   1      41.885  28.007  29.677  1.00  0.00     0.074 A 
ATOM     56  C   UNL A   1      44.216  32.482  33.513  1.00  0.00     0.029 A 
ATOM     57  N   UNL A   1      42.968  31.312  32.092  1.00  0.00    -0.354 N 
ATOM     58  N   UNL A   1      42.287  28.984  30.454  1.00  0.00    -0.248 NA
ATOM     59  C   UNL A   1      42.828  26.884  29.583  1.00  0.00     0.031 C 
ATOM     60  C   UNL A   1      44.886  31.292  33.213  1.00  0.00     0.029 A 
ATOM     61  C   UNL A   1      44.095  30.550  32.351  1.00  0.00     0.049 A 
ATOM     62  H   UNL A   1      42.228  31.043  31.502  1.00  0.00     0.167 HD
ATOM     63  C   UNL A   1      43.515  28.581  30.963  1.00  0.00     0.074 A 
ATOM     64  C   UNL A   1      43.781  27.264  30.422  1.00  0.00     0.031 C 
ATOM     65  C   UNL A   1      44.348  29.242  31.804  1.00  0.00     0.031 A 
BRANCH  52  66
ATOM     66  C   UNL A   1      42.297  34.823  33.487  1.00  0.00    -0.014 A 
ATOM     67  C   UNL A   1      41.858  34.985  34.812  1.00  0.00     0.009 A 
ATOM     68  C   UNL A   1      43.014  35.866  32.881  1.00  0.00     0.009 A 
ATOM     69  C   UNL A   1      42.096  36.179  35.497  1.00  0.00     0.001 A 
ATOM     70  C   UNL A   1      43.278  37.046  33.579  1.00  0.00     0.001 A 
ATOM     71  C   UNL A   1      42.810  37.206  34.882  1.00  0.00     0.000 A 
ENDBRANCH  52  66
BRANCH  53  72
ATOM     72  C   UNL A   1      40.329  26.664  28.090  1.00  0.00    -0.014 A 
ATOM     73  C   UNL A   1      40.773  26.575  26.761  1.00  0.00     0.009 A 
ATOM     74  C   UNL A   1      39.611  25.589  28.637  1.00  0.00     0.009 A 
ATOM     75  C   UNL A   1      40.477  25.449  25.989  1.00  0.00     0.001 A 
ATOM     76  C   UNL A   1      39.344  24.451  27.873  1.00  0.00     0.001 A 
ATOM     77  C   UNL A   1      39.769  24.387  26.546  1.00  0.00     0.000 A 
ENDBRANCH  53  72
BRANCH  65  78
ATOM     78  C   UNL A   1      45.606  28.532  32.220  1.00  0.00    -0.014 A 
ATOM     79  C   UNL A   1      46.785  28.627  31.465  1.00  0.00     0.009 A 
ATOM     80  C   UNL A   1      45.616  27.778  33.405  1.00  0.00     0.009 A 
ATOM     81  C   UNL A   1      47.937  27.945  31.866  1.00  0.00     0.001 A 
ATOM     82  C   UNL A   1      46.777  27.126  33.820  1.00  0.00     0.001 A 
ATOM     83  C   UNL A   1      47.933  27.199  33.044  1.00  0.00     0.000 A 
ENDBRANCH  65  78
ENDBRANCH  39  40
ENDBRANCH  31  34
ENDBRANCH  29  30
ENDBRANCH  28  29
ENDBRANCH  27  28
ENDBRANCH   3  27
TORSDOF 16
ENDMDL
MODEL 2
REMARK VINA RESULT:      -8.6      5.372      8.939
REMARK SMILES COc1cc(/C=N/NC(=O)c2cccnc2)ccc1OCC(=O)NCCCNC(=O)c1ccc(-c2c3nc(c(-c4ccccc4)c4ccc([nH]4)c(-c4ccccc4)c4nc(c(-c5ccccc5)c5ccc2[nH]5)C=C4)C=C3)cc1
REMARK SMILES IDX 22 1 23 2 24 3 21 5 20 6 19 7 3 8 4 9 5 10 18 11 17 12 2 13
REMARK SMILES IDX 1 14 6 15 7 16 8 17 9 18 10 20 11 21 12 22 16 23 13 24 15 25
REMARK SMILES IDX 14 26 25 27 26 28 27 29 28 30 29 31 30 33 31 34 32 35 78 36
REMARK SMILES IDX 33 37 77 38 34 39 35 40 36 41 71 42 37 43 76 44 70 45 72 46
REMARK SMILES IDX 38 47 75 48 69 49 68 50 39 52 61 53 46 54 60 55 47 56 50 57
REMARK SMILES IDX 59 58 73 59 48 60 49 61 58 63 74 64 51 65 40 66 41 67 45 68
REMARK SMILES IDX 42 69 44 70 43 71 62 72 63 73 67 74 64 75 66 76 65 77 52 78
REMARK SMILES IDX 53 79 57 80 54 81 56 82 55 83
REMARK H PARENT 24 4 8 19 28 32 72 51 50 62
REMARK Flexibility Score: inf
ROOT
ATOM      1  C   UNL A   1      30.060  29.644  23.112  1.00  0.00     0.257 C 
ATOM      2  O   UNL A   1      29.439  30.521  22.507  1.00  0.00    -0.271 OA
ATOM      3  N   UNL A   1      30.822  30.031  24.177  1.00  0.00    -0.353 N 
ATOM      4  H   UNL A   1      30.965  31.000  24.269  1.00  0.00     0.163 HD
ENDROOT
BRANCH   1   5
ATOM      5  C   UNL A   1      29.943  28.158  22.752  1.00  0.00     0.329 C 
BRANCH   5   6
ATOM      6  O   UNL A   1      31.070  27.548  22.145  1.00  0.00    -0.480 OA
BRANCH   6   7
ATOM      7  C   UNL A   1      31.408  26.262  22.462  1.00  0.00     0.161 A 
ATOM      8  C   UNL A   1      32.407  25.455  21.900  1.00  0.00     0.161 A 
ATOM      9  C   UNL A   1      32.566  24.129  22.336  1.00  0.00     0.060 A 
ATOM     10  C   UNL A   1      31.759  23.628  23.360  1.00  0.00    -0.002 A 
ATOM     11  C   UNL A   1      30.591  25.727  23.471  1.00  0.00     0.051 A 
ATOM     12  C   UNL A   1      30.775  24.426  23.938  1.00  0.00     0.014 A 
BRANCH   8  13
ATOM     13  O   UNL A   1      33.139  25.907  20.837  1.00  0.00    -0.493 OA
ATOM     14  C   UNL A   1      32.641  25.457  19.575  1.00  0.00     0.278 C 
ENDBRANCH   8  13
BRANCH  10  15
ATOM     15  C   UNL A   1      31.854  22.223  23.794  1.00  0.00     0.141 C 
ATOM     16  N   UNL A   1      31.722  21.893  25.040  1.00  0.00    -0.180 NA
BRANCH  16  17
ATOM     17  N   UNL A   1      31.979  20.598  25.392  1.00  0.00    -0.243 N 
ATOM     18  C   UNL A   1      33.188  19.959  25.616  1.00  0.00     0.272 C 
ATOM     19  H   UNL A   1      31.181  20.031  25.507  1.00  0.00     0.194 HD
ATOM     20  O   UNL A   1      33.221  18.757  25.875  1.00  0.00    -0.267 OA
BRANCH  18  21
ATOM     21  C   UNL A   1      34.463  20.695  25.547  1.00  0.00     0.059 A 
ATOM     22  C   UNL A   1      35.578  20.238  24.843  1.00  0.00     0.017 A 
ATOM     23  C   UNL A   1      34.566  21.897  26.235  1.00  0.00     0.124 A 
ATOM     24  C   UNL A   1      36.768  20.959  24.915  1.00  0.00     0.021 A 
ATOM     25  N   UNL A   1      35.714  22.612  26.327  1.00  0.00    -0.264 NA
ATOM     26  C   UNL A   1      36.789  22.123  25.669  1.00  0.00     0.111 A 
ENDBRANCH  18  21
ENDBRANCH  16  17
ENDBRANCH  10  15
ENDBRANCH   6   7
ENDBRANCH   5   6
ENDBRANCH   1   5
BRANCH   3  27
ATOM     27  C   UNL A   1      31.449  29.205  25.188  1.00  0.00     0.117 C 
BRANCH  27  28
ATOM     28  C   UNL A   1      32.915  28.909  24.898  1.00  0.00     0.042 C 
BRANCH  28  29
ATOM     29  C   UNL A   1      33.852  29.047  26.095  1.00  0.00     0.118 C 
BRANCH  29  30
ATOM     30  N   UNL A   1      33.719  30.324  26.781  1.00  0.00    -0.352 N 
ATOM     31  C   UNL A   1      34.487  30.908  27.753  1.00  0.00     0.251 C 
ATOM     32  H   UNL A   1      32.944  30.861  26.496  1.00  0.00     0.163 HD
ATOM     33  O   UNL A   1      34.075  31.929  28.309  1.00  0.00    -0.269 OA
BRANCH  31  34
ATOM     34  C   UNL A   1      35.782  30.329  28.166  1.00  0.00     0.039 A 
ATOM     35  C   UNL A   1      36.867  30.424  27.288  1.00  0.00     0.014 A 
ATOM     36  C   UNL A   1      35.932  29.655  29.379  1.00  0.00     0.014 A 
ATOM     37  C   UNL A   1      38.109  29.903  27.656  1.00  0.00     0.010 A 
ATOM     38  C   UNL A   1      37.190  29.214  29.783  1.00  0.00     0.010 A 
ATOM     39  C   UNL A   1      38.291  29.325  28.922  1.00  0.00    -0.014 A 
BRANCH  39  40
ATOM     40  C   UNL A   1      39.626  28.832  29.353  1.00  0.00     0.031 A 
ATOM     41  C   UNL A   1      40.497  29.669  30.251  1.00  0.00     0.074 A 
ATOM     42  C   UNL A   1      40.075  27.645  28.900  1.00  0.00     0.049 A 
ATOM     43  N   UNL A   1      41.694  29.410  30.716  1.00  0.00    -0.248 NA
ATOM     44  C   UNL A   1      39.967  30.979  30.661  1.00  0.00     0.031 C 
ATOM     45  C   UNL A   1      39.349  26.755  27.989  1.00  0.00     0.029 A 
ATOM     46  N   UNL A   1      41.250  26.979  29.145  1.00  0.00    -0.354 N 
ATOM     47  C   UNL A   1      42.063  30.526  31.457  1.00  0.00     0.074 A 
ATOM     48  C   UNL A   1      40.989  31.488  31.334  1.00  0.00     0.031 C 
ATOM     49  C   UNL A   1      40.078  25.647  27.785  1.00  0.00     0.029 A 
ATOM     50  C   UNL A   1      41.336  25.762  28.514  1.00  0.00     0.049 A 
ATOM     51  H   UNL A   1      41.964  27.340  29.720  1.00  0.00     0.167 HD
ATOM     52  C   UNL A   1      43.183  30.727  32.193  1.00  0.00     0.031 A 
ATOM     53  C   UNL A   1      42.318  24.841  28.521  1.00  0.00     0.031 A 
ATOM     54  C   UNL A   1      44.247  29.769  32.323  1.00  0.00     0.049 A 
ATOM     55  C   UNL A   1      43.554  25.091  29.339  1.00  0.00     0.074 A 
ATOM     56  C   UNL A   1      45.398  29.857  33.088  1.00  0.00     0.029 A 
ATOM     57  N   UNL A   1      44.295  28.547  31.668  1.00  0.00    -0.354 N 
ATOM     58  N   UNL A   1      43.852  26.121  30.093  1.00  0.00    -0.248 NA
ATOM     59  C   UNL A   1      44.581  24.040  29.318  1.00  0.00     0.031 C 
ATOM     60  C   UNL A   1      46.166  28.712  32.855  1.00  0.00     0.029 A 
ATOM     61  C   UNL A   1      45.465  27.883  31.994  1.00  0.00     0.049 A 
ATOM     62  H   UNL A   1      43.600  28.204  31.063  1.00  0.00     0.167 HD
ATOM     63  C   UNL A   1      45.087  25.830  30.659  1.00  0.00     0.074 A 
ATOM     64  C   UNL A   1      45.471  24.519  30.176  1.00  0.00     0.031 C 
ATOM     65  C   UNL A   1      45.836  26.580  31.504  1.00  0.00     0.031 A 
BRANCH  52  66
ATOM     66  C   UNL A   1      43.312  32.043  32.911  1.00  0.00    -0.014 A 
ATOM     67  C   UNL A   1      43.912  33.154  32.296  1.00  0.00     0.009 A 
ATOM     68  C   UNL A   1      42.795  32.186  34.208  1.00  0.00     0.009 A 
ATOM     69  C   UNL A   1      44.030  34.365  32.980  1.00  0.00     0.001 A 
ATOM     70  C   UNL A   1      42.886  33.407  34.878  1.00  0.00     0.001 A 
ATOM     71  C   UNL A   1      43.512  34.493  34.268  1.00  0.00     0.000 A 
ENDBRANCH  52  66
BRANCH  53  72
ATOM     72  C   UNL A   1      42.162  23.580  27.748  1.00  0.00    -0.014 A 
ATOM     73  C   UNL A   1      42.592  23.505  26.413  1.00  0.00     0.009 A 
ATOM     74  C   UNL A   1      41.576  22.449  28.335  1.00  0.00     0.009 A 
ATOM     75  C   UNL A   1      42.409  22.334  25.676  1.00  0.00     0.001 A 
ATOM     76  C   UNL A   1      41.424  21.268  27.605  1.00  0.00     0.001 A 
ATOM     77  C   UNL A   1      41.831  21.216  26.272  1.00  0.00     0.000 A 
ENDBRANCH  53  72
BRANCH  65  78
ATOM     78  C   UNL A   1      47.127  25.983  31.989  1.00  0.00    -0.014 A 
ATOM     79  C   UNL A   1      48.331  26.176  31.294  1.00  0.00     0.009 A 
ATOM     80  C   UNL A   1      47.141  25.236  33.178  1.00  0.00     0.009 A 
ATOM     81  C   UNL A   1      49.515  25.598  31.758  1.00  0.00     0.001 A 
ATOM     82  C   UNL A   1      48.331  24.686  33.656  1.00  0.00     0.001 A 
ATOM     83  C   UNL A   1      49.514  24.857  32.940  1.00  0.00     0.000 A 
ENDBRANCH  65  78
ENDBRANCH  39  40
ENDBRANCH  31  34
ENDBRANCH  29  30
ENDBRANCH  28  29
ENDBRANCH  27  28
ENDBRANCH   3  27
TORSDOF 16
ENDMDL
MODEL 3
REMARK VINA RESULT:      -8.5      2.260      3.569
REMARK SMILES COc1cc(/C=N/NC(=O)c2cccnc2)ccc1OCC(=O)NCCCNC(=O)c1ccc(-c2c3nc(c(-c4ccccc4)c4ccc([nH]4)c(-c4ccccc4)c4nc(c(-c5ccccc5)c5ccc2[nH]5)C=C4)C=C3)cc1
REMARK SMILES IDX 22 1 23 2 24 3 21 5 20 6 19 7 3 8 4 9 5 10 18 11 17 12 2 13
REMARK SMILES IDX 1 14 6 15 7 16 8 17 9 18 10 20 11 21 12 22 16 23 13 24 15 25
REMARK SMILES IDX 14 26 25 27 26 28 27 29 28 30 29 31 30 33 31 34 32 35 78 36
REMARK SMILES IDX 33 37 77 38 34 39 35 40 36 41 71 42 37 43 76 44 70 45 72 46
REMARK SMILES IDX 38 47 75 48 69 49 68 50 39 52 61 53 46 54 60 55 47 56 50 57
REMARK SMILES IDX 59 58 73 59 48 60 49 61 58 63 74 64 51 65 40 66 41 67 45 68
REMARK SMILES IDX 42 69 44 70 43 71 62 72 63 73 67 74 64 75 66 76 65 77 52 78
REMARK SMILES IDX 53 79 57 80 54 81 56 82 55 83
REMARK H PARENT 24 4 8 19 28 32 72 51 50 62
REMARK Flexibility Score: inf
ROOT
ATOM      1  C   UNL A   1      36.960  34.477  32.582  1.00  0.00     0.257 C 
ATOM      2  O   UNL A   1      38.170  34.610  32.385  1.00  0.00    -0.271 OA
ATOM      3  N   UNL A   1      36.140  34.471  31.491  1.00  0.00    -0.353 N 
ATOM      4  H   UNL A   1      36.553  34.758  30.645  1.00  0.00     0.163 HD
ENDROOT
BRANCH   1   5
ATOM      5  C   UNL A   1      36.376  34.249  33.982  1.00  0.00     0.329 C 
BRANCH   5   6
ATOM      6  O   UNL A   1      36.208  32.906  34.403  1.00  0.00    -0.480 OA
BRANCH   6   7
ATOM      7  C   UNL A   1      37.231  32.009  34.261  1.00  0.00     0.161 A 
ATOM      8  C   UNL A   1      38.388  31.870  35.040  1.00  0.00     0.161 A 
ATOM      9  C   UNL A   1      39.353  30.908  34.698  1.00  0.00     0.060 A 
ATOM     10  C   UNL A   1      39.140  30.060  33.608  1.00  0.00    -0.002 A 
ATOM     11  C   UNL A   1      37.052  31.163  33.154  1.00  0.00     0.051 A 
ATOM     12  C   UNL A   1      37.985  30.177  32.838  1.00  0.00     0.014 A 
BRANCH   8  13
ATOM     13  O   UNL A   1      38.647  32.754  36.051  1.00  0.00    -0.493 OA
ATOM     14  C   UNL A   1      39.584  33.770  35.687  1.00  0.00     0.278 C 
ENDBRANCH   8  13
BRANCH  10  15
ATOM     15  C   UNL A   1      40.161  29.086  33.183  1.00  0.00     0.141 C 
ATOM     16  N   UNL A   1      41.332  29.055  33.734  1.00  0.00    -0.180 NA
BRANCH  16  17
ATOM     17  N   UNL A   1      42.279  28.237  33.186  1.00  0.00    -0.243 N 
ATOM     18  C   UNL A   1      42.911  27.124  33.718  1.00  0.00     0.272 C 
ATOM     19  H   UNL A   1      42.555  28.474  32.270  1.00  0.00     0.194 HD
ATOM     20  O   UNL A   1      43.789  26.541  33.085  1.00  0.00    -0.267 OA
BRANCH  18  21
ATOM     21  C   UNL A   1      42.552  26.610  35.053  1.00  0.00     0.059 A 
ATOM     22  C   UNL A   1      41.504  25.717  35.276  1.00  0.00     0.017 A 
ATOM     23  C   UNL A   1      43.284  27.053  36.146  1.00  0.00     0.124 A 
ATOM     24  C   UNL A   1      41.183  25.361  36.584  1.00  0.00     0.021 A 
ATOM     25  N   UNL A   1      42.986  26.729  37.428  1.00  0.00    -0.264 NA
ATOM     26  C   UNL A   1      41.940  25.894  37.617  1.00  0.00     0.111 A 
ENDBRANCH  18  21
ENDBRANCH  16  17
ENDBRANCH  10  15
ENDBRANCH   6   7
ENDBRANCH   5   6
ENDBRANCH   1   5
BRANCH   3  27
ATOM     27  C   UNL A   1      34.741  34.101  31.412  1.00  0.00     0.117 C 
BRANCH  27  28
ATOM     28  C   UNL A   1      34.222  34.016  29.983  1.00  0.00     0.042 C 
BRANCH  28  29
ATOM     29  C   UNL A   1      35.031  33.116  29.053  1.00  0.00     0.118 C 
BRANCH  29  30
ATOM     30  N   UNL A   1      34.243  32.044  28.465  1.00  0.00    -0.352 N 
ATOM     31  C   UNL A   1      34.599  30.786  28.054  1.00  0.00     0.251 C 
ATOM     32  H   UNL A   1      33.290  32.257  28.344  1.00  0.00     0.163 HD
ATOM     33  O   UNL A   1      33.784  30.110  27.421  1.00  0.00    -0.269 OA
BRANCH  31  34
ATOM     34  C   UNL A   1      35.941  30.234  28.329  1.00  0.00     0.039 A 
ATOM     35  C   UNL A   1      36.920  30.330  27.335  1.00  0.00     0.014 A 
ATOM     36  C   UNL A   1      36.236  29.584  29.529  1.00  0.00     0.014 A 
ATOM     37  C   UNL A   1      38.205  29.833  27.571  1.00  0.00     0.010 A 
ATOM     38  C   UNL A   1      37.538  29.170  29.798  1.00  0.00     0.010 A 
ATOM     39  C   UNL A   1      38.536  29.281  28.818  1.00  0.00    -0.014 A 
BRANCH  39  40
ATOM     40  C   UNL A   1      39.918  28.816  29.106  1.00  0.00     0.031 A 
ATOM     41  C   UNL A   1      40.896  29.717  29.813  1.00  0.00     0.074 A 
ATOM     42  C   UNL A   1      40.309  27.595  28.692  1.00  0.00     0.049 A 
ATOM     43  N   UNL A   1      42.145  29.488  30.135  1.00  0.00    -0.248 NA
ATOM     44  C   UNL A   1      40.418  31.058  30.186  1.00  0.00     0.031 C 
ATOM     45  C   UNL A   1      39.474  26.641  27.957  1.00  0.00     0.029 A 
ATOM     46  N   UNL A   1      41.509  26.945  28.831  1.00  0.00    -0.354 N 
ATOM     47  C   UNL A   1      42.603  30.657  30.731  1.00  0.00     0.074 A 
ATOM     48  C   UNL A   1      41.517  31.612  30.676  1.00  0.00     0.031 C 
ATOM     49  C   UNL A   1      40.174  25.516  27.745  1.00  0.00     0.029 A 
ATOM     50  C   UNL A   1      41.517  25.682  28.291  1.00  0.00     0.049 A 
ATOM     51  H   UNL A   1      42.291  27.345  29.276  1.00  0.00     0.167 HD
ATOM     52  C   UNL A   1      43.809  30.908  31.294  1.00  0.00     0.031 A 
ATOM     53  C   UNL A   1      42.496  24.758  28.241  1.00  0.00     0.031 A 
ATOM     54  C   UNL A   1      44.887  29.957  31.358  1.00  0.00     0.049 A 
ATOM     55  C   UNL A   1      43.828  25.065  28.865  1.00  0.00     0.074 A 
ATOM     56  C   UNL A   1      46.128  30.098  31.955  1.00  0.00     0.029 A 
ATOM     57  N   UNL A   1      44.853  28.688  30.800  1.00  0.00    -0.354 N 
ATOM     58  N   UNL A   1      44.218  26.148  29.491  1.00  0.00    -0.248 NA
ATOM     59  C   UNL A   1      44.849  24.010  28.792  1.00  0.00     0.031 C 
ATOM     60  C   UNL A   1      46.864  28.934  31.712  1.00  0.00     0.029 A 
ATOM     61  C   UNL A   1      46.060  28.045  31.019  1.00  0.00     0.049 A 
ATOM     62  H   UNL A   1      44.086  28.302  30.320  1.00  0.00     0.167 HD
ATOM     63  C   UNL A   1      45.518  25.896  29.910  1.00  0.00     0.074 A 
ATOM     64  C   UNL A   1      45.842  24.550  29.484  1.00  0.00     0.031 C 
ATOM     65  C   UNL A   1      46.369  26.706  30.587  1.00  0.00     0.031 A 
BRANCH  52  66
ATOM     66  C   UNL A   1      44.025  32.275  31.884  1.00  0.00    -0.014 A 
ATOM     67  C   UNL A   1      44.675  33.288  31.159  1.00  0.00     0.009 A 
ATOM     68  C   UNL A   1      43.543  32.567  33.170  1.00  0.00     0.009 A 
ATOM     69  C   UNL A   1      44.873  34.549  31.725  1.00  0.00     0.001 A 
ATOM     70  C   UNL A   1      43.715  33.838  33.721  1.00  0.00     0.001 A 
ATOM     71  C   UNL A   1      44.389  34.825  33.003  1.00  0.00     0.000 A 
ENDBRANCH  52  66
BRANCH  53  72
ATOM     72  C   UNL A   1      42.246  23.442  27.595  1.00  0.00    -0.014 A 
ATOM     73  C   UNL A   1      42.638  23.213  26.267  1.00  0.00     0.009 A 
ATOM     74  C   UNL A   1      41.606  22.410  28.299  1.00  0.00     0.009 A 
ATOM     75  C   UNL A   1      42.367  21.991  25.648  1.00  0.00     0.001 A 
ATOM     76  C   UNL A   1      41.365  21.178  27.689  1.00  0.00     0.001 A 
ATOM     77  C   UNL A   1      41.737  20.973  26.360  1.00  0.00     0.000 A 
ENDBRANCH  53  72
BRANCH  65  78
ATOM     78  C   UNL A   1      47.716  26.141  30.943  1.00  0.00    -0.014 A 
ATOM     79  C   UNL A   1      47.976  25.613  32.217  1.00  0.00     0.009 A 
ATOM     80  C   UNL A   1      48.733  26.114  29.975  1.00  0.00     0.009 A 
ATOM     81  C   UNL A   1      49.241  25.108  32.527  1.00  0.00     0.001 A 
ATOM     82  C   UNL A   1      49.985  25.579  30.277  1.00  0.00     0.001 A 
ATOM     83  C   UNL A   1      50.242  25.088  31.556  1.00  0.00     0.000 A 
ENDBRANCH  65  78
ENDBRANCH  39  40
ENDBRANCH  31  34
ENDBRANCH  29  30
ENDBRANCH  28  29
ENDBRANCH  27  28
ENDBRANCH   3  27
TORSDOF 16
ENDMDL
