MODEL 1
REMARK VINA RESULT:     -12.1      0.000      0.000
REMARK SMILES C[C@H]1OCC[C@@H]1C(=O)Nc1sc2c(c1C(=O)NCCCNC(=O)c1ccc(-c3c4nc(c(-c5ccccc5)c5ccc([nH]5)c(-c5ccccc5)c5nc(c(-c6ccccc6)c6ccc3[nH]6)C=C5)C=C4)cc1)CCC2
REMARK SMILES IDX 19 1 18 2 17 3 15 4 16 5 14 7 10 8 11 9 12 10 13 11 74 12
REMARK SMILES IDX 72 13 73 14 9 15 7 16 8 17 6 19 1 20 2 21 3 22 4 23 5 24
REMARK SMILES IDX 20 25 21 26 22 27 23 29 24 30 25 31 71 32 26 33 70 34 27 35
REMARK SMILES IDX 28 36 29 37 64 38 30 39 69 40 63 41 65 42 31 43 68 44 62 45
REMARK SMILES IDX 61 46 32 48 54 49 39 50 53 51 40 52 43 53 52 54 66 55 41 56
REMARK SMILES IDX 42 57 51 59 67 60 44 61 33 62 34 63 38 64 35 65 37 66 36 67
REMARK SMILES IDX 55 68 56 69 60 70 57 71 59 72 58 73 45 74 46 75 50 76 47 77
REMARK SMILES IDX 49 78 48 79
REMARK H PARENT 17 6 9 18 21 28 65 47 43 58
REMARK Flexibility Score: inf
ROOT
ATOM      1  C   UNL A   1      33.233  31.056  27.275  1.00  0.00     0.042 C 
ENDROOT
BRANCH   1   2
ATOM      2  C   UNL A   1      32.937  29.675  26.690  1.00  0.00     0.118 C 
BRANCH   2   3
ATOM      3  N   UNL A   1      33.802  29.293  25.600  1.00  0.00    -0.352 N 
ATOM      4  C   UNL A   1      33.610  28.528  24.478  1.00  0.00     0.254 C 
ATOM      5  O   UNL A   1      34.380  28.818  23.556  1.00  0.00    -0.269 OA
ATOM      6  H   UNL A   1      34.714  29.657  25.676  1.00  0.00     0.163 HD
BRANCH   4   7
ATOM      7  C   UNL A   1      32.610  27.462  24.313  1.00  0.00     0.078 A 
ATOM      8  C   UNL A   1      31.570  27.624  23.381  1.00  0.00     0.108 A 
ATOM      9  S   UNL A   1      30.222  26.599  23.649  1.00  0.00    -0.122 S 
ATOM     10  C   UNL A   1      31.114  25.711  24.731  1.00  0.00     0.011 A 
ATOM     11  C   UNL A   1      32.363  26.217  25.002  1.00  0.00    -0.019 A 
ATOM     12  C   UNL A   1      30.738  24.499  25.498  1.00  0.00     0.047 C 
ATOM     13  C   UNL A   1      32.999  25.340  26.024  1.00  0.00     0.038 C 
ATOM     14  C   UNL A   1      32.119  24.059  26.026  1.00  0.00     0.010 C 
BRANCH   8  15
ATOM     15  N   UNL A   1      31.293  28.529  22.386  1.00  0.00    -0.317 N 
ATOM     16  C   UNL A   1      30.212  29.325  22.173  1.00  0.00     0.230 C 
ATOM     17  O   UNL A   1      30.205  29.966  21.109  1.00  0.00    -0.274 OA
ATOM     18  H   UNL A   1      32.001  28.617  21.708  1.00  0.00     0.170 HD
BRANCH  16  19
ATOM     19  C   UNL A   1      29.094  29.609  23.176  1.00  0.00     0.110 C 
ATOM     20  C   UNL A   1      26.862  28.486  23.565  1.00  0.00     0.039 C 
ATOM     21  C   UNL A   1      27.679  29.407  22.657  1.00  0.00     0.127 C 
ATOM     22  O   UNL A   1      27.064  30.706  22.648  1.00  0.00    -0.378 OA
ATOM     23  C   UNL A   1      27.698  31.501  23.650  1.00  0.00     0.161 C 
ATOM     24  C   UNL A   1      29.098  30.962  23.843  1.00  0.00     0.044 C 
ENDBRANCH  16  19
ENDBRANCH   8  15
ENDBRANCH   4   7
ENDBRANCH   2   3
ENDBRANCH   1   2
BRANCH   1  25
ATOM     25  C   UNL A   1      34.635  31.186  27.842  1.00  0.00     0.118 C 
BRANCH  25  26
ATOM     26  N   UNL A   1      34.635  31.803  29.167  1.00  0.00    -0.352 N 
ATOM     27  C   UNL A   1      35.494  31.594  30.223  1.00  0.00     0.251 C 
ATOM     28  H   UNL A   1      33.921  32.461  29.328  1.00  0.00     0.163 HD
ATOM     29  O   UNL A   1      35.210  31.988  31.346  1.00  0.00    -0.269 OA
BRANCH  27  30
ATOM     30  C   UNL A   1      36.742  30.851  29.989  1.00  0.00     0.039 A 
ATOM     31  C   UNL A   1      37.943  31.541  29.793  1.00  0.00     0.014 A 
ATOM     32  C   UNL A   1      36.719  29.462  30.026  1.00  0.00     0.014 A 
ATOM     33  C   UNL A   1      39.138  30.826  29.731  1.00  0.00     0.010 A 
ATOM     34  C   UNL A   1      37.907  28.771  30.098  1.00  0.00     0.010 A 
ATOM     35  C   UNL A   1      39.122  29.437  29.912  1.00  0.00    -0.014 A 
BRANCH  35  36
ATOM     36  C   UNL A   1      40.377  28.683  30.011  1.00  0.00     0.031 A 
ATOM     37  C   UNL A   1      40.970  28.514  31.373  1.00  0.00     0.074 A 
ATOM     38  C   UNL A   1      40.837  27.923  28.993  1.00  0.00     0.049 A 
ATOM     39  N   UNL A   1      42.195  28.716  31.743  1.00  0.00    -0.248 NA
ATOM     40  C   UNL A   1      40.086  28.077  32.468  1.00  0.00     0.031 C 
ATOM     41  C   UNL A   1      40.210  27.703  27.683  1.00  0.00     0.029 A 
ATOM     42  N   UNL A   1      41.867  27.029  28.989  1.00  0.00    -0.354 N 
ATOM     43  C   UNL A   1      42.283  28.301  33.072  1.00  0.00     0.074 A 
ATOM     44  C   UNL A   1      40.936  28.008  33.495  1.00  0.00     0.031 C 
ATOM     45  C   UNL A   1      40.677  26.552  27.158  1.00  0.00     0.029 A 
ATOM     46  C   UNL A   1      41.750  26.061  28.001  1.00  0.00     0.049 A 
ATOM     47  H   UNL A   1      42.618  27.068  29.625  1.00  0.00     0.167 HD
ATOM     48  C   UNL A   1      43.474  28.053  33.688  1.00  0.00     0.031 A 
ATOM     49  C   UNL A   1      42.439  24.901  27.907  1.00  0.00     0.031 A 
ATOM     50  C   UNL A   1      44.589  28.609  32.973  1.00  0.00     0.049 A 
ATOM     51  C   UNL A   1      43.662  25.034  28.726  1.00  0.00     0.074 A 
ATOM     52  C   UNL A   1      44.956  29.875  32.564  1.00  0.00     0.029 A 
ATOM     53  N   UNL A   1      45.395  27.746  32.271  1.00  0.00    -0.354 N 
ATOM     54  N   UNL A   1      44.638  25.845  28.438  1.00  0.00    -0.248 NA
ATOM     55  C   UNL A   1      43.649  24.538  30.094  1.00  0.00     0.031 C 
ATOM     56  C   UNL A   1      45.583  29.683  31.298  1.00  0.00     0.029 A 
ATOM     57  C   UNL A   1      45.590  28.310  31.038  1.00  0.00     0.049 A 
ATOM     58  H   UNL A   1      45.760  26.890  32.591  1.00  0.00     0.167 HD
ATOM     59  C   UNL A   1      45.088  26.306  29.665  1.00  0.00     0.074 A 
ATOM     60  C   UNL A   1      44.544  25.365  30.640  1.00  0.00     0.031 C 
ATOM     61  C   UNL A   1      45.609  27.563  29.802  1.00  0.00     0.031 A 
BRANCH  48  62
ATOM     62  C   UNL A   1      43.670  27.013  34.764  1.00  0.00    -0.014 A 
ATOM     63  C   UNL A   1      43.501  25.652  34.443  1.00  0.00     0.009 A 
ATOM     64  C   UNL A   1      43.737  27.336  36.133  1.00  0.00     0.009 A 
ATOM     65  C   UNL A   1      43.344  24.679  35.439  1.00  0.00     0.001 A 
ATOM     66  C   UNL A   1      43.626  26.360  37.128  1.00  0.00     0.001 A 
ATOM     67  C   UNL A   1      43.402  25.036  36.782  1.00  0.00     0.000 A 
ENDBRANCH  48  62
BRANCH  49  68
ATOM     68  C   UNL A   1      41.994  23.622  27.319  1.00  0.00    -0.014 A 
ATOM     69  C   UNL A   1      42.636  23.086  26.194  1.00  0.00     0.009 A 
ATOM     70  C   UNL A   1      41.071  22.800  27.997  1.00  0.00     0.009 A 
ATOM     71  C   UNL A   1      42.386  21.771  25.781  1.00  0.00     0.001 A 
ATOM     72  C   UNL A   1      40.811  21.492  27.579  1.00  0.00     0.001 A 
ATOM     73  C   UNL A   1      41.482  20.972  26.478  1.00  0.00     0.000 A 
ENDBRANCH  49  68
BRANCH  61  74
ATOM     74  C   UNL A   1      45.915  28.350  28.550  1.00  0.00    -0.014 A 
ATOM     75  C   UNL A   1      44.945  29.115  27.877  1.00  0.00     0.009 A 
ATOM     76  C   UNL A   1      47.250  28.462  28.132  1.00  0.00     0.009 A 
ATOM     77  C   UNL A   1      45.291  29.934  26.799  1.00  0.00     0.001 A 
ATOM     78  C   UNL A   1      47.601  29.301  27.070  1.00  0.00     0.001 A 
ATOM     79  C   UNL A   1      46.621  30.030  26.399  1.00  0.00     0.000 A 
ENDBRANCH  61  74
ENDBRANCH  35  36
ENDBRANCH  27  30
ENDBRANCH  25  26
ENDBRANCH   1  25
TORSDOF 12
ENDMDL
MODEL 2
REMARK VINA RESULT:     -12.1      2.798      6.548
REMARK SMILES C[C@H]1OCC[C@@H]1C(=O)Nc1sc2c(c1C(=O)NCCCNC(=O)c1ccc(-c3c4nc(c(-c5ccccc5)c5ccc([nH]5)c(-c5ccccc5)c5nc(c(-c6ccccc6)c6ccc3[nH]6)C=C5)C=C4)cc1)CCC2
REMARK SMILES IDX 19 1 18 2 17 3 15 4 16 5 14 7 10 8 11 9 12 10 13 11 74 12
REMARK SMILES IDX 72 13 73 14 9 15 7 16 8 17 6 19 1 20 2 21 3 22 4 23 5 24
REMARK SMILES IDX 20 25 21 26 22 27 23 29 24 30 25 31 71 32 26 33 70 34 27 35
REMARK SMILES IDX 28 36 29 37 64 38 30 39 69 40 63 41 65 42 31 43 68 44 62 45
REMARK SMILES IDX 61 46 32 48 54 49 39 50 53 51 40 52 43 53 52 54 66 55 41 56
REMARK SMILES IDX 42 57 51 59 67 60 44 61 33 62 34 63 38 64 35 65 37 66 36 67
REMARK SMILES IDX 55 68 56 69 60 70 57 71 59 72 58 73 45 74 46 75 50 76 47 77
REMARK SMILES IDX 49 78 48 79
REMARK H PARENT 17 6 9 18 21 28 65 47 43 58
REMARK Flexibility Score: inf
ROOT
ATOM      1  C   UNL A   1      31.439  31.677  26.465  1.00  0.00     0.042 C 
ENDROOT
BRANCH   1   2
ATOM      2  C   UNL A   1      31.586  30.163  26.316  1.00  0.00     0.118 C 
BRANCH   2   3
ATOM      3  N   UNL A   1      32.857  29.737  25.783  1.00  0.00    -0.352 N 
ATOM      4  C   UNL A   1      33.213  28.797  24.850  1.00  0.00     0.254 C 
ATOM      5  O   UNL A   1      34.293  29.044  24.300  1.00  0.00    -0.269 OA
ATOM      6  H   UNL A   1      33.625  30.221  26.165  1.00  0.00     0.163 HD
BRANCH   4   7
ATOM      7  C   UNL A   1      32.442  27.599  24.484  1.00  0.00     0.078 A 
ATOM      8  C   UNL A   1      31.551  27.653  23.397  1.00  0.00     0.108 A 
ATOM      9  S   UNL A   1      30.365  26.414  23.401  1.00  0.00    -0.122 S 
ATOM     10  C   UNL A   1      31.207  25.614  24.587  1.00  0.00     0.011 A 
ATOM     11  C   UNL A   1      32.296  26.292  25.079  1.00  0.00    -0.019 A 
ATOM     12  C   UNL A   1      30.919  24.314  25.238  1.00  0.00     0.047 C 
ATOM     13  C   UNL A   1      32.897  25.465  26.163  1.00  0.00     0.038 C 
ATOM     14  C   UNL A   1      32.250  24.064  25.975  1.00  0.00     0.010 C 
BRANCH   8  15
ATOM     15  N   UNL A   1      31.291  28.562  22.401  1.00  0.00    -0.317 N 
ATOM     16  C   UNL A   1      30.218  29.366  22.179  1.00  0.00     0.230 C 
ATOM     17  O   UNL A   1      30.227  30.009  21.117  1.00  0.00    -0.274 OA
ATOM     18  H   UNL A   1      32.006  28.645  21.730  1.00  0.00     0.170 HD
BRANCH  16  19
ATOM     19  C   UNL A   1      29.093  29.658  23.172  1.00  0.00     0.110 C 
ATOM     20  C   UNL A   1      26.894  28.490  23.607  1.00  0.00     0.039 C 
ATOM     21  C   UNL A   1      27.684  29.397  22.663  1.00  0.00     0.127 C 
ATOM     22  O   UNL A   1      27.033  30.677  22.605  1.00  0.00    -0.378 OA
ATOM     23  C   UNL A   1      27.645  31.527  23.574  1.00  0.00     0.161 C 
ATOM     24  C   UNL A   1      29.060  31.035  23.786  1.00  0.00     0.044 C 
ENDBRANCH  16  19
ENDBRANCH   8  15
ENDBRANCH   4   7
ENDBRANCH   2   3
ENDBRANCH   1   2
BRANCH   1  25
ATOM     25  C   UNL A   1      32.610  32.332  27.173  1.00  0.00     0.118 C 
BRANCH  25  26
ATOM     26  N   UNL A   1      32.314  33.710  27.561  1.00  0.00    -0.352 N 
ATOM     27  C   UNL A   1      32.996  34.535  28.428  1.00  0.00     0.251 C 
ATOM     28  H   UNL A   1      31.515  34.105  27.144  1.00  0.00     0.163 HD
ATOM     29  O   UNL A   1      32.482  35.563  28.847  1.00  0.00    -0.269 OA
BRANCH  27  30
ATOM     30  C   UNL A   1      34.341  34.139  28.877  1.00  0.00     0.039 A 
ATOM     31  C   UNL A   1      34.513  33.525  30.121  1.00  0.00     0.014 A 
ATOM     32  C   UNL A   1      35.421  34.329  28.022  1.00  0.00     0.014 A 
ATOM     33  C   UNL A   1      35.764  33.014  30.462  1.00  0.00     0.010 A 
ATOM     34  C   UNL A   1      36.617  33.709  28.303  1.00  0.00     0.010 A 
ATOM     35  C   UNL A   1      36.813  33.082  29.537  1.00  0.00    -0.014 A 
BRANCH  35  36
ATOM     36  C   UNL A   1      38.090  32.413  29.807  1.00  0.00     0.031 A 
ATOM     37  C   UNL A   1      38.190  30.960  29.464  1.00  0.00     0.074 A 
ATOM     38  C   UNL A   1      39.220  33.106  30.072  1.00  0.00     0.049 A 
ATOM     39  N   UNL A   1      38.641  29.994  30.200  1.00  0.00    -0.248 NA
ATOM     40  C   UNL A   1      37.716  30.524  28.139  1.00  0.00     0.031 C 
ATOM     41  C   UNL A   1      39.386  34.564  30.124  1.00  0.00     0.029 A 
ATOM     42  N   UNL A   1      40.503  32.651  30.158  1.00  0.00    -0.354 N 
ATOM     43  C   UNL A   1      38.646  28.852  29.397  1.00  0.00     0.074 A 
ATOM     44  C   UNL A   1      37.978  29.216  28.172  1.00  0.00     0.031 C 
ATOM     45  C   UNL A   1      40.685  34.868  29.925  1.00  0.00     0.029 A 
ATOM     46  C   UNL A   1      41.451  33.636  29.914  1.00  0.00     0.049 A 
ATOM     47  H   UNL A   1      40.733  31.718  30.371  1.00  0.00     0.167 HD
ATOM     48  C   UNL A   1      39.355  27.732  29.716  1.00  0.00     0.031 A 
ATOM     49  C   UNL A   1      42.767  33.458  29.655  1.00  0.00     0.031 A 
ATOM     50  C   UNL A   1      39.768  27.716  31.092  1.00  0.00     0.049 A 
ATOM     51  C   UNL A   1      43.147  32.116  30.145  1.00  0.00     0.074 A 
ATOM     52  C   UNL A   1      39.118  27.765  32.309  1.00  0.00     0.029 A 
ATOM     53  N   UNL A   1      41.089  27.970  31.368  1.00  0.00    -0.354 N 
ATOM     54  N   UNL A   1      43.165  31.787  31.404  1.00  0.00    -0.248 NA
ATOM     55  C   UNL A   1      43.145  31.002  29.210  1.00  0.00     0.031 C 
ATOM     56  C   UNL A   1      39.975  28.535  33.149  1.00  0.00     0.029 A 
ATOM     57  C   UNL A   1      41.106  28.869  32.401  1.00  0.00     0.049 A 
ATOM     58  H   UNL A   1      41.871  27.581  30.913  1.00  0.00     0.167 HD
ATOM     59  C   UNL A   1      42.734  30.470  31.430  1.00  0.00     0.074 A 
ATOM     60  C   UNL A   1      42.877  30.002  30.054  1.00  0.00     0.031 C 
ATOM     61  C   UNL A   1      42.031  29.976  32.493  1.00  0.00     0.031 A 
BRANCH  48  62
ATOM     62  C   UNL A   1      39.974  26.804  28.699  1.00  0.00    -0.014 A 
ATOM     63  C   UNL A   1      40.973  27.297  27.837  1.00  0.00     0.009 A 
ATOM     64  C   UNL A   1      39.418  25.553  28.372  1.00  0.00     0.009 A 
ATOM     65  C   UNL A   1      41.346  26.604  26.677  1.00  0.00     0.001 A 
ATOM     66  C   UNL A   1      39.821  24.838  27.240  1.00  0.00     0.001 A 
ATOM     67  C   UNL A   1      40.765  25.377  26.378  1.00  0.00     0.000 A 
ENDBRANCH  48  62
BRANCH  49  68
ATOM     68  C   UNL A   1      43.655  34.299  28.828  1.00  0.00    -0.014 A 
ATOM     69  C   UNL A   1      43.513  34.339  27.434  1.00  0.00     0.009 A 
ATOM     70  C   UNL A   1      44.509  35.248  29.425  1.00  0.00     0.009 A 
ATOM     71  C   UNL A   1      44.178  35.308  26.671  1.00  0.00     0.001 A 
ATOM     72  C   UNL A   1      45.183  36.207  28.664  1.00  0.00     0.001 A 
ATOM     73  C   UNL A   1      45.005  36.246  27.286  1.00  0.00     0.000 A 
ENDBRANCH  49  68
BRANCH  61  74
ATOM     74  C   UNL A   1      41.945  30.816  33.746  1.00  0.00    -0.014 A 
ATOM     75  C   UNL A   1      41.021  31.866  33.895  1.00  0.00     0.009 A 
ATOM     76  C   UNL A   1      42.696  30.433  34.868  1.00  0.00     0.009 A 
ATOM     77  C   UNL A   1      40.880  32.536  35.113  1.00  0.00     0.001 A 
ATOM     78  C   UNL A   1      42.537  31.086  36.093  1.00  0.00     0.001 A 
ATOM     79  C   UNL A   1      41.636  32.142  36.213  1.00  0.00     0.000 A 
ENDBRANCH  61  74
ENDBRANCH  35  36
ENDBRANCH  27  30
ENDBRANCH  25  26
ENDBRANCH   1  25
TORSDOF 12
ENDMDL
MODEL 3
REMARK VINA RESULT:     -12.1      1.886      3.576
REMARK SMILES C[C@H]1OCC[C@@H]1C(=O)Nc1sc2c(c1C(=O)NCCCNC(=O)c1ccc(-c3c4nc(c(-c5ccccc5)c5ccc([nH]5)c(-c5ccccc5)c5nc(c(-c6ccccc6)c6ccc3[nH]6)C=C5)C=C4)cc1)CCC2
REMARK SMILES IDX 19 1 18 2 17 3 15 4 16 5 14 7 10 8 11 9 12 10 13 11 74 12
REMARK SMILES IDX 72 13 73 14 9 15 7 16 8 17 6 19 1 20 2 21 3 22 4 23 5 24
REMARK SMILES IDX 20 25 21 26 22 27 23 29 24 30 25 31 71 32 26 33 70 34 27 35
REMARK SMILES IDX 28 36 29 37 64 38 30 39 69 40 63 41 65 42 31 43 68 44 62 45
REMARK SMILES IDX 61 46 32 48 54 49 39 50 53 51 40 52 43 53 52 54 66 55 41 56
REMARK SMILES IDX 42 57 51 59 67 60 44 61 33 62 34 63 38 64 35 65 37 66 36 67
REMARK SMILES IDX 55 68 56 69 60 70 57 71 59 72 58 73 45 74 46 75 50 76 47 77
REMARK SMILES IDX 49 78 48 79
REMARK H PARENT 17 6 9 18 21 28 65 47 43 58
REMARK Flexibility Score: inf
ROOT
ATOM      1  C   UNL A   1      33.498  31.408  27.266  1.00  0.00     0.042 C 
ENDROOT
BRANCH   1   2
ATOM      2  C   UNL A   1      32.444  30.301  27.251  1.00  0.00     0.118 C 
BRANCH   2   3
ATOM      3  N   UNL A   1      32.984  28.964  27.280  1.00  0.00    -0.352 N 
ATOM      4  C   UNL A   1      32.785  27.857  26.496  1.00  0.00     0.254 C 
ATOM      5  O   UNL A   1      33.745  27.078  26.501  1.00  0.00    -0.269 OA
ATOM      6  H   UNL A   1      33.629  28.816  28.010  1.00  0.00     0.163 HD
BRANCH   4   7
ATOM      7  C   UNL A   1      31.585  27.561  25.697  1.00  0.00     0.078 A 
ATOM      8  C   UNL A   1      30.924  26.332  25.867  1.00  0.00     0.108 A 
ATOM      9  S   UNL A   1      29.904  25.898  24.558  1.00  0.00    -0.122 S 
ATOM     10  C   UNL A   1      30.034  27.436  23.949  1.00  0.00     0.011 A 
ATOM     11  C   UNL A   1      30.914  28.250  24.620  1.00  0.00    -0.019 A 
ATOM     12  C   UNL A   1      29.398  28.036  22.751  1.00  0.00     0.047 C 
ATOM     13  C   UNL A   1      30.952  29.562  23.914  1.00  0.00     0.038 C 
ATOM     14  C   UNL A   1      29.707  29.529  22.985  1.00  0.00     0.010 C 
BRANCH   8  15
ATOM     15  N   UNL A   1      31.019  25.296  26.764  1.00  0.00    -0.317 N 
ATOM     16  C   UNL A   1      31.633  24.087  26.677  1.00  0.00     0.230 C 
ATOM     17  O   UNL A   1      31.446  23.309  27.626  1.00  0.00    -0.274 OA
ATOM     18  H   UNL A   1      30.561  25.458  27.620  1.00  0.00     0.170 HD
BRANCH  16  19
ATOM     19  C   UNL A   1      32.634  23.663  25.602  1.00  0.00     0.110 C 
ATOM     20  C   UNL A   1      32.349  22.329  23.474  1.00  0.00     0.039 C 
ATOM     21  C   UNL A   1      32.409  22.284  25.002  1.00  0.00     0.127 C 
ATOM     22  O   UNL A   1      33.537  21.485  25.393  1.00  0.00    -0.378 OA
ATOM     23  C   UNL A   1      34.647  22.359  25.597  1.00  0.00     0.161 C 
ATOM     24  C   UNL A   1      34.097  23.718  25.968  1.00  0.00     0.044 C 
ENDBRANCH  16  19
ENDBRANCH   8  15
ENDBRANCH   4   7
ENDBRANCH   2   3
ENDBRANCH   1   2
BRANCH   1  25
ATOM     25  C   UNL A   1      34.780  31.014  27.975  1.00  0.00     0.118 C 
BRANCH  25  26
ATOM     26  N   UNL A   1      34.977  31.770  29.210  1.00  0.00    -0.352 N 
ATOM     27  C   UNL A   1      35.912  31.583  30.205  1.00  0.00     0.251 C 
ATOM     28  H   UNL A   1      34.354  32.519  29.352  1.00  0.00     0.163 HD
ATOM     29  O   UNL A   1      35.785  32.129  31.292  1.00  0.00    -0.269 OA
BRANCH  27  30
ATOM     30  C   UNL A   1      37.047  30.682  29.953  1.00  0.00     0.039 A 
ATOM     31  C   UNL A   1      38.263  31.196  29.492  1.00  0.00     0.014 A 
ATOM     32  C   UNL A   1      36.910  29.328  30.238  1.00  0.00     0.014 A 
ATOM     33  C   UNL A   1      39.372  30.355  29.411  1.00  0.00     0.010 A 
ATOM     34  C   UNL A   1      38.033  28.534  30.284  1.00  0.00     0.010 A 
ATOM     35  C   UNL A   1      39.263  29.025  29.835  1.00  0.00    -0.014 A 
BRANCH  35  36
ATOM     36  C   UNL A   1      40.450  28.166  29.911  1.00  0.00     0.031 A 
ATOM     37  C   UNL A   1      41.154  28.082  31.228  1.00  0.00     0.074 A 
ATOM     38  C   UNL A   1      40.742  27.263  28.949  1.00  0.00     0.049 A 
ATOM     39  N   UNL A   1      42.421  28.201  31.467  1.00  0.00    -0.248 NA
ATOM     40  C   UNL A   1      40.343  27.850  32.437  1.00  0.00     0.031 C 
ATOM     41  C   UNL A   1      39.977  26.971  27.731  1.00  0.00     0.029 A 
ATOM     42  N   UNL A   1      41.685  26.277  28.958  1.00  0.00    -0.354 N 
ATOM     43  C   UNL A   1      42.599  27.920  32.822  1.00  0.00     0.074 A 
ATOM     44  C   UNL A   1      41.277  27.805  33.388  1.00  0.00     0.031 C 
ATOM     45  C   UNL A   1      40.287  25.731  27.300  1.00  0.00     0.029 A 
ATOM     46  C   UNL A   1      41.389  25.228  28.098  1.00  0.00     0.049 A 
ATOM     47  H   UNL A   1      42.493  26.307  29.519  1.00  0.00     0.167 HD
ATOM     48  C   UNL A   1      43.816  27.621  33.358  1.00  0.00     0.031 A 
ATOM     49  C   UNL A   1      41.961  24.002  28.077  1.00  0.00     0.031 A 
ATOM     50  C   UNL A   1      44.903  27.988  32.492  1.00  0.00     0.049 A 
ATOM     51  C   UNL A   1      43.264  24.099  28.769  1.00  0.00     0.074 A 
ATOM     52  C   UNL A   1      45.340  29.163  31.914  1.00  0.00     0.029 A 
ATOM     53  N   UNL A   1      45.559  26.982  31.825  1.00  0.00    -0.354 N 
ATOM     54  N   UNL A   1      44.275  24.777  28.309  1.00  0.00    -0.248 NA
ATOM     55  C   UNL A   1      43.337  23.752  30.179  1.00  0.00     0.031 C 
ATOM     56  C   UNL A   1      45.823  28.779  30.628  1.00  0.00     0.029 A 
ATOM     57  C   UNL A   1      45.685  27.393  30.525  1.00  0.00     0.049 A 
ATOM     58  H   UNL A   1      45.876  26.132  32.208  1.00  0.00     0.167 HD
ATOM     59  C   UNL A   1      44.879  25.316  29.434  1.00  0.00     0.074 A 
ATOM     60  C   UNL A   1      44.350  24.539  30.551  1.00  0.00     0.031 C 
ATOM     61  C   UNL A   1      45.519  26.523  29.383  1.00  0.00     0.031 A 
BRANCH  48  62
ATOM     62  C   UNL A   1      44.022  26.685  34.523  1.00  0.00    -0.014 A 
ATOM     63  C   UNL A   1      43.729  25.316  34.364  1.00  0.00     0.009 A 
ATOM     64  C   UNL A   1      44.223  27.139  35.841  1.00  0.00     0.009 A 
ATOM     65  C   UNL A   1      43.582  24.466  35.468  1.00  0.00     0.001 A 
ATOM     66  C   UNL A   1      44.121  26.283  36.941  1.00  0.00     0.001 A 
ATOM     67  C   UNL A   1      43.773  24.953  36.757  1.00  0.00     0.000 A 
ENDBRANCH  48  62
BRANCH  49  68
ATOM     68  C   UNL A   1      41.350  22.718  27.676  1.00  0.00    -0.014 A 
ATOM     69  C   UNL A   1      40.119  22.686  27.008  1.00  0.00     0.009 A 
ATOM     70  C   UNL A   1      42.086  21.519  27.749  1.00  0.00     0.009 A 
ATOM     71  C   UNL A   1      39.655  21.507  26.411  1.00  0.00     0.001 A 
ATOM     72  C   UNL A   1      41.618  20.337  27.166  1.00  0.00     0.001 A 
ATOM     73  C   UNL A   1      40.407  20.336  26.483  1.00  0.00     0.000 A 
ENDBRANCH  49  68
BRANCH  61  74
ATOM     74  C   UNL A   1      45.772  27.142  28.029  1.00  0.00    -0.014 A 
ATOM     75  C   UNL A   1      46.981  26.970  27.329  1.00  0.00     0.009 A 
ATOM     76  C   UNL A   1      44.709  27.772  27.365  1.00  0.00     0.009 A 
ATOM     77  C   UNL A   1      47.134  27.446  26.024  1.00  0.00     0.001 A 
ATOM     78  C   UNL A   1      44.853  28.227  26.051  1.00  0.00     0.001 A 
ATOM     79  C   UNL A   1      46.067  28.071  25.384  1.00  0.00     0.000 A 
ENDBRANCH  61  74
ENDBRANCH  35  36
ENDBRANCH  27  30
ENDBRANCH  25  26
ENDBRANCH   1  25
TORSDOF 12
ENDMDL
