MODEL 1
REMARK VINA RESULT:     -10.3      0.000      0.000
REMARK SMILES CCOc1c(F)cccc1C(=O)NCCCNC(=O)c1ccc(-c2c3nc(c(-c4ccccc4)c4ccc([nH]4)c(-c4ccccc4)c4nc(c(-c5ccccc5)c5ccc2[nH]5)C=C4)C=C3)cc1
REMARK SMILES IDX 15 1 14 2 13 3 11 4 12 5 10 7 4 8 5 9 6 10 7 11 9 12 8 13
REMARK SMILES IDX 3 14 2 15 1 16 16 17 17 18 18 19 19 21 20 22 21 23 67 24
REMARK SMILES IDX 22 25 66 26 23 27 24 28 25 29 60 30 26 31 65 32 59 33 61 34
REMARK SMILES IDX 27 35 64 36 58 37 57 38 28 40 50 41 35 42 49 43 36 44 39 45
REMARK SMILES IDX 48 46 62 47 37 48 38 49 47 51 63 52 40 53 29 54 30 55 34 56
REMARK SMILES IDX 31 57 33 58 32 59 51 60 52 61 56 62 53 63 55 64 54 65 41 66
REMARK SMILES IDX 42 67 46 68 43 69 45 70 44 71
REMARK H PARENT 13 6 17 20 61 39 39 50
REMARK Flexibility Score: inf
ROOT
ATOM      1  C   UNL A   1      38.223  19.962  24.782  1.00  0.00     0.042 C 
ENDROOT
BRANCH   1   2
ATOM      2  C   UNL A   1      37.367  21.219  24.611  1.00  0.00     0.118 C 
BRANCH   2   3
ATOM      3  N   UNL A   1      36.384  21.303  25.669  1.00  0.00    -0.352 N 
ATOM      4  C   UNL A   1      35.022  21.270  25.760  1.00  0.00     0.255 C 
ATOM      5  O   UNL A   1      34.609  21.496  26.906  1.00  0.00    -0.269 OA
ATOM      6  H   UNL A   1      36.805  21.410  26.552  1.00  0.00     0.163 HD
BRANCH   4   7
ATOM      7  C   UNL A   1      34.004  20.960  24.699  1.00  0.00     0.084 A 
ATOM      8  C   UNL A   1      33.395  19.750  24.336  1.00  0.00     0.167 A 
ATOM      9  C   UNL A   1      32.384  19.757  23.352  1.00  0.00     0.165 A 
ATOM     10  F   UNL A   1      31.688  18.642  23.089  1.00  0.00    -0.203 F 
ATOM     11  C   UNL A   1      32.040  20.899  22.639  1.00  0.00     0.043 A 
ATOM     12  C   UNL A   1      33.631  22.113  23.951  1.00  0.00     0.018 A 
ATOM     13  C   UNL A   1      32.681  22.086  22.927  1.00  0.00     0.004 A 
BRANCH   8  14
ATOM     14  O   UNL A   1      33.671  18.556  24.939  1.00  0.00    -0.490 OA
BRANCH  14  15
ATOM     15  C   UNL A   1      34.685  17.788  24.274  1.00  0.00     0.226 C 
ATOM     16  C   UNL A   1      34.155  16.497  23.674  1.00  0.00     0.049 C 
ENDBRANCH  14  15
ENDBRANCH   8  14
ENDBRANCH   4   7
ENDBRANCH   2   3
ENDBRANCH   1   2
BRANCH   1  17
ATOM     17  C   UNL A   1      39.022  19.939  26.085  1.00  0.00     0.118 C 
BRANCH  17  18
ATOM     18  N   UNL A   1      40.271  19.208  25.929  1.00  0.00    -0.352 N 
ATOM     19  C   UNL A   1      41.572  19.642  25.926  1.00  0.00     0.251 C 
ATOM     20  H   UNL A   1      40.164  18.237  25.806  1.00  0.00     0.163 HD
ATOM     21  O   UNL A   1      42.440  18.901  25.474  1.00  0.00    -0.269 OA
BRANCH  19  22
ATOM     22  C   UNL A   1      41.959  20.969  26.464  1.00  0.00     0.039 A 
ATOM     23  C   UNL A   1      41.937  21.153  27.851  1.00  0.00     0.014 A 
ATOM     24  C   UNL A   1      42.228  22.059  25.632  1.00  0.00     0.014 A 
ATOM     25  C   UNL A   1      42.199  22.412  28.399  1.00  0.00     0.010 A 
ATOM     26  C   UNL A   1      42.562  23.299  26.181  1.00  0.00     0.010 A 
ATOM     27  C   UNL A   1      42.527  23.495  27.569  1.00  0.00    -0.014 A 
BRANCH  27  28
ATOM     28  C   UNL A   1      42.793  24.840  28.144  1.00  0.00     0.031 A 
ATOM     29  C   UNL A   1      44.193  25.240  28.532  1.00  0.00     0.074 A 
ATOM     30  C   UNL A   1      41.773  25.701  28.328  1.00  0.00     0.049 A 
ATOM     31  N   UNL A   1      44.615  26.363  29.058  1.00  0.00    -0.248 NA
ATOM     32  C   UNL A   1      45.255  24.242  28.323  1.00  0.00     0.031 C 
ATOM     33  C   UNL A   1      40.367  25.428  28.025  1.00  0.00     0.029 A 
ATOM     34  N   UNL A   1      41.764  26.985  28.813  1.00  0.00    -0.354 N 
ATOM     35  C   UNL A   1      45.983  26.201  29.252  1.00  0.00     0.074 A 
ATOM     36  C   UNL A   1      46.311  24.855  28.836  1.00  0.00     0.031 C 
ATOM     37  C   UNL A   1      39.638  26.523  28.294  1.00  0.00     0.029 A 
ATOM     38  C   UNL A   1      40.518  27.562  28.819  1.00  0.00     0.049 A 
ATOM     39  H   UNL A   1      42.575  27.449  29.124  1.00  0.00     0.167 HD
ATOM     40  C   UNL A   1      46.890  27.097  29.709  1.00  0.00     0.031 A 
ATOM     41  C   UNL A   1      40.127  28.793  29.199  1.00  0.00     0.031 A 
ATOM     42  C   UNL A   1      46.574  28.442  30.109  1.00  0.00     0.049 A 
ATOM     43  C   UNL A   1      41.157  29.770  29.696  1.00  0.00     0.074 A 
ATOM     44  C   UNL A   1      47.427  29.432  30.566  1.00  0.00     0.029 A 
ATOM     45  N   UNL A   1      45.301  28.989  30.086  1.00  0.00    -0.354 N 
ATOM     46  N   UNL A   1      42.450  29.609  29.834  1.00  0.00    -0.248 NA
ATOM     47  C   UNL A   1      40.670  31.105  30.071  1.00  0.00     0.031 C 
ATOM     48  C   UNL A   1      46.664  30.571  30.845  1.00  0.00     0.029 A 
ATOM     49  C   UNL A   1      45.344  30.302  30.522  1.00  0.00     0.049 A 
ATOM     50  H   UNL A   1      44.487  28.514  29.801  1.00  0.00     0.167 HD
ATOM     51  C   UNL A   1      42.935  30.829  30.287  1.00  0.00     0.074 A 
ATOM     52  C   UNL A   1      41.800  31.724  30.380  1.00  0.00     0.031 C 
ATOM     53  C   UNL A   1      44.206  31.177  30.602  1.00  0.00     0.031 A 
BRANCH  40  54
ATOM     54  C   UNL A   1      48.324  26.648  29.789  1.00  0.00    -0.014 A 
ATOM     55  C   UNL A   1      49.215  26.892  28.731  1.00  0.00     0.009 A 
ATOM     56  C   UNL A   1      48.800  26.008  30.944  1.00  0.00     0.009 A 
ATOM     57  C   UNL A   1      50.544  26.474  28.815  1.00  0.00     0.001 A 
ATOM     58  C   UNL A   1      50.137  25.615  31.036  1.00  0.00     0.001 A 
ATOM     59  C   UNL A   1      51.006  25.841  29.968  1.00  0.00     0.000 A 
ENDBRANCH  40  54
BRANCH  41  60
ATOM     60  C   UNL A   1      38.700  29.191  29.099  1.00  0.00    -0.014 A 
ATOM     61  C   UNL A   1      38.184  29.696  27.895  1.00  0.00     0.009 A 
ATOM     62  C   UNL A   1      37.851  29.092  30.212  1.00  0.00     0.009 A 
ATOM     63  C   UNL A   1      36.859  30.125  27.817  1.00  0.00     0.001 A 
ATOM     64  C   UNL A   1      36.517  29.496  30.124  1.00  0.00     0.001 A 
ATOM     65  C   UNL A   1      36.025  30.023  28.930  1.00  0.00     0.000 A 
ENDBRANCH  41  60
BRANCH  53  66
ATOM     66  C   UNL A   1      44.433  32.596  31.037  1.00  0.00    -0.014 A 
ATOM     67  C   UNL A   1      44.718  33.605  30.104  1.00  0.00     0.009 A 
ATOM     68  C   UNL A   1      44.345  32.929  32.398  1.00  0.00     0.009 A 
ATOM     69  C   UNL A   1      44.951  34.913  30.532  1.00  0.00     0.001 A 
ATOM     70  C   UNL A   1      44.553  34.242  32.818  1.00  0.00     0.001 A 
ATOM     71  C   UNL A   1      44.866  35.231  31.886  1.00  0.00     0.000 A 
ENDBRANCH  53  66
ENDBRANCH  27  28
ENDBRANCH  19  22
ENDBRANCH  17  18
ENDBRANCH   1  17
TORSDOF 12
ENDMDL
MODEL 2
REMARK VINA RESULT:     -10.1      0.377      6.337
REMARK SMILES CCOc1c(F)cccc1C(=O)NCCCNC(=O)c1ccc(-c2c3nc(c(-c4ccccc4)c4ccc([nH]4)c(-c4ccccc4)c4nc(c(-c5ccccc5)c5ccc2[nH]5)C=C4)C=C3)cc1
REMARK SMILES IDX 15 1 14 2 13 3 11 4 12 5 10 7 4 8 5 9 6 10 7 11 9 12 8 13
REMARK SMILES IDX 3 14 2 15 1 16 16 17 17 18 18 19 19 21 20 22 21 23 67 24
REMARK SMILES IDX 22 25 66 26 23 27 24 28 25 29 60 30 26 31 65 32 59 33 61 34
REMARK SMILES IDX 27 35 64 36 58 37 57 38 28 40 50 41 35 42 49 43 36 44 39 45
REMARK SMILES IDX 48 46 62 47 37 48 38 49 47 51 63 52 40 53 29 54 30 55 34 56
REMARK SMILES IDX 31 57 33 58 32 59 51 60 52 61 56 62 53 63 55 64 54 65 41 66
REMARK SMILES IDX 42 67 46 68 43 69 45 70 44 71
REMARK H PARENT 13 6 17 20 61 39 39 50
REMARK Flexibility Score: inf
ROOT
ATOM      1  C   UNL A   1      38.200  19.876  24.756  1.00  0.00     0.042 C 
ENDROOT
BRANCH   1   2
ATOM      2  C   UNL A   1      37.433  21.195  24.645  1.00  0.00     0.118 C 
BRANCH   2   3
ATOM      3  N   UNL A   1      36.452  21.295  25.703  1.00  0.00    -0.352 N 
ATOM      4  C   UNL A   1      35.091  21.291  25.795  1.00  0.00     0.255 C 
ATOM      5  O   UNL A   1      34.682  21.520  26.942  1.00  0.00    -0.269 OA
ATOM      6  H   UNL A   1      36.876  21.390  26.587  1.00  0.00     0.163 HD
BRANCH   4   7
ATOM      7  C   UNL A   1      34.066  21.007  24.733  1.00  0.00     0.084 A 
ATOM      8  C   UNL A   1      33.446  19.808  24.351  1.00  0.00     0.167 A 
ATOM      9  C   UNL A   1      32.431  19.840  23.372  1.00  0.00     0.165 A 
ATOM     10  F   UNL A   1      31.726  18.734  23.092  1.00  0.00    -0.203 F 
ATOM     11  C   UNL A   1      32.093  20.996  22.680  1.00  0.00     0.043 A 
ATOM     12  C   UNL A   1      33.698  22.175  24.006  1.00  0.00     0.018 A 
ATOM     13  C   UNL A   1      32.744  22.173  22.986  1.00  0.00     0.004 A 
BRANCH   8  14
ATOM     14  O   UNL A   1      33.716  18.601  24.933  1.00  0.00    -0.490 OA
BRANCH  14  15
ATOM     15  C   UNL A   1      34.704  17.827  24.237  1.00  0.00     0.226 C 
ATOM     16  C   UNL A   1      34.156  16.524  23.683  1.00  0.00     0.049 C 
ENDBRANCH  14  15
ENDBRANCH   8  14
ENDBRANCH   4   7
ENDBRANCH   2   3
ENDBRANCH   1   2
BRANCH   1  17
ATOM     17  C   UNL A   1      38.932  19.703  26.086  1.00  0.00     0.118 C 
BRANCH  17  18
ATOM     18  N   UNL A   1      40.244  19.103  25.897  1.00  0.00    -0.352 N 
ATOM     19  C   UNL A   1      41.498  19.659  25.911  1.00  0.00     0.251 C 
ATOM     20  H   UNL A   1      40.229  18.132  25.731  1.00  0.00     0.163 HD
ATOM     21  O   UNL A   1      42.430  19.025  25.425  1.00  0.00    -0.269 OA
BRANCH  19  22
ATOM     22  C   UNL A   1      41.759  20.992  26.507  1.00  0.00     0.039 A 
ATOM     23  C   UNL A   1      42.069  22.052  25.648  1.00  0.00     0.014 A 
ATOM     24  C   UNL A   1      41.820  21.188  27.889  1.00  0.00     0.014 A 
ATOM     25  C   UNL A   1      42.417  23.302  26.169  1.00  0.00     0.010 A 
ATOM     26  C   UNL A   1      42.096  22.455  28.409  1.00  0.00     0.010 A 
ATOM     27  C   UNL A   1      42.421  23.519  27.555  1.00  0.00    -0.014 A 
BRANCH  27  28
ATOM     28  C   UNL A   1      42.806  24.840  28.117  1.00  0.00     0.031 A 
ATOM     29  C   UNL A   1      41.760  25.899  28.358  1.00  0.00     0.074 A 
ATOM     30  C   UNL A   1      44.097  25.096  28.400  1.00  0.00     0.049 A 
ATOM     31  N   UNL A   1      41.907  27.113  28.829  1.00  0.00    -0.248 NA
ATOM     32  C   UNL A   1      40.372  25.558  28.006  1.00  0.00     0.031 C 
ATOM     33  C   UNL A   1      45.212  24.172  28.184  1.00  0.00     0.029 A 
ATOM     34  N   UNL A   1      44.691  26.212  28.936  1.00  0.00    -0.354 N 
ATOM     35  C   UNL A   1      40.637  27.680  28.818  1.00  0.00     0.074 A 
ATOM     36  C   UNL A   1      39.742  26.698  28.246  1.00  0.00     0.031 C 
ATOM     37  C   UNL A   1      46.347  24.743  28.619  1.00  0.00     0.029 A 
ATOM     38  C   UNL A   1      46.047  26.083  29.112  1.00  0.00     0.049 A 
ATOM     39  H   UNL A   1      44.191  27.026  29.174  1.00  0.00     0.167 HD
ATOM     40  C   UNL A   1      40.244  28.896  29.265  1.00  0.00     0.031 A 
ATOM     41  C   UNL A   1      46.948  26.945  29.620  1.00  0.00     0.031 A 
ATOM     42  C   UNL A   1      41.126  29.871  29.850  1.00  0.00     0.049 A 
ATOM     43  C   UNL A   1      46.483  28.286  30.116  1.00  0.00     0.074 A 
ATOM     44  C   UNL A   1      40.820  31.124  30.353  1.00  0.00     0.029 A 
ATOM     45  N   UNL A   1      42.489  29.694  30.021  1.00  0.00    -0.354 N 
ATOM     46  N   UNL A   1      45.272  28.787  30.131  1.00  0.00    -0.248 NA
ATOM     47  C   UNL A   1      47.511  29.171  30.681  1.00  0.00     0.031 C 
ATOM     48  C   UNL A   1      42.004  31.715  30.804  1.00  0.00     0.029 A 
ATOM     49  C   UNL A   1      43.039  30.814  30.619  1.00  0.00     0.049 A 
ATOM     50  H   UNL A   1      42.992  28.889  29.756  1.00  0.00     0.167 HD
ATOM     51  C   UNL A   1      45.388  30.034  30.731  1.00  0.00     0.074 A 
ATOM     52  C   UNL A   1      46.784  30.203  31.083  1.00  0.00     0.031 C 
ATOM     53  C   UNL A   1      44.428  30.960  30.966  1.00  0.00     0.031 A 
BRANCH  40  54
ATOM     54  C   UNL A   1      38.783  29.237  29.149  1.00  0.00    -0.014 A 
ATOM     55  C   UNL A   1      37.913  29.060  30.238  1.00  0.00     0.009 A 
ATOM     56  C   UNL A   1      38.276  29.771  27.955  1.00  0.00     0.009 A 
ATOM     57  C   UNL A   1      36.560  29.381  30.122  1.00  0.00     0.001 A 
ATOM     58  C   UNL A   1      36.927  30.116  27.850  1.00  0.00     0.001 A 
ATOM     59  C   UNL A   1      36.068  29.912  28.931  1.00  0.00     0.000 A 
ENDBRANCH  40  54
BRANCH  41  60
ATOM     60  C   UNL A   1      48.380  26.563  29.716  1.00  0.00    -0.014 A 
ATOM     61  C   UNL A   1      48.856  25.867  30.838  1.00  0.00     0.009 A 
ATOM     62  C   UNL A   1      49.282  26.911  28.700  1.00  0.00     0.009 A 
ATOM     63  C   UNL A   1      50.213  25.560  30.957  1.00  0.00     0.001 A 
ATOM     64  C   UNL A   1      50.634  26.577  28.808  1.00  0.00     0.001 A 
ATOM     65  C   UNL A   1      51.101  25.913  29.942  1.00  0.00     0.000 A 
ENDBRANCH  41  60
BRANCH  53  66
ATOM     66  C   UNL A   1      44.853  32.216  31.670  1.00  0.00    -0.014 A 
ATOM     67  C   UNL A   1      44.838  32.304  33.071  1.00  0.00     0.009 A 
ATOM     68  C   UNL A   1      45.288  33.320  30.922  1.00  0.00     0.009 A 
ATOM     69  C   UNL A   1      45.213  33.489  33.706  1.00  0.00     0.001 A 
ATOM     70  C   UNL A   1      45.687  34.494  31.560  1.00  0.00     0.001 A 
ATOM     71  C   UNL A   1      45.639  34.581  32.951  1.00  0.00     0.000 A 
ENDBRANCH  53  66
ENDBRANCH  27  28
ENDBRANCH  19  22
ENDBRANCH  17  18
ENDBRANCH   1  17
TORSDOF 12
ENDMDL
MODEL 3
REMARK VINA RESULT:     -10.0      4.997      9.774
REMARK SMILES CCOc1c(F)cccc1C(=O)NCCCNC(=O)c1ccc(-c2c3nc(c(-c4ccccc4)c4ccc([nH]4)c(-c4ccccc4)c4nc(c(-c5ccccc5)c5ccc2[nH]5)C=C4)C=C3)cc1
REMARK SMILES IDX 15 1 14 2 13 3 11 4 12 5 10 7 4 8 5 9 6 10 7 11 9 12 8 13
REMARK SMILES IDX 3 14 2 15 1 16 16 17 17 18 18 19 19 21 20 22 21 23 67 24
REMARK SMILES IDX 22 25 66 26 23 27 24 28 25 29 60 30 26 31 65 32 59 33 61 34
REMARK SMILES IDX 27 35 64 36 58 37 57 38 28 40 50 41 35 42 49 43 36 44 39 45
REMARK SMILES IDX 48 46 62 47 37 48 38 49 47 51 63 52 40 53 29 54 30 55 34 56
REMARK SMILES IDX 31 57 33 58 32 59 51 60 52 61 56 62 53 63 55 64 54 65 41 66
REMARK SMILES IDX 42 67 46 68 43 69 45 70 44 71
REMARK H PARENT 13 6 17 20 61 39 39 50
REMARK Flexibility Score: inf
ROOT
ATOM      1  C   UNL A   1      31.490  32.071  26.834  1.00  0.00     0.042 C 
ENDROOT
BRANCH   1   2
ATOM      2  C   UNL A   1      31.721  30.559  26.806  1.00  0.00     0.118 C 
BRANCH   2   3
ATOM      3  N   UNL A   1      32.401  30.179  25.587  1.00  0.00    -0.352 N 
ATOM      4  C   UNL A   1      32.155  29.347  24.534  1.00  0.00     0.255 C 
ATOM      5  O   UNL A   1      33.110  29.262  23.750  1.00  0.00    -0.269 OA
ATOM      6  H   UNL A   1      33.266  30.640  25.492  1.00  0.00     0.163 HD
BRANCH   4   7
ATOM      7  C   UNL A   1      30.903  28.588  24.193  1.00  0.00     0.084 A 
ATOM      8  C   UNL A   1      29.772  28.965  23.455  1.00  0.00     0.167 A 
ATOM      9  C   UNL A   1      28.766  28.009  23.200  1.00  0.00     0.165 A 
ATOM     10  F   UNL A   1      27.747  28.302  22.381  1.00  0.00    -0.203 F 
ATOM     11  C   UNL A   1      28.790  26.733  23.747  1.00  0.00     0.043 A 
ATOM     12  C   UNL A   1      30.899  27.273  24.740  1.00  0.00     0.018 A 
ATOM     13  C   UNL A   1      29.857  26.364  24.540  1.00  0.00     0.004 A 
BRANCH   8  14
ATOM     14  O   UNL A   1      29.616  30.201  22.893  1.00  0.00    -0.490 OA
BRANCH  14  15
ATOM     15  C   UNL A   1      29.008  31.165  23.767  1.00  0.00     0.226 C 
ATOM     16  C   UNL A   1      28.099  32.138  23.036  1.00  0.00     0.049 C 
ENDBRANCH  14  15
ENDBRANCH   8  14
ENDBRANCH   4   7
ENDBRANCH   2   3
ENDBRANCH   1   2
BRANCH   1  17
ATOM     17  C   UNL A   1      32.777  32.885  26.964  1.00  0.00     0.118 C 
BRANCH  17  18
ATOM     18  N   UNL A   1      32.576  34.071  27.782  1.00  0.00    -0.352 N 
ATOM     19  C   UNL A   1      33.195  34.483  28.935  1.00  0.00     0.251 C 
ATOM     20  H   UNL A   1      31.877  34.682  27.453  1.00  0.00     0.163 HD
ATOM     21  O   UNL A   1      32.657  35.352  29.615  1.00  0.00    -0.269 OA
BRANCH  19  22
ATOM     22  C   UNL A   1      34.496  33.921  29.373  1.00  0.00     0.039 A 
ATOM     23  C   UNL A   1      35.639  34.245  28.634  1.00  0.00     0.014 A 
ATOM     24  C   UNL A   1      34.592  32.996  30.416  1.00  0.00     0.014 A 
ATOM     25  C   UNL A   1      36.870  33.663  28.949  1.00  0.00     0.010 A 
ATOM     26  C   UNL A   1      35.835  32.471  30.778  1.00  0.00     0.010 A 
ATOM     27  C   UNL A   1      36.983  32.780  30.033  1.00  0.00    -0.014 A 
BRANCH  27  28
ATOM     28  C   UNL A   1      38.285  32.145  30.365  1.00  0.00     0.031 A 
ATOM     29  C   UNL A   1      39.231  32.807  31.335  1.00  0.00     0.074 A 
ATOM     30  C   UNL A   1      38.626  30.978  29.786  1.00  0.00     0.049 A 
ATOM     31  N   UNL A   1      40.413  32.411  31.737  1.00  0.00    -0.248 NA
ATOM     32  C   UNL A   1      38.802  34.092  31.913  1.00  0.00     0.031 C 
ATOM     33  C   UNL A   1      37.818  30.248  28.807  1.00  0.00     0.029 A 
ATOM     34  N   UNL A   1      39.744  30.196  29.942  1.00  0.00    -0.354 N 
ATOM     35  C   UNL A   1      40.870  33.399  32.601  1.00  0.00     0.074 A 
ATOM     36  C   UNL A   1      39.864  34.438  32.625  1.00  0.00     0.031 C 
ATOM     37  C   UNL A   1      38.448  29.108  28.479  1.00  0.00     0.029 A 
ATOM     38  C   UNL A   1      39.717  29.042  29.198  1.00  0.00     0.049 A 
ATOM     39  H   UNL A   1      40.493  30.439  30.534  1.00  0.00     0.167 HD
ATOM     40  C   UNL A   1      42.012  33.432  33.329  1.00  0.00     0.031 A 
ATOM     41  C   UNL A   1      40.610  28.039  29.107  1.00  0.00     0.031 A 
ATOM     42  C   UNL A   1      43.010  32.396  33.323  1.00  0.00     0.049 A 
ATOM     43  C   UNL A   1      41.866  28.098  29.932  1.00  0.00     0.074 A 
ATOM     44  C   UNL A   1      44.191  32.326  34.042  1.00  0.00     0.029 A 
ATOM     45  N   UNL A   1      42.935  31.239  32.564  1.00  0.00    -0.354 N 
ATOM     46  N   UNL A   1      42.261  29.023  30.772  1.00  0.00    -0.248 NA
ATOM     47  C   UNL A   1      42.789  26.961  29.808  1.00  0.00     0.031 C 
ATOM     48  C   UNL A   1      44.843  31.138  33.697  1.00  0.00     0.029 A 
ATOM     49  C   UNL A   1      44.049  30.450  32.796  1.00  0.00     0.049 A 
ATOM     50  H   UNL A   1      42.199  31.012  31.951  1.00  0.00     0.167 HD
ATOM     51  C   UNL A   1      43.464  28.568  31.296  1.00  0.00     0.074 A 
ATOM     52  C   UNL A   1      43.722  27.275  30.693  1.00  0.00     0.031 C 
ATOM     53  C   UNL A   1      44.285  29.166  32.191  1.00  0.00     0.031 A 
BRANCH  40  54
ATOM     54  C   UNL A   1      42.236  34.631  34.210  1.00  0.00    -0.014 A 
ATOM     55  C   UNL A   1      41.795  34.637  35.544  1.00  0.00     0.009 A 
ATOM     56  C   UNL A   1      42.923  35.751  33.717  1.00  0.00     0.009 A 
ATOM     57  C   UNL A   1      42.010  35.753  36.355  1.00  0.00     0.001 A 
ATOM     58  C   UNL A   1      43.159  36.855  34.539  1.00  0.00     0.001 A 
ATOM     59  C   UNL A   1      42.695  36.859  35.854  1.00  0.00     0.000 A 
ENDBRANCH  40  54
BRANCH  41  60
ATOM     60  C   UNL A   1      40.344  26.875  28.224  1.00  0.00    -0.014 A 
ATOM     61  C   UNL A   1      40.831  26.855  26.908  1.00  0.00     0.009 A 
ATOM     62  C   UNL A   1      39.582  25.789  28.683  1.00  0.00     0.009 A 
ATOM     63  C   UNL A   1      40.531  25.789  26.058  1.00  0.00     0.001 A 
ATOM     64  C   UNL A   1      39.308  24.710  27.839  1.00  0.00     0.001 A 
ATOM     65  C   UNL A   1      39.772  24.716  26.524  1.00  0.00     0.000 A 
ENDBRANCH  41  60
BRANCH  53  66
ATOM     66  C   UNL A   1      45.515  28.408  32.598  1.00  0.00    -0.014 A 
ATOM     67  C   UNL A   1      45.469  27.443  33.617  1.00  0.00     0.009 A 
ATOM     68  C   UNL A   1      46.731  28.652  31.943  1.00  0.00     0.009 A 
ATOM     69  C   UNL A   1      46.629  26.767  33.998  1.00  0.00     0.001 A 
ATOM     70  C   UNL A   1      47.882  27.955  32.308  1.00  0.00     0.001 A 
ATOM     71  C   UNL A   1      47.833  27.021  33.343  1.00  0.00     0.000 A 
ENDBRANCH  53  66
ENDBRANCH  27  28
ENDBRANCH  19  22
ENDBRANCH  17  18
ENDBRANCH   1  17
TORSDOF 12
ENDMDL
