MODEL 1
REMARK VINA RESULT:     -11.3      0.000      0.000
REMARK SMILES CCCc1nn2c(=O)cc(CSc3ccccc3C(=O)NCCCNC(=O)c3ccc(-c4c5nc(c(-c6ccccc6)c6ccc([nH]6)c(-c6ccccc6)c6nc(c(-c7ccccc7)c7ccc4[nH]7)C=C6)C=C5)cc3)nc2s1
REMARK SMILES IDX 19 1 20 2 21 3 18 5 13 6 14 7 15 8 17 9 16 10 12 11 11 12
REMARK SMILES IDX 10 13 4 14 5 15 78 16 6 17 77 18 7 19 76 20 8 21 9 22 3 23
REMARK SMILES IDX 2 24 1 25 22 26 23 27 24 28 25 29 26 30 27 32 28 33 29 34
REMARK SMILES IDX 75 35 30 36 74 37 31 38 32 39 33 40 68 41 34 42 73 43 67 44
REMARK SMILES IDX 69 45 35 46 72 47 66 48 65 49 36 51 58 52 43 53 57 54 44 55
REMARK SMILES IDX 47 56 56 57 70 58 45 59 46 60 55 62 71 63 48 64 37 65 38 66
REMARK SMILES IDX 42 67 39 68 41 69 40 70 59 71 60 72 64 73 61 74 63 75 62 76
REMARK SMILES IDX 49 77 50 78 54 79 51 80 53 81 52 82
REMARK H PARENT 21 4 25 31 69 50 47 61
REMARK Flexibility Score: inf
ROOT
ATOM      1  C   UNL A   1      31.731  24.291  26.721  1.00  0.00     0.252 C 
ATOM      2  O   UNL A   1      31.027  23.480  27.337  1.00  0.00    -0.269 OA
ATOM      3  N   UNL A   1      31.363  25.601  26.873  1.00  0.00    -0.352 N 
ATOM      4  H   UNL A   1      30.721  25.731  27.609  1.00  0.00     0.163 HD
ENDROOT
BRANCH   1   5
ATOM      5  C   UNL A   1      32.919  23.750  25.992  1.00  0.00     0.053 A 
ATOM      6  C   UNL A   1      33.053  23.312  24.662  1.00  0.00     0.020 A 
ATOM      7  C   UNL A   1      34.299  22.796  24.230  1.00  0.00     0.016 A 
ATOM      8  C   UNL A   1      35.379  22.643  25.099  1.00  0.00     0.001 A 
ATOM      9  C   UNL A   1      34.034  23.574  26.854  1.00  0.00     0.015 A 
ATOM     10  C   UNL A   1      35.241  23.021  26.422  1.00  0.00     0.001 A 
BRANCH   6  11
ATOM     11  S   UNL A   1      31.823  23.273  23.372  1.00  0.00    -0.119 SA
BRANCH  11  12
ATOM     12  C   UNL A   1      32.702  24.108  22.000  1.00  0.00     0.131 C 
BRANCH  12  13
ATOM     13  C   UNL A   1      32.552  25.596  22.118  1.00  0.00     0.060 A 
ATOM     14  C   UNL A   1      30.533  29.392  23.512  1.00  0.00     0.117 A 
ATOM     15  N   UNL A   1      31.814  29.375  23.310  1.00  0.00    -0.156 NA
ATOM     16  S   UNL A   1      29.616  28.043  22.886  1.00  0.00    -0.079 S 
ATOM     17  N   UNL A   1      32.152  28.168  22.750  1.00  0.00    -0.167 N 
ATOM     18  C   UNL A   1      31.130  27.282  22.559  1.00  0.00     0.215 A 
ATOM     19  C   UNL A   1      33.455  27.833  22.443  1.00  0.00     0.275 A 
ATOM     20  N   UNL A   1      31.254  26.049  22.216  1.00  0.00    -0.223 NA
ATOM     21  O   UNL A   1      34.424  28.578  22.423  1.00  0.00    -0.267 OA
ATOM     22  C   UNL A   1      33.631  26.393  22.148  1.00  0.00     0.098 A 
BRANCH  14  23
ATOM     23  C   UNL A   1      29.848  30.525  24.223  1.00  0.00     0.069 C 
BRANCH  23  24
ATOM     24  C   UNL A   1      28.951  31.416  23.364  1.00  0.00     0.004 C 
ATOM     25  C   UNL A   1      27.462  31.239  23.635  1.00  0.00     0.004 C 
ENDBRANCH  23  24
ENDBRANCH  14  23
ENDBRANCH  12  13
ENDBRANCH  11  12
ENDBRANCH   6  11
ENDBRANCH   1   5
BRANCH   3  26
ATOM     26  C   UNL A   1      31.700  26.843  26.200  1.00  0.00     0.118 C 
BRANCH  26  27
ATOM     27  C   UNL A   1      32.210  27.846  27.238  1.00  0.00     0.042 C 
BRANCH  27  28
ATOM     28  C   UNL A   1      33.517  28.539  26.895  1.00  0.00     0.118 C 
BRANCH  28  29
ATOM     29  N   UNL A   1      33.540  29.904  27.385  1.00  0.00    -0.352 N 
ATOM     30  C   UNL A   1      34.480  30.576  28.129  1.00  0.00     0.251 C 
ATOM     31  H   UNL A   1      32.751  30.440  27.142  1.00  0.00     0.163 HD
ATOM     32  O   UNL A   1      34.153  31.639  28.657  1.00  0.00    -0.269 OA
BRANCH  30  33
ATOM     33  C   UNL A   1      35.865  30.069  28.321  1.00  0.00     0.039 A 
ATOM     34  C   UNL A   1      36.207  29.532  29.570  1.00  0.00     0.014 A 
ATOM     35  C   UNL A   1      36.859  30.196  27.349  1.00  0.00     0.014 A 
ATOM     36  C   UNL A   1      37.517  29.108  29.826  1.00  0.00     0.010 A 
ATOM     37  C   UNL A   1      38.137  29.676  27.568  1.00  0.00     0.010 A 
ATOM     38  C   UNL A   1      38.492  29.156  28.820  1.00  0.00    -0.014 A 
BRANCH  38  39
ATOM     39  C   UNL A   1      39.891  28.712  29.075  1.00  0.00     0.031 A 
ATOM     40  C   UNL A   1      40.876  29.641  29.740  1.00  0.00     0.074 A 
ATOM     41  C   UNL A   1      40.292  27.487  28.681  1.00  0.00     0.049 A 
ATOM     42  N   UNL A   1      42.145  29.449  30.010  1.00  0.00    -0.248 NA
ATOM     43  C   UNL A   1      40.379  30.971  30.133  1.00  0.00     0.031 C 
ATOM     44  C   UNL A   1      39.453  26.498  28.002  1.00  0.00     0.029 A 
ATOM     45  N   UNL A   1      41.511  26.865  28.796  1.00  0.00    -0.354 N 
ATOM     46  C   UNL A   1      42.596  30.635  30.580  1.00  0.00     0.074 A 
ATOM     47  C   UNL A   1      41.484  31.558  30.567  1.00  0.00     0.031 C 
ATOM     48  C   UNL A   1      40.171  25.382  27.793  1.00  0.00     0.029 A 
ATOM     49  C   UNL A   1      41.532  25.592  28.278  1.00  0.00     0.049 A 
ATOM     50  H   UNL A   1      42.297  27.290  29.211  1.00  0.00     0.167 HD
ATOM     51  C   UNL A   1      43.817  30.925  31.090  1.00  0.00     0.031 A 
ATOM     52  C   UNL A   1      42.532  24.695  28.193  1.00  0.00     0.031 A 
ATOM     53  C   UNL A   1      44.922  30.004  31.117  1.00  0.00     0.049 A 
ATOM     54  C   UNL A   1      43.887  25.050  28.741  1.00  0.00     0.074 A 
ATOM     55  C   UNL A   1      46.183  30.187  31.658  1.00  0.00     0.029 A 
ATOM     56  N   UNL A   1      44.900  28.729  30.574  1.00  0.00    -0.354 N 
ATOM     57  N   UNL A   1      44.276  26.152  29.335  1.00  0.00    -0.248 NA
ATOM     58  C   UNL A   1      44.938  24.029  28.619  1.00  0.00     0.031 C 
ATOM     59  C   UNL A   1      46.942  29.044  31.389  1.00  0.00     0.029 A 
ATOM     60  C   UNL A   1      46.134  28.124  30.741  1.00  0.00     0.049 A 
ATOM     61  H   UNL A   1      44.122  28.316  30.134  1.00  0.00     0.167 HD
ATOM     62  C   UNL A   1      45.605  25.947  29.683  1.00  0.00     0.074 A 
ATOM     63  C   UNL A   1      45.949  24.608  29.250  1.00  0.00     0.031 C 
ATOM     64  C   UNL A   1      46.464  26.791  30.305  1.00  0.00     0.031 A 
BRANCH  51  65
ATOM     65  C   UNL A   1      44.026  32.306  31.655  1.00  0.00    -0.014 A 
ATOM     66  C   UNL A   1      43.783  32.587  33.009  1.00  0.00     0.009 A 
ATOM     67  C   UNL A   1      44.508  33.333  30.828  1.00  0.00     0.009 A 
ATOM     68  C   UNL A   1      43.978  33.875  33.513  1.00  0.00     0.001 A 
ATOM     69  C   UNL A   1      44.734  34.612  31.341  1.00  0.00     0.001 A 
ATOM     70  C   UNL A   1      44.458  34.885  32.680  1.00  0.00     0.000 A 
ENDBRANCH  51  65
BRANCH  52  71
ATOM     71  C   UNL A   1      42.293  23.366  27.568  1.00  0.00    -0.014 A 
ATOM     72  C   UNL A   1      42.610  23.143  26.218  1.00  0.00     0.009 A 
ATOM     73  C   UNL A   1      41.737  22.315  28.314  1.00  0.00     0.009 A 
ATOM     74  C   UNL A   1      42.349  21.907  25.623  1.00  0.00     0.001 A 
ATOM     75  C   UNL A   1      41.506  21.070  27.725  1.00  0.00     0.001 A 
ATOM     76  C   UNL A   1      41.802  20.870  26.378  1.00  0.00     0.000 A 
ENDBRANCH  52  71
BRANCH  64  77
ATOM     77  C   UNL A   1      47.848  26.279  30.592  1.00  0.00    -0.014 A 
ATOM     78  C   UNL A   1      48.853  26.294  29.614  1.00  0.00     0.009 A 
ATOM     79  C   UNL A   1      48.160  25.811  31.879  1.00  0.00     0.009 A 
ATOM     80  C   UNL A   1      50.132  25.816  29.908  1.00  0.00     0.001 A 
ATOM     81  C   UNL A   1      49.448  25.367  32.180  1.00  0.00     0.001 A 
ATOM     82  C   UNL A   1      50.429  25.359  31.191  1.00  0.00     0.000 A 
ENDBRANCH  64  77
ENDBRANCH  38  39
ENDBRANCH  30  33
ENDBRANCH  28  29
ENDBRANCH  27  28
ENDBRANCH  26  27
ENDBRANCH   3  26
TORSDOF 15
ENDMDL
MODEL 2
REMARK VINA RESULT:     -11.3      1.402      4.399
REMARK SMILES CCCc1nn2c(=O)cc(CSc3ccccc3C(=O)NCCCNC(=O)c3ccc(-c4c5nc(c(-c6ccccc6)c6ccc([nH]6)c(-c6ccccc6)c6nc(c(-c7ccccc7)c7ccc4[nH]7)C=C6)C=C5)cc3)nc2s1
REMARK SMILES IDX 19 1 20 2 21 3 18 5 13 6 14 7 15 8 17 9 16 10 12 11 11 12
REMARK SMILES IDX 10 13 4 14 5 15 78 16 6 17 77 18 7 19 76 20 8 21 9 22 3 23
REMARK SMILES IDX 2 24 1 25 22 26 23 27 24 28 25 29 26 30 27 32 28 33 29 34
REMARK SMILES IDX 75 35 30 36 74 37 31 38 32 39 33 40 68 41 34 42 73 43 67 44
REMARK SMILES IDX 69 45 35 46 72 47 66 48 65 49 36 51 58 52 43 53 57 54 44 55
REMARK SMILES IDX 47 56 56 57 70 58 45 59 46 60 55 62 71 63 48 64 37 65 38 66
REMARK SMILES IDX 42 67 39 68 41 69 40 70 59 71 60 72 64 73 61 74 63 75 62 76
REMARK SMILES IDX 49 77 50 78 54 79 51 80 53 81 52 82
REMARK H PARENT 21 4 25 31 69 50 47 61
REMARK Flexibility Score: inf
ROOT
ATOM      1  C   UNL A   1      31.385  28.955  23.389  1.00  0.00     0.252 C 
ATOM      2  O   UNL A   1      32.014  28.641  22.371  1.00  0.00    -0.269 OA
ATOM      3  N   UNL A   1      32.119  29.618  24.336  1.00  0.00    -0.352 N 
ATOM      4  H   UNL A   1      32.987  29.931  23.991  1.00  0.00     0.163 HD
ENDROOT
BRANCH   1   5
ATOM      5  C   UNL A   1      29.918  28.663  23.404  1.00  0.00     0.053 A 
ATOM      6  C   UNL A   1      29.232  27.440  23.514  1.00  0.00     0.020 A 
ATOM      7  C   UNL A   1      27.817  27.438  23.456  1.00  0.00     0.016 A 
ATOM      8  C   UNL A   1      27.083  28.601  23.223  1.00  0.00     0.001 A 
ATOM      9  C   UNL A   1      29.143  29.828  23.161  1.00  0.00     0.015 A 
ATOM     10  C   UNL A   1      27.751  29.801  23.060  1.00  0.00     0.001 A 
BRANCH   6  11
ATOM     11  S   UNL A   1      29.902  25.798  23.693  1.00  0.00    -0.119 SA
BRANCH  11  12
ATOM     12  C   UNL A   1      30.273  25.745  25.485  1.00  0.00     0.131 C 
BRANCH  12  13
ATOM     13  C   UNL A   1      31.452  24.854  25.744  1.00  0.00     0.060 A 
ATOM     14  C   UNL A   1      35.831  23.742  25.597  1.00  0.00     0.117 A 
ATOM     15  N   UNL A   1      35.080  23.298  26.558  1.00  0.00    -0.156 NA
ATOM     16  S   UNL A   1      35.019  24.450  24.222  1.00  0.00    -0.079 S 
ATOM     17  N   UNL A   1      33.779  23.646  26.291  1.00  0.00    -0.167 N 
ATOM     18  C   UNL A   1      33.567  24.367  25.150  1.00  0.00     0.215 A 
ATOM     19  C   UNL A   1      32.741  23.339  27.147  1.00  0.00     0.275 A 
ATOM     20  N   UNL A   1      32.464  24.935  24.811  1.00  0.00    -0.223 NA
ATOM     21  O   UNL A   1      32.773  22.581  28.106  1.00  0.00    -0.267 OA
ATOM     22  C   UNL A   1      31.492  24.068  26.831  1.00  0.00     0.098 A 
BRANCH  14  23
ATOM     23  C   UNL A   1      37.329  23.634  25.635  1.00  0.00     0.069 C 
BRANCH  23  24
ATOM     24  C   UNL A   1      37.898  22.257  25.976  1.00  0.00     0.004 C 
ATOM     25  C   UNL A   1      37.563  21.179  24.952  1.00  0.00     0.004 C 
ENDBRANCH  23  24
ENDBRANCH  14  23
ENDBRANCH  12  13
ENDBRANCH  11  12
ENDBRANCH   6  11
ENDBRANCH   1   5
BRANCH   3  26
ATOM     26  C   UNL A   1      31.913  29.967  25.730  1.00  0.00     0.118 C 
BRANCH  26  27
ATOM     27  C   UNL A   1      32.281  28.764  26.602  1.00  0.00     0.042 C 
BRANCH  27  28
ATOM     28  C   UNL A   1      33.527  28.926  27.455  1.00  0.00     0.118 C 
BRANCH  28  29
ATOM     29  N   UNL A   1      33.639  30.272  27.984  1.00  0.00    -0.352 N 
ATOM     30  C   UNL A   1      34.664  30.890  28.659  1.00  0.00     0.251 C 
ATOM     31  H   UNL A   1      32.849  30.839  27.833  1.00  0.00     0.163 HD
ATOM     32  O   UNL A   1      34.422  31.942  29.249  1.00  0.00    -0.269 OA
BRANCH  30  33
ATOM     33  C   UNL A   1      36.044  30.336  28.704  1.00  0.00     0.039 A 
ATOM     34  C   UNL A   1      36.513  29.822  29.921  1.00  0.00     0.014 A 
ATOM     35  C   UNL A   1      36.921  30.398  27.619  1.00  0.00     0.014 A 
ATOM     36  C   UNL A   1      37.828  29.357  30.037  1.00  0.00     0.010 A 
ATOM     37  C   UNL A   1      38.198  29.838  27.704  1.00  0.00     0.010 A 
ATOM     38  C   UNL A   1      38.679  29.339  28.922  1.00  0.00    -0.014 A 
BRANCH  38  39
ATOM     39  C   UNL A   1      40.082  28.851  29.027  1.00  0.00     0.031 A 
ATOM     40  C   UNL A   1      41.175  29.769  29.515  1.00  0.00     0.074 A 
ATOM     41  C   UNL A   1      40.388  27.593  28.652  1.00  0.00     0.049 A 
ATOM     42  N   UNL A   1      42.460  29.537  29.637  1.00  0.00    -0.248 NA
ATOM     43  C   UNL A   1      40.779  31.135  29.895  1.00  0.00     0.031 C 
ATOM     44  C   UNL A   1      39.436  26.607  28.135  1.00  0.00     0.029 A 
ATOM     45  N   UNL A   1      41.589  26.926  28.650  1.00  0.00    -0.354 N 
ATOM     46  C   UNL A   1      43.021  30.729  30.084  1.00  0.00     0.074 A 
ATOM     47  C   UNL A   1      41.949  31.697  30.159  1.00  0.00     0.031 C 
ATOM     48  C   UNL A   1      40.082  25.454  27.899  1.00  0.00     0.029 A 
ATOM     49  C   UNL A   1      41.499  25.630  28.201  1.00  0.00     0.049 A 
ATOM     50  H   UNL A   1      42.435  27.337  28.942  1.00  0.00     0.167 HD
ATOM     51  C   UNL A   1      44.305  30.993  30.424  1.00  0.00     0.031 A 
ATOM     52  C   UNL A   1      42.449  24.689  28.042  1.00  0.00     0.031 A 
ATOM     53  C   UNL A   1      45.372  30.029  30.363  1.00  0.00     0.049 A 
ATOM     54  C   UNL A   1      43.873  25.013  28.400  1.00  0.00     0.074 A 
ATOM     55  C   UNL A   1      46.696  30.185  30.735  1.00  0.00     0.029 A 
ATOM     56  N   UNL A   1      45.237  28.731  29.896  1.00  0.00    -0.354 N 
ATOM     57  N   UNL A   1      44.372  26.126  28.883  1.00  0.00    -0.248 NA
ATOM     58  C   UNL A   1      44.864  23.944  28.204  1.00  0.00     0.031 C 
ATOM     59  C   UNL A   1      47.375  28.999  30.436  1.00  0.00     0.029 A 
ATOM     60  C   UNL A   1      46.460  28.084  29.942  1.00  0.00     0.049 A 
ATOM     61  H   UNL A   1      44.396  28.330  29.578  1.00  0.00     0.167 HD
ATOM     62  C   UNL A   1      45.726  25.882  29.074  1.00  0.00     0.074 A 
ATOM     63  C   UNL A   1      45.966  24.511  28.674  1.00  0.00     0.031 C 
ATOM     64  C   UNL A   1      46.685  26.719  29.540  1.00  0.00     0.031 A 
BRANCH  51  65
ATOM     65  C   UNL A   1      44.632  32.390  30.884  1.00  0.00    -0.014 A 
ATOM     66  C   UNL A   1      44.972  33.400  29.970  1.00  0.00     0.009 A 
ATOM     67  C   UNL A   1      44.562  32.709  32.249  1.00  0.00     0.009 A 
ATOM     68  C   UNL A   1      45.277  34.688  30.417  1.00  0.00     0.001 A 
ATOM     69  C   UNL A   1      44.834  34.006  32.691  1.00  0.00     0.001 A 
ATOM     70  C   UNL A   1      45.203  34.991  31.776  1.00  0.00     0.000 A 
ENDBRANCH  51  65
BRANCH  52  71
ATOM     71  C   UNL A   1      42.087  23.343  27.523  1.00  0.00    -0.014 A 
ATOM     72  C   UNL A   1      42.534  22.918  26.261  1.00  0.00     0.009 A 
ATOM     73  C   UNL A   1      41.283  22.476  28.281  1.00  0.00     0.009 A 
ATOM     74  C   UNL A   1      42.160  21.670  25.759  1.00  0.00     0.001 A 
ATOM     75  C   UNL A   1      40.938  21.215  27.791  1.00  0.00     0.001 A 
ATOM     76  C   UNL A   1      41.368  20.818  26.526  1.00  0.00     0.000 A 
ENDBRANCH  52  71
BRANCH  64  77
ATOM     77  C   UNL A   1      48.076  26.164  29.682  1.00  0.00    -0.014 A 
ATOM     78  C   UNL A   1      48.968  26.134  28.600  1.00  0.00     0.009 A 
ATOM     79  C   UNL A   1      48.512  25.700  30.934  1.00  0.00     0.009 A 
ATOM     80  C   UNL A   1      50.255  25.617  28.760  1.00  0.00     0.001 A 
ATOM     81  C   UNL A   1      49.810  25.217  31.099  1.00  0.00     0.001 A 
ATOM     82  C   UNL A   1      50.676  25.165  30.009  1.00  0.00     0.000 A 
ENDBRANCH  64  77
ENDBRANCH  38  39
ENDBRANCH  30  33
ENDBRANCH  28  29
ENDBRANCH  27  28
ENDBRANCH  26  27
ENDBRANCH   3  26
TORSDOF 15
ENDMDL
MODEL 3
REMARK VINA RESULT:     -11.2      2.659      7.005
REMARK SMILES CCCc1nn2c(=O)cc(CSc3ccccc3C(=O)NCCCNC(=O)c3ccc(-c4c5nc(c(-c6ccccc6)c6ccc([nH]6)c(-c6ccccc6)c6nc(c(-c7ccccc7)c7ccc4[nH]7)C=C6)C=C5)cc3)nc2s1
REMARK SMILES IDX 19 1 20 2 21 3 18 5 13 6 14 7 15 8 17 9 16 10 12 11 11 12
REMARK SMILES IDX 10 13 4 14 5 15 78 16 6 17 77 18 7 19 76 20 8 21 9 22 3 23
REMARK SMILES IDX 2 24 1 25 22 26 23 27 24 28 25 29 26 30 27 32 28 33 29 34
REMARK SMILES IDX 75 35 30 36 74 37 31 38 32 39 33 40 68 41 34 42 73 43 67 44
REMARK SMILES IDX 69 45 35 46 72 47 66 48 65 49 36 51 58 52 43 53 57 54 44 55
REMARK SMILES IDX 47 56 56 57 70 58 45 59 46 60 55 62 71 63 48 64 37 65 38 66
REMARK SMILES IDX 42 67 39 68 41 69 40 70 59 71 60 72 64 73 61 74 63 75 62 76
REMARK SMILES IDX 49 77 50 78 54 79 51 80 53 81 52 82
REMARK H PARENT 21 4 25 31 69 50 47 61
REMARK Flexibility Score: inf
ROOT
ATOM      1  C   UNL A   1      34.861  20.751  25.564  1.00  0.00     0.252 C 
ATOM      2  O   UNL A   1      34.256  21.209  26.541  1.00  0.00    -0.269 OA
ATOM      3  N   UNL A   1      36.190  21.074  25.509  1.00  0.00    -0.352 N 
ATOM      4  H   UNL A   1      36.523  21.452  26.357  1.00  0.00     0.163 HD
ENDROOT
BRANCH   1   5
ATOM      5  C   UNL A   1      34.099  19.845  24.649  1.00  0.00     0.053 A 
ATOM      6  C   UNL A   1      32.899  20.056  23.946  1.00  0.00     0.020 A 
ATOM      7  C   UNL A   1      32.361  19.000  23.172  1.00  0.00     0.016 A 
ATOM      8  C   UNL A   1      32.946  17.734  23.138  1.00  0.00     0.001 A 
ATOM      9  C   UNL A   1      34.666  18.544  24.600  1.00  0.00     0.015 A 
ATOM     10  C   UNL A   1      34.096  17.500  23.868  1.00  0.00     0.001 A 
BRANCH   6  11
ATOM     11  S   UNL A   1      31.876  21.515  23.901  1.00  0.00    -0.119 SA
BRANCH  11  12
ATOM     12  C   UNL A   1      32.589  22.421  22.479  1.00  0.00     0.131 C 
BRANCH  12  13
ATOM     13  C   UNL A   1      32.718  23.880  22.806  1.00  0.00     0.060 A 
ATOM     14  C   UNL A   1      33.526  27.390  25.538  1.00  0.00     0.117 A 
ATOM     15  N   UNL A   1      33.766  27.487  24.266  1.00  0.00    -0.156 NA
ATOM     16  S   UNL A   1      32.566  26.025  26.058  1.00  0.00    -0.079 S 
ATOM     17  N   UNL A   1      33.296  26.356  23.645  1.00  0.00    -0.167 N 
ATOM     18  C   UNL A   1      32.733  25.411  24.454  1.00  0.00     0.215 A 
ATOM     19  C   UNL A   1      33.430  26.149  22.287  1.00  0.00     0.275 A 
ATOM     20  N   UNL A   1      32.394  24.222  24.102  1.00  0.00    -0.223 NA
ATOM     21  O   UNL A   1      33.772  26.966  21.444  1.00  0.00    -0.267 OA
ATOM     22  C   UNL A   1      33.146  24.754  21.882  1.00  0.00     0.098 A 
BRANCH  14  23
ATOM     23  C   UNL A   1      34.016  28.408  26.527  1.00  0.00     0.069 C 
BRANCH  23  24
ATOM     24  C   UNL A   1      32.943  29.252  27.215  1.00  0.00     0.004 C 
ATOM     25  C   UNL A   1      32.036  30.005  26.250  1.00  0.00     0.004 C 
ENDBRANCH  23  24
ENDBRANCH  14  23
ENDBRANCH  12  13
ENDBRANCH  11  12
ENDBRANCH   6  11
ENDBRANCH   1   5
BRANCH   3  26
ATOM     26  C   UNL A   1      37.224  20.988  24.493  1.00  0.00     0.118 C 
BRANCH  26  27
ATOM     27  C   UNL A   1      38.171  19.839  24.845  1.00  0.00     0.042 C 
BRANCH  27  28
ATOM     28  C   UNL A   1      39.096  20.087  26.024  1.00  0.00     0.118 C 
BRANCH  28  29
ATOM     29  N   UNL A   1      40.303  19.288  25.931  1.00  0.00    -0.352 N 
ATOM     30  C   UNL A   1      41.627  19.652  25.975  1.00  0.00     0.251 C 
ATOM     31  H   UNL A   1      40.148  18.322  25.820  1.00  0.00     0.163 HD
ATOM     32  O   UNL A   1      42.468  18.837  25.597  1.00  0.00    -0.269 OA
BRANCH  30  33
ATOM     33  C   UNL A   1      42.077  20.986  26.455  1.00  0.00     0.039 A 
ATOM     34  C   UNL A   1      42.128  21.210  27.837  1.00  0.00     0.014 A 
ATOM     35  C   UNL A   1      42.354  22.048  25.591  1.00  0.00     0.014 A 
ATOM     36  C   UNL A   1      42.474  22.470  28.341  1.00  0.00     0.010 A 
ATOM     37  C   UNL A   1      42.801  23.273  26.092  1.00  0.00     0.010 A 
ATOM     38  C   UNL A   1      42.836  23.511  27.473  1.00  0.00    -0.014 A 
BRANCH  38  39
ATOM     39  C   UNL A   1      43.203  24.858  27.990  1.00  0.00     0.031 A 
ATOM     40  C   UNL A   1      42.135  25.886  28.268  1.00  0.00     0.074 A 
ATOM     41  C   UNL A   1      44.499  25.177  28.180  1.00  0.00     0.049 A 
ATOM     42  N   UNL A   1      42.263  27.123  28.683  1.00  0.00    -0.248 NA
ATOM     43  C   UNL A   1      40.740  25.481  28.027  1.00  0.00     0.031 C 
ATOM     44  C   UNL A   1      45.637  24.290  27.925  1.00  0.00     0.029 A 
ATOM     45  N   UNL A   1      45.079  26.337  28.633  1.00  0.00    -0.354 N 
ATOM     46  C   UNL A   1      40.973  27.644  28.729  1.00  0.00     0.074 A 
ATOM     47  C   UNL A   1      40.085  26.610  28.249  1.00  0.00     0.031 C 
ATOM     48  C   UNL A   1      46.772  24.925  28.258  1.00  0.00     0.029 A 
ATOM     49  C   UNL A   1      46.450  26.277  28.704  1.00  0.00     0.049 A 
ATOM     50  H   UNL A   1      44.561  27.136  28.884  1.00  0.00     0.167 HD
ATOM     51  C   UNL A   1      40.560  28.862  29.154  1.00  0.00     0.031 A 
ATOM     52  C   UNL A   1      47.351  27.206  29.076  1.00  0.00     0.031 A 
ATOM     53  C   UNL A   1      41.441  29.889  29.645  1.00  0.00     0.049 A 
ATOM     54  C   UNL A   1      46.870  28.561  29.518  1.00  0.00     0.074 A 
ATOM     55  C   UNL A   1      41.114  31.137  30.147  1.00  0.00     0.029 A 
ATOM     56  N   UNL A   1      42.822  29.787  29.691  1.00  0.00    -0.354 N 
ATOM     57  N   UNL A   1      45.643  29.012  29.617  1.00  0.00    -0.248 NA
ATOM     58  C   UNL A   1      47.901  29.532  29.913  1.00  0.00     0.031 C 
ATOM     59  C   UNL A   1      42.302  31.813  30.440  1.00  0.00     0.029 A 
ATOM     60  C   UNL A   1      43.364  30.961  30.185  1.00  0.00     0.049 A 
ATOM     61  H   UNL A   1      43.341  28.998  29.414  1.00  0.00     0.167 HD
ATOM     62  C   UNL A   1      45.753  30.305  30.111  1.00  0.00     0.074 A 
ATOM     63  C   UNL A   1      47.165  30.559  30.310  1.00  0.00     0.031 C 
ATOM     64  C   UNL A   1      44.771  31.202  30.378  1.00  0.00     0.031 A 
BRANCH  51  65
ATOM     65  C   UNL A   1      39.084  29.157  29.095  1.00  0.00    -0.014 A 
ATOM     66  C   UNL A   1      38.257  28.974  30.216  1.00  0.00     0.009 A 
ATOM     67  C   UNL A   1      38.518  29.659  27.912  1.00  0.00     0.009 A 
ATOM     68  C   UNL A   1      36.889  29.249  30.140  1.00  0.00     0.001 A 
ATOM     69  C   UNL A   1      37.157  29.964  27.849  1.00  0.00     0.001 A 
ATOM     70  C   UNL A   1      36.342  29.748  28.959  1.00  0.00     0.000 A 
ENDBRANCH  51  65
BRANCH  52  71
ATOM     71  C   UNL A   1      48.804  26.888  29.056  1.00  0.00    -0.014 A 
ATOM     72  C   UNL A   1      49.574  27.133  27.908  1.00  0.00     0.009 A 
ATOM     73  C   UNL A   1      49.429  26.328  30.182  1.00  0.00     0.009 A 
ATOM     74  C   UNL A   1      50.929  26.797  27.877  1.00  0.00     0.001 A 
ATOM     75  C   UNL A   1      50.792  26.023  30.160  1.00  0.00     0.001 A 
ATOM     76  C   UNL A   1      51.538  26.248  29.005  1.00  0.00     0.000 A 
ENDBRANCH  52  71
BRANCH  64  77
ATOM     77  C   UNL A   1      45.188  32.529  30.952  1.00  0.00    -0.014 A 
ATOM     78  C   UNL A   1      45.458  33.632  30.128  1.00  0.00     0.009 A 
ATOM     79  C   UNL A   1      45.269  32.685  32.345  1.00  0.00     0.009 A 
ATOM     80  C   UNL A   1      45.838  34.854  30.687  1.00  0.00     0.001 A 
ATOM     81  C   UNL A   1      45.614  33.916  32.902  1.00  0.00     0.001 A 
ATOM     82  C   UNL A   1      45.910  34.996  32.072  1.00  0.00     0.000 A 
ENDBRANCH  64  77
ENDBRANCH  38  39
ENDBRANCH  30  33
ENDBRANCH  28  29
ENDBRANCH  27  28
ENDBRANCH  26  27
ENDBRANCH   3  26
TORSDOF 15
ENDMDL
