MODEL 1
REMARK VINA RESULT:     -12.5      0.000      0.000
REMARK SMILES O=C(NCCCNC(=O)c1ccc(-c2c3nc(c(-c4ccccc4)c4ccc([nH]4)c(-c4ccccc4)c4nc(c(-c5ccccc5)c5ccc2[nH]5)C=C4)C=C3)cc1)C1=Cc2cc(S(F)(F)(F)(F)F)cc(Br)c2O[C@H]1C(F)(F)F
REMARK SMILES IDX 5 1 4 2 3 3 1 4 2 5 58 7 59 8 74 9 60 10 73 11 61 12 72 13
REMARK SMILES IDX 62 14 70 15 69 16 71 17 75 18 76 19 77 20 78 21 63 22 64 23
REMARK SMILES IDX 65 24 66 25 67 26 68 27 6 28 7 29 8 30 9 32 10 33 11 34
REMARK SMILES IDX 57 35 12 36 56 37 13 38 14 39 15 40 50 41 16 42 55 43 49 44
REMARK SMILES IDX 51 45 17 46 54 47 48 48 47 49 18 51 40 52 25 53 39 54 26 55
REMARK SMILES IDX 29 56 38 57 52 58 27 59 28 60 37 62 53 63 30 64 19 65 20 66
REMARK SMILES IDX 24 67 21 68 23 69 22 70 41 71 42 72 46 73 43 74 45 75 44 76
REMARK SMILES IDX 31 77 32 78 36 79 33 80 35 81 34 82
REMARK H PARENT 3 6 7 31 51 50 29 61
REMARK Flexibility Score: inf
ROOT
ATOM      1  C   UNL A   1      33.257  28.097  27.025  1.00  0.00     0.042 C 
ENDROOT
BRANCH   1   2
ATOM      2  C   UNL A   1      32.359  28.681  25.945  1.00  0.00     0.118 C 
BRANCH   2   3
ATOM      3  N   UNL A   1      31.097  27.928  25.898  1.00  0.00    -0.352 N 
ATOM      4  O   UNL A   1      29.542  26.699  24.588  1.00  0.00    -0.270 OA
ATOM      5  C   UNL A   1      30.633  27.350  24.629  1.00  0.00     0.251 C 
ATOM      6  H   UNL A   1      30.562  27.812  26.716  1.00  0.00     0.163 HD
BRANCH   5   7
ATOM      7  C   UNL A   1      31.458  27.530  23.365  1.00  0.00     0.067 C 
ATOM      8  C   UNL A   1      32.543  26.740  23.142  1.00  0.00     0.025 C 
ATOM      9  C   UNL A   1      31.071  28.593  22.350  1.00  0.00     0.314 C 
ATOM     10  C   UNL A   1      32.931  25.677  24.158  1.00  0.00     0.020 A 
ATOM     11  O   UNL A   1      30.632  25.198  24.525  1.00  0.00    -0.474 OA
ATOM     12  C   UNL A   1      34.277  25.494  24.427  1.00  0.00     0.036 A 
ATOM     13  C   UNL A   1      32.008  24.886  24.690  1.00  0.00     0.142 A 
ATOM     14  C   UNL A   1      34.574  24.257  25.047  1.00  0.00     0.109 A 
ATOM     15  C   UNL A   1      32.370  23.767  25.400  1.00  0.00     0.062 A 
ATOM     16  C   UNL A   1      33.686  23.491  25.653  1.00  0.00     0.044 A 
ATOM     17  Br  UNL A   1      30.984  22.548  26.058  1.00  0.00    -0.047 Br
BRANCH   9  18
ATOM     18  C   UNL A   1      29.833  29.330  22.835  1.00  0.00     0.429 C 
ATOM     19  F   UNL A   1      30.062  29.862  24.031  1.00  0.00    -0.167 F 
ATOM     20  F   UNL A   1      29.543  30.295  21.967  1.00  0.00    -0.167 F 
ATOM     21  F   UNL A   1      28.808  28.485  22.914  1.00  0.00    -0.167 F 
ENDBRANCH   9  18
BRANCH  14  22
ATOM     22  S   UNL A   1      36.291  23.685  25.005  1.00  0.00     0.310 S 
ATOM     23  F   UNL A   1      35.960  22.432  25.920  1.00  0.00    -0.094 F 
ATOM     24  F   UNL A   1      36.560  24.495  26.329  1.00  0.00    -0.094 F 
ATOM     25  F   UNL A   1      37.766  23.194  24.973  1.00  0.00    -0.094 F 
ATOM     26  F   UNL A   1      35.967  22.768  23.760  1.00  0.00    -0.094 F 
ATOM     27  F   UNL A   1      34.764  24.085  25.089  1.00  0.00    -0.094 F 
ENDBRANCH  14  22
ENDBRANCH   5   7
ENDBRANCH   2   3
ENDBRANCH   1   2
BRANCH   1  28
ATOM     28  C   UNL A   1      34.546  28.899  27.098  1.00  0.00     0.118 C 
BRANCH  28  29
ATOM     29  N   UNL A   1      34.367  30.032  28.018  1.00  0.00    -0.352 N 
ATOM     30  C   UNL A   1      35.490  30.487  28.851  1.00  0.00     0.251 C 
ATOM     31  H   UNL A   1      33.496  30.486  28.076  1.00  0.00     0.163 HD
ATOM     32  O   UNL A   1      35.335  31.466  29.646  1.00  0.00    -0.269 OA
BRANCH  30  33
ATOM     33  C   UNL A   1      36.836  29.785  28.762  1.00  0.00     0.039 A 
ATOM     34  C   UNL A   1      37.393  29.234  29.903  1.00  0.00     0.014 A 
ATOM     35  C   UNL A   1      37.523  29.862  27.627  1.00  0.00     0.014 A 
ATOM     36  C   UNL A   1      38.795  29.050  29.825  1.00  0.00     0.010 A 
ATOM     37  C   UNL A   1      38.857  29.537  27.595  1.00  0.00     0.010 A 
ATOM     38  C   UNL A   1      39.488  29.042  28.701  1.00  0.00    -0.014 A 
BRANCH  38  39
ATOM     39  C   UNL A   1      40.910  28.509  28.642  1.00  0.00     0.031 A 
ATOM     40  C   UNL A   1      41.055  27.157  28.324  1.00  0.00     0.074 A 
ATOM     41  C   UNL A   1      41.966  29.397  28.750  1.00  0.00     0.049 A 
ATOM     42  N   UNL A   1      42.185  26.504  28.045  1.00  0.00    -0.248 NA
ATOM     43  C   UNL A   1      39.938  26.205  28.242  1.00  0.00     0.031 C 
ATOM     44  C   UNL A   1      41.827  30.763  29.061  1.00  0.00     0.029 A 
ATOM     45  N   UNL A   1      43.309  29.136  28.586  1.00  0.00    -0.354 N 
ATOM     46  C   UNL A   1      41.922  25.224  27.772  1.00  0.00     0.074 A 
ATOM     47  C   UNL A   1      40.473  25.012  27.899  1.00  0.00     0.031 C 
ATOM     48  C   UNL A   1      43.068  31.316  29.095  1.00  0.00     0.029 A 
ATOM     49  C   UNL A   1      44.003  30.306  28.805  1.00  0.00     0.049 A 
ATOM     50  H   UNL A   1      43.704  28.266  28.351  1.00  0.00     0.167 HD
ATOM     51  C   UNL A   1      42.832  24.227  27.419  1.00  0.00     0.031 A 
ATOM     52  C   UNL A   1      45.375  30.499  28.762  1.00  0.00     0.031 A 
ATOM     53  C   UNL A   1      44.200  24.430  27.332  1.00  0.00     0.049 A 
ATOM     54  C   UNL A   1      46.292  29.487  28.465  1.00  0.00     0.074 A 
ATOM     55  C   UNL A   1      45.131  23.439  26.970  1.00  0.00     0.029 A 
ATOM     56  N   UNL A   1      44.897  25.594  27.576  1.00  0.00    -0.354 N 
ATOM     57  N   UNL A   1      46.025  28.218  28.152  1.00  0.00    -0.248 NA
ATOM     58  C   UNL A   1      47.749  29.673  28.447  1.00  0.00     0.031 C 
ATOM     59  C   UNL A   1      46.372  23.992  27.004  1.00  0.00     0.029 A 
ATOM     60  C   UNL A   1      46.237  25.339  27.388  1.00  0.00     0.049 A 
ATOM     61  H   UNL A   1      44.504  26.458  27.838  1.00  0.00     0.167 HD
ATOM     62  C   UNL A   1      47.158  27.555  27.915  1.00  0.00     0.074 A 
ATOM     63  C   UNL A   1      48.285  28.480  28.107  1.00  0.00     0.031 C 
ATOM     64  C   UNL A   1      47.300  26.217  27.540  1.00  0.00     0.031 A 
BRANCH  51  65
ATOM     65  C   UNL A   1      42.293  22.839  27.111  1.00  0.00    -0.014 A 
ATOM     66  C   UNL A   1      41.893  22.511  25.827  1.00  0.00     0.009 A 
ATOM     67  C   UNL A   1      42.185  21.971  28.110  1.00  0.00     0.009 A 
ATOM     68  C   UNL A   1      41.117  21.330  25.752  1.00  0.00     0.001 A 
ATOM     69  C   UNL A   1      41.532  20.776  27.929  1.00  0.00     0.001 A 
ATOM     70  C   UNL A   1      41.058  20.412  26.700  1.00  0.00     0.000 A 
ENDBRANCH  51  65
BRANCH  52  71
ATOM     71  C   UNL A   1      45.912  31.891  29.052  1.00  0.00    -0.014 A 
ATOM     72  C   UNL A   1      46.077  32.809  28.027  1.00  0.00     0.009 A 
ATOM     73  C   UNL A   1      46.188  32.208  30.312  1.00  0.00     0.009 A 
ATOM     74  C   UNL A   1      46.817  33.956  28.398  1.00  0.00     0.001 A 
ATOM     75  C   UNL A   1      46.789  33.405  30.615  1.00  0.00     0.001 A 
ATOM     76  C   UNL A   1      47.035  34.336  29.644  1.00  0.00     0.000 A 
ENDBRANCH  52  71
BRANCH  64  77
ATOM     77  C   UNL A   1      48.702  25.692  27.283  1.00  0.00    -0.014 A 
ATOM     78  C   UNL A   1      49.463  25.225  28.343  1.00  0.00     0.009 A 
ATOM     79  C   UNL A   1      49.222  25.829  26.069  1.00  0.00     0.009 A 
ATOM     80  C   UNL A   1      50.854  25.204  28.082  1.00  0.00     0.001 A 
ATOM     81  C   UNL A   1      50.570  25.661  25.862  1.00  0.00     0.001 A 
ATOM     82  C   UNL A   1      51.392  25.258  26.877  1.00  0.00     0.000 A 
ENDBRANCH  64  77
ENDBRANCH  38  39
ENDBRANCH  30  33
ENDBRANCH  28  29
ENDBRANCH   1  28
TORSDOF 12
ENDMDL
MODEL 2
REMARK VINA RESULT:     -12.4      1.288      1.605
REMARK SMILES O=C(NCCCNC(=O)c1ccc(-c2c3nc(c(-c4ccccc4)c4ccc([nH]4)c(-c4ccccc4)c4nc(c(-c5ccccc5)c5ccc2[nH]5)C=C4)C=C3)cc1)C1=Cc2cc(S(F)(F)(F)(F)F)cc(Br)c2O[C@H]1C(F)(F)F
REMARK SMILES IDX 5 1 4 2 3 3 1 4 2 5 58 7 59 8 74 9 60 10 73 11 61 12 72 13
REMARK SMILES IDX 62 14 70 15 69 16 71 17 75 18 76 19 77 20 78 21 63 22 64 23
REMARK SMILES IDX 65 24 66 25 67 26 68 27 6 28 7 29 8 30 9 32 10 33 11 34
REMARK SMILES IDX 57 35 12 36 56 37 13 38 14 39 15 40 50 41 16 42 55 43 49 44
REMARK SMILES IDX 51 45 17 46 54 47 48 48 47 49 18 51 40 52 25 53 39 54 26 55
REMARK SMILES IDX 29 56 38 57 52 58 27 59 28 60 37 62 53 63 30 64 19 65 20 66
REMARK SMILES IDX 24 67 21 68 23 69 22 70 41 71 42 72 46 73 43 74 45 75 44 76
REMARK SMILES IDX 31 77 32 78 36 79 33 80 35 81 34 82
REMARK H PARENT 3 6 7 31 51 50 29 61
REMARK Flexibility Score: inf
ROOT
ATOM      1  C   UNL A   1      33.751  28.217  26.041  1.00  0.00     0.042 C 
ENDROOT
BRANCH   1   2
ATOM      2  C   UNL A   1      32.620  28.789  25.199  1.00  0.00     0.118 C 
BRANCH   2   3
ATOM      3  N   UNL A   1      31.359  28.122  25.555  1.00  0.00    -0.352 N 
ATOM      4  O   UNL A   1      29.553  26.745  24.859  1.00  0.00    -0.270 OA
ATOM      5  C   UNL A   1      30.643  27.322  24.552  1.00  0.00     0.251 C 
ATOM      6  H   UNL A   1      30.995  28.211  26.465  1.00  0.00     0.163 HD
BRANCH   5   7
ATOM      7  C   UNL A   1      31.205  27.184  23.146  1.00  0.00     0.067 C 
ATOM      8  C   UNL A   1      32.202  26.292  22.896  1.00  0.00     0.025 C 
ATOM      9  C   UNL A   1      30.655  28.044  22.020  1.00  0.00     0.314 C 
ATOM     10  C   UNL A   1      32.753  25.433  24.023  1.00  0.00     0.020 A 
ATOM     11  O   UNL A   1      30.560  25.199  24.909  1.00  0.00    -0.474 OA
ATOM     12  C   UNL A   1      34.119  25.215  24.067  1.00  0.00     0.036 A 
ATOM     13  C   UNL A   1      31.931  24.832  24.875  1.00  0.00     0.142 A 
ATOM     14  C   UNL A   1      34.498  24.111  24.868  1.00  0.00     0.109 A 
ATOM     15  C   UNL A   1      32.395  23.857  25.725  1.00  0.00     0.062 A 
ATOM     16  C   UNL A   1      33.726  23.548  25.779  1.00  0.00     0.044 A 
ATOM     17  Br  UNL A   1      31.133  22.897  26.876  1.00  0.00    -0.047 Br
BRANCH   9  18
ATOM     18  C   UNL A   1      29.559  28.948  22.561  1.00  0.00     0.429 C 
ATOM     19  F   UNL A   1      30.023  29.659  23.583  1.00  0.00    -0.167 F 
ATOM     20  F   UNL A   1      29.165  29.768  21.592  1.00  0.00    -0.167 F 
ATOM     21  F   UNL A   1      28.527  28.212  22.966  1.00  0.00    -0.167 F 
ENDBRANCH   9  18
BRANCH  14  22
ATOM     22  S   UNL A   1      36.155  23.425  24.626  1.00  0.00     0.310 S 
ATOM     23  F   UNL A   1      35.928  22.322  25.744  1.00  0.00    -0.094 F 
ATOM     24  F   UNL A   1      36.681  24.374  25.767  1.00  0.00    -0.094 F 
ATOM     25  F   UNL A   1      37.580  22.835  24.422  1.00  0.00    -0.094 F 
ATOM     26  F   UNL A   1      35.584  22.382  23.585  1.00  0.00    -0.094 F 
ATOM     27  F   UNL A   1      34.684  23.933  24.902  1.00  0.00    -0.094 F 
ENDBRANCH  14  22
ENDBRANCH   5   7
ENDBRANCH   2   3
ENDBRANCH   1   2
BRANCH   1  28
ATOM     28  C   UNL A   1      33.532  28.585  27.499  1.00  0.00     0.118 C 
BRANCH  28  29
ATOM     29  N   UNL A   1      33.451  30.048  27.629  1.00  0.00    -0.352 N 
ATOM     30  C   UNL A   1      34.645  30.820  28.004  1.00  0.00     0.251 C 
ATOM     31  H   UNL A   1      32.598  30.509  27.465  1.00  0.00     0.163 HD
ATOM     32  O   UNL A   1      34.574  32.084  28.117  1.00  0.00    -0.269 OA
BRANCH  30  33
ATOM     33  C   UNL A   1      35.963  30.107  28.258  1.00  0.00     0.039 A 
ATOM     34  C   UNL A   1      36.279  29.697  29.541  1.00  0.00     0.014 A 
ATOM     35  C   UNL A   1      36.853  30.040  27.273  1.00  0.00     0.014 A 
ATOM     36  C   UNL A   1      37.665  29.499  29.755  1.00  0.00     0.010 A 
ATOM     37  C   UNL A   1      38.160  29.707  27.535  1.00  0.00     0.010 A 
ATOM     38  C   UNL A   1      38.557  29.349  28.793  1.00  0.00    -0.014 A 
BRANCH  38  39
ATOM     39  C   UNL A   1      39.949  28.807  29.070  1.00  0.00     0.031 A 
ATOM     40  C   UNL A   1      40.185  27.480  28.703  1.00  0.00     0.074 A 
ATOM     41  C   UNL A   1      40.932  29.673  29.516  1.00  0.00     0.049 A 
ATOM     42  N   UNL A   1      41.353  26.837  28.683  1.00  0.00    -0.248 NA
ATOM     43  C   UNL A   1      39.136  26.549  28.261  1.00  0.00     0.031 C 
ATOM     44  C   UNL A   1      40.704  31.015  29.879  1.00  0.00     0.029 A 
ATOM     45  N   UNL A   1      42.273  29.411  29.692  1.00  0.00    -0.354 N 
ATOM     46  C   UNL A   1      41.183  25.584  28.258  1.00  0.00     0.074 A 
ATOM     47  C   UNL A   1      39.753  25.378  27.985  1.00  0.00     0.031 C 
ATOM     48  C   UNL A   1      41.888  31.550  30.278  1.00  0.00     0.029 A 
ATOM     49  C   UNL A   1      42.876  30.553  30.170  1.00  0.00     0.049 A 
ATOM     50  H   UNL A   1      42.723  28.555  29.506  1.00  0.00     0.167 HD
ATOM     51  C   UNL A   1      42.162  24.605  28.084  1.00  0.00     0.031 A 
ATOM     52  C   UNL A   1      44.209  30.734  30.503  1.00  0.00     0.031 A 
ATOM     53  C   UNL A   1      43.503  24.799  28.374  1.00  0.00     0.049 A 
ATOM     54  C   UNL A   1      45.180  29.736  30.384  1.00  0.00     0.074 A 
ATOM     55  C   UNL A   1      44.505  23.827  28.198  1.00  0.00     0.029 A 
ATOM     56  N   UNL A   1      44.101  25.934  28.877  1.00  0.00    -0.354 N 
ATOM     57  N   UNL A   1      45.016  28.497  29.920  1.00  0.00    -0.248 NA
ATOM     58  C   UNL A   1      46.589  29.907  30.763  1.00  0.00     0.031 C 
ATOM     59  C   UNL A   1      45.689  24.363  28.597  1.00  0.00     0.029 A 
ATOM     60  C   UNL A   1      45.446  25.679  29.030  1.00  0.00     0.049 A 
ATOM     61  H   UNL A   1      43.646  26.781  29.090  1.00  0.00     0.167 HD
ATOM     62  C   UNL A   1      46.177  27.841  29.940  1.00  0.00     0.074 A 
ATOM     63  C   UNL A   1      47.205  28.736  30.489  1.00  0.00     0.031 C 
ATOM     64  C   UNL A   1      46.423  26.532  29.519  1.00  0.00     0.031 A 
BRANCH  51  65
ATOM     65  C   UNL A   1      41.734  23.249  27.545  1.00  0.00    -0.014 A 
ATOM     66  C   UNL A   1      41.208  22.292  28.394  1.00  0.00     0.009 A 
ATOM     67  C   UNL A   1      41.913  23.002  26.252  1.00  0.00     0.009 A 
ATOM     68  C   UNL A   1      41.167  20.991  27.837  1.00  0.00     0.001 A 
ATOM     69  C   UNL A   1      41.724  21.736  25.751  1.00  0.00     0.001 A 
ATOM     70  C   UNL A   1      41.261  20.726  26.546  1.00  0.00     0.000 A 
ENDBRANCH  51  65
BRANCH  52  71
ATOM     71  C   UNL A   1      44.639  32.095  31.025  1.00  0.00    -0.014 A 
ATOM     72  C   UNL A   1      45.064  33.082  30.150  1.00  0.00     0.009 A 
ATOM     73  C   UNL A   1      44.567  32.319  32.332  1.00  0.00     0.009 A 
ATOM     74  C   UNL A   1      45.670  34.191  30.786  1.00  0.00     0.001 A 
ATOM     75  C   UNL A   1      45.057  33.484  32.870  1.00  0.00     0.001 A 
ATOM     76  C   UNL A   1      45.545  34.478  32.069  1.00  0.00     0.000 A 
ENDBRANCH  52  71
BRANCH  64  77
ATOM     77  C   UNL A   1      47.849  26.012  29.601  1.00  0.00    -0.014 A 
ATOM     78  C   UNL A   1      48.351  25.581  30.818  1.00  0.00     0.009 A 
ATOM     79  C   UNL A   1      48.630  26.121  28.533  1.00  0.00     0.009 A 
ATOM     80  C   UNL A   1      49.764  25.564  30.880  1.00  0.00     0.001 A 
ATOM     81  C   UNL A   1      49.990  25.958  28.642  1.00  0.00     0.001 A 
ATOM     82  C   UNL A   1      50.562  25.589  29.827  1.00  0.00     0.000 A 
ENDBRANCH  64  77
ENDBRANCH  38  39
ENDBRANCH  30  33
ENDBRANCH  28  29
ENDBRANCH   1  28
TORSDOF 12
ENDMDL
MODEL 3
REMARK VINA RESULT:     -12.4      3.887      8.341
REMARK SMILES O=C(NCCCNC(=O)c1ccc(-c2c3nc(c(-c4ccccc4)c4ccc([nH]4)c(-c4ccccc4)c4nc(c(-c5ccccc5)c5ccc2[nH]5)C=C4)C=C3)cc1)C1=Cc2cc(S(F)(F)(F)(F)F)cc(Br)c2O[C@H]1C(F)(F)F
REMARK SMILES IDX 5 1 4 2 3 3 1 4 2 5 58 7 59 8 74 9 60 10 73 11 61 12 72 13
REMARK SMILES IDX 62 14 70 15 69 16 71 17 75 18 76 19 77 20 78 21 63 22 64 23
REMARK SMILES IDX 65 24 66 25 67 26 68 27 6 28 7 29 8 30 9 32 10 33 11 34
REMARK SMILES IDX 57 35 12 36 56 37 13 38 14 39 15 40 50 41 16 42 55 43 49 44
REMARK SMILES IDX 51 45 17 46 54 47 48 48 47 49 18 51 40 52 25 53 39 54 26 55
REMARK SMILES IDX 29 56 38 57 52 58 27 59 28 60 37 62 53 63 30 64 19 65 20 66
REMARK SMILES IDX 24 67 21 68 23 69 22 70 41 71 42 72 46 73 43 74 45 75 44 76
REMARK SMILES IDX 31 77 32 78 36 79 33 80 35 81 34 82
REMARK H PARENT 3 6 7 31 51 50 29 61
REMARK Flexibility Score: inf
ROOT
ATOM      1  C   UNL A   1      36.196  23.640  25.925  1.00  0.00     0.042 C 
ENDROOT
BRANCH   1   2
ATOM      2  C   UNL A   1      35.400  22.384  25.606  1.00  0.00     0.118 C 
BRANCH   2   3
ATOM      3  N   UNL A   1      35.020  22.394  24.186  1.00  0.00    -0.352 N 
ATOM      4  O   UNL A   1      33.272  22.373  22.577  1.00  0.00    -0.270 OA
ATOM      5  C   UNL A   1      33.600  22.365  23.805  1.00  0.00     0.251 C 
ATOM      6  H   UNL A   1      35.715  22.419  23.490  1.00  0.00     0.163 HD
BRANCH   5   7
ATOM      7  C   UNL A   1      32.525  22.325  24.879  1.00  0.00     0.067 C 
ATOM      8  C   UNL A   1      32.147  23.473  25.506  1.00  0.00     0.025 C 
ATOM      9  C   UNL A   1      31.874  21.005  25.253  1.00  0.00     0.314 C 
ATOM     10  C   UNL A   1      32.800  24.794  25.132  1.00  0.00     0.020 A 
ATOM     11  O   UNL A   1      32.819  24.131  22.849  1.00  0.00    -0.474 OA
ATOM     12  C   UNL A   1      33.099  25.684  26.150  1.00  0.00     0.036 A 
ATOM     13  C   UNL A   1      32.982  25.118  23.857  1.00  0.00     0.142 A 
ATOM     14  C   UNL A   1      33.315  27.010  25.707  1.00  0.00     0.109 A 
ATOM     15  C   UNL A   1      33.326  26.401  23.504  1.00  0.00     0.062 A 
ATOM     16  C   UNL A   1      33.578  27.348  24.457  1.00  0.00     0.044 A 
ATOM     17  Br  UNL A   1      33.456  26.879  21.608  1.00  0.00    -0.047 Br
BRANCH   9  18
ATOM     18  C   UNL A   1      32.471  19.888  24.412  1.00  0.00     0.429 C 
ATOM     19  F   UNL A   1      32.027  18.711  24.841  1.00  0.00    -0.167 F 
ATOM     20  F   UNL A   1      32.106  20.065  23.146  1.00  0.00    -0.167 F 
ATOM     21  F   UNL A   1      33.798  19.920  24.499  1.00  0.00    -0.167 F 
ENDBRANCH   9  18
BRANCH  14  22
ATOM     22  S   UNL A   1      33.225  28.334  26.937  1.00  0.00     0.310 S 
ATOM     23  F   UNL A   1      33.345  29.459  25.825  1.00  0.00    -0.094 F 
ATOM     24  F   UNL A   1      34.799  28.333  27.008  1.00  0.00    -0.094 F 
ATOM     25  F   UNL A   1      33.151  29.473  27.993  1.00  0.00    -0.094 F 
ATOM     26  F   UNL A   1      31.659  28.418  26.749  1.00  0.00    -0.094 F 
ATOM     27  F   UNL A   1      33.291  27.257  25.782  1.00  0.00    -0.094 F 
ENDBRANCH  14  22
ENDBRANCH   5   7
ENDBRANCH   2   3
ENDBRANCH   1   2
BRANCH   1  28
ATOM     28  C   UNL A   1      37.424  23.702  25.032  1.00  0.00     0.118 C 
BRANCH  28  29
ATOM     29  N   UNL A   1      38.368  22.644  25.422  1.00  0.00    -0.352 N 
ATOM     30  C   UNL A   1      39.467  22.947  26.351  1.00  0.00     0.251 C 
ATOM     31  H   UNL A   1      38.265  21.735  25.062  1.00  0.00     0.163 HD
ATOM     32  O   UNL A   1      40.284  22.033  26.688  1.00  0.00    -0.269 OA
BRANCH  30  33
ATOM     33  C   UNL A   1      39.628  24.352  26.907  1.00  0.00     0.039 A 
ATOM     34  C   UNL A   1      40.393  25.275  26.216  1.00  0.00     0.014 A 
ATOM     35  C   UNL A   1      39.167  24.613  28.126  1.00  0.00     0.014 A 
ATOM     36  C   UNL A   1      40.866  26.343  27.016  1.00  0.00     0.010 A 
ATOM     37  C   UNL A   1      39.566  25.745  28.796  1.00  0.00     0.010 A 
ATOM     38  C   UNL A   1      40.370  26.672  28.195  1.00  0.00    -0.014 A 
BRANCH  38  39
ATOM     39  C   UNL A   1      40.677  28.010  28.847  1.00  0.00     0.031 A 
ATOM     40  C   UNL A   1      39.653  28.959  28.832  1.00  0.00     0.074 A 
ATOM     41  C   UNL A   1      41.866  28.164  29.539  1.00  0.00     0.049 A 
ATOM     42  N   UNL A   1      39.615  30.125  29.479  1.00  0.00    -0.248 NA
ATOM     43  C   UNL A   1      38.404  28.811  28.071  1.00  0.00     0.031 C 
ATOM     44  C   UNL A   1      42.900  27.208  29.566  1.00  0.00     0.029 A 
ATOM     45  N   UNL A   1      42.264  29.237  30.305  1.00  0.00    -0.354 N 
ATOM     46  C   UNL A   1      38.463  30.751  29.234  1.00  0.00     0.074 A 
ATOM     47  C   UNL A   1      37.669  29.918  28.320  1.00  0.00     0.031 C 
ATOM     48  C   UNL A   1      43.911  27.702  30.328  1.00  0.00     0.029 A 
ATOM     49  C   UNL A   1      43.526  28.974  30.791  1.00  0.00     0.049 A 
ATOM     50  H   UNL A   1      41.738  30.051  30.477  1.00  0.00     0.167 HD
ATOM     51  C   UNL A   1      38.041  31.982  29.738  1.00  0.00     0.031 A 
ATOM     52  C   UNL A   1      44.314  29.786  31.591  1.00  0.00     0.031 A 
ATOM     53  C   UNL A   1      38.811  32.775  30.575  1.00  0.00     0.049 A 
ATOM     54  C   UNL A   1      43.916  31.045  32.049  1.00  0.00     0.074 A 
ATOM     55  C   UNL A   1      38.399  34.014  31.098  1.00  0.00     0.029 A 
ATOM     56  N   UNL A   1      40.083  32.523  31.040  1.00  0.00    -0.354 N 
ATOM     57  N   UNL A   1      42.747  31.652  31.837  1.00  0.00    -0.248 NA
ATOM     58  C   UNL A   1      44.754  31.927  32.871  1.00  0.00     0.031 C 
ATOM     59  C   UNL A   1      39.410  34.508  31.861  1.00  0.00     0.029 A 
ATOM     60  C   UNL A   1      40.472  33.585  31.825  1.00  0.00     0.049 A 
ATOM     61  H   UNL A   1      40.621  31.722  30.845  1.00  0.00     0.167 HD
ATOM     62  C   UNL A   1      42.727  32.837  32.449  1.00  0.00     0.074 A 
ATOM     63  C   UNL A   1      44.021  33.034  33.119  1.00  0.00     0.031 C 
ATOM     64  C   UNL A   1      41.680  33.760  32.483  1.00  0.00     0.031 A 
BRANCH  51  65
ATOM     65  C   UNL A   1      36.659  32.482  29.349  1.00  0.00    -0.014 A 
ATOM     66  C   UNL A   1      36.484  33.238  28.203  1.00  0.00     0.009 A 
ATOM     67  C   UNL A   1      35.640  32.203  30.154  1.00  0.00     0.009 A 
ATOM     68  C   UNL A   1      35.237  33.905  28.140  1.00  0.00     0.001 A 
ATOM     69  C   UNL A   1      34.412  32.786  29.953  1.00  0.00     0.001 A 
ATOM     70  C   UNL A   1      34.184  33.593  28.874  1.00  0.00     0.000 A 
ENDBRANCH  51  65
BRANCH  52  71
ATOM     71  C   UNL A   1      45.689  29.278  31.995  1.00  0.00    -0.014 A 
ATOM     72  C   UNL A   1      46.791  29.519  31.190  1.00  0.00     0.009 A 
ATOM     73  C   UNL A   1      45.806  28.630  33.148  1.00  0.00     0.009 A 
ATOM     74  C   UNL A   1      47.939  28.777  31.554  1.00  0.00     0.001 A 
ATOM     75  C   UNL A   1      46.997  28.045  33.503  1.00  0.00     0.001 A 
ATOM     76  C   UNL A   1      48.113  28.192  32.726  1.00  0.00     0.000 A 
ENDBRANCH  52  71
BRANCH  64  77
ATOM     77  C   UNL A   1      41.877  35.034  33.287  1.00  0.00    -0.014 A 
ATOM     78  C   UNL A   1      42.686  36.041  32.787  1.00  0.00     0.009 A 
ATOM     79  C   UNL A   1      41.386  35.092  34.519  1.00  0.00     0.009 A 
ATOM     80  C   UNL A   1      43.161  36.937  33.775  1.00  0.00     0.001 A 
ATOM     81  C   UNL A   1      41.793  36.076  35.389  1.00  0.00     0.001 A 
ATOM     82  C   UNL A   1      42.638  37.070  34.981  1.00  0.00     0.000 A 
ENDBRANCH  64  77
ENDBRANCH  38  39
ENDBRANCH  30  33
ENDBRANCH  28  29
ENDBRANCH   1  28
TORSDOF 12
ENDMDL
