MODEL 1
REMARK VINA RESULT:     -11.7      0.000      0.000
REMARK SMILES NS(=O)(=O)c1ccc(-c2coc(=O)n2-c2ccc(C(=O)NCCCNC(=O)c3ccc(-c4c5nc(c(-c6ccccc6)c6ccc([nH]6)c(-c6ccccc6)c6nc(c(-c7ccccc7)c7ccc4[nH]7)C=C6)C=C5)cc3)cc2)cc1
REMARK SMILES IDX 22 1 21 2 19 3 20 4 18 6 15 7 16 8 77 9 17 10 76 11 14 12
REMARK SMILES IDX 9 13 10 14 11 15 12 16 13 17 8 18 5 19 6 20 79 21 7 22 78 23
REMARK SMILES IDX 2 24 3 25 4 26 1 27 23 30 24 31 25 32 26 33 27 35 28 36
REMARK SMILES IDX 29 37 75 38 30 39 74 40 31 41 32 42 33 43 68 44 34 45 73 46
REMARK SMILES IDX 67 47 69 48 35 49 72 50 66 51 65 52 36 54 58 55 43 56 57 57
REMARK SMILES IDX 44 58 47 59 56 60 70 61 45 62 46 63 55 65 71 66 48 67 37 68
REMARK SMILES IDX 38 69 42 70 39 71 41 72 40 73 59 74 60 75 64 76 61 77 63 78
REMARK SMILES IDX 62 79 49 80 50 81 54 82 51 83 53 84 52 85
REMARK H PARENT 21 5 1 28 1 29 25 34 69 53 47 64
REMARK Flexibility Score: inf
ROOT
ATOM      1  C   UNL A   1      32.265  31.246  26.602  1.00  0.00     0.118 C 
ENDROOT
BRANCH   1   2
ATOM      2  N   UNL A   1      33.344  30.762  27.454  1.00  0.00    -0.352 N 
ATOM      3  C   UNL A   1      33.897  29.516  27.635  1.00  0.00     0.251 C 
ATOM      4  O   UNL A   1      34.876  29.433  28.377  1.00  0.00    -0.269 OA
ATOM      5  H   UNL A   1      33.756  31.464  28.008  1.00  0.00     0.163 HD
BRANCH   3   6
ATOM      6  C   UNL A   1      33.400  28.288  26.951  1.00  0.00     0.039 A 
ATOM      7  C   UNL A   1      32.493  26.061  25.479  1.00  0.00     0.053 A 
ATOM      8  C   UNL A   1      33.753  26.600  25.216  1.00  0.00     0.028 A 
ATOM      9  C   UNL A   1      31.737  26.576  26.532  1.00  0.00     0.028 A 
ATOM     10  C   UNL A   1      34.188  27.727  25.930  1.00  0.00     0.016 A 
ATOM     11  C   UNL A   1      32.208  27.648  27.281  1.00  0.00     0.016 A 
BRANCH   7  12
ATOM     12  N   UNL A   1      31.942  25.033  24.694  1.00  0.00    -0.242 N 
ATOM     13  C   UNL A   1      30.826  25.094  23.905  1.00  0.00     0.095 A 
ATOM     14  C   UNL A   1      30.601  23.852  23.493  1.00  0.00     0.228 A 
ATOM     15  O   UNL A   1      31.528  22.919  23.956  1.00  0.00    -0.415 OA
ATOM     16  C   UNL A   1      32.391  23.716  24.711  1.00  0.00     0.424 A 
ATOM     17  O   UNL A   1      33.353  23.259  25.313  1.00  0.00    -0.223 OA
BRANCH  13  18
ATOM     18  C   UNL A   1      30.152  26.325  23.492  1.00  0.00     0.002 A 
ATOM     19  C   UNL A   1      28.941  28.744  22.755  1.00  0.00     0.082 A 
ATOM     20  C   UNL A   1      30.263  28.491  22.383  1.00  0.00     0.022 A 
ATOM     21  C   UNL A   1      28.216  27.797  23.483  1.00  0.00     0.022 A 
ATOM     22  C   UNL A   1      30.862  27.286  22.750  1.00  0.00     0.012 A 
ATOM     23  C   UNL A   1      28.822  26.586  23.844  1.00  0.00     0.012 A 
BRANCH  19  24
ATOM     24  S   UNL A   1      28.243  30.299  22.282  1.00  0.00     0.238 S 
ATOM     25  O   UNL A   1      27.289  30.691  23.301  1.00  0.00    -0.207 OA
ATOM     26  O   UNL A   1      27.916  30.237  20.884  1.00  0.00    -0.207 OA
BRANCH  24  27
ATOM     27  N   UNL A   1      29.506  31.401  22.403  1.00  0.00    -0.225 NA
ATOM     28  H   UNL A   1      29.681  31.817  21.488  1.00  0.00     0.137 HD
ATOM     29  H   UNL A   1      30.346  30.921  22.724  1.00  0.00     0.137 HD
ENDBRANCH  24  27
ENDBRANCH  19  24
ENDBRANCH  13  18
ENDBRANCH   7  12
ENDBRANCH   3   6
ENDBRANCH   1   2
BRANCH   1  30
ATOM     30  C   UNL A   1      31.528  32.438  27.229  1.00  0.00     0.042 C 
BRANCH  30  31
ATOM     31  C   UNL A   1      32.169  33.769  26.881  1.00  0.00     0.118 C 
BRANCH  31  32
ATOM     32  N   UNL A   1      32.150  34.703  28.003  1.00  0.00    -0.352 N 
ATOM     33  C   UNL A   1      32.931  34.687  29.137  1.00  0.00     0.251 C 
ATOM     34  H   UNL A   1      31.496  35.436  27.940  1.00  0.00     0.163 HD
ATOM     35  O   UNL A   1      32.591  35.308  30.138  1.00  0.00    -0.269 OA
BRANCH  33  36
ATOM     36  C   UNL A   1      34.165  33.883  29.142  1.00  0.00     0.039 A 
ATOM     37  C   UNL A   1      35.061  33.966  28.077  1.00  0.00     0.014 A 
ATOM     38  C   UNL A   1      34.447  33.084  30.247  1.00  0.00     0.014 A 
ATOM     39  C   UNL A   1      36.288  33.315  28.177  1.00  0.00     0.010 A 
ATOM     40  C   UNL A   1      35.710  32.555  30.403  1.00  0.00     0.010 A 
ATOM     41  C   UNL A   1      36.629  32.638  29.362  1.00  0.00    -0.014 A 
BRANCH  41  42
ATOM     42  C   UNL A   1      37.985  32.115  29.533  1.00  0.00     0.031 A 
ATOM     43  C   UNL A   1      38.175  30.678  29.175  1.00  0.00     0.074 A 
ATOM     44  C   UNL A   1      39.071  32.862  29.824  1.00  0.00     0.049 A 
ATOM     45  N   UNL A   1      38.481  29.705  29.968  1.00  0.00    -0.248 NA
ATOM     46  C   UNL A   1      37.914  30.261  27.788  1.00  0.00     0.031 C 
ATOM     47  C   UNL A   1      39.192  34.321  29.926  1.00  0.00     0.029 A 
ATOM     48  N   UNL A   1      40.357  32.444  29.995  1.00  0.00    -0.354 N 
ATOM     49  C   UNL A   1      38.610  28.572  29.169  1.00  0.00     0.074 A 
ATOM     50  C   UNL A   1      38.136  28.946  27.859  1.00  0.00     0.031 C 
ATOM     51  C   UNL A   1      40.497  34.669  29.895  1.00  0.00     0.029 A 
ATOM     52  C   UNL A   1      41.297  33.462  29.968  1.00  0.00     0.049 A 
ATOM     53  H   UNL A   1      40.598  31.498  30.125  1.00  0.00     0.167 HD
ATOM     54  C   UNL A   1      39.275  27.462  29.595  1.00  0.00     0.031 A 
ATOM     55  C   UNL A   1      42.644  33.325  29.998  1.00  0.00     0.031 A 
ATOM     56  C   UNL A   1      39.483  27.469  31.020  1.00  0.00     0.049 A 
ATOM     57  C   UNL A   1      42.944  31.993  30.564  1.00  0.00     0.074 A 
ATOM     58  C   UNL A   1      38.655  27.514  32.126  1.00  0.00     0.029 A 
ATOM     59  N   UNL A   1      40.731  27.813  31.480  1.00  0.00    -0.354 N 
ATOM     60  N   UNL A   1      42.722  31.675  31.805  1.00  0.00    -0.248 NA
ATOM     61  C   UNL A   1      43.115  30.873  29.653  1.00  0.00     0.031 C 
ATOM     62  C   UNL A   1      39.328  28.368  33.049  1.00  0.00     0.029 A 
ATOM     63  C   UNL A   1      40.547  28.737  32.477  1.00  0.00     0.049 A 
ATOM     64  H   UNL A   1      41.592  27.464  31.155  1.00  0.00     0.167 HD
ATOM     65  C   UNL A   1      42.283  30.362  31.759  1.00  0.00     0.074 A 
ATOM     66  C   UNL A   1      42.663  29.886  30.430  1.00  0.00     0.031 C 
ATOM     67  C   UNL A   1      41.411  29.876  32.691  1.00  0.00     0.031 A 
BRANCH  54  68
ATOM     68  C   UNL A   1      40.061  26.553  28.684  1.00  0.00    -0.014 A 
ATOM     69  C   UNL A   1      41.085  27.102  27.887  1.00  0.00     0.009 A 
ATOM     70  C   UNL A   1      39.650  25.244  28.373  1.00  0.00     0.009 A 
ATOM     71  C   UNL A   1      41.615  26.399  26.798  1.00  0.00     0.001 A 
ATOM     72  C   UNL A   1      40.208  24.525  27.311  1.00  0.00     0.001 A 
ATOM     73  C   UNL A   1      41.171  25.114  26.506  1.00  0.00     0.000 A 
ENDBRANCH  54  68
BRANCH  55  74
ATOM     74  C   UNL A   1      43.687  34.176  29.401  1.00  0.00    -0.014 A 
ATOM     75  C   UNL A   1      43.646  34.505  28.037  1.00  0.00     0.009 A 
ATOM     76  C   UNL A   1      44.563  34.901  30.229  1.00  0.00     0.009 A 
ATOM     77  C   UNL A   1      44.415  35.559  27.531  1.00  0.00     0.001 A 
ATOM     78  C   UNL A   1      45.333  35.952  29.721  1.00  0.00     0.001 A 
ATOM     79  C   UNL A   1      45.245  36.294  28.376  1.00  0.00     0.000 A 
ENDBRANCH  55  74
BRANCH  67  80
ATOM     80  C   UNL A   1      41.119  30.733  33.903  1.00  0.00    -0.014 A 
ATOM     81  C   UNL A   1      41.693  30.498  35.166  1.00  0.00     0.009 A 
ATOM     82  C   UNL A   1      40.345  31.890  33.734  1.00  0.00     0.009 A 
ATOM     83  C   UNL A   1      41.464  31.371  36.235  1.00  0.00     0.001 A 
ATOM     84  C   UNL A   1      40.135  32.774  34.796  1.00  0.00     0.001 A 
ATOM     85  C   UNL A   1      40.685  32.510  36.048  1.00  0.00     0.000 A 
ENDBRANCH  67  80
ENDBRANCH  41  42
ENDBRANCH  33  36
ENDBRANCH  31  32
ENDBRANCH  30  31
ENDBRANCH   1  30
TORSDOF 14
ENDMDL
MODEL 2
REMARK VINA RESULT:     -11.6      4.572      9.789
REMARK SMILES NS(=O)(=O)c1ccc(-c2coc(=O)n2-c2ccc(C(=O)NCCCNC(=O)c3ccc(-c4c5nc(c(-c6ccccc6)c6ccc([nH]6)c(-c6ccccc6)c6nc(c(-c7ccccc7)c7ccc4[nH]7)C=C6)C=C5)cc3)cc2)cc1
REMARK SMILES IDX 22 1 21 2 19 3 20 4 18 6 15 7 16 8 77 9 17 10 76 11 14 12
REMARK SMILES IDX 9 13 10 14 11 15 12 16 13 17 8 18 5 19 6 20 79 21 7 22 78 23
REMARK SMILES IDX 2 24 3 25 4 26 1 27 23 30 24 31 25 32 26 33 27 35 28 36
REMARK SMILES IDX 29 37 75 38 30 39 74 40 31 41 32 42 33 43 68 44 34 45 73 46
REMARK SMILES IDX 67 47 69 48 35 49 72 50 66 51 65 52 36 54 58 55 43 56 57 57
REMARK SMILES IDX 44 58 47 59 56 60 70 61 45 62 46 63 55 65 71 66 48 67 37 68
REMARK SMILES IDX 38 69 42 70 39 71 41 72 40 73 59 74 60 75 64 76 61 77 63 78
REMARK SMILES IDX 62 79 49 80 50 81 54 82 51 83 53 84 52 85
REMARK H PARENT 21 5 1 28 1 29 25 34 69 53 47 64
REMARK Flexibility Score: inf
ROOT
ATOM      1  C   UNL A   1      38.217  31.921  33.919  1.00  0.00     0.118 C 
ENDROOT
BRANCH   1   2
ATOM      2  N   UNL A   1      37.595  32.475  35.115  1.00  0.00    -0.352 N 
ATOM      3  C   UNL A   1      36.517  33.308  35.300  1.00  0.00     0.251 C 
ATOM      4  O   UNL A   1      36.169  33.537  36.459  1.00  0.00    -0.269 OA
ATOM      5  H   UNL A   1      38.032  32.198  35.953  1.00  0.00     0.163 HD
BRANCH   3   6
ATOM      6  C   UNL A   1      35.735  33.904  34.178  1.00  0.00     0.039 A 
ATOM      7  C   UNL A   1      34.292  34.858  31.952  1.00  0.00     0.053 A 
ATOM      8  C   UNL A   1      33.951  33.633  32.527  1.00  0.00     0.028 A 
ATOM      9  C   UNL A   1      35.285  35.637  32.546  1.00  0.00     0.028 A 
ATOM     10  C   UNL A   1      34.692  33.148  33.616  1.00  0.00     0.016 A 
ATOM     11  C   UNL A   1      35.965  35.180  33.669  1.00  0.00     0.016 A 
BRANCH   7  12
ATOM     12  N   UNL A   1      33.689  35.321  30.769  1.00  0.00    -0.242 N 
ATOM     13  C   UNL A   1      33.941  34.910  29.489  1.00  0.00     0.095 A 
ATOM     14  C   UNL A   1      33.264  35.735  28.699  1.00  0.00     0.228 A 
ATOM     15  O   UNL A   1      32.534  36.708  29.381  1.00  0.00    -0.415 OA
ATOM     16  C   UNL A   1      32.814  36.402  30.714  1.00  0.00     0.424 A 
ATOM     17  O   UNL A   1      32.364  37.051  31.648  1.00  0.00    -0.223 OA
BRANCH  13  18
ATOM     18  C   UNL A   1      34.676  33.700  29.122  1.00  0.00     0.002 A 
ATOM     19  C   UNL A   1      36.017  31.319  28.490  1.00  0.00     0.082 A 
ATOM     20  C   UNL A   1      34.642  31.418  28.267  1.00  0.00     0.022 A 
ATOM     21  C   UNL A   1      36.729  32.400  29.016  1.00  0.00     0.022 A 
ATOM     22  C   UNL A   1      33.978  32.605  28.582  1.00  0.00     0.012 A 
ATOM     23  C   UNL A   1      36.057  33.590  29.325  1.00  0.00     0.012 A 
BRANCH  19  24
ATOM     24  S   UNL A   1      36.800  29.783  28.095  1.00  0.00     0.238 S 
ATOM     25  O   UNL A   1      38.062  30.076  27.447  1.00  0.00    -0.207 OA
ATOM     26  O   UNL A   1      35.811  28.908  27.527  1.00  0.00    -0.207 OA
BRANCH  24  27
ATOM     27  N   UNL A   1      37.205  29.105  29.578  1.00  0.00    -0.225 NA
ATOM     28  H   UNL A   1      36.784  28.179  29.654  1.00  0.00     0.137 HD
ATOM     29  H   UNL A   1      36.857  29.699  30.330  1.00  0.00     0.137 HD
ENDBRANCH  24  27
ENDBRANCH  19  24
ENDBRANCH  13  18
ENDBRANCH   7  12
ENDBRANCH   3   6
ENDBRANCH   1   2
BRANCH   1  30
ATOM     30  C   UNL A   1      39.220  32.898  33.289  1.00  0.00     0.042 C 
BRANCH  30  31
ATOM     31  C   UNL A   1      38.811  33.335  31.894  1.00  0.00     0.118 C 
BRANCH  31  32
ATOM     32  N   UNL A   1      39.750  34.292  31.316  1.00  0.00    -0.352 N 
ATOM     33  C   UNL A   1      40.975  34.039  30.739  1.00  0.00     0.251 C 
ATOM     34  H   UNL A   1      39.472  35.236  31.342  1.00  0.00     0.163 HD
ATOM     35  O   UNL A   1      41.799  34.936  30.606  1.00  0.00    -0.269 OA
BRANCH  33  36
ATOM     36  C   UNL A   1      41.294  32.665  30.315  1.00  0.00     0.039 A 
ATOM     37  C   UNL A   1      42.621  32.250  30.215  1.00  0.00     0.014 A 
ATOM     38  C   UNL A   1      40.250  31.775  30.069  1.00  0.00     0.014 A 
ATOM     39  C   UNL A   1      42.889  30.908  29.960  1.00  0.00     0.010 A 
ATOM     40  C   UNL A   1      40.516  30.428  29.954  1.00  0.00     0.010 A 
ATOM     41  C   UNL A   1      41.832  29.985  29.868  1.00  0.00    -0.014 A 
BRANCH  41  42
ATOM     42  C   UNL A   1      42.123  28.553  29.787  1.00  0.00     0.031 A 
ATOM     43  C   UNL A   1      42.781  27.958  30.988  1.00  0.00     0.074 A 
ATOM     44  C   UNL A   1      41.702  27.732  28.802  1.00  0.00     0.049 A 
ATOM     45  N   UNL A   1      43.969  27.455  31.065  1.00  0.00    -0.248 NA
ATOM     46  C   UNL A   1      42.064  28.000  32.272  1.00  0.00     0.031 C 
ATOM     47  C   UNL A   1      40.800  28.018  27.681  1.00  0.00     0.029 A 
ATOM     48  N   UNL A   1      41.934  26.396  28.665  1.00  0.00    -0.354 N 
ATOM     49  C   UNL A   1      44.107  26.970  32.363  1.00  0.00     0.074 A 
ATOM     50  C   UNL A   1      42.954  27.436  33.093  1.00  0.00     0.031 C 
ATOM     51  C   UNL A   1      40.374  26.856  27.136  1.00  0.00     0.029 A 
ATOM     52  C   UNL A   1      41.118  25.767  27.738  1.00  0.00     0.049 A 
ATOM     53  H   UNL A   1      42.622  25.919  29.182  1.00  0.00     0.167 HD
ATOM     54  C   UNL A   1      45.066  26.061  32.693  1.00  0.00     0.031 A 
ATOM     55  C   UNL A   1      41.052  24.439  27.483  1.00  0.00     0.031 A 
ATOM     56  C   UNL A   1      46.089  25.961  31.684  1.00  0.00     0.049 A 
ATOM     57  C   UNL A   1      42.310  23.830  27.966  1.00  0.00     0.074 A 
ATOM     58  C   UNL A   1      46.987  26.845  31.117  1.00  0.00     0.029 A 
ATOM     59  N   UNL A   1      46.036  24.887  30.829  1.00  0.00    -0.354 N 
ATOM     60  N   UNL A   1      43.467  24.042  27.413  1.00  0.00    -0.248 NA
ATOM     61  C   UNL A   1      42.351  23.299  29.319  1.00  0.00     0.031 C 
ATOM     62  C   UNL A   1      47.018  26.493  29.734  1.00  0.00     0.029 A 
ATOM     63  C   UNL A   1      46.190  25.382  29.559  1.00  0.00     0.049 A 
ATOM     64  H   UNL A   1      45.912  23.944  31.080  1.00  0.00     0.167 HD
ATOM     65  C   UNL A   1      44.357  24.105  28.473  1.00  0.00     0.074 A 
ATOM     66  C   UNL A   1      43.636  23.520  29.603  1.00  0.00     0.031 C 
ATOM     67  C   UNL A   1      45.483  24.876  28.404  1.00  0.00     0.031 A 
BRANCH  54  68
ATOM     68  C   UNL A   1      44.886  24.998  33.747  1.00  0.00    -0.014 A 
ATOM     69  C   UNL A   1      45.904  24.802  34.701  1.00  0.00     0.009 A 
ATOM     70  C   UNL A   1      43.895  24.002  33.667  1.00  0.00     0.009 A 
ATOM     71  C   UNL A   1      45.958  23.639  35.481  1.00  0.00     0.001 A 
ATOM     72  C   UNL A   1      43.924  22.860  34.473  1.00  0.00     0.001 A 
ATOM     73  C   UNL A   1      44.972  22.665  35.361  1.00  0.00     0.000 A 
ENDBRANCH  54  68
BRANCH  55  74
ATOM     74  C   UNL A   1      39.910  23.626  27.030  1.00  0.00    -0.014 A 
ATOM     75  C   UNL A   1      38.696  24.235  26.676  1.00  0.00     0.009 A 
ATOM     76  C   UNL A   1      40.104  22.280  26.670  1.00  0.00     0.009 A 
ATOM     77  C   UNL A   1      37.733  23.536  25.940  1.00  0.00     0.001 A 
ATOM     78  C   UNL A   1      39.140  21.583  25.937  1.00  0.00     0.001 A 
ATOM     79  C   UNL A   1      37.962  22.217  25.555  1.00  0.00     0.000 A 
ENDBRANCH  55  74
BRANCH  67  80
ATOM     80  C   UNL A   1      45.853  25.470  27.065  1.00  0.00    -0.014 A 
ATOM     81  C   UNL A   1      45.268  26.644  26.556  1.00  0.00     0.009 A 
ATOM     82  C   UNL A   1      46.920  24.903  26.352  1.00  0.00     0.009 A 
ATOM     83  C   UNL A   1      45.707  27.206  25.352  1.00  0.00     0.001 A 
ATOM     84  C   UNL A   1      47.375  25.477  25.162  1.00  0.00     0.001 A 
ATOM     85  C   UNL A   1      46.762  26.622  24.657  1.00  0.00     0.000 A 
ENDBRANCH  67  80
ENDBRANCH  41  42
ENDBRANCH  33  36
ENDBRANCH  31  32
ENDBRANCH  30  31
ENDBRANCH   1  30
TORSDOF 14
ENDMDL
MODEL 3
REMARK VINA RESULT:     -11.5      2.072      5.509
REMARK SMILES NS(=O)(=O)c1ccc(-c2coc(=O)n2-c2ccc(C(=O)NCCCNC(=O)c3ccc(-c4c5nc(c(-c6ccccc6)c6ccc([nH]6)c(-c6ccccc6)c6nc(c(-c7ccccc7)c7ccc4[nH]7)C=C6)C=C5)cc3)cc2)cc1
REMARK SMILES IDX 22 1 21 2 19 3 20 4 18 6 15 7 16 8 77 9 17 10 76 11 14 12
REMARK SMILES IDX 9 13 10 14 11 15 12 16 13 17 8 18 5 19 6 20 79 21 7 22 78 23
REMARK SMILES IDX 2 24 3 25 4 26 1 27 23 30 24 31 25 32 26 33 27 35 28 36
REMARK SMILES IDX 29 37 75 38 30 39 74 40 31 41 32 42 33 43 68 44 34 45 73 46
REMARK SMILES IDX 67 47 69 48 35 49 72 50 66 51 65 52 36 54 58 55 43 56 57 57
REMARK SMILES IDX 44 58 47 59 56 60 70 61 45 62 46 63 55 65 71 66 48 67 37 68
REMARK SMILES IDX 38 69 42 70 39 71 41 72 40 73 59 74 60 75 64 76 61 77 63 78
REMARK SMILES IDX 62 79 49 80 50 81 54 82 51 83 53 84 52 85
REMARK H PARENT 21 5 1 28 1 29 25 34 69 53 47 64
REMARK Flexibility Score: inf
ROOT
ATOM      1  C   UNL A   1      32.913  31.169  27.109  1.00  0.00     0.118 C 
ENDROOT
BRANCH   1   2
ATOM      2  N   UNL A   1      34.258  30.618  27.214  1.00  0.00    -0.352 N 
ATOM      3  C   UNL A   1      34.808  29.426  26.807  1.00  0.00     0.251 C 
ATOM      4  O   UNL A   1      36.020  29.278  26.961  1.00  0.00    -0.269 OA
ATOM      5  H   UNL A   1      34.897  31.218  27.664  1.00  0.00     0.163 HD
BRANCH   3   6
ATOM      6  C   UNL A   1      34.022  28.337  26.157  1.00  0.00     0.039 A 
ATOM      7  C   UNL A   1      32.512  26.402  24.770  1.00  0.00     0.053 A 
ATOM      8  C   UNL A   1      33.629  26.976  24.163  1.00  0.00     0.028 A 
ATOM      9  C   UNL A   1      32.211  26.729  26.092  1.00  0.00     0.028 A 
ATOM     10  C   UNL A   1      34.361  27.960  24.846  1.00  0.00     0.016 A 
ATOM     11  C   UNL A   1      32.985  27.652  26.786  1.00  0.00     0.016 A 
BRANCH   7  12
ATOM     12  N   UNL A   1      31.653  25.529  24.080  1.00  0.00    -0.242 N 
ATOM     13  C   UNL A   1      30.451  25.827  23.499  1.00  0.00     0.095 A 
ATOM     14  C   UNL A   1      29.931  24.667  23.117  1.00  0.00     0.228 A 
ATOM     15  O   UNL A   1      30.732  23.561  23.398  1.00  0.00    -0.415 OA
ATOM     16  C   UNL A   1      31.844  24.153  24.002  1.00  0.00     0.424 A 
ATOM     17  O   UNL A   1      32.791  23.502  24.420  1.00  0.00    -0.223 OA
BRANCH  13  18
ATOM     18  C   UNL A   1      29.959  27.177  23.226  1.00  0.00     0.002 A 
ATOM     19  C   UNL A   1      28.935  29.720  22.634  1.00  0.00     0.082 A 
ATOM     20  C   UNL A   1      28.109  28.763  23.226  1.00  0.00     0.022 A 
ATOM     21  C   UNL A   1      30.270  29.423  22.345  1.00  0.00     0.022 A 
ATOM     22  C   UNL A   1      28.622  27.499  23.520  1.00  0.00     0.012 A 
ATOM     23  C   UNL A   1      30.780  28.154  22.647  1.00  0.00     0.012 A 
BRANCH  19  24
ATOM     24  S   UNL A   1      28.223  31.296  22.263  1.00  0.00     0.238 S 
ATOM     25  O   UNL A   1      27.302  31.636  23.328  1.00  0.00    -0.207 OA
ATOM     26  O   UNL A   1      27.854  31.305  20.873  1.00  0.00    -0.207 OA
BRANCH  24  27
ATOM     27  N   UNL A   1      29.491  32.391  22.400  1.00  0.00    -0.225 NA
ATOM     28  H   UNL A   1      29.384  33.124  21.698  1.00  0.00     0.137 HD
ATOM     29  H   UNL A   1      30.376  31.907  22.253  1.00  0.00     0.137 HD
ENDBRANCH  24  27
ENDBRANCH  19  24
ENDBRANCH  13  18
ENDBRANCH   7  12
ENDBRANCH   3   6
ENDBRANCH   1   2
BRANCH   1  30
ATOM     30  C   UNL A   1      32.866  32.651  27.510  1.00  0.00     0.042 C 
BRANCH  30  31
ATOM     31  C   UNL A   1      34.171  33.132  28.118  1.00  0.00     0.118 C 
BRANCH  31  32
ATOM     32  N   UNL A   1      34.064  33.346  29.558  1.00  0.00    -0.352 N 
ATOM     33  C   UNL A   1      34.744  32.701  30.568  1.00  0.00     0.251 C 
ATOM     34  H   UNL A   1      33.426  34.039  29.843  1.00  0.00     0.163 HD
ATOM     35  O   UNL A   1      34.326  32.729  31.719  1.00  0.00    -0.269 OA
BRANCH  33  36
ATOM     36  C   UNL A   1      35.965  31.947  30.236  1.00  0.00     0.039 A 
ATOM     37  C   UNL A   1      37.164  32.619  30.003  1.00  0.00     0.014 A 
ATOM     38  C   UNL A   1      35.914  30.555  30.212  1.00  0.00     0.014 A 
ATOM     39  C   UNL A   1      38.332  31.877  29.842  1.00  0.00     0.010 A 
ATOM     40  C   UNL A   1      37.085  29.829  30.190  1.00  0.00     0.010 A 
ATOM     41  C   UNL A   1      38.298  30.477  29.975  1.00  0.00    -0.014 A 
BRANCH  41  42
ATOM     42  C   UNL A   1      39.550  29.720  29.991  1.00  0.00     0.031 A 
ATOM     43  C   UNL A   1      40.093  29.394  31.343  1.00  0.00     0.074 A 
ATOM     44  C   UNL A   1      40.137  29.173  28.906  1.00  0.00     0.049 A 
ATOM     45  N   UNL A   1      41.191  29.822  31.873  1.00  0.00    -0.248 NA
ATOM     46  C   UNL A   1      39.279  28.561  32.242  1.00  0.00     0.031 C 
ATOM     47  C   UNL A   1      39.646  29.099  27.525  1.00  0.00     0.029 A 
ATOM     48  N   UNL A   1      41.296  28.457  28.848  1.00  0.00    -0.354 N 
ATOM     49  C   UNL A   1      41.300  29.196  33.112  1.00  0.00     0.074 A 
ATOM     50  C   UNL A   1      40.043  28.526  33.337  1.00  0.00     0.031 C 
ATOM     51  C   UNL A   1      40.367  28.186  26.837  1.00  0.00     0.029 A 
ATOM     52  C   UNL A   1      41.479  27.760  27.664  1.00  0.00     0.049 A 
ATOM     53  H   UNL A   1      41.948  28.437  29.586  1.00  0.00     0.167 HD
ATOM     54  C   UNL A   1      42.486  29.118  33.777  1.00  0.00     0.031 A 
ATOM     55  C   UNL A   1      42.474  26.887  27.382  1.00  0.00     0.031 A 
ATOM     56  C   UNL A   1      43.464  30.034  33.250  1.00  0.00     0.049 A 
ATOM     57  C   UNL A   1      43.590  27.167  28.310  1.00  0.00     0.074 A 
ATOM     58  C   UNL A   1      43.531  31.406  33.097  1.00  0.00     0.029 A 
ATOM     59  N   UNL A   1      44.436  29.523  32.425  1.00  0.00    -0.354 N 
ATOM     60  N   UNL A   1      44.308  28.250  28.260  1.00  0.00    -0.248 NA
ATOM     61  C   UNL A   1      43.657  26.429  29.560  1.00  0.00     0.031 C 
ATOM     62  C   UNL A   1      44.163  31.600  31.833  1.00  0.00     0.029 A 
ATOM     63  C   UNL A   1      44.497  30.342  31.327  1.00  0.00     0.049 A 
ATOM     64  H   UNL A   1      44.983  28.722  32.591  1.00  0.00     0.167 HD
ATOM     65  C   UNL A   1      44.552  28.571  29.586  1.00  0.00     0.074 A 
ATOM     66  C   UNL A   1      44.234  27.353  30.331  1.00  0.00     0.031 C 
ATOM     67  C   UNL A   1      44.717  29.869  29.978  1.00  0.00     0.031 A 
BRANCH  54  68
ATOM     68  C   UNL A   1      42.880  27.959  34.657  1.00  0.00    -0.014 A 
ATOM     69  C   UNL A   1      43.156  26.712  34.064  1.00  0.00     0.009 A 
ATOM     70  C   UNL A   1      42.715  27.971  36.055  1.00  0.00     0.009 A 
ATOM     71  C   UNL A   1      43.196  25.536  34.824  1.00  0.00     0.001 A 
ATOM     72  C   UNL A   1      42.795  26.805  36.821  1.00  0.00     0.001 A 
ATOM     73  C   UNL A   1      43.008  25.582  36.202  1.00  0.00     0.000 A 
ENDBRANCH  54  68
BRANCH  55  74
ATOM     74  C   UNL A   1      42.463  25.705  26.502  1.00  0.00    -0.014 A 
ATOM     75  C   UNL A   1      43.420  25.564  25.484  1.00  0.00     0.009 A 
ATOM     76  C   UNL A   1      41.693  24.579  26.845  1.00  0.00     0.009 A 
ATOM     77  C   UNL A   1      43.635  24.325  24.870  1.00  0.00     0.001 A 
ATOM     78  C   UNL A   1      41.907  23.343  26.229  1.00  0.00     0.001 A 
ATOM     79  C   UNL A   1      42.892  23.211  25.255  1.00  0.00     0.000 A 
ENDBRANCH  55  74
BRANCH  67  80
ATOM     80  C   UNL A   1      44.861  30.921  28.903  1.00  0.00    -0.014 A 
ATOM     81  C   UNL A   1      46.104  31.430  28.487  1.00  0.00     0.009 A 
ATOM     82  C   UNL A   1      43.716  31.317  28.195  1.00  0.00     0.009 A 
ATOM     83  C   UNL A   1      46.193  32.338  27.425  1.00  0.00     0.001 A 
ATOM     84  C   UNL A   1      43.806  32.205  27.121  1.00  0.00     0.001 A 
ATOM     85  C   UNL A   1      45.043  32.723  26.742  1.00  0.00     0.000 A 
ENDBRANCH  67  80
ENDBRANCH  41  42
ENDBRANCH  33  36
ENDBRANCH  31  32
ENDBRANCH  30  31
ENDBRANCH   1  30
TORSDOF 14
ENDMDL
