MODEL 1
REMARK VINA RESULT:     -12.1      0.000      0.000
REMARK SMILES CC(=O)c1c[nH]c(C(=O)N[C@H]2C=C[C@H](C(=O)NCCCNC(=O)c3ccc(-c4c5nc(c(-c6ccccc6)c6ccc([nH]6)c(-c6ccccc6)c6nc(c(-c7ccccc7)c7ccc4[nH]7)C=C6)C=C5)cc3)C2)c1
REMARK SMILES IDX 18 1 17 2 15 3 16 4 14 6 11 7 12 8 72 9 13 10 10 11 8 12
REMARK SMILES IDX 9 13 7 15 4 16 5 17 73 18 6 19 2 21 1 22 3 23 19 24 20 25
REMARK SMILES IDX 21 26 22 27 23 29 24 30 25 31 71 32 26 33 70 34 27 35 28 36
REMARK SMILES IDX 29 37 64 38 30 39 69 40 63 41 65 42 31 43 68 44 62 45 61 46
REMARK SMILES IDX 32 48 54 49 39 50 53 51 40 52 43 53 52 54 66 55 41 56 42 57
REMARK SMILES IDX 51 59 67 60 44 61 33 62 34 63 38 64 35 65 37 66 36 67 55 68
REMARK SMILES IDX 56 69 60 70 57 71 59 72 58 73 45 74 46 75 50 76 47 77 49 78
REMARK SMILES IDX 48 79
REMARK H PARENT 17 5 10 14 6 20 21 28 65 47 43 58
REMARK Flexibility Score: inf
ROOT
ATOM      1  C   UNL A   1      31.465  30.364  26.048  1.00  0.00     0.117 C 
ENDROOT
BRANCH   1   2
ATOM      2  N   UNL A   1      31.903  30.013  24.707  1.00  0.00    -0.356 N 
ATOM      3  C   UNL A   1      31.642  28.885  23.974  1.00  0.00     0.227 C 
ATOM      4  O   UNL A   1      32.171  28.769  22.870  1.00  0.00    -0.274 OA
ATOM      5  H   UNL A   1      32.469  30.684  24.261  1.00  0.00     0.163 HD
BRANCH   3   6
ATOM      6  C   UNL A   1      30.701  27.845  24.575  1.00  0.00     0.103 C 
ATOM      7  C   UNL A   1      30.959  25.452  25.076  1.00  0.00     0.106 C 
ATOM      8  C   UNL A   1      30.094  25.673  23.889  1.00  0.00    -0.006 C 
ATOM      9  C   UNL A   1      31.426  26.851  25.500  1.00  0.00     0.047 C 
ATOM     10  C   UNL A   1      30.010  26.970  23.572  1.00  0.00    -0.016 C 
BRANCH   7  11
ATOM     11  N   UNL A   1      30.327  24.594  26.063  1.00  0.00    -0.345 N 
ATOM     12  C   UNL A   1      30.710  23.572  26.889  1.00  0.00     0.268 C 
ATOM     13  O   UNL A   1      29.812  22.956  27.459  1.00  0.00    -0.268 OA
ATOM     14  H   UNL A   1      29.370  24.803  26.165  1.00  0.00     0.164 HD
BRANCH  12  15
ATOM     15  C   UNL A   1      32.083  23.153  27.001  1.00  0.00     0.105 A 
ATOM     16  C   UNL A   1      34.278  22.665  26.676  1.00  0.00     0.035 A 
ATOM     17  C   UNL A   1      33.749  21.743  27.559  1.00  0.00     0.094 A 
ATOM     18  C   UNL A   1      33.265  23.650  26.491  1.00  0.00     0.045 A 
ATOM     19  N   UNL A   1      32.452  22.104  27.818  1.00  0.00    -0.356 N 
ATOM     20  H   UNL A   1      31.870  21.677  28.487  1.00  0.00     0.166 HD
BRANCH  16  21
ATOM     21  C   UNL A   1      35.584  22.629  26.019  1.00  0.00     0.161 C 
ATOM     22  C   UNL A   1      36.243  23.940  25.673  1.00  0.00     0.093 C 
ATOM     23  O   UNL A   1      36.182  21.568  25.850  1.00  0.00    -0.294 OA
ENDBRANCH  16  21
ENDBRANCH  12  15
ENDBRANCH   7  11
ENDBRANCH   3   6
ENDBRANCH   1   2
BRANCH   1  24
ATOM     24  C   UNL A   1      31.439  31.877  26.266  1.00  0.00     0.042 C 
BRANCH  24  25
ATOM     25  C   UNL A   1      32.498  32.352  27.258  1.00  0.00     0.118 C 
BRANCH  25  26
ATOM     26  N   UNL A   1      32.380  33.775  27.530  1.00  0.00    -0.352 N 
ATOM     27  C   UNL A   1      33.037  34.538  28.461  1.00  0.00     0.251 C 
ATOM     28  H   UNL A   1      31.736  34.261  26.965  1.00  0.00     0.163 HD
ATOM     29  O   UNL A   1      32.578  35.630  28.778  1.00  0.00    -0.269 OA
BRANCH  27  30
ATOM     30  C   UNL A   1      34.276  34.054  29.102  1.00  0.00     0.039 A 
ATOM     31  C   UNL A   1      34.169  33.402  30.335  1.00  0.00     0.014 A 
ATOM     32  C   UNL A   1      35.534  34.308  28.543  1.00  0.00     0.014 A 
ATOM     33  C   UNL A   1      35.317  32.949  30.975  1.00  0.00     0.010 A 
ATOM     34  C   UNL A   1      36.683  33.830  29.164  1.00  0.00     0.010 A 
ATOM     35  C   UNL A   1      36.569  33.142  30.373  1.00  0.00    -0.014 A 
BRANCH  35  36
ATOM     36  C   UNL A   1      37.744  32.473  30.970  1.00  0.00     0.031 A 
ATOM     37  C   UNL A   1      38.043  31.137  30.268  1.00  0.00     0.074 A 
ATOM     38  C   UNL A   1      38.317  33.079  32.055  1.00  0.00     0.049 A 
ATOM     39  N   UNL A   1      38.559  30.051  30.748  1.00  0.00    -0.248 NA
ATOM     40  C   UNL A   1      37.650  30.952  28.841  1.00  0.00     0.031 C 
ATOM     41  C   UNL A   1      37.945  34.421  32.561  1.00  0.00     0.029 A 
ATOM     42  N   UNL A   1      39.302  32.717  32.954  1.00  0.00    -0.354 N 
ATOM     43  C   UNL A   1      38.675  29.114  29.695  1.00  0.00     0.074 A 
ATOM     44  C   UNL A   1      38.027  29.699  28.562  1.00  0.00     0.031 C 
ATOM     45  C   UNL A   1      38.617  34.717  33.695  1.00  0.00     0.029 A 
ATOM     46  C   UNL A   1      39.480  33.607  34.048  1.00  0.00     0.049 A 
ATOM     47  H   UNL A   1      39.841  31.901  32.845  1.00  0.00     0.167 HD
ATOM     48  C   UNL A   1      39.400  27.960  29.807  1.00  0.00     0.031 A 
ATOM     49  C   UNL A   1      40.221  33.443  35.188  1.00  0.00     0.031 A 
ATOM     50  C   UNL A   1      39.917  27.841  31.126  1.00  0.00     0.049 A 
ATOM     51  C   UNL A   1      40.946  32.178  35.020  1.00  0.00     0.074 A 
ATOM     52  C   UNL A   1      39.325  27.568  32.330  1.00  0.00     0.029 A 
ATOM     53  N   UNL A   1      41.149  28.409  31.342  1.00  0.00    -0.354 N 
ATOM     54  N   UNL A   1      41.973  32.004  34.247  1.00  0.00    -0.248 NA
ATOM     55  C   UNL A   1      40.452  30.984  35.719  1.00  0.00     0.031 C 
ATOM     56  C   UNL A   1      39.983  28.450  33.210  1.00  0.00     0.029 A 
ATOM     57  C   UNL A   1      41.088  29.020  32.566  1.00  0.00     0.049 A 
ATOM     58  H   UNL A   1      41.924  28.381  30.736  1.00  0.00     0.167 HD
ATOM     59  C   UNL A   1      41.964  30.644  34.067  1.00  0.00     0.074 A 
ATOM     60  C   UNL A   1      41.286  30.079  35.215  1.00  0.00     0.031 C 
ATOM     61  C   UNL A   1      41.961  30.141  32.806  1.00  0.00     0.031 A 
BRANCH  48  62
ATOM     62  C   UNL A   1      39.929  26.987  28.791  1.00  0.00    -0.014 A 
ATOM     63  C   UNL A   1      40.753  27.510  27.762  1.00  0.00     0.009 A 
ATOM     64  C   UNL A   1      39.395  25.711  28.596  1.00  0.00     0.009 A 
ATOM     65  C   UNL A   1      40.922  26.851  26.542  1.00  0.00     0.001 A 
ATOM     66  C   UNL A   1      39.598  25.032  27.384  1.00  0.00     0.001 A 
ATOM     67  C   UNL A   1      40.325  25.616  26.346  1.00  0.00     0.000 A 
ENDBRANCH  48  62
BRANCH  49  68
ATOM     68  C   UNL A   1      40.401  34.120  36.526  1.00  0.00    -0.014 A 
ATOM     69  C   UNL A   1      41.570  34.711  37.006  1.00  0.00     0.009 A 
ATOM     70  C   UNL A   1      39.271  34.223  37.390  1.00  0.00     0.009 A 
ATOM     71  C   UNL A   1      41.575  35.436  38.220  1.00  0.00     0.001 A 
ATOM     72  C   UNL A   1      39.256  34.975  38.566  1.00  0.00     0.001 A 
ATOM     73  C   UNL A   1      40.415  35.599  38.979  1.00  0.00     0.000 A 
ENDBRANCH  49  68
BRANCH  61  74
ATOM     74  C   UNL A   1      42.526  31.067  31.738  1.00  0.00    -0.014 A 
ATOM     75  C   UNL A   1      41.650  31.778  30.902  1.00  0.00     0.009 A 
ATOM     76  C   UNL A   1      43.900  31.164  31.453  1.00  0.00     0.009 A 
ATOM     77  C   UNL A   1      42.120  32.532  29.818  1.00  0.00     0.001 A 
ATOM     78  C   UNL A   1      44.377  31.919  30.368  1.00  0.00     0.001 A 
ATOM     79  C   UNL A   1      43.484  32.600  29.548  1.00  0.00     0.000 A 
ENDBRANCH  61  74
ENDBRANCH  35  36
ENDBRANCH  27  30
ENDBRANCH  25  26
ENDBRANCH  24  25
ENDBRANCH   1  24
TORSDOF 13
ENDMDL
MODEL 2
REMARK VINA RESULT:     -12.1      4.468     10.145
REMARK SMILES CC(=O)c1c[nH]c(C(=O)N[C@H]2C=C[C@H](C(=O)NCCCNC(=O)c3ccc(-c4c5nc(c(-c6ccccc6)c6ccc([nH]6)c(-c6ccccc6)c6nc(c(-c7ccccc7)c7ccc4[nH]7)C=C6)C=C5)cc3)C2)c1
REMARK SMILES IDX 18 1 17 2 15 3 16 4 14 6 11 7 12 8 72 9 13 10 10 11 8 12
REMARK SMILES IDX 9 13 7 15 4 16 5 17 73 18 6 19 2 21 1 22 3 23 19 24 20 25
REMARK SMILES IDX 21 26 22 27 23 29 24 30 25 31 71 32 26 33 70 34 27 35 28 36
REMARK SMILES IDX 29 37 64 38 30 39 69 40 63 41 65 42 31 43 68 44 62 45 61 46
REMARK SMILES IDX 32 48 54 49 39 50 53 51 40 52 43 53 52 54 66 55 41 56 42 57
REMARK SMILES IDX 51 59 67 60 44 61 33 62 34 63 38 64 35 65 37 66 36 67 55 68
REMARK SMILES IDX 56 69 60 70 57 71 59 72 58 73 45 74 46 75 50 76 47 77 49 78
REMARK SMILES IDX 48 79
REMARK H PARENT 17 5 10 14 6 20 21 28 65 47 43 58
REMARK Flexibility Score: inf
ROOT
ATOM      1  C   UNL A   1      36.677  20.573  24.977  1.00  0.00     0.117 C 
ENDROOT
BRANCH   1   2
ATOM      2  N   UNL A   1      36.882  21.586  23.954  1.00  0.00    -0.356 N 
ATOM      3  C   UNL A   1      36.177  22.737  23.716  1.00  0.00     0.227 C 
ATOM      4  O   UNL A   1      36.491  23.426  22.748  1.00  0.00    -0.274 OA
ATOM      5  H   UNL A   1      37.637  21.421  23.344  1.00  0.00     0.163 HD
BRANCH   3   6
ATOM      6  C   UNL A   1      35.048  23.094  24.678  1.00  0.00     0.103 C 
ATOM      7  C   UNL A   1      33.318  24.841  24.648  1.00  0.00     0.106 C 
ATOM      8  C   UNL A   1      34.379  25.136  25.646  1.00  0.00    -0.006 C 
ATOM      9  C   UNL A   1      33.769  23.549  23.953  1.00  0.00     0.047 C 
ATOM     10  C   UNL A   1      35.356  24.225  25.615  1.00  0.00    -0.016 C 
BRANCH   7  11
ATOM     11  N   UNL A   1      31.988  24.899  25.227  1.00  0.00    -0.345 N 
ATOM     12  C   UNL A   1      31.140  25.870  25.686  1.00  0.00     0.268 C 
ATOM     13  O   UNL A   1      30.143  25.491  26.295  1.00  0.00    -0.268 OA
ATOM     14  H   UNL A   1      31.591  24.001  25.312  1.00  0.00     0.164 HD
BRANCH  12  15
ATOM     15  C   UNL A   1      31.450  27.271  25.570  1.00  0.00     0.105 A 
ATOM     16  C   UNL A   1      31.865  29.479  25.913  1.00  0.00     0.035 A 
ATOM     17  C   UNL A   1      31.302  29.328  24.661  1.00  0.00     0.094 A 
ATOM     18  C   UNL A   1      32.124  28.158  26.383  1.00  0.00     0.045 A 
ATOM     19  N   UNL A   1      31.142  27.985  24.430  1.00  0.00    -0.356 N 
ATOM     20  H   UNL A   1      30.851  27.590  23.577  1.00  0.00     0.166 HD
BRANCH  16  21
ATOM     21  C   UNL A   1      32.109  30.722  26.643  1.00  0.00     0.161 C 
ATOM     22  C   UNL A   1      33.414  30.871  27.382  1.00  0.00     0.093 C 
ATOM     23  O   UNL A   1      31.324  31.667  26.568  1.00  0.00    -0.294 OA
ENDBRANCH  16  21
ENDBRANCH  12  15
ENDBRANCH   7  11
ENDBRANCH   3   6
ENDBRANCH   1   2
BRANCH   1  24
ATOM     24  C   UNL A   1      37.845  19.589  25.052  1.00  0.00     0.042 C 
BRANCH  24  25
ATOM     25  C   UNL A   1      39.084  20.188  25.712  1.00  0.00     0.118 C 
BRANCH  25  26
ATOM     26  N   UNL A   1      40.112  19.185  25.935  1.00  0.00    -0.352 N 
ATOM     27  C   UNL A   1      41.458  19.352  26.145  1.00  0.00     0.251 C 
ATOM     28  H   UNL A   1      39.798  18.251  25.937  1.00  0.00     0.163 HD
ATOM     29  O   UNL A   1      42.216  18.403  25.977  1.00  0.00    -0.269 OA
BRANCH  27  30
ATOM     30  C   UNL A   1      42.006  20.663  26.547  1.00  0.00     0.039 A 
ATOM     31  C   UNL A   1      42.493  21.509  25.545  1.00  0.00     0.014 A 
ATOM     32  C   UNL A   1      42.119  21.024  27.894  1.00  0.00     0.014 A 
ATOM     33  C   UNL A   1      43.032  22.743  25.889  1.00  0.00     0.010 A 
ATOM     34  C   UNL A   1      42.630  22.269  28.242  1.00  0.00     0.010 A 
ATOM     35  C   UNL A   1      43.075  23.130  27.237  1.00  0.00    -0.014 A 
BRANCH  35  36
ATOM     36  C   UNL A   1      43.461  24.521  27.555  1.00  0.00     0.031 A 
ATOM     37  C   UNL A   1      42.223  25.420  27.722  1.00  0.00     0.074 A 
ATOM     38  C   UNL A   1      44.800  24.803  27.578  1.00  0.00     0.049 A 
ATOM     39  N   UNL A   1      42.080  26.681  27.469  1.00  0.00    -0.248 NA
ATOM     40  C   UNL A   1      40.934  24.819  28.171  1.00  0.00     0.031 C 
ATOM     41  C   UNL A   1      45.873  23.787  27.469  1.00  0.00     0.029 A 
ATOM     42  N   UNL A   1      45.539  25.965  27.686  1.00  0.00    -0.354 N 
ATOM     43  C   UNL A   1      40.767  27.059  27.833  1.00  0.00     0.074 A 
ATOM     44  C   UNL A   1      40.084  25.852  28.186  1.00  0.00     0.031 C 
ATOM     45  C   UNL A   1      47.092  24.370  27.432  1.00  0.00     0.029 A 
ATOM     46  C   UNL A   1      46.941  25.809  27.504  1.00  0.00     0.049 A 
ATOM     47  H   UNL A   1      45.126  26.837  27.876  1.00  0.00     0.167 HD
ATOM     48  C   UNL A   1      40.370  28.363  27.922  1.00  0.00     0.031 A 
ATOM     49  C   UNL A   1      47.908  26.768  27.361  1.00  0.00     0.031 A 
ATOM     50  C   UNL A   1      41.432  29.220  27.524  1.00  0.00     0.049 A 
ATOM     51  C   UNL A   1      47.235  28.055  27.570  1.00  0.00     0.074 A 
ATOM     52  C   UNL A   1      41.995  29.491  26.306  1.00  0.00     0.029 A 
ATOM     53  N   UNL A   1      42.291  29.614  28.521  1.00  0.00    -0.354 N 
ATOM     54  N   UNL A   1      46.852  28.518  28.720  1.00  0.00    -0.248 NA
ATOM     55  C   UNL A   1      46.898  28.874  26.397  1.00  0.00     0.031 C 
ATOM     56  C   UNL A   1      43.372  29.551  26.602  1.00  0.00     0.029 A 
ATOM     57  C   UNL A   1      43.553  29.566  27.990  1.00  0.00     0.049 A 
ATOM     58  H   UNL A   1      42.047  29.881  29.437  1.00  0.00     0.167 HD
ATOM     59  C   UNL A   1      45.900  29.435  28.352  1.00  0.00     0.074 A 
ATOM     60  C   UNL A   1      46.221  29.846  27.002  1.00  0.00     0.031 C 
ATOM     61  C   UNL A   1      44.657  29.355  28.892  1.00  0.00     0.031 A 
BRANCH  48  62
ATOM     62  C   UNL A   1      39.182  29.026  28.563  1.00  0.00    -0.014 A 
ATOM     63  C   UNL A   1      39.017  28.846  29.961  1.00  0.00     0.009 A 
ATOM     64  C   UNL A   1      38.079  29.491  27.844  1.00  0.00     0.009 A 
ATOM     65  C   UNL A   1      37.777  28.991  30.585  1.00  0.00     0.001 A 
ATOM     66  C   UNL A   1      36.840  29.674  28.480  1.00  0.00     0.001 A 
ATOM     67  C   UNL A   1      36.680  29.387  29.836  1.00  0.00     0.000 A 
ENDBRANCH  48  62
BRANCH  49  68
ATOM     68  C   UNL A   1      49.364  26.855  26.969  1.00  0.00    -0.014 A 
ATOM     69  C   UNL A   1      50.334  27.667  27.556  1.00  0.00     0.009 A 
ATOM     70  C   UNL A   1      49.837  26.001  25.930  1.00  0.00     0.009 A 
ATOM     71  C   UNL A   1      51.696  27.557  27.192  1.00  0.00     0.001 A 
ATOM     72  C   UNL A   1      51.185  25.853  25.596  1.00  0.00     0.001 A 
ATOM     73  C   UNL A   1      52.125  26.629  26.243  1.00  0.00     0.000 A 
ENDBRANCH  49  68
BRANCH  61  74
ATOM     74  C   UNL A   1      44.579  28.643  30.235  1.00  0.00    -0.014 A 
ATOM     75  C   UNL A   1      44.118  27.319  30.293  1.00  0.00     0.009 A 
ATOM     76  C   UNL A   1      44.834  29.284  31.462  1.00  0.00     0.009 A 
ATOM     77  C   UNL A   1      43.896  26.671  31.516  1.00  0.00     0.001 A 
ATOM     78  C   UNL A   1      44.616  28.639  32.690  1.00  0.00     0.001 A 
ATOM     79  C   UNL A   1      44.143  27.332  32.716  1.00  0.00     0.000 A 
ENDBRANCH  61  74
ENDBRANCH  35  36
ENDBRANCH  27  30
ENDBRANCH  25  26
ENDBRANCH  24  25
ENDBRANCH   1  24
TORSDOF 13
ENDMDL
MODEL 3
REMARK VINA RESULT:     -12.1      4.669      9.995
REMARK SMILES CC(=O)c1c[nH]c(C(=O)N[C@H]2C=C[C@H](C(=O)NCCCNC(=O)c3ccc(-c4c5nc(c(-c6ccccc6)c6ccc([nH]6)c(-c6ccccc6)c6nc(c(-c7ccccc7)c7ccc4[nH]7)C=C6)C=C5)cc3)C2)c1
REMARK SMILES IDX 18 1 17 2 15 3 16 4 14 6 11 7 12 8 72 9 13 10 10 11 8 12
REMARK SMILES IDX 9 13 7 15 4 16 5 17 73 18 6 19 2 21 1 22 3 23 19 24 20 25
REMARK SMILES IDX 21 26 22 27 23 29 24 30 25 31 71 32 26 33 70 34 27 35 28 36
REMARK SMILES IDX 29 37 64 38 30 39 69 40 63 41 65 42 31 43 68 44 62 45 61 46
REMARK SMILES IDX 32 48 54 49 39 50 53 51 40 52 43 53 52 54 66 55 41 56 42 57
REMARK SMILES IDX 51 59 67 60 44 61 33 62 34 63 38 64 35 65 37 66 36 67 55 68
REMARK SMILES IDX 56 69 60 70 57 71 59 72 58 73 45 74 46 75 50 76 47 77 49 78
REMARK SMILES IDX 48 79
REMARK H PARENT 17 5 10 14 6 20 21 28 65 47 43 58
REMARK Flexibility Score: inf
ROOT
ATOM      1  C   UNL A   1      37.355  20.429  24.643  1.00  0.00     0.117 C 
ENDROOT
BRANCH   1   2
ATOM      2  N   UNL A   1      37.854  21.726  25.071  1.00  0.00    -0.356 N 
ATOM      3  C   UNL A   1      37.160  22.868  25.375  1.00  0.00     0.227 C 
ATOM      4  O   UNL A   1      37.795  23.881  25.661  1.00  0.00    -0.274 OA
ATOM      5  H   UNL A   1      38.832  21.793  25.155  1.00  0.00     0.163 HD
BRANCH   3   6
ATOM      6  C   UNL A   1      35.636  22.804  25.348  1.00  0.00     0.103 C 
ATOM      7  C   UNL A   1      33.886  24.409  25.989  1.00  0.00     0.106 C 
ATOM      8  C   UNL A   1      34.000  23.301  26.972  1.00  0.00    -0.006 C 
ATOM      9  C   UNL A   1      34.991  24.146  24.957  1.00  0.00     0.047 C 
ATOM     10  C   UNL A   1      34.998  22.466  26.663  1.00  0.00    -0.016 C 
BRANCH   7  11
ATOM     11  N   UNL A   1      32.523  24.593  25.526  1.00  0.00    -0.345 N 
ATOM     12  C   UNL A   1      31.591  23.857  24.845  1.00  0.00     0.268 C 
ATOM     13  O   UNL A   1      30.584  24.451  24.468  1.00  0.00    -0.268 OA
ATOM     14  H   UNL A   1      32.176  25.484  25.764  1.00  0.00     0.164 HD
BRANCH  12  15
ATOM     15  C   UNL A   1      31.822  22.483  24.480  1.00  0.00     0.105 A 
ATOM     16  C   UNL A   1      32.392  20.286  24.391  1.00  0.00     0.035 A 
ATOM     17  C   UNL A   1      32.490  20.816  23.119  1.00  0.00     0.094 A 
ATOM     18  C   UNL A   1      31.788  21.301  25.188  1.00  0.00     0.045 A 
ATOM     19  N   UNL A   1      32.055  22.116  23.170  1.00  0.00    -0.356 N 
ATOM     20  H   UNL A   1      31.927  22.700  22.388  1.00  0.00     0.166 HD
BRANCH  16  21
ATOM     21  C   UNL A   1      32.852  18.977  24.854  1.00  0.00     0.161 C 
ATOM     22  C   UNL A   1      34.211  18.500  24.409  1.00  0.00     0.093 C 
ATOM     23  O   UNL A   1      32.202  18.328  25.672  1.00  0.00    -0.294 OA
ENDBRANCH  16  21
ENDBRANCH  12  15
ENDBRANCH   7  11
ENDBRANCH   3   6
ENDBRANCH   1   2
BRANCH   1  24
ATOM     24  C   UNL A   1      38.309  19.295  25.018  1.00  0.00     0.042 C 
BRANCH  24  25
ATOM     25  C   UNL A   1      39.364  19.719  26.037  1.00  0.00     0.118 C 
BRANCH  25  26
ATOM     26  N   UNL A   1      40.526  18.847  26.002  1.00  0.00    -0.352 N 
ATOM     27  C   UNL A   1      41.858  19.175  26.014  1.00  0.00     0.251 C 
ATOM     28  H   UNL A   1      40.329  17.882  25.966  1.00  0.00     0.163 HD
ATOM     29  O   UNL A   1      42.685  18.349  25.641  1.00  0.00    -0.269 OA
BRANCH  27  30
ATOM     30  C   UNL A   1      42.307  20.513  26.446  1.00  0.00     0.039 A 
ATOM     31  C   UNL A   1      42.825  21.379  25.477  1.00  0.00     0.014 A 
ATOM     32  C   UNL A   1      42.297  20.885  27.795  1.00  0.00     0.014 A 
ATOM     33  C   UNL A   1      43.274  22.640  25.852  1.00  0.00     0.010 A 
ATOM     34  C   UNL A   1      42.716  22.157  28.171  1.00  0.00     0.010 A 
ATOM     35  C   UNL A   1      43.193  23.035  27.196  1.00  0.00    -0.014 A 
BRANCH  35  36
ATOM     36  C   UNL A   1      43.481  24.446  27.531  1.00  0.00     0.031 A 
ATOM     37  C   UNL A   1      42.185  25.258  27.693  1.00  0.00     0.074 A 
ATOM     38  C   UNL A   1      44.798  24.815  27.571  1.00  0.00     0.049 A 
ATOM     39  N   UNL A   1      41.961  26.510  27.451  1.00  0.00    -0.248 NA
ATOM     40  C   UNL A   1      40.934  24.568  28.123  1.00  0.00     0.031 C 
ATOM     41  C   UNL A   1      45.938  23.875  27.463  1.00  0.00     0.029 A 
ATOM     42  N   UNL A   1      45.458  26.023  27.698  1.00  0.00    -0.354 N 
ATOM     43  C   UNL A   1      40.622  26.795  27.804  1.00  0.00     0.074 A 
ATOM     44  C   UNL A   1      40.017  25.542  28.138  1.00  0.00     0.031 C 
ATOM     45  C   UNL A   1      47.115  24.537  27.446  1.00  0.00     0.029 A 
ATOM     46  C   UNL A   1      46.868  25.963  27.530  1.00  0.00     0.049 A 
ATOM     47  H   UNL A   1      44.985  26.863  27.891  1.00  0.00     0.167 HD
ATOM     48  C   UNL A   1      40.137  28.069  27.902  1.00  0.00     0.031 A 
ATOM     49  C   UNL A   1      47.770  26.986  27.405  1.00  0.00     0.031 A 
ATOM     50  C   UNL A   1      41.145  28.999  27.523  1.00  0.00     0.049 A 
ATOM     51  C   UNL A   1      47.011  28.223  27.620  1.00  0.00     0.074 A 
ATOM     52  C   UNL A   1      41.700  29.319  26.313  1.00  0.00     0.029 A 
ATOM     53  N   UNL A   1      41.965  29.439  28.533  1.00  0.00    -0.354 N 
ATOM     54  N   UNL A   1      46.587  28.647  28.770  1.00  0.00    -0.248 NA
ATOM     55  C   UNL A   1      46.632  29.029  26.451  1.00  0.00     0.031 C 
ATOM     56  C   UNL A   1      43.067  29.467  26.626  1.00  0.00     0.029 A 
ATOM     57  C   UNL A   1      43.233  29.480  28.015  1.00  0.00     0.049 A 
ATOM     58  H   UNL A   1      41.695  29.680  29.449  1.00  0.00     0.167 HD
ATOM     59  C   UNL A   1      45.580  29.503  28.401  1.00  0.00     0.074 A 
ATOM     60  C   UNL A   1      45.886  29.948  27.058  1.00  0.00     0.031 C 
ATOM     61  C   UNL A   1      44.339  29.334  28.927  1.00  0.00     0.031 A 
BRANCH  48  62
ATOM     62  C   UNL A   1      38.902  28.644  28.536  1.00  0.00    -0.014 A 
ATOM     63  C   UNL A   1      38.269  29.720  27.863  1.00  0.00     0.009 A 
ATOM     64  C   UNL A   1      38.554  28.434  29.873  1.00  0.00     0.009 A 
ATOM     65  C   UNL A   1      37.436  30.624  28.527  1.00  0.00     0.001 A 
ATOM     66  C   UNL A   1      37.686  29.321  30.531  1.00  0.00     0.001 A 
ATOM     67  C   UNL A   1      37.161  30.433  29.872  1.00  0.00     0.000 A 
ENDBRANCH  48  62
BRANCH  49  68
ATOM     68  C   UNL A   1      49.222  27.173  27.030  1.00  0.00    -0.014 A 
ATOM     69  C   UNL A   1      50.192  27.840  27.778  1.00  0.00     0.009 A 
ATOM     70  C   UNL A   1      49.689  26.582  25.820  1.00  0.00     0.009 A 
ATOM     71  C   UNL A   1      51.550  27.828  27.385  1.00  0.00     0.001 A 
ATOM     72  C   UNL A   1      51.034  26.527  25.449  1.00  0.00     0.001 A 
ATOM     73  C   UNL A   1      51.976  27.144  26.246  1.00  0.00     0.000 A 
ENDBRANCH  49  68
BRANCH  61  74
ATOM     74  C   UNL A   1      44.296  28.605  30.262  1.00  0.00    -0.014 A 
ATOM     75  C   UNL A   1      44.032  27.227  30.292  1.00  0.00     0.009 A 
ATOM     76  C   UNL A   1      44.387  29.265  31.502  1.00  0.00     0.009 A 
ATOM     77  C   UNL A   1      43.844  26.541  31.500  1.00  0.00     0.001 A 
ATOM     78  C   UNL A   1      44.201  28.582  32.716  1.00  0.00     0.001 A 
ATOM     79  C   UNL A   1      43.925  27.219  32.713  1.00  0.00     0.000 A 
ENDBRANCH  61  74
ENDBRANCH  35  36
ENDBRANCH  27  30
ENDBRANCH  25  26
ENDBRANCH  24  25
ENDBRANCH   1  24
TORSDOF 13
ENDMDL
