MODEL 1
REMARK VINA RESULT:     -10.5      0.000      0.000
REMARK SMILES COc1cc(/C=C/C(=O)NCCCNC(=O)c2ccc(-c3c4nc(c(-c5ccccc5)c5ccc([nH]5)c(-c5ccccc5)c5nc(c(-c6ccccc6)c6ccc3[nH]6)C=C5)C=C4)cc2)cc(OC)c1O
REMARK SMILES IDX 12 1 11 2 10 3 8 4 9 5 7 7 6 8 5 9 3 10 4 11 69 12 66 13
REMARK SMILES IDX 65 14 2 15 1 16 70 17 67 19 68 20 13 21 14 22 15 23 16 25
REMARK SMILES IDX 17 26 18 27 64 28 19 29 63 30 20 31 21 32 22 33 57 34 23 35
REMARK SMILES IDX 62 36 56 37 58 38 24 39 61 40 55 41 54 42 25 44 47 45 32 46
REMARK SMILES IDX 46 47 33 48 36 49 45 50 59 51 34 52 35 53 44 55 60 56 37 57
REMARK SMILES IDX 26 58 27 59 31 60 28 61 30 62 29 63 48 64 49 65 53 66 50 67
REMARK SMILES IDX 52 68 51 69 38 70 39 71 43 72 40 73 42 74 41 75
REMARK H PARENT 10 6 70 18 14 24 58 43 36 54
REMARK Flexibility Score: inf
ROOT
ATOM      1  C   UNL A   1      37.190  19.698  24.980  1.00  0.00     0.042 C 
ENDROOT
BRANCH   1   2
ATOM      2  C   UNL A   1      36.011  20.657  24.829  1.00  0.00     0.118 C 
BRANCH   2   3
ATOM      3  N   UNL A   1      35.366  20.913  26.105  1.00  0.00    -0.352 N 
ATOM      4  C   UNL A   1      34.733  22.023  26.569  1.00  0.00     0.244 C 
ATOM      5  O   UNL A   1      34.153  21.982  27.652  1.00  0.00    -0.270 OA
ATOM      6  H   UNL A   1      35.392  20.160  26.738  1.00  0.00     0.163 HD
BRANCH   4   7
ATOM      7  C   UNL A   1      34.648  23.248  25.747  1.00  0.00     0.072 C 
ATOM      8  C   UNL A   1      33.913  24.326  26.064  1.00  0.00     0.014 C 
BRANCH   8   9
ATOM      9  C   UNL A   1      33.845  25.530  25.221  1.00  0.00    -0.018 A 
ATOM     10  C   UNL A   1      33.775  26.641  23.065  1.00  0.00     0.165 A 
ATOM     11  C   UNL A   1      33.800  25.469  23.824  1.00  0.00     0.058 A 
ATOM     12  C   UNL A   1      33.818  27.894  23.695  1.00  0.00     0.200 A 
ATOM     13  C   UNL A   1      33.793  27.976  25.091  1.00  0.00     0.165 A 
ATOM     14  C   UNL A   1      33.812  26.788  25.838  1.00  0.00     0.058 A 
BRANCH  10  15
ATOM     15  O   UNL A   1      33.825  26.481  21.703  1.00  0.00    -0.493 OA
ATOM     16  C   UNL A   1      32.663  25.869  21.138  1.00  0.00     0.278 C 
ENDBRANCH  10  15
BRANCH  12  17
ATOM     17  O   UNL A   1      33.966  29.016  22.925  1.00  0.00    -0.502 OA
ATOM     18  H   UNL A   1      34.668  29.070  22.307  1.00  0.00     0.293 HD
ENDBRANCH  12  17
BRANCH  13  19
ATOM     19  O   UNL A   1      33.816  29.100  25.872  1.00  0.00    -0.493 OA
ATOM     20  C   UNL A   1      32.633  29.885  25.942  1.00  0.00     0.278 C 
ENDBRANCH  13  19
ENDBRANCH   8   9
ENDBRANCH   4   7
ENDBRANCH   2   3
ENDBRANCH   1   2
BRANCH   1  21
ATOM     21  C   UNL A   1      38.496  20.383  25.376  1.00  0.00     0.118 C 
BRANCH  21  22
ATOM     22  N   UNL A   1      39.578  19.431  25.586  1.00  0.00    -0.352 N 
ATOM     23  C   UNL A   1      40.860  19.631  26.026  1.00  0.00     0.251 C 
ATOM     24  H   UNL A   1      39.352  18.494  25.380  1.00  0.00     0.163 HD
ATOM     25  O   UNL A   1      41.679  18.712  25.939  1.00  0.00    -0.269 OA
BRANCH  23  26
ATOM     26  C   UNL A   1      41.283  20.928  26.595  1.00  0.00     0.039 A 
ATOM     27  C   UNL A   1      41.829  21.892  25.739  1.00  0.00     0.014 A 
ATOM     28  C   UNL A   1      41.208  21.182  27.968  1.00  0.00     0.014 A 
ATOM     29  C   UNL A   1      42.253  23.121  26.250  1.00  0.00     0.010 A 
ATOM     30  C   UNL A   1      41.573  22.432  28.468  1.00  0.00     0.010 A 
ATOM     31  C   UNL A   1      42.107  23.410  27.615  1.00  0.00    -0.014 A 
BRANCH  31  32
ATOM     32  C   UNL A   1      42.515  24.726  28.169  1.00  0.00     0.031 A 
ATOM     33  C   UNL A   1      41.496  25.813  28.376  1.00  0.00     0.074 A 
ATOM     34  C   UNL A   1      43.814  24.963  28.434  1.00  0.00     0.049 A 
ATOM     35  N   UNL A   1      41.671  27.039  28.801  1.00  0.00    -0.248 NA
ATOM     36  C   UNL A   1      40.102  25.485  28.042  1.00  0.00     0.031 C 
ATOM     37  C   UNL A   1      44.907  24.006  28.249  1.00  0.00     0.029 A 
ATOM     38  N   UNL A   1      44.436  26.090  28.912  1.00  0.00    -0.354 N 
ATOM     39  C   UNL A   1      40.417  27.635  28.760  1.00  0.00     0.074 A 
ATOM     40  C   UNL A   1      39.497  26.649  28.235  1.00  0.00     0.031 C 
ATOM     41  C   UNL A   1      46.058  24.576  28.637  1.00  0.00     0.029 A 
ATOM     42  C   UNL A   1      45.794  25.947  29.061  1.00  0.00     0.049 A 
ATOM     43  H   UNL A   1      43.954  26.921  29.128  1.00  0.00     0.167 HD
ATOM     44  C   UNL A   1      40.058  28.885  29.139  1.00  0.00     0.031 A 
ATOM     45  C   UNL A   1      46.723  26.822  29.490  1.00  0.00     0.031 A 
ATOM     46  C   UNL A   1      40.965  29.862  29.678  1.00  0.00     0.049 A 
ATOM     47  C   UNL A   1      46.300  28.205  29.897  1.00  0.00     0.074 A 
ATOM     48  C   UNL A   1      40.685  31.133  30.151  1.00  0.00     0.029 A 
ATOM     49  N   UNL A   1      42.332  29.677  29.813  1.00  0.00    -0.354 N 
ATOM     50  N   UNL A   1      45.100  28.731  29.913  1.00  0.00    -0.248 NA
ATOM     51  C   UNL A   1      47.363  29.110  30.354  1.00  0.00     0.031 C 
ATOM     52  C   UNL A   1      41.891  31.733  30.533  1.00  0.00     0.029 A 
ATOM     53  C   UNL A   1      42.914  30.817  30.340  1.00  0.00     0.049 A 
ATOM     54  H   UNL A   1      42.819  28.856  29.569  1.00  0.00     0.167 HD
ATOM     55  C   UNL A   1      45.259  30.018  30.408  1.00  0.00     0.074 A 
ATOM     56  C   UNL A   1      46.669  30.189  30.690  1.00  0.00     0.031 C 
ATOM     57  C   UNL A   1      44.318  30.973  30.613  1.00  0.00     0.031 A 
BRANCH  44  58
ATOM     58  C   UNL A   1      38.614  29.269  28.968  1.00  0.00    -0.014 A 
ATOM     59  C   UNL A   1      38.123  29.737  27.738  1.00  0.00     0.009 A 
ATOM     60  C   UNL A   1      37.725  29.138  30.047  1.00  0.00     0.009 A 
ATOM     61  C   UNL A   1      36.783  30.105  27.605  1.00  0.00     0.001 A 
ATOM     62  C   UNL A   1      36.380  29.481  29.903  1.00  0.00     0.001 A 
ATOM     63  C   UNL A   1      35.912  29.976  28.686  1.00  0.00     0.000 A 
ENDBRANCH  44  58
BRANCH  45  64
ATOM     64  C   UNL A   1      48.145  26.408  29.582  1.00  0.00    -0.014 A 
ATOM     65  C   UNL A   1      48.631  25.807  30.753  1.00  0.00     0.009 A 
ATOM     66  C   UNL A   1      49.023  26.609  28.506  1.00  0.00     0.009 A 
ATOM     67  C   UNL A   1      49.973  25.436  30.854  1.00  0.00     0.001 A 
ATOM     68  C   UNL A   1      50.359  26.214  28.601  1.00  0.00     0.001 A 
ATOM     69  C   UNL A   1      50.835  25.635  29.776  1.00  0.00     0.000 A 
ENDBRANCH  45  64
BRANCH  57  70
ATOM     70  C   UNL A   1      44.784  32.274  31.201  1.00  0.00    -0.014 A 
ATOM     71  C   UNL A   1      44.847  32.464  32.590  1.00  0.00     0.009 A 
ATOM     72  C   UNL A   1      45.192  33.314  30.350  1.00  0.00     0.009 A 
ATOM     73  C   UNL A   1      45.280  33.683  33.115  1.00  0.00     0.001 A 
ATOM     74  C   UNL A   1      45.649  34.521  30.879  1.00  0.00     0.001 A 
ATOM     75  C   UNL A   1      45.684  34.708  32.260  1.00  0.00     0.000 A 
ENDBRANCH  57  70
ENDBRANCH  31  32
ENDBRANCH  23  26
ENDBRANCH  21  22
ENDBRANCH   1  21
TORSDOF 14
ENDMDL
MODEL 2
REMARK VINA RESULT:     -10.4      3.279      8.760
REMARK SMILES COc1cc(/C=C/C(=O)NCCCNC(=O)c2ccc(-c3c4nc(c(-c5ccccc5)c5ccc([nH]5)c(-c5ccccc5)c5nc(c(-c6ccccc6)c6ccc3[nH]6)C=C5)C=C4)cc2)cc(OC)c1O
REMARK SMILES IDX 12 1 11 2 10 3 8 4 9 5 7 7 6 8 5 9 3 10 4 11 69 12 66 13
REMARK SMILES IDX 65 14 2 15 1 16 70 17 67 19 68 20 13 21 14 22 15 23 16 25
REMARK SMILES IDX 17 26 18 27 64 28 19 29 63 30 20 31 21 32 22 33 57 34 23 35
REMARK SMILES IDX 62 36 56 37 58 38 24 39 61 40 55 41 54 42 25 44 47 45 32 46
REMARK SMILES IDX 46 47 33 48 36 49 45 50 59 51 34 52 35 53 44 55 60 56 37 57
REMARK SMILES IDX 26 58 27 59 31 60 28 61 30 62 29 63 48 64 49 65 53 66 50 67
REMARK SMILES IDX 52 68 51 69 38 70 39 71 43 72 40 73 42 74 41 75
REMARK H PARENT 10 6 70 18 14 24 58 43 36 54
REMARK Flexibility Score: inf
ROOT
ATOM      1  C   UNL A   1      31.270  31.138  25.873  1.00  0.00     0.042 C 
ENDROOT
BRANCH   1   2
ATOM      2  C   UNL A   1      31.495  29.726  25.337  1.00  0.00     0.118 C 
BRANCH   2   3
ATOM      3  N   UNL A   1      32.476  29.712  24.266  1.00  0.00    -0.352 N 
ATOM      4  C   UNL A   1      33.432  28.798  23.954  1.00  0.00     0.244 C 
ATOM      5  O   UNL A   1      34.089  28.935  22.924  1.00  0.00    -0.270 OA
ATOM      6  H   UNL A   1      32.445  30.494  23.669  1.00  0.00     0.163 HD
BRANCH   4   7
ATOM      7  C   UNL A   1      33.626  27.590  24.782  1.00  0.00     0.072 C 
ATOM      8  C   UNL A   1      33.485  26.332  24.337  1.00  0.00     0.014 C 
BRANCH   8   9
ATOM      9  C   UNL A   1      33.681  25.149  25.190  1.00  0.00    -0.018 A 
ATOM     10  C   UNL A   1      32.892  23.490  26.776  1.00  0.00     0.165 A 
ATOM     11  C   UNL A   1      32.649  24.592  25.952  1.00  0.00     0.058 A 
ATOM     12  C   UNL A   1      34.182  22.945  26.866  1.00  0.00     0.200 A 
ATOM     13  C   UNL A   1      35.210  23.444  26.060  1.00  0.00     0.165 A 
ATOM     14  C   UNL A   1      34.946  24.547  25.232  1.00  0.00     0.058 A 
BRANCH  10  15
ATOM     15  O   UNL A   1      31.842  23.074  27.554  1.00  0.00    -0.493 OA
ATOM     16  C   UNL A   1      30.590  23.007  26.868  1.00  0.00     0.278 C 
ENDBRANCH  10  15
BRANCH  12  17
ATOM     17  O   UNL A   1      34.428  21.982  27.807  1.00  0.00    -0.502 OA
ATOM     18  H   UNL A   1      34.253  22.155  28.711  1.00  0.00     0.293 HD
ENDBRANCH  12  17
BRANCH  13  19
ATOM     19  O   UNL A   1      36.515  23.033  26.003  1.00  0.00    -0.493 OA
ATOM     20  C   UNL A   1      37.123  22.928  24.722  1.00  0.00     0.278 C 
ENDBRANCH  13  19
ENDBRANCH   8   9
ENDBRANCH   4   7
ENDBRANCH   2   3
ENDBRANCH   1   2
BRANCH   1  21
ATOM     21  C   UNL A   1      32.291  31.571  26.923  1.00  0.00     0.118 C 
BRANCH  21  22
ATOM     22  N   UNL A   1      32.165  32.980  27.270  1.00  0.00    -0.352 N 
ATOM     23  C   UNL A   1      32.958  33.771  28.059  1.00  0.00     0.251 C 
ATOM     24  H   UNL A   1      31.388  33.436  26.874  1.00  0.00     0.163 HD
ATOM     25  O   UNL A   1      32.559  34.891  28.385  1.00  0.00    -0.269 OA
BRANCH  23  26
ATOM     26  C   UNL A   1      34.279  33.305  28.533  1.00  0.00     0.039 A 
ATOM     27  C   UNL A   1      34.344  32.554  29.712  1.00  0.00     0.014 A 
ATOM     28  C   UNL A   1      35.458  33.652  27.865  1.00  0.00     0.014 A 
ATOM     29  C   UNL A   1      35.579  32.113  30.194  1.00  0.00     0.010 A 
ATOM     30  C   UNL A   1      36.683  33.160  28.312  1.00  0.00     0.010 A 
ATOM     31  C   UNL A   1      36.757  32.394  29.485  1.00  0.00    -0.014 A 
BRANCH  31  32
ATOM     32  C   UNL A   1      38.074  31.899  29.960  1.00  0.00     0.031 A 
ATOM     33  C   UNL A   1      38.627  30.598  29.450  1.00  0.00     0.074 A 
ATOM     34  C   UNL A   1      38.749  32.596  30.896  1.00  0.00     0.049 A 
ATOM     35  N   UNL A   1      39.734  29.982  29.784  1.00  0.00    -0.248 NA
ATOM     36  C   UNL A   1      37.822  29.884  28.447  1.00  0.00     0.031 C 
ATOM     37  C   UNL A   1      38.309  33.857  31.497  1.00  0.00     0.029 A 
ATOM     38  N   UNL A   1      39.949  32.335  31.510  1.00  0.00    -0.354 N 
ATOM     39  C   UNL A   1      39.744  28.800  29.054  1.00  0.00     0.074 A 
ATOM     40  C   UNL A   1      38.517  28.767  28.287  1.00  0.00     0.031 C 
ATOM     41  C   UNL A   1      39.239  34.274  32.370  1.00  0.00     0.029 A 
ATOM     42  C   UNL A   1      40.320  33.295  32.419  1.00  0.00     0.049 A 
ATOM     43  H   UNL A   1      40.491  31.536  31.316  1.00  0.00     0.167 HD
ATOM     44  C   UNL A   1      40.694  27.835  29.014  1.00  0.00     0.031 A 
ATOM     45  C   UNL A   1      41.409  33.377  33.206  1.00  0.00     0.031 A 
ATOM     46  C   UNL A   1      41.922  27.873  29.761  1.00  0.00     0.049 A 
ATOM     47  C   UNL A   1      42.445  32.290  33.148  1.00  0.00     0.074 A 
ATOM     48  C   UNL A   1      42.976  26.976  29.737  1.00  0.00     0.029 A 
ATOM     49  N   UNL A   1      42.261  28.863  30.670  1.00  0.00    -0.354 N 
ATOM     50  N   UNL A   1      42.470  31.212  32.404  1.00  0.00    -0.248 NA
ATOM     51  C   UNL A   1      43.608  32.441  34.033  1.00  0.00     0.031 C 
ATOM     52  C   UNL A   1      43.934  27.401  30.665  1.00  0.00     0.029 A 
ATOM     53  C   UNL A   1      43.496  28.587  31.231  1.00  0.00     0.049 A 
ATOM     54  H   UNL A   1      41.704  29.647  30.886  1.00  0.00     0.167 HD
ATOM     55  C   UNL A   1      43.661  30.569  32.711  1.00  0.00     0.074 A 
ATOM     56  C   UNL A   1      44.337  31.384  33.699  1.00  0.00     0.031 C 
ATOM     57  C   UNL A   1      44.154  29.407  32.215  1.00  0.00     0.031 A 
BRANCH  44  58
ATOM     58  C   UNL A   1      40.429  26.645  28.135  1.00  0.00    -0.014 A 
ATOM     59  C   UNL A   1      39.676  25.551  28.593  1.00  0.00     0.009 A 
ATOM     60  C   UNL A   1      40.921  26.625  26.819  1.00  0.00     0.009 A 
ATOM     61  C   UNL A   1      39.456  24.448  27.767  1.00  0.00     0.001 A 
ATOM     62  C   UNL A   1      40.676  25.532  25.987  1.00  0.00     0.001 A 
ATOM     63  C   UNL A   1      39.954  24.439  26.464  1.00  0.00     0.000 A 
ENDBRANCH  44  58
BRANCH  45  64
ATOM     64  C   UNL A   1      41.591  34.547  34.101  1.00  0.00    -0.014 A 
ATOM     65  C   UNL A   1      41.083  34.522  35.409  1.00  0.00     0.009 A 
ATOM     66  C   UNL A   1      42.272  35.691  33.658  1.00  0.00     0.009 A 
ATOM     67  C   UNL A   1      41.231  35.629  36.246  1.00  0.00     0.001 A 
ATOM     68  C   UNL A   1      42.441  36.787  34.507  1.00  0.00     0.001 A 
ATOM     69  C   UNL A   1      41.914  36.758  35.797  1.00  0.00     0.000 A 
ENDBRANCH  45  64
BRANCH  57  70
ATOM     70  C   UNL A   1      45.502  28.970  32.710  1.00  0.00    -0.014 A 
ATOM     71  C   UNL A   1      46.681  29.388  32.075  1.00  0.00     0.009 A 
ATOM     72  C   UNL A   1      45.592  28.152  33.848  1.00  0.00     0.009 A 
ATOM     73  C   UNL A   1      47.925  28.968  32.550  1.00  0.00     0.001 A 
ATOM     74  C   UNL A   1      46.837  27.756  34.336  1.00  0.00     0.001 A 
ATOM     75  C   UNL A   1      48.001  28.156  33.683  1.00  0.00     0.000 A 
ENDBRANCH  57  70
ENDBRANCH  31  32
ENDBRANCH  23  26
ENDBRANCH  21  22
ENDBRANCH   1  21
TORSDOF 14
ENDMDL
MODEL 3
REMARK VINA RESULT:     -10.3      1.764      2.800
REMARK SMILES COc1cc(/C=C/C(=O)NCCCNC(=O)c2ccc(-c3c4nc(c(-c5ccccc5)c5ccc([nH]5)c(-c5ccccc5)c5nc(c(-c6ccccc6)c6ccc3[nH]6)C=C5)C=C4)cc2)cc(OC)c1O
REMARK SMILES IDX 12 1 11 2 10 3 8 4 9 5 7 7 6 8 5 9 3 10 4 11 69 12 66 13
REMARK SMILES IDX 65 14 2 15 1 16 70 17 67 19 68 20 13 21 14 22 15 23 16 25
REMARK SMILES IDX 17 26 18 27 64 28 19 29 63 30 20 31 21 32 22 33 57 34 23 35
REMARK SMILES IDX 62 36 56 37 58 38 24 39 61 40 55 41 54 42 25 44 47 45 32 46
REMARK SMILES IDX 46 47 33 48 36 49 45 50 59 51 34 52 35 53 44 55 60 56 37 57
REMARK SMILES IDX 26 58 27 59 31 60 28 61 30 62 29 63 48 64 49 65 53 66 50 67
REMARK SMILES IDX 52 68 51 69 38 70 39 71 43 72 40 73 42 74 41 75
REMARK H PARENT 10 6 70 18 14 24 58 43 36 54
REMARK Flexibility Score: inf
ROOT
ATOM      1  C   UNL A   1      38.252  19.719  24.862  1.00  0.00     0.042 C 
ENDROOT
BRANCH   1   2
ATOM      2  C   UNL A   1      37.392  20.932  24.513  1.00  0.00     0.118 C 
BRANCH   2   3
ATOM      3  N   UNL A   1      37.991  22.166  24.994  1.00  0.00    -0.352 N 
ATOM      4  C   UNL A   1      37.426  23.249  25.591  1.00  0.00     0.244 C 
ATOM      5  O   UNL A   1      38.146  24.147  26.024  1.00  0.00    -0.270 OA
ATOM      6  H   UNL A   1      38.964  22.228  24.866  1.00  0.00     0.163 HD
BRANCH   4   7
ATOM      7  C   UNL A   1      35.967  23.318  25.813  1.00  0.00     0.072 C 
ATOM      8  C   UNL A   1      35.219  24.414  25.610  1.00  0.00     0.014 C 
BRANCH   8   9
ATOM      9  C   UNL A   1      33.767  24.452  25.847  1.00  0.00    -0.018 A 
ATOM     10  C   UNL A   1      31.721  25.602  26.463  1.00  0.00     0.165 A 
ATOM     11  C   UNL A   1      33.095  25.623  26.213  1.00  0.00     0.058 A 
ATOM     12  C   UNL A   1      31.003  24.400  26.373  1.00  0.00     0.200 A 
ATOM     13  C   UNL A   1      31.643  23.234  25.941  1.00  0.00     0.165 A 
ATOM     14  C   UNL A   1      33.024  23.275  25.687  1.00  0.00     0.058 A 
BRANCH  10  15
ATOM     15  O   UNL A   1      31.170  26.778  26.906  1.00  0.00    -0.493 OA
ATOM     16  C   UNL A   1      32.078  27.880  26.939  1.00  0.00     0.278 C 
ENDBRANCH  10  15
BRANCH  12  17
ATOM     17  O   UNL A   1      29.700  24.375  26.791  1.00  0.00    -0.502 OA
ATOM     18  H   UNL A   1      29.467  24.745  27.620  1.00  0.00     0.293 HD
ENDBRANCH  12  17
BRANCH  13  19
ATOM     19  O   UNL A   1      31.107  21.984  25.782  1.00  0.00    -0.493 OA
ATOM     20  C   UNL A   1      31.899  21.001  25.128  1.00  0.00     0.278 C 
ENDBRANCH  13  19
ENDBRANCH   8   9
ENDBRANCH   4   7
ENDBRANCH   2   3
ENDBRANCH   1   2
BRANCH   1  21
ATOM     21  C   UNL A   1      39.182  19.943  26.053  1.00  0.00     0.118 C 
BRANCH  21  22
ATOM     22  N   UNL A   1      40.404  19.156  25.957  1.00  0.00    -0.352 N 
ATOM     23  C   UNL A   1      41.714  19.544  26.042  1.00  0.00     0.251 C 
ATOM     24  H   UNL A   1      40.265  18.193  25.809  1.00  0.00     0.163 HD
ATOM     25  O   UNL A   1      42.602  18.746  25.731  1.00  0.00    -0.269 OA
BRANCH  23  26
ATOM     26  C   UNL A   1      42.086  20.903  26.492  1.00  0.00     0.039 A 
ATOM     27  C   UNL A   1      42.108  21.174  27.865  1.00  0.00     0.014 A 
ATOM     28  C   UNL A   1      42.352  21.927  25.578  1.00  0.00     0.014 A 
ATOM     29  C   UNL A   1      42.440  22.452  28.321  1.00  0.00     0.010 A 
ATOM     30  C   UNL A   1      42.744  23.185  26.035  1.00  0.00     0.010 A 
ATOM     31  C   UNL A   1      42.783  23.462  27.409  1.00  0.00    -0.014 A 
BRANCH  31  32
ATOM     32  C   UNL A   1      43.178  24.816  27.877  1.00  0.00     0.031 A 
ATOM     33  C   UNL A   1      42.129  25.846  28.193  1.00  0.00     0.074 A 
ATOM     34  C   UNL A   1      44.483  25.136  27.964  1.00  0.00     0.049 A 
ATOM     35  N   UNL A   1      42.282  27.093  28.566  1.00  0.00    -0.248 NA
ATOM     36  C   UNL A   1      40.726  25.429  28.052  1.00  0.00     0.031 C 
ATOM     37  C   UNL A   1      45.600  24.239  27.656  1.00  0.00     0.029 A 
ATOM     38  N   UNL A   1      45.091  26.310  28.333  1.00  0.00    -0.354 N 
ATOM     39  C   UNL A   1      40.999  27.613  28.679  1.00  0.00     0.074 A 
ATOM     40  C   UNL A   1      40.081  26.559  28.299  1.00  0.00     0.031 C 
ATOM     41  C   UNL A   1      46.754  24.886  27.878  1.00  0.00     0.029 A 
ATOM     42  C   UNL A   1      46.463  26.251  28.305  1.00  0.00     0.049 A 
ATOM     43  H   UNL A   1      44.591  27.117  28.592  1.00  0.00     0.167 HD
ATOM     44  C   UNL A   1      40.615  28.850  29.075  1.00  0.00     0.031 A 
ATOM     45  C   UNL A   1      47.384  27.191  28.589  1.00  0.00     0.031 A 
ATOM     46  C   UNL A   1      41.524  29.894  29.469  1.00  0.00     0.049 A 
ATOM     47  C   UNL A   1      46.933  28.557  29.019  1.00  0.00     0.074 A 
ATOM     48  C   UNL A   1      41.230  31.159  29.949  1.00  0.00     0.029 A 
ATOM     49  N   UNL A   1      42.906  29.793  29.427  1.00  0.00    -0.354 N 
ATOM     50  N   UNL A   1      45.716  29.013  29.183  1.00  0.00    -0.248 NA
ATOM     51  C   UNL A   1      47.989  29.536  29.314  1.00  0.00     0.031 C 
ATOM     52  C   UNL A   1      42.436  31.839  30.156  1.00  0.00     0.029 A 
ATOM     53  C   UNL A   1      43.479  30.980  29.850  1.00  0.00     0.049 A 
ATOM     54  H   UNL A   1      43.406  28.994  29.139  1.00  0.00     0.167 HD
ATOM     55  C   UNL A   1      45.858  30.321  29.625  1.00  0.00     0.074 A 
ATOM     56  C   UNL A   1      47.280  30.582  29.716  1.00  0.00     0.031 C 
ATOM     57  C   UNL A   1      44.895  31.225  29.932  1.00  0.00     0.031 A 
BRANCH  44  58
ATOM     58  C   UNL A   1      39.141  29.144  29.087  1.00  0.00    -0.014 A 
ATOM     59  C   UNL A   1      38.358  28.903  30.228  1.00  0.00     0.009 A 
ATOM     60  C   UNL A   1      38.529  29.691  27.948  1.00  0.00     0.009 A 
ATOM     61  C   UNL A   1      36.987  29.165  30.214  1.00  0.00     0.001 A 
ATOM     62  C   UNL A   1      37.163  29.978  27.946  1.00  0.00     0.001 A 
ATOM     63  C   UNL A   1      36.391  29.704  29.074  1.00  0.00     0.000 A 
ENDBRANCH  44  58
BRANCH  45  64
ATOM     64  C   UNL A   1      48.829  26.864  28.502  1.00  0.00    -0.014 A 
ATOM     65  C   UNL A   1      49.522  27.040  27.294  1.00  0.00     0.009 A 
ATOM     66  C   UNL A   1      49.524  26.377  29.619  1.00  0.00     0.009 A 
ATOM     67  C   UNL A   1      50.875  26.712  27.201  1.00  0.00     0.001 A 
ATOM     68  C   UNL A   1      50.884  26.074  29.529  1.00  0.00     0.001 A 
ATOM     69  C   UNL A   1      51.557  26.234  28.319  1.00  0.00     0.000 A 
ENDBRANCH  45  64
BRANCH  57  70
ATOM     70  C   UNL A   1      45.352  32.567  30.426  1.00  0.00    -0.014 A 
ATOM     71  C   UNL A   1      45.589  33.627  29.537  1.00  0.00     0.009 A 
ATOM     72  C   UNL A   1      45.519  32.780  31.803  1.00  0.00     0.009 A 
ATOM     73  C   UNL A   1      46.017  34.867  30.018  1.00  0.00     0.001 A 
ATOM     74  C   UNL A   1      45.921  34.028  32.282  1.00  0.00     0.001 A 
ATOM     75  C   UNL A   1      46.177  35.066  31.389  1.00  0.00     0.000 A 
ENDBRANCH  57  70
ENDBRANCH  31  32
ENDBRANCH  23  26
ENDBRANCH  21  22
ENDBRANCH   1  21
TORSDOF 14
ENDMDL
