MODEL 1
REMARK VINA RESULT:     -10.4      0.000      0.000
REMARK SMILES CC(C)(C)OC(=O)[C@H]1CC[C@]1([NH3+])C(=O)NCCCNC(=O)c1ccc(-c2c3nc(c(-c4ccccc4)c4ccc([nH]4)c(-c4ccccc4)c4nc(c(-c5ccccc5)c5ccc2[nH]5)C=C4)C=C3)cc1
REMARK SMILES IDX 16 1 15 2 13 3 14 4 11 6 8 7 9 8 10 9 6 10 7 11 5 12 2 13
REMARK SMILES IDX 1 14 3 15 4 16 12 17 17 21 18 22 19 23 20 24 21 26 22 27
REMARK SMILES IDX 23 28 69 29 24 30 68 31 25 32 26 33 27 34 62 35 28 36 67 37
REMARK SMILES IDX 61 38 63 39 29 40 66 41 60 42 59 43 30 45 52 46 37 47 51 48
REMARK SMILES IDX 38 49 41 50 50 51 64 52 39 53 40 54 49 56 65 57 42 58 31 59
REMARK SMILES IDX 32 60 36 61 33 62 35 63 34 64 53 65 54 66 58 67 55 68 57 69
REMARK SMILES IDX 56 70 43 71 44 72 48 73 45 74 47 75 46 76
REMARK H PARENT 15 5 12 18 12 19 12 20 19 25 63 44 41 55
REMARK Flexibility Score: inf
ROOT
ATOM      1  C   UNL A   1      36.803  20.465  24.805  1.00  0.00     0.118 C 
ENDROOT
BRANCH   1   2
ATOM      2  N   UNL A   1      37.068  21.837  25.195  1.00  0.00    -0.351 N 
ATOM      3  C   UNL A   1      36.233  22.743  25.810  1.00  0.00     0.282 C 
ATOM      4  O   UNL A   1      36.713  23.859  26.046  1.00  0.00    -0.268 OA
ATOM      5  H   UNL A   1      37.973  22.167  24.991  1.00  0.00     0.163 HD
BRANCH   3   6
ATOM      6  C   UNL A   1      34.752  22.314  26.164  1.00  0.00     0.187 C 
ATOM      7  C   UNL A   1      33.882  21.766  24.993  1.00  0.00     0.170 C 
ATOM      8  C   UNL A   1      33.277  23.192  24.872  1.00  0.00     0.029 C 
ATOM      9  C   UNL A   1      33.699  23.450  26.327  1.00  0.00     0.081 C 
BRANCH   7  10
ATOM     10  C   UNL A   1      32.892  20.604  25.234  1.00  0.00     0.316 C 
ATOM     11  O   UNL A   1      31.669  20.722  25.286  1.00  0.00    -0.252 OA
BRANCH  10  12
ATOM     12  O   UNL A   1      33.550  19.413  25.360  1.00  0.00    -0.460 OA
BRANCH  12  13
ATOM     13  C   UNL A   1      33.212  18.280  24.518  1.00  0.00     0.104 C 
ATOM     14  C   UNL A   1      34.563  17.634  24.170  1.00  0.00     0.056 C 
ATOM     15  C   UNL A   1      32.544  18.747  23.220  1.00  0.00     0.056 C 
ATOM     16  C   UNL A   1      32.361  17.247  25.265  1.00  0.00     0.056 C 
ENDBRANCH  12  13
ENDBRANCH  10  12
ENDBRANCH   7  10
BRANCH   6  17
ATOM     17  N   UNL A   1      34.647  21.466  27.373  1.00  0.00    -0.344 N 
ATOM     18  H   UNL A   1      33.810  21.722  27.896  1.00  0.00     0.345 HD
ATOM     19  H   UNL A   1      35.470  21.605  27.959  1.00  0.00     0.345 HD
ATOM     20  H   UNL A   1      34.588  20.485  27.097  1.00  0.00     0.345 HD
ENDBRANCH   6  17
ENDBRANCH   3   6
ENDBRANCH   1   2
BRANCH   1  21
ATOM     21  C   UNL A   1      38.067  19.613  24.773  1.00  0.00     0.042 C 
BRANCH  21  22
ATOM     22  C   UNL A   1      39.138  20.018  25.780  1.00  0.00     0.118 C 
BRANCH  22  23
ATOM     23  N   UNL A   1      40.203  19.033  25.914  1.00  0.00    -0.352 N 
ATOM     24  C   UNL A   1      41.538  19.193  26.191  1.00  0.00     0.251 C 
ATOM     25  H   UNL A   1      39.918  18.100  25.786  1.00  0.00     0.163 HD
ATOM     26  O   UNL A   1      42.288  18.221  26.120  1.00  0.00    -0.269 OA
BRANCH  24  27
ATOM     27  C   UNL A   1      42.094  20.517  26.546  1.00  0.00     0.039 A 
ATOM     28  C   UNL A   1      42.520  21.359  25.513  1.00  0.00     0.014 A 
ATOM     29  C   UNL A   1      42.225  20.928  27.875  1.00  0.00     0.014 A 
ATOM     30  C   UNL A   1      43.010  22.634  25.811  1.00  0.00     0.010 A 
ATOM     31  C   UNL A   1      42.638  22.227  28.165  1.00  0.00     0.010 A 
ATOM     32  C   UNL A   1      43.035  23.094  27.137  1.00  0.00    -0.014 A 
BRANCH  32  33
ATOM     33  C   UNL A   1      43.461  24.480  27.455  1.00  0.00     0.031 A 
ATOM     34  C   UNL A   1      42.454  25.523  27.851  1.00  0.00     0.074 A 
ATOM     35  C   UNL A   1      44.762  24.814  27.340  1.00  0.00     0.049 A 
ATOM     36  N   UNL A   1      42.647  26.783  28.154  1.00  0.00    -0.248 NA
ATOM     37  C   UNL A   1      41.044  25.104  27.889  1.00  0.00     0.031 C 
ATOM     38  C   UNL A   1      45.835  23.912  26.919  1.00  0.00     0.029 A 
ATOM     39  N   UNL A   1      45.401  26.006  27.569  1.00  0.00    -0.354 N 
ATOM     40  C   UNL A   1      41.385  27.309  28.402  1.00  0.00     0.074 A 
ATOM     41  C   UNL A   1      40.431  26.247  28.165  1.00  0.00     0.031 C 
ATOM     42  C   UNL A   1      47.004  24.570  26.959  1.00  0.00     0.029 A 
ATOM     43  C   UNL A   1      46.760  25.948  27.372  1.00  0.00     0.049 A 
ATOM     44  H   UNL A   1      44.931  26.825  27.849  1.00  0.00     0.167 HD
ATOM     45  C   UNL A   1      41.048  28.556  28.810  1.00  0.00     0.031 A 
ATOM     46  C   UNL A   1      47.705  26.896  27.513  1.00  0.00     0.031 A 
ATOM     47  C   UNL A   1      41.993  29.614  29.054  1.00  0.00     0.049 A 
ATOM     48  C   UNL A   1      47.308  28.272  27.964  1.00  0.00     0.074 A 
ATOM     49  C   UNL A   1      41.754  30.893  29.526  1.00  0.00     0.029 A 
ATOM     50  N   UNL A   1      43.359  29.515  28.839  1.00  0.00    -0.354 N 
ATOM     51  N   UNL A   1      46.118  28.732  28.264  1.00  0.00    -0.248 NA
ATOM     52  C   UNL A   1      48.390  29.255  28.107  1.00  0.00     0.031 C 
ATOM     53  C   UNL A   1      42.973  31.583  29.552  1.00  0.00     0.029 A 
ATOM     54  C   UNL A   1      43.974  30.717  29.145  1.00  0.00     0.049 A 
ATOM     55  H   UNL A   1      43.823  28.709  28.517  1.00  0.00     0.167 HD
ATOM     56  C   UNL A   1      46.310  30.051  28.651  1.00  0.00     0.074 A 
ATOM     57  C   UNL A   1      47.733  30.310  28.568  1.00  0.00     0.031 C 
ATOM     58  C   UNL A   1      45.389  30.966  29.043  1.00  0.00     0.031 A 
BRANCH  45  59
ATOM     59  C   UNL A   1      39.584  28.841  29.012  1.00  0.00    -0.014 A 
ATOM     60  C   UNL A   1      38.788  29.332  27.965  1.00  0.00     0.009 A 
ATOM     61  C   UNL A   1      38.991  28.601  30.261  1.00  0.00     0.009 A 
ATOM     62  C   UNL A   1      37.438  29.617  28.176  1.00  0.00     0.001 A 
ATOM     63  C   UNL A   1      37.633  28.860  30.462  1.00  0.00     0.001 A 
ATOM     64  C   UNL A   1      36.861  29.379  29.423  1.00  0.00     0.000 A 
ENDBRANCH  45  59
BRANCH  46  65
ATOM     65  C   UNL A   1      49.129  26.563  27.256  1.00  0.00    -0.014 A 
ATOM     66  C   UNL A   1      49.952  26.116  28.301  1.00  0.00     0.009 A 
ATOM     67  C   UNL A   1      49.673  26.683  25.968  1.00  0.00     0.009 A 
ATOM     68  C   UNL A   1      51.294  25.815  28.066  1.00  0.00     0.001 A 
ATOM     69  C   UNL A   1      51.009  26.356  25.731  1.00  0.00     0.001 A 
ATOM     70  C   UNL A   1      51.821  25.930  26.781  1.00  0.00     0.000 A 
ENDBRANCH  46  65
BRANCH  58  71
ATOM     71  C   UNL A   1      45.901  32.325  29.428  1.00  0.00    -0.014 A 
ATOM     72  C   UNL A   1      45.992  33.362  28.486  1.00  0.00     0.009 A 
ATOM     73  C   UNL A   1      46.282  32.575  30.755  1.00  0.00     0.009 A 
ATOM     74  C   UNL A   1      46.492  34.612  28.858  1.00  0.00     0.001 A 
ATOM     75  C   UNL A   1      46.754  33.834  31.130  1.00  0.00     0.001 A 
ATOM     76  C   UNL A   1      46.869  34.847  30.180  1.00  0.00     0.000 A 
ENDBRANCH  58  71
ENDBRANCH  32  33
ENDBRANCH  24  27
ENDBRANCH  22  23
ENDBRANCH  21  22
ENDBRANCH   1  21
TORSDOF 14
ENDMDL
MODEL 2
REMARK VINA RESULT:     -10.4      1.237      6.253
REMARK SMILES CC(C)(C)OC(=O)[C@H]1CC[C@]1([NH3+])C(=O)NCCCNC(=O)c1ccc(-c2c3nc(c(-c4ccccc4)c4ccc([nH]4)c(-c4ccccc4)c4nc(c(-c5ccccc5)c5ccc2[nH]5)C=C4)C=C3)cc1
REMARK SMILES IDX 16 1 15 2 13 3 14 4 11 6 8 7 9 8 10 9 6 10 7 11 5 12 2 13
REMARK SMILES IDX 1 14 3 15 4 16 12 17 17 21 18 22 19 23 20 24 21 26 22 27
REMARK SMILES IDX 23 28 69 29 24 30 68 31 25 32 26 33 27 34 62 35 28 36 67 37
REMARK SMILES IDX 61 38 63 39 29 40 66 41 60 42 59 43 30 45 52 46 37 47 51 48
REMARK SMILES IDX 38 49 41 50 50 51 64 52 39 53 40 54 49 56 65 57 42 58 31 59
REMARK SMILES IDX 32 60 36 61 33 62 35 63 34 64 53 65 54 66 58 67 55 68 57 69
REMARK SMILES IDX 56 70 43 71 44 72 48 73 45 74 47 75 46 76
REMARK H PARENT 15 5 12 18 12 19 12 20 19 25 63 44 41 55
REMARK Flexibility Score: inf
ROOT
ATOM      1  C   UNL A   1      36.690  20.454  24.944  1.00  0.00     0.118 C 
ENDROOT
BRANCH   1   2
ATOM      2  N   UNL A   1      36.946  21.839  25.295  1.00  0.00    -0.351 N 
ATOM      3  C   UNL A   1      36.104  22.759  25.877  1.00  0.00     0.282 C 
ATOM      4  O   UNL A   1      36.577  23.883  26.083  1.00  0.00    -0.268 OA
ATOM      5  H   UNL A   1      37.851  22.167  25.086  1.00  0.00     0.163 HD
BRANCH   3   6
ATOM      6  C   UNL A   1      34.622  22.334  26.234  1.00  0.00     0.187 C 
ATOM      7  C   UNL A   1      33.747  21.792  25.065  1.00  0.00     0.170 C 
ATOM      8  C   UNL A   1      33.146  23.220  24.950  1.00  0.00     0.029 C 
ATOM      9  C   UNL A   1      33.573  23.473  26.404  1.00  0.00     0.081 C 
BRANCH   7  10
ATOM     10  C   UNL A   1      32.753  20.633  25.306  1.00  0.00     0.316 C 
ATOM     11  O   UNL A   1      31.531  20.754  25.358  1.00  0.00    -0.252 OA
BRANCH  10  12
ATOM     12  O   UNL A   1      33.408  19.440  25.432  1.00  0.00    -0.460 OA
BRANCH  12  13
ATOM     13  C   UNL A   1      33.128  18.336  24.532  1.00  0.00     0.104 C 
ATOM     14  C   UNL A   1      34.505  17.729  24.219  1.00  0.00     0.056 C 
ATOM     15  C   UNL A   1      32.507  18.843  23.226  1.00  0.00     0.056 C 
ATOM     16  C   UNL A   1      32.267  17.259  25.200  1.00  0.00     0.056 C 
ENDBRANCH  12  13
ENDBRANCH  10  12
ENDBRANCH   7  10
BRANCH   6  17
ATOM     17  N   UNL A   1      34.518  21.483  27.442  1.00  0.00    -0.344 N 
ATOM     18  H   UNL A   1      33.612  21.631  27.886  1.00  0.00     0.345 HD
ATOM     19  H   UNL A   1      35.261  21.728  28.096  1.00  0.00     0.345 HD
ATOM     20  H   UNL A   1      34.609  20.502  27.175  1.00  0.00     0.345 HD
ENDBRANCH   6  17
ENDBRANCH   3   6
ENDBRANCH   1   2
BRANCH   1  21
ATOM     21  C   UNL A   1      37.962  19.615  24.913  1.00  0.00     0.042 C 
BRANCH  21  22
ATOM     22  C   UNL A   1      39.128  20.190  25.708  1.00  0.00     0.118 C 
BRANCH  22  23
ATOM     23  N   UNL A   1      40.295  19.317  25.733  1.00  0.00    -0.352 N 
ATOM     24  C   UNL A   1      41.599  19.579  26.067  1.00  0.00     0.251 C 
ATOM     25  H   UNL A   1      40.116  18.387  25.465  1.00  0.00     0.163 HD
ATOM     26  O   UNL A   1      42.454  18.714  25.881  1.00  0.00    -0.269 OA
BRANCH  24  27
ATOM     27  C   UNL A   1      42.000  20.891  26.622  1.00  0.00     0.039 A 
ATOM     28  C   UNL A   1      42.436  21.883  25.738  1.00  0.00     0.014 A 
ATOM     29  C   UNL A   1      41.977  21.147  27.995  1.00  0.00     0.014 A 
ATOM     30  C   UNL A   1      42.782  23.147  26.223  1.00  0.00     0.010 A 
ATOM     31  C   UNL A   1      42.243  22.430  28.469  1.00  0.00     0.010 A 
ATOM     32  C   UNL A   1      42.649  23.444  27.589  1.00  0.00    -0.014 A 
BRANCH  32  33
ATOM     33  C   UNL A   1      42.919  24.811  28.102  1.00  0.00     0.031 A 
ATOM     34  C   UNL A   1      44.314  25.233  28.467  1.00  0.00     0.074 A 
ATOM     35  C   UNL A   1      41.891  25.662  28.285  1.00  0.00     0.049 A 
ATOM     36  N   UNL A   1      44.731  26.383  28.938  1.00  0.00    -0.248 NA
ATOM     37  C   UNL A   1      45.377  24.229  28.307  1.00  0.00     0.031 C 
ATOM     38  C   UNL A   1      40.483  25.363  28.016  1.00  0.00     0.029 A 
ATOM     39  N   UNL A   1      41.874  26.957  28.741  1.00  0.00    -0.354 N 
ATOM     40  C   UNL A   1      46.097  26.234  29.144  1.00  0.00     0.074 A 
ATOM     41  C   UNL A   1      46.429  24.869  28.795  1.00  0.00     0.031 C 
ATOM     42  C   UNL A   1      39.744  26.455  28.272  1.00  0.00     0.029 A 
ATOM     43  C   UNL A   1      40.619  27.517  28.758  1.00  0.00     0.049 A 
ATOM     44  H   UNL A   1      42.683  27.438  29.028  1.00  0.00     0.167 HD
ATOM     45  C   UNL A   1      46.999  27.152  29.565  1.00  0.00     0.031 A 
ATOM     46  C   UNL A   1      40.217  28.750  29.119  1.00  0.00     0.031 A 
ATOM     47  C   UNL A   1      46.675  28.512  29.906  1.00  0.00     0.049 A 
ATOM     48  C   UNL A   1      41.235  29.751  29.585  1.00  0.00     0.074 A 
ATOM     49  C   UNL A   1      47.529  29.534  30.286  1.00  0.00     0.029 A 
ATOM     50  N   UNL A   1      45.393  29.038  29.913  1.00  0.00    -0.354 N 
ATOM     51  N   UNL A   1      42.533  29.614  29.704  1.00  0.00    -0.248 NA
ATOM     52  C   UNL A   1      40.730  31.080  29.953  1.00  0.00     0.031 C 
ATOM     53  C   UNL A   1      46.755  30.666  30.569  1.00  0.00     0.029 A 
ATOM     54  C   UNL A   1      45.428  30.363  30.315  1.00  0.00     0.049 A 
ATOM     55  H   UNL A   1      44.578  28.543  29.669  1.00  0.00     0.167 HD
ATOM     56  C   UNL A   1      43.003  30.845  30.142  1.00  0.00     0.074 A 
ATOM     57  C   UNL A   1      41.853  31.720  30.245  1.00  0.00     0.031 C 
ATOM     58  C   UNL A   1      44.274  31.218  30.429  1.00  0.00     0.031 A 
BRANCH  45  59
ATOM     59  C   UNL A   1      48.431  26.704  29.684  1.00  0.00    -0.014 A 
ATOM     60  C   UNL A   1      48.921  26.144  30.875  1.00  0.00     0.009 A 
ATOM     61  C   UNL A   1      49.296  26.830  28.587  1.00  0.00     0.009 A 
ATOM     62  C   UNL A   1      50.259  25.758  30.978  1.00  0.00     0.001 A 
ATOM     63  C   UNL A   1      50.627  26.417  28.683  1.00  0.00     0.001 A 
ATOM     64  C   UNL A   1      51.110  25.893  29.881  1.00  0.00     0.000 A 
ENDBRANCH  45  59
BRANCH  46  65
ATOM     65  C   UNL A   1      38.781  29.117  29.020  1.00  0.00    -0.014 A 
ATOM     66  C   UNL A   1      37.945  29.016  30.141  1.00  0.00     0.009 A 
ATOM     67  C   UNL A   1      38.241  29.576  27.808  1.00  0.00     0.009 A 
ATOM     68  C   UNL A   1      36.592  29.348  30.048  1.00  0.00     0.001 A 
ATOM     69  C   UNL A   1      36.894  29.932  27.724  1.00  0.00     0.001 A 
ATOM     70  C   UNL A   1      36.069  29.810  28.841  1.00  0.00     0.000 A 
ENDBRANCH  46  65
BRANCH  58  71
ATOM     71  C   UNL A   1      44.484  32.641  30.866  1.00  0.00    -0.014 A 
ATOM     72  C   UNL A   1      44.458  32.996  32.223  1.00  0.00     0.009 A 
ATOM     73  C   UNL A   1      44.729  33.634  29.906  1.00  0.00     0.009 A 
ATOM     74  C   UNL A   1      44.632  34.327  32.608  1.00  0.00     0.001 A 
ATOM     75  C   UNL A   1      44.932  34.959  30.296  1.00  0.00     0.001 A 
ATOM     76  C   UNL A   1      44.872  35.306  31.644  1.00  0.00     0.000 A 
ENDBRANCH  58  71
ENDBRANCH  32  33
ENDBRANCH  24  27
ENDBRANCH  22  23
ENDBRANCH  21  22
ENDBRANCH   1  21
TORSDOF 14
ENDMDL
MODEL 3
REMARK VINA RESULT:     -10.2      1.981      2.994
REMARK SMILES CC(C)(C)OC(=O)[C@H]1CC[C@]1([NH3+])C(=O)NCCCNC(=O)c1ccc(-c2c3nc(c(-c4ccccc4)c4ccc([nH]4)c(-c4ccccc4)c4nc(c(-c5ccccc5)c5ccc2[nH]5)C=C4)C=C3)cc1
REMARK SMILES IDX 16 1 15 2 13 3 14 4 11 6 8 7 9 8 10 9 6 10 7 11 5 12 2 13
REMARK SMILES IDX 1 14 3 15 4 16 12 17 17 21 18 22 19 23 20 24 21 26 22 27
REMARK SMILES IDX 23 28 69 29 24 30 68 31 25 32 26 33 27 34 62 35 28 36 67 37
REMARK SMILES IDX 61 38 63 39 29 40 66 41 60 42 59 43 30 45 52 46 37 47 51 48
REMARK SMILES IDX 38 49 41 50 50 51 64 52 39 53 40 54 49 56 65 57 42 58 31 59
REMARK SMILES IDX 32 60 36 61 33 62 35 63 34 64 53 65 54 66 58 67 55 68 57 69
REMARK SMILES IDX 56 70 43 71 44 72 48 73 45 74 47 75 46 76
REMARK H PARENT 15 5 12 18 12 19 12 20 19 25 63 44 41 55
REMARK Flexibility Score: inf
ROOT
ATOM      1  C   UNL A   1      35.949  21.084  24.949  1.00  0.00     0.118 C 
ENDROOT
BRANCH   1   2
ATOM      2  N   UNL A   1      35.541  21.449  26.293  1.00  0.00    -0.351 N 
ATOM      3  C   UNL A   1      34.576  22.344  26.697  1.00  0.00     0.282 C 
ATOM      4  O   UNL A   1      34.416  22.465  27.918  1.00  0.00    -0.268 OA
ATOM      5  H   UNL A   1      36.024  20.992  27.020  1.00  0.00     0.163 HD
BRANCH   3   6
ATOM      6  C   UNL A   1      33.757  23.144  25.605  1.00  0.00     0.187 C 
ATOM      7  C   UNL A   1      34.574  24.066  24.651  1.00  0.00     0.170 C 
ATOM      8  C   UNL A   1      34.188  25.248  25.583  1.00  0.00     0.029 C 
ATOM      9  C   UNL A   1      32.993  24.417  26.074  1.00  0.00     0.081 C 
BRANCH   7  10
ATOM     10  C   UNL A   1      34.180  24.193  23.162  1.00  0.00     0.316 C 
ATOM     11  O   UNL A   1      34.142  23.260  22.362  1.00  0.00    -0.252 OA
BRANCH  10  12
ATOM     12  O   UNL A   1      33.852  25.482  22.847  1.00  0.00    -0.460 OA
BRANCH  12  13
ATOM     13  C   UNL A   1      32.571  25.800  22.242  1.00  0.00     0.104 C 
ATOM     14  C   UNL A   1      32.314  27.268  22.621  1.00  0.00     0.056 C 
ATOM     15  C   UNL A   1      31.457  24.936  22.842  1.00  0.00     0.056 C 
ATOM     16  C   UNL A   1      32.621  25.699  20.713  1.00  0.00     0.056 C 
ENDBRANCH  12  13
ENDBRANCH  10  12
ENDBRANCH   7  10
BRANCH   6  17
ATOM     17  N   UNL A   1      32.778  22.314  24.865  1.00  0.00    -0.344 N 
ATOM     18  H   UNL A   1      33.253  21.820  24.110  1.00  0.00     0.345 HD
ATOM     19  H   UNL A   1      32.051  22.913  24.474  1.00  0.00     0.345 HD
ATOM     20  H   UNL A   1      32.356  21.638  25.501  1.00  0.00     0.345 HD
ENDBRANCH   6  17
ENDBRANCH   3   6
ENDBRANCH   1   2
BRANCH   1  21
ATOM     21  C   UNL A   1      37.116  20.104  24.939  1.00  0.00     0.042 C 
BRANCH  21  22
ATOM     22  C   UNL A   1      38.407  20.640  25.547  1.00  0.00     0.118 C 
BRANCH  22  23
ATOM     23  N   UNL A   1      39.469  19.645  25.615  1.00  0.00    -0.352 N 
ATOM     24  C   UNL A   1      40.778  19.760  26.007  1.00  0.00     0.251 C 
ATOM     25  H   UNL A   1      39.201  18.740  25.332  1.00  0.00     0.163 HD
ATOM     26  O   UNL A   1      41.540  18.807  25.850  1.00  0.00    -0.269 OA
BRANCH  24  27
ATOM     27  C   UNL A   1      41.295  21.018  26.590  1.00  0.00     0.039 A 
ATOM     28  C   UNL A   1      41.863  21.965  25.732  1.00  0.00     0.014 A 
ATOM     29  C   UNL A   1      41.253  21.264  27.965  1.00  0.00     0.014 A 
ATOM     30  C   UNL A   1      42.322  23.182  26.244  1.00  0.00     0.010 A 
ATOM     31  C   UNL A   1      41.636  22.508  28.462  1.00  0.00     0.010 A 
ATOM     32  C   UNL A   1      42.175  23.480  27.608  1.00  0.00    -0.014 A 
BRANCH  32  33
ATOM     33  C   UNL A   1      42.570  24.807  28.145  1.00  0.00     0.031 A 
ATOM     34  C   UNL A   1      41.546  25.887  28.354  1.00  0.00     0.074 A 
ATOM     35  C   UNL A   1      43.869  25.056  28.401  1.00  0.00     0.049 A 
ATOM     36  N   UNL A   1      41.713  27.106  28.805  1.00  0.00    -0.248 NA
ATOM     37  C   UNL A   1      40.157  25.567  27.988  1.00  0.00     0.031 C 
ATOM     38  C   UNL A   1      44.970  24.113  28.198  1.00  0.00     0.029 A 
ATOM     39  N   UNL A   1      44.482  26.181  28.892  1.00  0.00    -0.354 N 
ATOM     40  C   UNL A   1      40.458  27.700  28.761  1.00  0.00     0.074 A 
ATOM     41  C   UNL A   1      39.550  26.727  28.193  1.00  0.00     0.031 C 
ATOM     42  C   UNL A   1      46.118  24.683  28.598  1.00  0.00     0.029 A 
ATOM     43  C   UNL A   1      45.840  26.042  29.051  1.00  0.00     0.049 A 
ATOM     44  H   UNL A   1      43.996  27.009  29.109  1.00  0.00     0.167 HD
ATOM     45  C   UNL A   1      40.087  28.936  29.174  1.00  0.00     0.031 A 
ATOM     46  C   UNL A   1      46.760  26.909  29.514  1.00  0.00     0.031 A 
ATOM     47  C   UNL A   1      40.984  29.905  29.746  1.00  0.00     0.049 A 
ATOM     48  C   UNL A   1      46.325  28.274  29.964  1.00  0.00     0.074 A 
ATOM     49  C   UNL A   1      40.692  31.161  30.249  1.00  0.00     0.029 A 
ATOM     50  N   UNL A   1      42.352  29.726  29.886  1.00  0.00    -0.354 N 
ATOM     51  N   UNL A   1      45.123  28.794  29.983  1.00  0.00    -0.248 NA
ATOM     52  C   UNL A   1      47.378  29.166  30.469  1.00  0.00     0.031 C 
ATOM     53  C   UNL A   1      41.892  31.761  30.651  1.00  0.00     0.029 A 
ATOM     54  C   UNL A   1      42.922  30.857  30.445  1.00  0.00     0.049 A 
ATOM     55  H   UNL A   1      42.844  28.914  29.627  1.00  0.00     0.167 HD
ATOM     56  C   UNL A   1      45.270  30.066  30.519  1.00  0.00     0.074 A 
ATOM     57  C   UNL A   1      46.674  30.229  30.832  1.00  0.00     0.031 C 
ATOM     58  C   UNL A   1      44.324  31.013  30.736  1.00  0.00     0.031 A 
BRANCH  45  59
ATOM     59  C   UNL A   1      38.638  29.308  29.012  1.00  0.00    -0.014 A 
ATOM     60  C   UNL A   1      38.148  29.811  27.796  1.00  0.00     0.009 A 
ATOM     61  C   UNL A   1      37.749  29.139  30.084  1.00  0.00     0.009 A 
ATOM     62  C   UNL A   1      36.806  30.178  27.671  1.00  0.00     0.001 A 
ATOM     63  C   UNL A   1      36.401  29.478  29.947  1.00  0.00     0.001 A 
ATOM     64  C   UNL A   1      35.933  30.009  28.745  1.00  0.00     0.000 A 
ENDBRANCH  45  59
BRANCH  46  65
ATOM     65  C   UNL A   1      48.183  26.496  29.609  1.00  0.00    -0.014 A 
ATOM     66  C   UNL A   1      49.067  26.751  28.550  1.00  0.00     0.009 A 
ATOM     67  C   UNL A   1      48.667  25.851  30.757  1.00  0.00     0.009 A 
ATOM     68  C   UNL A   1      50.402  26.352  28.630  1.00  0.00     0.001 A 
ATOM     69  C   UNL A   1      50.009  25.476  30.846  1.00  0.00     0.001 A 
ATOM     70  C   UNL A   1      50.873  25.719  29.780  1.00  0.00     0.000 A 
ENDBRANCH  46  65
BRANCH  58  71
ATOM     71  C   UNL A   1      44.782  32.302  31.358  1.00  0.00    -0.014 A 
ATOM     72  C   UNL A   1      45.221  33.375  30.567  1.00  0.00     0.009 A 
ATOM     73  C   UNL A   1      44.757  32.450  32.753  1.00  0.00     0.009 A 
ATOM     74  C   UNL A   1      45.664  34.557  31.164  1.00  0.00     0.001 A 
ATOM     75  C   UNL A   1      45.173  33.643  33.346  1.00  0.00     0.001 A 
ATOM     76  C   UNL A   1      45.637  34.690  32.552  1.00  0.00     0.000 A 
ENDBRANCH  58  71
ENDBRANCH  32  33
ENDBRANCH  24  27
ENDBRANCH  22  23
ENDBRANCH  21  22
ENDBRANCH   1  21
TORSDOF 14
ENDMDL
