MODEL 1
REMARK VINA RESULT:     -12.2      0.000      0.000
REMARK SMILES CC(C)c1ccc2c(c1)C(=O)C[C@@H]1[C@@]2(C)CCC[C@]1(C)C(=O)NCCCNC(=O)c1ccc(-c2c3nc(c(-c4ccccc4)c4ccc([nH]4)c(-c4ccccc4)c4nc(c(-c5ccccc5)c5ccc2[nH]5)C=C4)C=C3)cc1
REMARK SMILES IDX 25 1 24 2 23 3 21 4 22 5 19 7 4 8 5 9 9 10 6 11 8 12 7 13
REMARK SMILES IDX 10 14 14 15 12 16 11 17 13 18 16 19 15 20 17 21 18 22 20 23
REMARK SMILES IDX 2 24 1 25 3 26 26 27 27 28 28 29 29 31 30 32 31 33 77 34
REMARK SMILES IDX 32 35 76 36 33 37 34 38 35 39 70 40 36 41 75 42 69 43 71 44
REMARK SMILES IDX 37 45 74 46 68 47 67 48 38 50 60 51 45 52 59 53 46 54 49 55
REMARK SMILES IDX 58 56 72 57 47 58 48 59 57 61 73 62 50 63 39 64 40 65 44 66
REMARK SMILES IDX 41 67 43 68 42 69 61 70 62 71 66 72 63 73 65 74 64 75 51 76
REMARK SMILES IDX 52 77 56 78 53 79 55 80 54 81
REMARK H PARENT 23 6 27 30 71 49 49 60
REMARK Flexibility Score: inf
ROOT
ATOM      1  C   UNL A   1      33.079  28.180  27.547  1.00  0.00     0.042 C 
ENDROOT
BRANCH   1   2
ATOM      2  C   UNL A   1      31.658  27.812  27.139  1.00  0.00     0.117 C 
BRANCH   2   3
ATOM      3  N   UNL A   1      31.542  26.493  26.543  1.00  0.00    -0.356 N 
ATOM      4  C   UNL A   1      30.398  26.131  25.888  1.00  0.00     0.226 C 
ATOM      5  O   UNL A   1      29.430  25.745  26.541  1.00  0.00    -0.274 OA
ATOM      6  H   UNL A   1      32.290  25.857  26.609  1.00  0.00     0.163 HD
BRANCH   4   7
ATOM      7  C   UNL A   1      30.443  26.118  24.344  1.00  0.00     0.050 C 
ATOM      8  C   UNL A   1      35.753  22.408  25.100  1.00  0.00    -0.045 A 
ATOM      9  C   UNL A   1      36.062  23.252  24.025  1.00  0.00     0.004 A 
ATOM     10  C   UNL A   1      34.445  22.455  25.600  1.00  0.00     0.016 A 
ATOM     11  C   UNL A   1      35.105  24.106  23.469  1.00  0.00     0.005 A 
ATOM     12  C   UNL A   1      33.480  23.303  25.020  1.00  0.00     0.022 A 
ATOM     13  C   UNL A   1      33.782  24.141  23.943  1.00  0.00    -0.031 A 
ATOM     14  C   UNL A   1      32.109  23.307  25.551  1.00  0.00     0.163 C 
ATOM     15  C   UNL A   1      32.769  25.158  23.381  1.00  0.00    -0.003 C 
ATOM     16  C   UNL A   1      31.029  23.584  24.544  1.00  0.00     0.086 C 
ATOM     17  O   UNL A   1      31.887  23.069  26.733  1.00  0.00    -0.294 OA
ATOM     18  C   UNL A   1      31.258  24.897  23.773  1.00  0.00     0.022 C 
ATOM     19  C   UNL A   1      33.275  26.535  23.871  1.00  0.00     0.012 C 
ATOM     20  C   UNL A   1      32.821  25.120  21.826  1.00  0.00     0.017 C 
ATOM     21  C   UNL A   1      32.380  27.705  23.537  1.00  0.00     0.002 C 
ATOM     22  C   UNL A   1      30.895  27.481  23.770  1.00  0.00     0.017 C 
ATOM     23  C   UNL A   1      28.952  25.976  23.896  1.00  0.00     0.022 C 
BRANCH   8  24
ATOM     24  C   UNL A   1      36.838  21.474  25.623  1.00  0.00     0.013 C 
ATOM     25  C   UNL A   1      37.002  20.235  24.732  1.00  0.00     0.012 C 
ATOM     26  C   UNL A   1      38.210  22.117  25.848  1.00  0.00     0.012 C 
ENDBRANCH   8  24
ENDBRANCH   4   7
ENDBRANCH   2   3
ENDBRANCH   1   2
BRANCH   1  27
ATOM     27  C   UNL A   1      33.648  29.376  26.794  1.00  0.00     0.118 C 
BRANCH  27  28
ATOM     28  N   UNL A   1      33.678  30.589  27.603  1.00  0.00    -0.352 N 
ATOM     29  C   UNL A   1      34.641  31.029  28.485  1.00  0.00     0.251 C 
ATOM     30  H   UNL A   1      32.896  31.181  27.506  1.00  0.00     0.163 HD
ATOM     31  O   UNL A   1      34.441  31.993  29.206  1.00  0.00    -0.269 OA
BRANCH  29  32
ATOM     32  C   UNL A   1      35.913  30.282  28.573  1.00  0.00     0.039 A 
ATOM     33  C   UNL A   1      36.241  29.594  29.741  1.00  0.00     0.014 A 
ATOM     34  C   UNL A   1      36.809  30.336  27.503  1.00  0.00     0.014 A 
ATOM     35  C   UNL A   1      37.537  29.130  29.917  1.00  0.00     0.010 A 
ATOM     36  C   UNL A   1      38.086  29.787  27.651  1.00  0.00     0.010 A 
ATOM     37  C   UNL A   1      38.480  29.236  28.881  1.00  0.00    -0.014 A 
BRANCH  37  38
ATOM     38  C   UNL A   1      39.876  28.787  29.114  1.00  0.00     0.031 A 
ATOM     39  C   UNL A   1      40.327  27.418  28.679  1.00  0.00     0.074 A 
ATOM     40  C   UNL A   1      40.759  29.644  29.663  1.00  0.00     0.049 A 
ATOM     41  N   UNL A   1      41.511  26.868  28.792  1.00  0.00    -0.248 NA
ATOM     42  C   UNL A   1      39.326  26.551  28.036  1.00  0.00     0.031 C 
ATOM     43  C   UNL A   1      40.450  31.008  30.092  1.00  0.00     0.029 A 
ATOM     44  N   UNL A   1      42.098  29.507  29.921  1.00  0.00    -0.354 N 
ATOM     45  C   UNL A   1      41.390  25.591  28.257  1.00  0.00     0.074 A 
ATOM     46  C   UNL A   1      40.014  25.434  27.842  1.00  0.00     0.031 C 
ATOM     47  C   UNL A   1      41.578  31.603  30.504  1.00  0.00     0.029 A 
ATOM     48  C   UNL A   1      42.674  30.643  30.436  1.00  0.00     0.049 A 
ATOM     49  H   UNL A   1      42.599  28.676  29.754  1.00  0.00     0.167 HD
ATOM     50  C   UNL A   1      42.344  24.641  28.116  1.00  0.00     0.031 A 
ATOM     51  C   UNL A   1      43.940  30.887  30.825  1.00  0.00     0.031 A 
ATOM     52  C   UNL A   1      43.718  24.807  28.512  1.00  0.00     0.049 A 
ATOM     53  C   UNL A   1      44.966  29.799  30.707  1.00  0.00     0.074 A 
ATOM     54  C   UNL A   1      44.761  23.904  28.393  1.00  0.00     0.029 A 
ATOM     55  N   UNL A   1      44.242  25.950  29.097  1.00  0.00    -0.354 N 
ATOM     56  N   UNL A   1      44.833  28.594  30.209  1.00  0.00    -0.248 NA
ATOM     57  C   UNL A   1      46.314  30.099  31.209  1.00  0.00     0.031 C 
ATOM     58  C   UNL A   1      45.902  24.477  28.958  1.00  0.00     0.029 A 
ATOM     59  C   UNL A   1      45.587  25.763  29.369  1.00  0.00     0.049 A 
ATOM     60  H   UNL A   1      43.734  26.770  29.290  1.00  0.00     0.167 HD
ATOM     61  C   UNL A   1      46.080  27.995  30.326  1.00  0.00     0.074 A 
ATOM     62  C   UNL A   1      46.961  28.976  30.925  1.00  0.00     0.031 C 
ATOM     63  C   UNL A   1      46.454  26.743  29.972  1.00  0.00     0.031 A 
BRANCH  50  64
ATOM     64  C   UNL A   1      41.947  23.318  27.519  1.00  0.00    -0.014 A 
ATOM     65  C   UNL A   1      41.417  22.314  28.347  1.00  0.00     0.009 A 
ATOM     66  C   UNL A   1      42.189  23.025  26.169  1.00  0.00     0.009 A 
ATOM     67  C   UNL A   1      41.149  21.041  27.839  1.00  0.00     0.001 A 
ATOM     68  C   UNL A   1      41.896  21.759  25.657  1.00  0.00     0.001 A 
ATOM     69  C   UNL A   1      41.385  20.766  26.494  1.00  0.00     0.000 A 
ENDBRANCH  50  64
BRANCH  51  70
ATOM     70  C   UNL A   1      44.286  32.228  31.364  1.00  0.00    -0.014 A 
ATOM     71  C   UNL A   1      44.132  32.507  32.732  1.00  0.00     0.009 A 
ATOM     72  C   UNL A   1      44.702  33.255  30.505  1.00  0.00     0.009 A 
ATOM     73  C   UNL A   1      44.356  33.795  33.223  1.00  0.00     0.001 A 
ATOM     74  C   UNL A   1      44.956  34.535  31.005  1.00  0.00     0.001 A 
ATOM     75  C   UNL A   1      44.770  34.806  32.360  1.00  0.00     0.000 A 
ENDBRANCH  51  70
BRANCH  63  76
ATOM     76  C   UNL A   1      47.883  26.346  30.208  1.00  0.00    -0.014 A 
ATOM     77  C   UNL A   1      48.799  26.375  29.144  1.00  0.00     0.009 A 
ATOM     78  C   UNL A   1      48.297  25.848  31.452  1.00  0.00     0.009 A 
ATOM     79  C   UNL A   1      50.098  25.896  29.317  1.00  0.00     0.001 A 
ATOM     80  C   UNL A   1      49.607  25.398  31.629  1.00  0.00     0.001 A 
ATOM     81  C   UNL A   1      50.503  25.412  30.560  1.00  0.00     0.000 A 
ENDBRANCH  63  76
ENDBRANCH  37  38
ENDBRANCH  29  32
ENDBRANCH  27  28
ENDBRANCH   1  27
TORSDOF 11
ENDMDL
MODEL 2
REMARK VINA RESULT:     -12.1      0.859      5.893
REMARK SMILES CC(C)c1ccc2c(c1)C(=O)C[C@@H]1[C@@]2(C)CCC[C@]1(C)C(=O)NCCCNC(=O)c1ccc(-c2c3nc(c(-c4ccccc4)c4ccc([nH]4)c(-c4ccccc4)c4nc(c(-c5ccccc5)c5ccc2[nH]5)C=C4)C=C3)cc1
REMARK SMILES IDX 25 1 24 2 23 3 21 4 22 5 19 7 4 8 5 9 9 10 6 11 8 12 7 13
REMARK SMILES IDX 10 14 14 15 12 16 11 17 13 18 16 19 15 20 17 21 18 22 20 23
REMARK SMILES IDX 2 24 1 25 3 26 26 27 27 28 28 29 29 31 30 32 31 33 77 34
REMARK SMILES IDX 32 35 76 36 33 37 34 38 35 39 70 40 36 41 75 42 69 43 71 44
REMARK SMILES IDX 37 45 74 46 68 47 67 48 38 50 60 51 45 52 59 53 46 54 49 55
REMARK SMILES IDX 58 56 72 57 47 58 48 59 57 61 73 62 50 63 39 64 40 65 44 66
REMARK SMILES IDX 41 67 43 68 42 69 61 70 62 71 66 72 63 73 65 74 64 75 51 76
REMARK SMILES IDX 52 77 56 78 53 79 55 80 54 81
REMARK H PARENT 23 6 27 30 71 49 49 60
REMARK Flexibility Score: inf
ROOT
ATOM      1  C   UNL A   1      32.855  28.292  27.626  1.00  0.00     0.042 C 
ENDROOT
BRANCH   1   2
ATOM      2  C   UNL A   1      31.480  27.817  27.173  1.00  0.00     0.117 C 
BRANCH   2   3
ATOM      3  N   UNL A   1      31.489  26.507  26.547  1.00  0.00    -0.356 N 
ATOM      4  C   UNL A   1      30.389  26.059  25.870  1.00  0.00     0.226 C 
ATOM      5  O   UNL A   1      29.452  25.574  26.501  1.00  0.00    -0.274 OA
ATOM      6  H   UNL A   1      32.290  25.938  26.610  1.00  0.00     0.163 HD
BRANCH   4   7
ATOM      7  C   UNL A   1      30.453  26.085  24.326  1.00  0.00     0.050 C 
ATOM      8  C   UNL A   1      35.741  22.337  25.052  1.00  0.00    -0.045 A 
ATOM      9  C   UNL A   1      36.065  23.207  24.002  1.00  0.00     0.004 A 
ATOM     10  C   UNL A   1      34.427  22.376  25.537  1.00  0.00     0.016 A 
ATOM     11  C   UNL A   1      35.118  24.078  23.457  1.00  0.00     0.005 A 
ATOM     12  C   UNL A   1      33.472  23.242  24.968  1.00  0.00     0.022 A 
ATOM     13  C   UNL A   1      33.790  24.107  23.915  1.00  0.00    -0.031 A 
ATOM     14  C   UNL A   1      32.095  23.238  25.482  1.00  0.00     0.163 C 
ATOM     15  C   UNL A   1      32.787  25.141  23.368  1.00  0.00    -0.003 C 
ATOM     16  C   UNL A   1      31.028  23.545  24.470  1.00  0.00     0.086 C 
ATOM     17  O   UNL A   1      31.858  22.971  26.655  1.00  0.00    -0.294 OA
ATOM     18  C   UNL A   1      31.270  24.876  23.735  1.00  0.00     0.022 C 
ATOM     19  C   UNL A   1      33.292  26.503  23.898  1.00  0.00     0.012 C 
ATOM     20  C   UNL A   1      32.858  25.141  21.813  1.00  0.00     0.017 C 
ATOM     21  C   UNL A   1      32.405  27.684  23.583  1.00  0.00     0.002 C 
ATOM     22  C   UNL A   1      30.916  27.460  23.792  1.00  0.00     0.017 C 
ATOM     23  C   UNL A   1      28.967  25.959  23.857  1.00  0.00     0.022 C 
BRANCH   8  24
ATOM     24  C   UNL A   1      36.816  21.386  25.564  1.00  0.00     0.013 C 
ATOM     25  C   UNL A   1      36.934  20.133  24.686  1.00  0.00     0.012 C 
ATOM     26  C   UNL A   1      38.206  22.001  25.751  1.00  0.00     0.012 C 
ENDBRANCH   8  24
ENDBRANCH   4   7
ENDBRANCH   2   3
ENDBRANCH   1   2
BRANCH   1  27
ATOM     27  C   UNL A   1      33.478  29.341  26.713  1.00  0.00     0.118 C 
BRANCH  27  28
ATOM     28  N   UNL A   1      33.551  30.658  27.336  1.00  0.00    -0.352 N 
ATOM     29  C   UNL A   1      34.525  31.185  28.157  1.00  0.00     0.251 C 
ATOM     30  H   UNL A   1      32.794  31.258  27.142  1.00  0.00     0.163 HD
ATOM     31  O   UNL A   1      34.358  32.251  28.726  1.00  0.00    -0.269 OA
BRANCH  29  32
ATOM     32  C   UNL A   1      35.764  30.411  28.370  1.00  0.00     0.039 A 
ATOM     33  C   UNL A   1      35.953  29.704  29.558  1.00  0.00     0.014 A 
ATOM     34  C   UNL A   1      36.770  30.455  27.402  1.00  0.00     0.014 A 
ATOM     35  C   UNL A   1      37.213  29.212  29.865  1.00  0.00     0.010 A 
ATOM     36  C   UNL A   1      38.012  29.878  27.677  1.00  0.00     0.010 A 
ATOM     37  C   UNL A   1      38.262  29.307  28.936  1.00  0.00    -0.014 A 
BRANCH  37  38
ATOM     38  C   UNL A   1      39.617  28.826  29.310  1.00  0.00     0.031 A 
ATOM     39  C   UNL A   1      40.482  29.621  30.252  1.00  0.00     0.074 A 
ATOM     40  C   UNL A   1      40.041  27.634  28.850  1.00  0.00     0.049 A 
ATOM     41  N   UNL A   1      41.684  29.344  30.695  1.00  0.00    -0.248 NA
ATOM     42  C   UNL A   1      39.936  30.890  30.762  1.00  0.00     0.031 C 
ATOM     43  C   UNL A   1      39.278  26.756  27.961  1.00  0.00     0.029 A 
ATOM     44  N   UNL A   1      41.199  26.940  29.091  1.00  0.00    -0.354 N 
ATOM     45  C   UNL A   1      42.042  30.408  31.515  1.00  0.00     0.074 A 
ATOM     46  C   UNL A   1      40.945  31.350  31.489  1.00  0.00     0.031 C 
ATOM     47  C   UNL A   1      39.961  25.617  27.780  1.00  0.00     0.029 A 
ATOM     48  C   UNL A   1      41.238  25.711  28.480  1.00  0.00     0.049 A 
ATOM     49  H   UNL A   1      41.932  27.290  29.649  1.00  0.00     0.167 HD
ATOM     50  C   UNL A   1      43.178  30.578  32.231  1.00  0.00     0.031 A 
ATOM     51  C   UNL A   1      42.197  24.766  28.467  1.00  0.00     0.031 A 
ATOM     52  C   UNL A   1      44.260  29.629  32.270  1.00  0.00     0.049 A 
ATOM     53  C   UNL A   1      43.469  25.003  29.226  1.00  0.00     0.074 A 
ATOM     54  C   UNL A   1      45.445  29.708  32.982  1.00  0.00     0.029 A 
ATOM     55  N   UNL A   1      44.288  28.429  31.576  1.00  0.00    -0.354 N 
ATOM     56  N   UNL A   1      43.795  26.018  29.987  1.00  0.00    -0.248 NA
ATOM     57  C   UNL A   1      44.507  23.968  29.123  1.00  0.00     0.031 C 
ATOM     58  C   UNL A   1      46.215  28.585  32.673  1.00  0.00     0.029 A 
ATOM     59  C   UNL A   1      45.482  27.772  31.822  1.00  0.00     0.049 A 
ATOM     60  H   UNL A   1      43.567  28.094  30.996  1.00  0.00     0.167 HD
ATOM     61  C   UNL A   1      45.070  25.742  30.462  1.00  0.00     0.074 A 
ATOM     62  C   UNL A   1      45.450  24.454  29.920  1.00  0.00     0.031 C 
ATOM     63  C   UNL A   1      45.853  26.494  31.272  1.00  0.00     0.031 A 
BRANCH  50  64
ATOM     64  C   UNL A   1      43.333  31.843  33.030  1.00  0.00    -0.014 A 
ATOM     65  C   UNL A   1      43.952  32.962  32.445  1.00  0.00     0.009 A 
ATOM     66  C   UNL A   1      42.964  31.902  34.382  1.00  0.00     0.009 A 
ATOM     67  C   UNL A   1      44.210  34.106  33.201  1.00  0.00     0.001 A 
ATOM     68  C   UNL A   1      43.201  33.058  35.129  1.00  0.00     0.001 A 
ATOM     69  C   UNL A   1      43.831  34.155  34.542  1.00  0.00     0.000 A 
ENDBRANCH  50  64
BRANCH  51  70
ATOM     70  C   UNL A   1      41.970  23.515  27.699  1.00  0.00    -0.014 A 
ATOM     71  C   UNL A   1      41.371  22.401  28.312  1.00  0.00     0.009 A 
ATOM     72  C   UNL A   1      42.413  23.402  26.373  1.00  0.00     0.009 A 
ATOM     73  C   UNL A   1      41.253  21.191  27.626  1.00  0.00     0.001 A 
ATOM     74  C   UNL A   1      42.265  22.198  25.679  1.00  0.00     0.001 A 
ATOM     75  C   UNL A   1      41.696  21.092  26.309  1.00  0.00     0.000 A 
ENDBRANCH  51  70
BRANCH  63  76
ATOM     76  C   UNL A   1      47.205  25.952  31.639  1.00  0.00    -0.014 A 
ATOM     77  C   UNL A   1      47.391  25.326  32.883  1.00  0.00     0.009 A 
ATOM     78  C   UNL A   1      48.314  26.151  30.803  1.00  0.00     0.009 A 
ATOM     79  C   UNL A   1      48.663  24.925  33.289  1.00  0.00     0.001 A 
ATOM     80  C   UNL A   1      49.582  25.721  31.200  1.00  0.00     0.001 A 
ATOM     81  C   UNL A   1      49.757  25.119  32.446  1.00  0.00     0.000 A 
ENDBRANCH  63  76
ENDBRANCH  37  38
ENDBRANCH  29  32
ENDBRANCH  27  28
ENDBRANCH   1  27
TORSDOF 11
ENDMDL
MODEL 3
REMARK VINA RESULT:     -12.0      2.657      6.931
REMARK SMILES CC(C)c1ccc2c(c1)C(=O)C[C@@H]1[C@@]2(C)CCC[C@]1(C)C(=O)NCCCNC(=O)c1ccc(-c2c3nc(c(-c4ccccc4)c4ccc([nH]4)c(-c4ccccc4)c4nc(c(-c5ccccc5)c5ccc2[nH]5)C=C4)C=C3)cc1
REMARK SMILES IDX 25 1 24 2 23 3 21 4 22 5 19 7 4 8 5 9 9 10 6 11 8 12 7 13
REMARK SMILES IDX 10 14 14 15 12 16 11 17 13 18 16 19 15 20 17 21 18 22 20 23
REMARK SMILES IDX 2 24 1 25 3 26 26 27 27 28 28 29 29 31 30 32 31 33 77 34
REMARK SMILES IDX 32 35 76 36 33 37 34 38 35 39 70 40 36 41 75 42 69 43 71 44
REMARK SMILES IDX 37 45 74 46 68 47 67 48 38 50 60 51 45 52 59 53 46 54 49 55
REMARK SMILES IDX 58 56 72 57 47 58 48 59 57 61 73 62 50 63 39 64 40 65 44 66
REMARK SMILES IDX 41 67 43 68 42 69 61 70 62 71 66 72 63 73 65 74 64 75 51 76
REMARK SMILES IDX 52 77 56 78 53 79 55 80 54 81
REMARK H PARENT 23 6 27 30 71 49 49 60
REMARK Flexibility Score: inf
ROOT
ATOM      1  C   UNL A   1      32.033  31.066  26.536  1.00  0.00     0.042 C 
ENDROOT
BRANCH   1   2
ATOM      2  C   UNL A   1      32.570  29.789  25.900  1.00  0.00     0.117 C 
BRANCH   2   3
ATOM      3  N   UNL A   1      32.201  29.628  24.505  1.00  0.00    -0.356 N 
ATOM      4  C   UNL A   1      32.423  28.441  23.866  1.00  0.00     0.226 C 
ATOM      5  O   UNL A   1      33.546  28.195  23.431  1.00  0.00    -0.274 OA
ATOM      6  H   UNL A   1      31.789  30.377  24.017  1.00  0.00     0.163 HD
BRANCH   4   7
ATOM      7  C   UNL A   1      31.199  27.530  23.626  1.00  0.00     0.050 C 
ATOM      8  C   UNL A   1      35.239  22.657  25.196  1.00  0.00    -0.045 A 
ATOM      9  C   UNL A   1      34.464  22.149  24.145  1.00  0.00     0.004 A 
ATOM     10  C   UNL A   1      34.884  23.911  25.709  1.00  0.00     0.016 A 
ATOM     11  C   UNL A   1      33.378  22.861  23.628  1.00  0.00     0.005 A 
ATOM     12  C   UNL A   1      33.775  24.613  25.197  1.00  0.00     0.022 A 
ATOM     13  C   UNL A   1      32.994  24.107  24.153  1.00  0.00    -0.031 A 
ATOM     14  C   UNL A   1      33.413  25.915  25.778  1.00  0.00     0.163 C 
ATOM     15  C   UNL A   1      31.856  24.919  23.507  1.00  0.00    -0.003 C 
ATOM     16  C   UNL A   1      31.946  26.240  25.767  1.00  0.00     0.086 C 
ATOM     17  O   UNL A   1      34.266  26.654  26.256  1.00  0.00    -0.294 OA
ATOM     18  C   UNL A   1      31.325  26.142  24.361  1.00  0.00     0.022 C 
ATOM     19  C   UNL A   1      32.411  25.358  22.132  1.00  0.00     0.012 C 
ATOM     20  C   UNL A   1      30.629  23.987  23.287  1.00  0.00     0.017 C 
ATOM     21  C   UNL A   1      31.509  26.272  21.336  1.00  0.00     0.002 C 
ATOM     22  C   UNL A   1      30.862  27.400  22.123  1.00  0.00     0.017 C 
ATOM     23  C   UNL A   1      29.988  28.309  24.237  1.00  0.00     0.022 C 
BRANCH   8  24
ATOM     24  C   UNL A   1      36.381  21.802  25.734  1.00  0.00     0.013 C 
ATOM     25  C   UNL A   1      36.435  20.429  25.051  1.00  0.00     0.012 C 
ATOM     26  C   UNL A   1      37.769  22.446  25.679  1.00  0.00     0.012 C 
ENDBRANCH   8  24
ENDBRANCH   4   7
ENDBRANCH   2   3
ENDBRANCH   1   2
BRANCH   1  27
ATOM     27  C   UNL A   1      33.090  31.881  27.272  1.00  0.00     0.118 C 
BRANCH  27  28
ATOM     28  N   UNL A   1      32.634  33.227  27.601  1.00  0.00    -0.352 N 
ATOM     29  C   UNL A   1      33.167  34.139  28.486  1.00  0.00     0.251 C 
ATOM     30  H   UNL A   1      31.828  33.528  27.122  1.00  0.00     0.163 HD
ATOM     31  O   UNL A   1      32.572  35.167  28.764  1.00  0.00    -0.269 OA
BRANCH  29  32
ATOM     32  C   UNL A   1      34.461  33.829  29.127  1.00  0.00     0.039 A 
ATOM     33  C   UNL A   1      35.654  34.230  28.526  1.00  0.00     0.014 A 
ATOM     34  C   UNL A   1      34.475  33.069  30.299  1.00  0.00     0.014 A 
ATOM     35  C   UNL A   1      36.856  33.706  28.980  1.00  0.00     0.010 A 
ATOM     36  C   UNL A   1      35.696  32.618  30.808  1.00  0.00     0.010 A 
ATOM     37  C   UNL A   1      36.890  32.881  30.117  1.00  0.00    -0.014 A 
BRANCH  37  38
ATOM     38  C   UNL A   1      38.180  32.285  30.549  1.00  0.00     0.031 A 
ATOM     39  C   UNL A   1      38.968  32.892  31.679  1.00  0.00     0.074 A 
ATOM     40  C   UNL A   1      38.609  31.151  29.961  1.00  0.00     0.049 A 
ATOM     41  N   UNL A   1      40.106  32.495  32.194  1.00  0.00    -0.248 NA
ATOM     42  C   UNL A   1      38.414  34.099  32.315  1.00  0.00     0.031 C 
ATOM     43  C   UNL A   1      37.915  30.449  28.881  1.00  0.00     0.029 A 
ATOM     44  N   UNL A   1      39.711  30.374  30.211  1.00  0.00    -0.354 N 
ATOM     45  C   UNL A   1      40.412  33.411  33.193  1.00  0.00     0.074 A 
ATOM     46  C   UNL A   1      39.357  34.400  33.199  1.00  0.00     0.031 C 
ATOM     47  C   UNL A   1      38.573  29.316  28.602  1.00  0.00     0.029 A 
ATOM     48  C   UNL A   1      39.771  29.245  29.431  1.00  0.00     0.049 A 
ATOM     49  H   UNL A   1      40.392  30.603  30.885  1.00  0.00     0.167 HD
ATOM     50  C   UNL A   1      41.471  33.420  34.036  1.00  0.00     0.031 A 
ATOM     51  C   UNL A   1      40.693  28.265  29.374  1.00  0.00     0.031 A 
ATOM     52  C   UNL A   1      42.509  32.422  34.041  1.00  0.00     0.049 A 
ATOM     53  C   UNL A   1      41.885  28.327  30.283  1.00  0.00     0.074 A 
ATOM     54  C   UNL A   1      43.615  32.340  34.871  1.00  0.00     0.029 A 
ATOM     55  N   UNL A   1      42.569  31.335  33.184  1.00  0.00    -0.354 N 
ATOM     56  N   UNL A   1      42.165  29.205  31.214  1.00  0.00    -0.248 NA
ATOM     57  C   UNL A   1      42.892  27.268  30.131  1.00  0.00     0.031 C 
ATOM     58  C   UNL A   1      44.374  31.236  34.478  1.00  0.00     0.029 A 
ATOM     59  C   UNL A   1      43.707  30.592  33.448  1.00  0.00     0.049 A 
ATOM     60  H   UNL A   1      41.903  31.123  32.492  1.00  0.00     0.167 HD
ATOM     61  C   UNL A   1      43.372  28.801  31.767  1.00  0.00     0.074 A 
ATOM     62  C   UNL A   1      43.762  27.587  31.081  1.00  0.00     0.031 C 
ATOM     63  C   UNL A   1      44.090  29.389  32.753  1.00  0.00     0.031 A 
BRANCH  50  64
ATOM     64  C   UNL A   1      41.584  34.548  35.025  1.00  0.00    -0.014 A 
ATOM     65  C   UNL A   1      42.303  35.705  34.678  1.00  0.00     0.009 A 
ATOM     66  C   UNL A   1      41.073  34.431  36.326  1.00  0.00     0.009 A 
ATOM     67  C   UNL A   1      42.520  36.714  35.618  1.00  0.00     0.001 A 
ATOM     68  C   UNL A   1      41.269  35.455  37.256  1.00  0.00     0.001 A 
ATOM     69  C   UNL A   1      42.000  36.591  36.905  1.00  0.00     0.000 A 
ENDBRANCH  50  64
BRANCH  51  70
ATOM     70  C   UNL A   1      40.506  27.150  28.410  1.00  0.00    -0.014 A 
ATOM     71  C   UNL A   1      41.032  27.236  27.110  1.00  0.00     0.009 A 
ATOM     72  C   UNL A   1      39.742  26.028  28.760  1.00  0.00     0.009 A 
ATOM     73  C   UNL A   1      40.768  26.238  26.170  1.00  0.00     0.001 A 
ATOM     74  C   UNL A   1      39.506  25.015  27.826  1.00  0.00     0.001 A 
ATOM     75  C   UNL A   1      40.009  25.127  26.530  1.00  0.00     0.000 A 
ENDBRANCH  51  70
BRANCH  63  76
ATOM     76  C   UNL A   1      45.377  28.733  33.169  1.00  0.00    -0.014 A 
ATOM     77  C   UNL A   1      46.571  29.061  32.506  1.00  0.00     0.009 A 
ATOM     78  C   UNL A   1      45.390  27.722  34.140  1.00  0.00     0.009 A 
ATOM     79  C   UNL A   1      47.751  28.377  32.797  1.00  0.00     0.001 A 
ATOM     80  C   UNL A   1      46.580  27.059  34.449  1.00  0.00     0.001 A 
ATOM     81  C   UNL A   1      47.756  27.379  33.771  1.00  0.00     0.000 A 
ENDBRANCH  63  76
ENDBRANCH  37  38
ENDBRANCH  29  32
ENDBRANCH  27  28
ENDBRANCH   1  27
TORSDOF 11
ENDMDL
