MODEL 1
REMARK VINA RESULT:     -12.1      0.000      0.000
REMARK SMILES O=C(NCCCNC(=O)[C@H]1Cc2[nH]cnc2CN1C(=O)c1ccncc1Cl)c1ccc(-c2c3nc(c(-c4ccccc4)c4ccc([nH]4)c(-c4ccccc4)c4nc(c(-c5ccccc5)c5ccc2[nH]5)C=C4)C=C3)cc1
REMARK SMILES IDX 5 1 4 2 3 3 1 4 2 5 28 7 29 8 75 9 30 10 74 11 31 12 32 13
REMARK SMILES IDX 33 14 68 15 34 16 73 17 67 18 69 19 35 20 72 21 66 22 65 23
REMARK SMILES IDX 36 25 58 26 43 27 57 28 44 29 47 30 56 31 70 32 45 33 46 34
REMARK SMILES IDX 55 36 71 37 48 38 37 39 38 40 42 41 39 42 41 43 40 44 59 45
REMARK SMILES IDX 60 46 64 47 61 48 63 49 62 50 49 51 50 52 54 53 51 54 53 55
REMARK SMILES IDX 52 56 6 57 7 58 8 59 9 61 10 62 11 63 18 64 12 65 17 66
REMARK SMILES IDX 13 67 16 68 14 69 15 71 19 72 20 73 21 74 22 75 26 76 23 77
REMARK SMILES IDX 25 78 27 79 24 80
REMARK H PARENT 3 6 69 24 47 35 7 60 13 70
REMARK Flexibility Score: inf
ROOT
ATOM      1  C   UNL A   1      32.374  28.783  27.220  1.00  0.00     0.042 C 
ENDROOT
BRANCH   1   2
ATOM      2  C   UNL A   1      33.303  29.795  26.544  1.00  0.00     0.118 C 
BRANCH   2   3
ATOM      3  N   UNL A   1      33.390  31.061  27.249  1.00  0.00    -0.352 N 
ATOM      4  O   UNL A   1      34.064  32.750  28.517  1.00  0.00    -0.269 OA
ATOM      5  C   UNL A   1      34.343  31.645  28.032  1.00  0.00     0.251 C 
ATOM      6  H   UNL A   1      32.587  31.620  27.137  1.00  0.00     0.163 HD
BRANCH   5   7
ATOM      7  C   UNL A   1      35.645  31.025  28.385  1.00  0.00     0.039 A 
ATOM      8  C   UNL A   1      35.922  29.657  28.337  1.00  0.00     0.014 A 
ATOM      9  C   UNL A   1      36.676  31.910  28.746  1.00  0.00     0.014 A 
ATOM     10  C   UNL A   1      37.174  29.177  28.712  1.00  0.00     0.010 A 
ATOM     11  C   UNL A   1      37.937  31.441  29.091  1.00  0.00     0.010 A 
ATOM     12  C   UNL A   1      38.179  30.069  29.094  1.00  0.00    -0.014 A 
BRANCH  12  13
ATOM     13  C   UNL A   1      39.529  29.543  29.280  1.00  0.00     0.031 A 
ATOM     14  C   UNL A   1      39.927  29.335  30.707  1.00  0.00     0.074 A 
ATOM     15  C   UNL A   1      40.308  29.100  28.275  1.00  0.00     0.049 A 
ATOM     16  N   UNL A   1      40.944  29.827  31.338  1.00  0.00    -0.248 NA
ATOM     17  C   UNL A   1      39.021  28.544  31.559  1.00  0.00     0.031 C 
ATOM     18  C   UNL A   1      39.950  28.945  26.863  1.00  0.00     0.029 A 
ATOM     19  N   UNL A   1      41.564  28.572  28.335  1.00  0.00    -0.354 N 
ATOM     20  C   UNL A   1      40.902  29.285  32.622  1.00  0.00     0.074 A 
ATOM     21  C   UNL A   1      39.639  28.600  32.737  1.00  0.00     0.031 C 
ATOM     22  C   UNL A   1      40.865  28.152  26.258  1.00  0.00     0.029 A 
ATOM     23  C   UNL A   1      41.933  27.860  27.200  1.00  0.00     0.049 A 
ATOM     24  H   UNL A   1      42.156  28.684  29.113  1.00  0.00     0.167 HD
ATOM     25  C   UNL A   1      41.989  29.266  33.442  1.00  0.00     0.031 A 
ATOM     26  C   UNL A   1      43.003  27.036  27.067  1.00  0.00     0.031 A 
ATOM     27  C   UNL A   1      42.998  30.201  33.032  1.00  0.00     0.049 A 
ATOM     28  C   UNL A   1      43.959  27.351  28.150  1.00  0.00     0.074 A 
ATOM     29  C   UNL A   1      43.054  31.572  32.885  1.00  0.00     0.029 A 
ATOM     30  N   UNL A   1      44.083  29.705  32.352  1.00  0.00    -0.354 N 
ATOM     31  N   UNL A   1      44.634  28.460  28.214  1.00  0.00    -0.248 NA
ATOM     32  C   UNL A   1      43.862  26.603  29.392  1.00  0.00     0.031 C 
ATOM     33  C   UNL A   1      43.860  31.781  31.729  1.00  0.00     0.029 A 
ATOM     34  C   UNL A   1      44.292  30.532  31.279  1.00  0.00     0.049 A 
ATOM     35  H   UNL A   1      44.610  28.909  32.591  1.00  0.00     0.167 HD
ATOM     36  C   UNL A   1      44.663  28.773  29.564  1.00  0.00     0.074 A 
ATOM     37  C   UNL A   1      44.270  27.544  30.248  1.00  0.00     0.031 C 
ATOM     38  C   UNL A   1      44.731  30.072  29.983  1.00  0.00     0.031 A 
BRANCH  25  39
ATOM     39  C   UNL A   1      42.290  28.130  34.390  1.00  0.00    -0.014 A 
ATOM     40  C   UNL A   1      42.854  26.945  33.881  1.00  0.00     0.009 A 
ATOM     41  C   UNL A   1      41.776  28.074  35.699  1.00  0.00     0.009 A 
ATOM     42  C   UNL A   1      42.840  25.756  34.620  1.00  0.00     0.001 A 
ATOM     43  C   UNL A   1      41.798  26.899  36.456  1.00  0.00     0.001 A 
ATOM     44  C   UNL A   1      42.305  25.731  35.904  1.00  0.00     0.000 A 
ENDBRANCH  25  39
BRANCH  26  45
ATOM     45  C   UNL A   1      43.141  25.818  26.240  1.00  0.00    -0.014 A 
ATOM     46  C   UNL A   1      44.271  25.623  25.428  1.00  0.00     0.009 A 
ATOM     47  C   UNL A   1      42.297  24.716  26.462  1.00  0.00     0.009 A 
ATOM     48  C   UNL A   1      44.563  24.361  24.891  1.00  0.00     0.001 A 
ATOM     49  C   UNL A   1      42.586  23.457  25.923  1.00  0.00     0.001 A 
ATOM     50  C   UNL A   1      43.728  23.277  25.151  1.00  0.00     0.000 A 
ENDBRANCH  26  45
BRANCH  38  51
ATOM     51  C   UNL A   1      45.014  31.135  28.950  1.00  0.00    -0.014 A 
ATOM     52  C   UNL A   1      44.014  31.714  28.148  1.00  0.00     0.009 A 
ATOM     53  C   UNL A   1      46.308  31.673  28.889  1.00  0.00     0.009 A 
ATOM     54  C   UNL A   1      44.311  32.774  27.285  1.00  0.00     0.001 A 
ATOM     55  C   UNL A   1      46.598  32.748  28.046  1.00  0.00     0.001 A 
ATOM     56  C   UNL A   1      45.603  33.294  27.239  1.00  0.00     0.000 A 
ENDBRANCH  38  51
ENDBRANCH  12  13
ENDBRANCH   5   7
ENDBRANCH   2   3
ENDBRANCH   1   2
BRANCH   1  57
ATOM     57  C   UNL A   1      32.544  27.379  26.638  1.00  0.00     0.117 C 
BRANCH  57  58
ATOM     58  N   UNL A   1      31.339  26.603  26.859  1.00  0.00    -0.354 N 
ATOM     59  C   UNL A   1      30.653  25.737  26.075  1.00  0.00     0.243 C 
ATOM     60  H   UNL A   1      30.943  26.731  27.751  1.00  0.00     0.163 HD
ATOM     61  O   UNL A   1      29.537  25.404  26.489  1.00  0.00    -0.273 OA
BRANCH  59  62
ATOM     62  C   UNL A   1      31.208  25.136  24.770  1.00  0.00     0.181 C 
ATOM     63  C   UNL A   1      31.176  26.220  23.641  1.00  0.00     0.091 C 
ATOM     64  N   UNL A   1      32.460  24.274  24.759  1.00  0.00    -0.320 N 
ATOM     65  C   UNL A   1      31.850  25.714  22.427  1.00  0.00     0.042 A 
ATOM     66  C   UNL A   1      32.738  23.589  23.468  1.00  0.00     0.178 C 
ATOM     67  N   UNL A   1      31.984  26.320  21.213  1.00  0.00    -0.348 N 
ATOM     68  C   UNL A   1      32.563  24.544  22.345  1.00  0.00     0.081 A 
ATOM     69  C   UNL A   1      32.745  25.484  20.440  1.00  0.00     0.197 A 
ATOM     70  H   UNL A   1      31.605  27.189  20.945  1.00  0.00     0.167 HD
ATOM     71  N   UNL A   1      33.101  24.399  21.094  1.00  0.00    -0.240 NA
BRANCH  64  72
ATOM     72  C   UNL A   1      33.191  23.758  25.831  1.00  0.00     0.256 C 
ATOM     73  O   UNL A   1      32.726  23.618  26.967  1.00  0.00    -0.269 OA
BRANCH  72  74
ATOM     74  C   UNL A   1      34.551  23.252  25.675  1.00  0.00     0.061 A 
ATOM     75  C   UNL A   1      35.563  24.195  25.462  1.00  0.00     0.035 A 
ATOM     76  C   UNL A   1      34.837  21.892  25.634  1.00  0.00     0.072 A 
ATOM     77  C   UNL A   1      36.861  23.736  25.350  1.00  0.00     0.112 A 
ATOM     78  C   UNL A   1      36.173  21.538  25.545  1.00  0.00     0.132 A 
ATOM     79  Cl  UNL A   1      33.626  20.673  25.688  1.00  0.00    -0.082 Cl
ATOM     80  N   UNL A   1      37.194  22.429  25.433  1.00  0.00    -0.263 NA
ENDBRANCH  72  74
ENDBRANCH  64  72
ENDBRANCH  59  62
ENDBRANCH  57  58
ENDBRANCH   1  57
TORSDOF 12
ENDMDL
MODEL 2
REMARK VINA RESULT:     -12.1      2.606      7.481
REMARK SMILES O=C(NCCCNC(=O)[C@H]1Cc2[nH]cnc2CN1C(=O)c1ccncc1Cl)c1ccc(-c2c3nc(c(-c4ccccc4)c4ccc([nH]4)c(-c4ccccc4)c4nc(c(-c5ccccc5)c5ccc2[nH]5)C=C4)C=C3)cc1
REMARK SMILES IDX 5 1 4 2 3 3 1 4 2 5 28 7 29 8 75 9 30 10 74 11 31 12 32 13
REMARK SMILES IDX 33 14 68 15 34 16 73 17 67 18 69 19 35 20 72 21 66 22 65 23
REMARK SMILES IDX 36 25 58 26 43 27 57 28 44 29 47 30 56 31 70 32 45 33 46 34
REMARK SMILES IDX 55 36 71 37 48 38 37 39 38 40 42 41 39 42 41 43 40 44 59 45
REMARK SMILES IDX 60 46 64 47 61 48 63 49 62 50 49 51 50 52 54 53 51 54 53 55
REMARK SMILES IDX 52 56 6 57 7 58 8 59 9 61 10 62 11 63 18 64 12 65 17 66
REMARK SMILES IDX 13 67 16 68 14 69 15 71 19 72 20 73 21 74 22 75 26 76 23 77
REMARK SMILES IDX 25 78 27 79 24 80
REMARK H PARENT 3 6 69 24 47 35 7 60 13 70
REMARK Flexibility Score: inf
ROOT
ATOM      1  C   UNL A   1      36.696  21.648  24.797  1.00  0.00     0.042 C 
ENDROOT
BRANCH   1   2
ATOM      2  C   UNL A   1      37.504  22.505  25.774  1.00  0.00     0.118 C 
BRANCH   2   3
ATOM      3  N   UNL A   1      38.772  21.910  26.154  1.00  0.00    -0.352 N 
ATOM      4  O   UNL A   1      40.822  21.582  26.933  1.00  0.00    -0.269 OA
ATOM      5  C   UNL A   1      39.877  22.372  26.809  1.00  0.00     0.251 C 
ATOM      6  H   UNL A   1      38.853  20.968  25.879  1.00  0.00     0.163 HD
BRANCH   5   7
ATOM      7  C   UNL A   1      40.039  23.756  27.321  1.00  0.00     0.039 A 
ATOM      8  C   UNL A   1      39.091  24.774  27.200  1.00  0.00     0.014 A 
ATOM      9  C   UNL A   1      41.230  24.024  28.018  1.00  0.00     0.014 A 
ATOM     10  C   UNL A   1      39.354  26.047  27.696  1.00  0.00     0.010 A 
ATOM     11  C   UNL A   1      41.487  25.284  28.544  1.00  0.00     0.010 A 
ATOM     12  C   UNL A   1      40.555  26.303  28.363  1.00  0.00    -0.014 A 
BRANCH  12  13
ATOM     13  C   UNL A   1      40.701  27.587  29.044  1.00  0.00     0.031 A 
ATOM     14  C   UNL A   1      41.705  28.509  28.428  1.00  0.00     0.074 A 
ATOM     15  C   UNL A   1      39.890  28.011  30.033  1.00  0.00     0.049 A 
ATOM     16  N   UNL A   1      42.739  29.057  28.980  1.00  0.00    -0.248 NA
ATOM     17  C   UNL A   1      41.584  28.784  26.985  1.00  0.00     0.031 C 
ATOM     18  C   UNL A   1      38.676  27.366  30.536  1.00  0.00     0.029 A 
ATOM     19  N   UNL A   1      39.920  29.190  30.717  1.00  0.00    -0.354 N 
ATOM     20  C   UNL A   1      43.313  29.872  28.006  1.00  0.00     0.074 A 
ATOM     21  C   UNL A   1      42.634  29.575  26.770  1.00  0.00     0.031 C 
ATOM     22  C   UNL A   1      37.967  28.261  31.263  1.00  0.00     0.029 A 
ATOM     23  C   UNL A   1      38.738  29.487  31.384  1.00  0.00     0.049 A 
ATOM     24  H   UNL A   1      40.709  29.779  30.736  1.00  0.00     0.167 HD
ATOM     25  C   UNL A   1      44.175  30.881  28.311  1.00  0.00     0.031 A 
ATOM     26  C   UNL A   1      38.391  30.676  31.938  1.00  0.00     0.031 A 
ATOM     27  C   UNL A   1      44.735  30.738  29.626  1.00  0.00     0.049 A 
ATOM     28  C   UNL A   1      39.624  31.473  32.118  1.00  0.00     0.074 A 
ATOM     29  C   UNL A   1      45.520  29.792  30.254  1.00  0.00     0.029 A 
ATOM     30  N   UNL A   1      44.206  31.513  30.628  1.00  0.00    -0.354 N 
ATOM     31  N   UNL A   1      40.554  31.176  32.978  1.00  0.00    -0.248 NA
ATOM     32  C   UNL A   1      40.022  32.377  31.052  1.00  0.00     0.031 C 
ATOM     33  C   UNL A   1      45.023  29.736  31.588  1.00  0.00     0.029 A 
ATOM     34  C   UNL A   1      44.011  30.690  31.706  1.00  0.00     0.049 A 
ATOM     35  H   UNL A   1      44.006  32.476  30.581  1.00  0.00     0.167 HD
ATOM     36  C   UNL A   1      41.740  31.482  32.329  1.00  0.00     0.074 A 
ATOM     37  C   UNL A   1      41.348  32.316  31.195  1.00  0.00     0.031 C 
ATOM     38  C   UNL A   1      42.890  30.801  32.610  1.00  0.00     0.031 A 
BRANCH  25  39
ATOM     39  C   UNL A   1      44.214  32.191  27.564  1.00  0.00    -0.014 A 
ATOM     40  C   UNL A   1      43.743  33.356  28.198  1.00  0.00     0.009 A 
ATOM     41  C   UNL A   1      44.423  32.270  26.174  1.00  0.00     0.009 A 
ATOM     42  C   UNL A   1      43.434  34.510  27.468  1.00  0.00     0.001 A 
ATOM     43  C   UNL A   1      44.156  33.433  25.447  1.00  0.00     0.001 A 
ATOM     44  C   UNL A   1      43.634  34.545  26.092  1.00  0.00     0.000 A 
ENDBRANCH  25  39
BRANCH  26  45
ATOM     45  C   UNL A   1      37.049  31.283  32.073  1.00  0.00    -0.014 A 
ATOM     46  C   UNL A   1      36.667  31.928  33.261  1.00  0.00     0.009 A 
ATOM     47  C   UNL A   1      36.245  31.476  30.935  1.00  0.00     0.009 A 
ATOM     48  C   UNL A   1      35.541  32.763  33.297  1.00  0.00     0.001 A 
ATOM     49  C   UNL A   1      35.121  32.307  30.972  1.00  0.00     0.001 A 
ATOM     50  C   UNL A   1      34.778  32.964  32.150  1.00  0.00     0.000 A 
ENDBRANCH  26  45
BRANCH  38  51
ATOM     51  C   UNL A   1      42.894  29.879  33.805  1.00  0.00    -0.014 A 
ATOM     52  C   UNL A   1      42.439  28.550  33.753  1.00  0.00     0.009 A 
ATOM     53  C   UNL A   1      43.512  30.324  34.983  1.00  0.00     0.009 A 
ATOM     54  C   UNL A   1      42.567  27.703  34.859  1.00  0.00     0.001 A 
ATOM     55  C   UNL A   1      43.663  29.470  36.079  1.00  0.00     0.001 A 
ATOM     56  C   UNL A   1      43.185  28.164  36.020  1.00  0.00     0.000 A 
ENDBRANCH  38  51
ENDBRANCH  12  13
ENDBRANCH   5   7
ENDBRANCH   2   3
ENDBRANCH   1   2
BRANCH   1  57
ATOM     57  C   UNL A   1      35.208  22.001  24.828  1.00  0.00     0.117 C 
BRANCH  57  58
ATOM     58  N   UNL A   1      34.790  22.492  23.528  1.00  0.00    -0.354 N 
ATOM     59  C   UNL A   1      33.624  23.018  23.081  1.00  0.00     0.243 C 
ATOM     60  H   UNL A   1      35.489  22.431  22.837  1.00  0.00     0.163 HD
ATOM     61  O   UNL A   1      33.523  23.141  21.855  1.00  0.00    -0.273 OA
BRANCH  59  62
ATOM     62  C   UNL A   1      32.490  23.498  24.006  1.00  0.00     0.181 C 
ATOM     63  C   UNL A   1      31.814  22.262  24.689  1.00  0.00     0.091 C 
ATOM     64  N   UNL A   1      32.666  24.692  24.930  1.00  0.00    -0.320 N 
ATOM     65  C   UNL A   1      30.832  22.710  25.699  1.00  0.00     0.042 A 
ATOM     66  C   UNL A   1      31.418  25.165  25.588  1.00  0.00     0.178 C 
ATOM     67  N   UNL A   1      29.996  21.953  26.465  1.00  0.00    -0.348 N 
ATOM     68  C   UNL A   1      30.657  24.005  26.117  1.00  0.00     0.081 A 
ATOM     69  C   UNL A   1      29.332  22.820  27.293  1.00  0.00     0.197 A 
ATOM     70  H   UNL A   1      29.889  20.975  26.429  1.00  0.00     0.167 HD
ATOM     71  N   UNL A   1      29.704  24.066  27.097  1.00  0.00    -0.240 NA
BRANCH  64  72
ATOM     72  C   UNL A   1      33.716  25.610  25.004  1.00  0.00     0.256 C 
ATOM     73  O   UNL A   1      34.808  25.354  25.522  1.00  0.00    -0.269 OA
BRANCH  72  74
ATOM     74  C   UNL A   1      33.641  26.930  24.385  1.00  0.00     0.061 A 
ATOM     75  C   UNL A   1      33.800  26.993  22.995  1.00  0.00     0.035 A 
ATOM     76  C   UNL A   1      33.521  28.094  25.132  1.00  0.00     0.072 A 
ATOM     77  C   UNL A   1      33.693  28.229  22.389  1.00  0.00     0.112 A 
ATOM     78  C   UNL A   1      33.396  29.279  24.426  1.00  0.00     0.132 A 
ATOM     79  Cl  UNL A   1      33.521  28.115  26.852  1.00  0.00    -0.082 Cl
ATOM     80  N   UNL A   1      33.449  29.369  23.070  1.00  0.00    -0.263 NA
ENDBRANCH  72  74
ENDBRANCH  64  72
ENDBRANCH  59  62
ENDBRANCH  57  58
ENDBRANCH   1  57
TORSDOF 12
ENDMDL
MODEL 3
REMARK VINA RESULT:     -12.1      2.123      2.742
REMARK SMILES O=C(NCCCNC(=O)[C@H]1Cc2[nH]cnc2CN1C(=O)c1ccncc1Cl)c1ccc(-c2c3nc(c(-c4ccccc4)c4ccc([nH]4)c(-c4ccccc4)c4nc(c(-c5ccccc5)c5ccc2[nH]5)C=C4)C=C3)cc1
REMARK SMILES IDX 5 1 4 2 3 3 1 4 2 5 28 7 29 8 75 9 30 10 74 11 31 12 32 13
REMARK SMILES IDX 33 14 68 15 34 16 73 17 67 18 69 19 35 20 72 21 66 22 65 23
REMARK SMILES IDX 36 25 58 26 43 27 57 28 44 29 47 30 56 31 70 32 45 33 46 34
REMARK SMILES IDX 55 36 71 37 48 38 37 39 38 40 42 41 39 42 41 43 40 44 59 45
REMARK SMILES IDX 60 46 64 47 61 48 63 49 62 50 49 51 50 52 54 53 51 54 53 55
REMARK SMILES IDX 52 56 6 57 7 58 8 59 9 61 10 62 11 63 18 64 12 65 17 66
REMARK SMILES IDX 13 67 16 68 14 69 15 71 19 72 20 73 21 74 22 75 26 76 23 77
REMARK SMILES IDX 25 78 27 79 24 80
REMARK H PARENT 3 6 69 24 47 35 7 60 13 70
REMARK Flexibility Score: inf
ROOT
ATOM      1  C   UNL A   1      34.286  29.320  27.543  1.00  0.00     0.042 C 
ENDROOT
BRANCH   1   2
ATOM      2  C   UNL A   1      34.434  30.821  27.283  1.00  0.00     0.118 C 
BRANCH   2   3
ATOM      3  N   UNL A   1      34.428  31.622  28.493  1.00  0.00    -0.352 N 
ATOM      4  O   UNL A   1      34.913  32.487  30.476  1.00  0.00    -0.269 OA
ATOM      5  C   UNL A   1      35.245  31.694  29.584  1.00  0.00     0.251 C 
ATOM      6  H   UNL A   1      33.670  32.249  28.537  1.00  0.00     0.163 HD
BRANCH   5   7
ATOM      7  C   UNL A   1      36.451  30.856  29.795  1.00  0.00     0.039 A 
ATOM      8  C   UNL A   1      36.453  29.575  30.352  1.00  0.00     0.014 A 
ATOM      9  C   UNL A   1      37.669  31.396  29.346  1.00  0.00     0.014 A 
ATOM     10  C   UNL A   1      37.646  28.882  30.526  1.00  0.00     0.010 A 
ATOM     11  C   UNL A   1      38.861  30.698  29.488  1.00  0.00     0.010 A 
ATOM     12  C   UNL A   1      38.851  29.446  30.099  1.00  0.00    -0.014 A 
BRANCH  12  13
ATOM     13  C   UNL A   1      40.046  28.605  30.113  1.00  0.00     0.031 A 
ATOM     14  C   UNL A   1      40.699  28.471  31.452  1.00  0.00     0.074 A 
ATOM     15  C   UNL A   1      40.448  27.854  29.070  1.00  0.00     0.049 A 
ATOM     16  N   UNL A   1      41.919  28.745  31.782  1.00  0.00    -0.248 NA
ATOM     17  C   UNL A   1      39.852  28.056  32.585  1.00  0.00     0.031 C 
ATOM     18  C   UNL A   1      39.751  27.632  27.801  1.00  0.00     0.029 A 
ATOM     19  N   UNL A   1      41.525  27.021  28.981  1.00  0.00    -0.354 N 
ATOM     20  C   UNL A   1      42.046  28.391  33.125  1.00  0.00     0.074 A 
ATOM     21  C   UNL A   1      40.718  28.086  33.596  1.00  0.00     0.031 C 
ATOM     22  C   UNL A   1      40.292  26.559  27.180  1.00  0.00     0.029 A 
ATOM     23  C   UNL A   1      41.447  26.107  27.937  1.00  0.00     0.049 A 
ATOM     24  H   UNL A   1      42.288  27.064  29.600  1.00  0.00     0.167 HD
ATOM     25  C   UNL A   1      43.255  28.181  33.715  1.00  0.00     0.031 A 
ATOM     26  C   UNL A   1      42.234  25.018  27.748  1.00  0.00     0.031 A 
ATOM     27  C   UNL A   1      44.335  28.757  32.963  1.00  0.00     0.049 A 
ATOM     28  C   UNL A   1      43.459  25.193  28.558  1.00  0.00     0.074 A 
ATOM     29  C   UNL A   1      44.676  30.036  32.573  1.00  0.00     0.029 A 
ATOM     30  N   UNL A   1      45.089  27.913  32.186  1.00  0.00    -0.354 N 
ATOM     31  N   UNL A   1      44.372  26.082  28.299  1.00  0.00    -0.248 NA
ATOM     32  C   UNL A   1      43.475  24.652  29.906  1.00  0.00     0.031 C 
ATOM     33  C   UNL A   1      45.223  29.884  31.266  1.00  0.00     0.029 A 
ATOM     34  C   UNL A   1      45.235  28.520  30.966  1.00  0.00     0.049 A 
ATOM     35  H   UNL A   1      45.454  27.039  32.455  1.00  0.00     0.167 HD
ATOM     36  C   UNL A   1      44.781  26.535  29.544  1.00  0.00     0.074 A 
ATOM     37  C   UNL A   1      44.277  25.545  30.493  1.00  0.00     0.031 C 
ATOM     38  C   UNL A   1      45.246  27.808  29.710  1.00  0.00     0.031 A 
BRANCH  25  39
ATOM     39  C   UNL A   1      43.490  27.128  34.770  1.00  0.00    -0.014 A 
ATOM     40  C   UNL A   1      43.448  25.769  34.403  1.00  0.00     0.009 A 
ATOM     41  C   UNL A   1      43.461  27.411  36.148  1.00  0.00     0.009 A 
ATOM     42  C   UNL A   1      43.314  24.759  35.363  1.00  0.00     0.001 A 
ATOM     43  C   UNL A   1      43.370  26.402  37.112  1.00  0.00     0.001 A 
ATOM     44  C   UNL A   1      43.268  25.076  36.717  1.00  0.00     0.000 A 
ENDBRANCH  25  39
BRANCH  26  45
ATOM     45  C   UNL A   1      41.890  23.717  27.134  1.00  0.00    -0.014 A 
ATOM     46  C   UNL A   1      42.708  23.150  26.143  1.00  0.00     0.009 A 
ATOM     47  C   UNL A   1      40.909  22.898  27.721  1.00  0.00     0.009 A 
ATOM     48  C   UNL A   1      42.572  21.801  25.782  1.00  0.00     0.001 A 
ATOM     49  C   UNL A   1      40.771  21.554  27.358  1.00  0.00     0.001 A 
ATOM     50  C   UNL A   1      41.614  21.002  26.400  1.00  0.00     0.000 A 
ENDBRANCH  26  45
BRANCH  38  51
ATOM     51  C   UNL A   1      45.527  28.627  28.473  1.00  0.00    -0.014 A 
ATOM     52  C   UNL A   1      44.546  29.394  27.820  1.00  0.00     0.009 A 
ATOM     53  C   UNL A   1      46.857  28.742  28.042  1.00  0.00     0.009 A 
ATOM     54  C   UNL A   1      44.883  30.223  26.744  1.00  0.00     0.001 A 
ATOM     55  C   UNL A   1      47.196  29.589  26.985  1.00  0.00     0.001 A 
ATOM     56  C   UNL A   1      46.210  30.323  26.332  1.00  0.00     0.000 A 
ENDBRANCH  38  51
ENDBRANCH  12  13
ENDBRANCH   5   7
ENDBRANCH   2   3
ENDBRANCH   1   2
BRANCH   1  57
ATOM     57  C   UNL A   1      33.962  28.551  26.262  1.00  0.00     0.117 C 
BRANCH  57  58
ATOM     58  N   UNL A   1      33.260  27.324  26.587  1.00  0.00    -0.354 N 
ATOM     59  C   UNL A   1      32.099  26.788  26.136  1.00  0.00     0.243 C 
ATOM     60  H   UNL A   1      33.714  26.774  27.266  1.00  0.00     0.163 HD
ATOM     61  O   UNL A   1      31.667  25.823  26.777  1.00  0.00    -0.273 OA
BRANCH  59  62
ATOM     62  C   UNL A   1      31.358  27.280  24.880  1.00  0.00     0.181 C 
ATOM     63  C   UNL A   1      30.962  28.784  25.062  1.00  0.00     0.091 C 
ATOM     64  N   UNL A   1      31.845  26.938  23.481  1.00  0.00    -0.320 N 
ATOM     65  C   UNL A   1      30.393  29.318  23.807  1.00  0.00     0.042 A 
ATOM     66  C   UNL A   1      30.905  27.293  22.385  1.00  0.00     0.178 C 
ATOM     67  N   UNL A   1      29.875  30.557  23.568  1.00  0.00    -0.348 N 
ATOM     68  C   UNL A   1      30.375  28.664  22.602  1.00  0.00     0.081 A 
ATOM     69  C   UNL A   1      29.541  30.592  22.240  1.00  0.00     0.197 A 
ATOM     70  H   UNL A   1      29.761  31.283  24.224  1.00  0.00     0.167 HD
ATOM     71  N   UNL A   1      29.822  29.459  21.634  1.00  0.00    -0.240 NA
BRANCH  64  72
ATOM     72  C   UNL A   1      32.856  26.060  23.085  1.00  0.00     0.256 C 
ATOM     73  O   UNL A   1      33.608  26.275  22.128  1.00  0.00    -0.269 OA
BRANCH  72  74
ATOM     74  C   UNL A   1      33.170  24.846  23.832  1.00  0.00     0.061 A 
ATOM     75  C   UNL A   1      34.471  24.725  24.336  1.00  0.00     0.035 A 
ATOM     76  C   UNL A   1      32.266  23.799  23.962  1.00  0.00     0.072 A 
ATOM     77  C   UNL A   1      34.774  23.601  25.079  1.00  0.00     0.112 A 
ATOM     78  C   UNL A   1      32.660  22.729  24.749  1.00  0.00     0.132 A 
ATOM     79  Cl  UNL A   1      30.723  23.787  23.204  1.00  0.00    -0.082 Cl
ATOM     80  N   UNL A   1      33.882  22.620  25.335  1.00  0.00    -0.263 NA
ENDBRANCH  72  74
ENDBRANCH  64  72
ENDBRANCH  59  62
ENDBRANCH  57  58
ENDBRANCH   1  57
TORSDOF 12
ENDMDL
