MODEL 1
REMARK VINA RESULT:     -10.0      0.000      0.000
REMARK SMILES CCCCCN(C(=O)N1CCC(CC(=O)NCCCNC(=O)c2ccc(-c3c4nc(c(-c5ccccc5)c5ccc([nH]5)c(-c5ccccc5)c5nc(c(-c6ccccc6)c6ccc3[nH]6)C=C5)C=C4)cc2)CC1)C(C)C
REMARK SMILES IDX 14 1 15 2 16 3 13 5 12 6 7 7 8 8 9 9 10 10 72 11 11 12 71 13
REMARK SMILES IDX 6 14 5 15 4 16 3 17 2 18 1 19 73 20 74 21 75 22 17 23 18 24
REMARK SMILES IDX 19 25 20 26 21 27 22 29 23 30 24 31 70 32 25 33 69 34 26 35
REMARK SMILES IDX 27 36 28 37 63 38 29 39 68 40 62 41 64 42 30 43 67 44 61 45
REMARK SMILES IDX 60 46 31 48 53 49 38 50 52 51 39 52 42 53 51 54 65 55 40 56
REMARK SMILES IDX 41 57 50 59 66 60 43 61 32 62 33 63 37 64 34 65 36 66 35 67
REMARK SMILES IDX 54 68 55 69 59 70 56 71 58 72 57 73 44 74 45 75 49 76 46 77
REMARK SMILES IDX 48 78 47 79
REMARK H PARENT 16 4 20 28 64 47 42 58
REMARK Flexibility Score: inf
ROOT
ATOM      1  C   UNL A   1      31.683  28.447  23.074  1.00  0.00     0.220 C 
ATOM      2  O   UNL A   1      30.732  28.273  22.309  1.00  0.00    -0.275 OA
ATOM      3  N   UNL A   1      31.530  29.334  24.099  1.00  0.00    -0.356 N 
ATOM      4  H   UNL A   1      30.648  29.769  24.132  1.00  0.00     0.163 HD
ENDROOT
BRANCH   1   5
ATOM      5  C   UNL A   1      32.997  27.717  22.856  1.00  0.00     0.103 C 
BRANCH   5   6
ATOM      6  C   UNL A   1      32.956  26.251  23.327  1.00  0.00     0.002 C 
ATOM      7  C   UNL A   1      35.552  23.115  23.544  1.00  0.00     0.320 C 
ATOM      8  O   UNL A   1      36.147  23.254  22.475  1.00  0.00    -0.248 OA
ATOM      9  N   UNL A   1      34.316  23.700  23.752  1.00  0.00    -0.325 N 
ATOM     10  C   UNL A   1      33.417  23.844  22.628  1.00  0.00     0.121 C 
ATOM     11  C   UNL A   1      34.029  24.554  24.904  1.00  0.00     0.121 C 
ATOM     12  C   UNL A   1      33.306  25.292  22.189  1.00  0.00     0.026 C 
ATOM     13  C   UNL A   1      33.925  26.031  24.504  1.00  0.00     0.026 C 
BRANCH   7  14
ATOM     14  N   UNL A   1      36.059  22.338  24.587  1.00  0.00    -0.322 N 
BRANCH  14  15
ATOM     15  C   UNL A   1      35.430  21.063  24.981  1.00  0.00     0.121 C 
BRANCH  15  16
ATOM     16  C   UNL A   1      34.510  21.133  26.213  1.00  0.00     0.022 C 
BRANCH  16  17
ATOM     17  C   UNL A   1      33.106  20.517  26.104  1.00  0.00     0.002 C 
BRANCH  17  18
ATOM     18  C   UNL A   1      32.272  20.916  24.886  1.00  0.00    -0.003 C 
ATOM     19  C   UNL A   1      32.387  19.933  23.731  1.00  0.00     0.004 C 
ENDBRANCH  17  18
ENDBRANCH  16  17
ENDBRANCH  15  16
ENDBRANCH  14  15
BRANCH  14  20
ATOM     20  C   UNL A   1      37.400  22.697  25.095  1.00  0.00     0.080 C 
ATOM     21  C   UNL A   1      37.351  23.760  26.193  1.00  0.00     0.031 C 
ATOM     22  C   UNL A   1      38.238  21.499  25.530  1.00  0.00     0.031 C 
ENDBRANCH  14  20
ENDBRANCH   7  14
ENDBRANCH   5   6
ENDBRANCH   1   5
BRANCH   3  23
ATOM     23  C   UNL A   1      32.448  29.749  25.154  1.00  0.00     0.117 C 
BRANCH  23  24
ATOM     24  C   UNL A   1      32.486  28.778  26.335  1.00  0.00     0.042 C 
BRANCH  24  25
ATOM     25  C   UNL A   1      33.667  28.970  27.276  1.00  0.00     0.118 C 
BRANCH  25  26
ATOM     26  N   UNL A   1      33.707  30.318  27.814  1.00  0.00    -0.352 N 
ATOM     27  C   UNL A   1      34.678  30.938  28.563  1.00  0.00     0.251 C 
ATOM     28  H   UNL A   1      32.918  30.871  27.612  1.00  0.00     0.163 HD
ATOM     29  O   UNL A   1      34.402  31.980  29.151  1.00  0.00    -0.269 OA
BRANCH  27  30
ATOM     30  C   UNL A   1      36.049  30.378  28.677  1.00  0.00     0.039 A 
ATOM     31  C   UNL A   1      36.442  29.813  29.896  1.00  0.00     0.014 A 
ATOM     32  C   UNL A   1      36.980  30.484  27.640  1.00  0.00     0.014 A 
ATOM     33  C   UNL A   1      37.747  29.334  30.063  1.00  0.00     0.010 A 
ATOM     34  C   UNL A   1      38.258  29.936  27.781  1.00  0.00     0.010 A 
ATOM     35  C   UNL A   1      38.663  29.376  29.002  1.00  0.00    -0.014 A 
BRANCH  35  36
ATOM     36  C   UNL A   1      40.059  28.885  29.166  1.00  0.00     0.031 A 
ATOM     37  C   UNL A   1      41.119  29.787  29.742  1.00  0.00     0.074 A 
ATOM     38  C   UNL A   1      40.391  27.643  28.760  1.00  0.00     0.049 A 
ATOM     39  N   UNL A   1      42.398  29.557  29.916  1.00  0.00    -0.248 NA
ATOM     40  C   UNL A   1      40.694  31.134  30.157  1.00  0.00     0.031 C 
ATOM     41  C   UNL A   1      39.474  26.672  28.159  1.00  0.00     0.029 A 
ATOM     42  N   UNL A   1      41.596  26.986  28.790  1.00  0.00    -0.354 N 
ATOM     43  C   UNL A   1      42.930  30.735  30.427  1.00  0.00     0.074 A 
ATOM     44  C   UNL A   1      41.846  31.690  30.503  1.00  0.00     0.031 C 
ATOM     45  C   UNL A   1      40.144  25.536  27.903  1.00  0.00     0.029 A 
ATOM     46  C   UNL A   1      41.542  25.708  28.285  1.00  0.00     0.049 A 
ATOM     47  H   UNL A   1      42.423  27.391  29.139  1.00  0.00     0.167 HD
ATOM     48  C   UNL A   1      44.201  30.997  30.816  1.00  0.00     0.031 A 
ATOM     49  C   UNL A   1      42.508  24.783  28.139  1.00  0.00     0.031 A 
ATOM     50  C   UNL A   1      45.276  30.042  30.779  1.00  0.00     0.049 A 
ATOM     51  C   UNL A   1      43.911  25.099  28.580  1.00  0.00     0.074 A 
ATOM     52  C   UNL A   1      46.578  30.193  31.224  1.00  0.00     0.029 A 
ATOM     53  N   UNL A   1      45.174  28.759  30.267  1.00  0.00    -0.354 N 
ATOM     54  N   UNL A   1      44.378  26.194  29.127  1.00  0.00    -0.248 NA
ATOM     55  C   UNL A   1      44.918  24.044  28.388  1.00  0.00     0.031 C 
ATOM     56  C   UNL A   1      47.277  29.015  30.941  1.00  0.00     0.029 A 
ATOM     57  C   UNL A   1      46.396  28.116  30.362  1.00  0.00     0.049 A 
ATOM     58  H   UNL A   1      44.354  28.364  29.891  1.00  0.00     0.167 HD
ATOM     59  C   UNL A   1      45.723  25.948  29.374  1.00  0.00     0.074 A 
ATOM     60  C   UNL A   1      45.994  24.598  28.928  1.00  0.00     0.031 C 
ATOM     61  C   UNL A   1      46.651  26.770  29.921  1.00  0.00     0.031 A 
BRANCH  48  62
ATOM     62  C   UNL A   1      44.507  32.383  31.313  1.00  0.00    -0.014 A 
ATOM     63  C   UNL A   1      44.911  33.401  30.435  1.00  0.00     0.009 A 
ATOM     64  C   UNL A   1      44.340  32.686  32.673  1.00  0.00     0.009 A 
ATOM     65  C   UNL A   1      45.173  34.686  30.915  1.00  0.00     0.001 A 
ATOM     66  C   UNL A   1      44.577  33.978  33.146  1.00  0.00     0.001 A 
ATOM     67  C   UNL A   1      45.002  34.975  32.268  1.00  0.00     0.000 A 
ENDBRANCH  48  62
BRANCH  49  68
ATOM     68  C   UNL A   1      42.186  23.451  27.563  1.00  0.00    -0.014 A 
ATOM     69  C   UNL A   1      41.667  22.432  28.377  1.00  0.00     0.009 A 
ATOM     70  C   UNL A   1      42.419  23.183  26.205  1.00  0.00     0.009 A 
ATOM     71  C   UNL A   1      41.413  21.164  27.849  1.00  0.00     0.001 A 
ATOM     72  C   UNL A   1      42.139  21.921  25.675  1.00  0.00     0.001 A 
ATOM     73  C   UNL A   1      41.646  20.911  26.499  1.00  0.00     0.000 A 
ENDBRANCH  49  68
BRANCH  61  74
ATOM     74  C   UNL A   1      48.035  26.218  30.106  1.00  0.00    -0.014 A 
ATOM     75  C   UNL A   1      48.970  26.228  29.061  1.00  0.00     0.009 A 
ATOM     76  C   UNL A   1      48.420  25.717  31.360  1.00  0.00     0.009 A 
ATOM     77  C   UNL A   1      50.254  25.717  29.258  1.00  0.00     0.001 A 
ATOM     78  C   UNL A   1      49.713  25.230  31.562  1.00  0.00     0.001 A 
ATOM     79  C   UNL A   1      50.626  25.224  30.508  1.00  0.00     0.000 A 
ENDBRANCH  61  74
ENDBRANCH  35  36
ENDBRANCH  27  30
ENDBRANCH  25  26
ENDBRANCH  24  25
ENDBRANCH  23  24
ENDBRANCH   3  23
TORSDOF 17
ENDMDL
MODEL 2
REMARK VINA RESULT:      -9.6      1.831      7.844
REMARK SMILES CCCCCN(C(=O)N1CCC(CC(=O)NCCCNC(=O)c2ccc(-c3c4nc(c(-c5ccccc5)c5ccc([nH]5)c(-c5ccccc5)c5nc(c(-c6ccccc6)c6ccc3[nH]6)C=C5)C=C4)cc2)CC1)C(C)C
REMARK SMILES IDX 14 1 15 2 16 3 13 5 12 6 7 7 8 8 9 9 10 10 72 11 11 12 71 13
REMARK SMILES IDX 6 14 5 15 4 16 3 17 2 18 1 19 73 20 74 21 75 22 17 23 18 24
REMARK SMILES IDX 19 25 20 26 21 27 22 29 23 30 24 31 70 32 25 33 69 34 26 35
REMARK SMILES IDX 27 36 28 37 63 38 29 39 68 40 62 41 64 42 30 43 67 44 61 45
REMARK SMILES IDX 60 46 31 48 53 49 38 50 52 51 39 52 42 53 51 54 65 55 40 56
REMARK SMILES IDX 41 57 50 59 66 60 43 61 32 62 33 63 37 64 34 65 36 66 35 67
REMARK SMILES IDX 54 68 55 69 59 70 56 71 58 72 57 73 44 74 45 75 49 76 46 77
REMARK SMILES IDX 48 78 47 79
REMARK H PARENT 16 4 20 28 64 47 42 58
REMARK Flexibility Score: inf
ROOT
ATOM      1  C   UNL A   1      34.892  21.223  25.857  1.00  0.00     0.220 C 
ATOM      2  O   UNL A   1      34.354  21.398  26.952  1.00  0.00    -0.275 OA
ATOM      3  N   UNL A   1      36.252  21.298  25.790  1.00  0.00    -0.356 N 
ATOM      4  H   UNL A   1      36.692  21.494  26.648  1.00  0.00     0.163 HD
ENDROOT
BRANCH   1   5
ATOM      5  C   UNL A   1      34.057  20.965  24.615  1.00  0.00     0.103 C 
BRANCH   5   6
ATOM      6  C   UNL A   1      33.383  22.239  24.069  1.00  0.00     0.002 C 
ATOM      7  C   UNL A   1      31.588  25.558  25.612  1.00  0.00     0.320 C 
ATOM      8  O   UNL A   1      30.961  25.050  26.543  1.00  0.00    -0.248 OA
ATOM      9  N   UNL A   1      32.041  24.789  24.556  1.00  0.00    -0.325 N 
ATOM     10  C   UNL A   1      31.258  23.644  24.143  1.00  0.00     0.121 C 
ATOM     11  C   UNL A   1      33.437  24.791  24.117  1.00  0.00     0.121 C 
ATOM     12  C   UNL A   1      31.931  22.342  24.535  1.00  0.00     0.026 C 
ATOM     13  C   UNL A   1      34.157  23.495  24.510  1.00  0.00     0.026 C 
BRANCH   7  14
ATOM     14  N   UNL A   1      31.845  26.928  25.542  1.00  0.00    -0.322 N 
BRANCH  14  15
ATOM     15  C   UNL A   1      31.215  27.784  24.518  1.00  0.00     0.121 C 
BRANCH  15  16
ATOM     16  C   UNL A   1      29.869  27.276  23.969  1.00  0.00     0.022 C 
BRANCH  16  17
ATOM     17  C   UNL A   1      29.043  28.225  23.088  1.00  0.00     0.002 C 
BRANCH  17  18
ATOM     18  C   UNL A   1      29.643  29.605  22.811  1.00  0.00    -0.003 C 
ATOM     19  C   UNL A   1      28.857  30.740  23.447  1.00  0.00     0.004 C 
ENDBRANCH  17  18
ENDBRANCH  16  17
ENDBRANCH  15  16
ENDBRANCH  14  15
BRANCH  14  20
ATOM     20  C   UNL A   1      32.546  27.534  26.694  1.00  0.00     0.080 C 
ATOM     21  C   UNL A   1      33.815  28.283  26.285  1.00  0.00     0.031 C 
ATOM     22  C   UNL A   1      31.654  28.407  27.573  1.00  0.00     0.031 C 
ENDBRANCH  14  20
ENDBRANCH   7  14
ENDBRANCH   5   6
ENDBRANCH   1   5
BRANCH   3  23
ATOM     23  C   UNL A   1      37.167  21.138  24.665  1.00  0.00     0.117 C 
BRANCH  23  24
ATOM     24  C   UNL A   1      38.075  19.914  24.797  1.00  0.00     0.042 C 
BRANCH  24  25
ATOM     25  C   UNL A   1      38.927  19.890  26.059  1.00  0.00     0.118 C 
BRANCH  25  26
ATOM     26  N   UNL A   1      40.200  19.230  25.831  1.00  0.00    -0.352 N 
ATOM     27  C   UNL A   1      41.475  19.741  25.869  1.00  0.00     0.251 C 
ATOM     28  H   UNL A   1      40.141  18.271  25.615  1.00  0.00     0.163 HD
ATOM     29  O   UNL A   1      42.393  19.090  25.378  1.00  0.00    -0.269 OA
BRANCH  27  30
ATOM     30  C   UNL A   1      41.767  21.060  26.490  1.00  0.00     0.039 A 
ATOM     31  C   UNL A   1      42.068  22.141  25.653  1.00  0.00     0.014 A 
ATOM     32  C   UNL A   1      41.842  21.225  27.875  1.00  0.00     0.014 A 
ATOM     33  C   UNL A   1      42.412  23.382  26.201  1.00  0.00     0.010 A 
ATOM     34  C   UNL A   1      42.109  22.483  28.422  1.00  0.00     0.010 A 
ATOM     35  C   UNL A   1      42.421  23.570  27.591  1.00  0.00    -0.014 A 
BRANCH  35  36
ATOM     36  C   UNL A   1      42.799  24.879  28.192  1.00  0.00     0.031 A 
ATOM     37  C   UNL A   1      41.749  25.933  28.435  1.00  0.00     0.074 A 
ATOM     38  C   UNL A   1      44.088  25.144  28.482  1.00  0.00     0.049 A 
ATOM     39  N   UNL A   1      41.890  27.150  28.901  1.00  0.00    -0.248 NA
ATOM     40  C   UNL A   1      40.362  25.584  28.088  1.00  0.00     0.031 C 
ATOM     41  C   UNL A   1      45.211  24.228  28.272  1.00  0.00     0.029 A 
ATOM     42  N   UNL A   1      44.670  26.268  29.013  1.00  0.00    -0.354 N 
ATOM     43  C   UNL A   1      40.622  27.717  28.873  1.00  0.00     0.074 A 
ATOM     44  C   UNL A   1      39.729  26.727  28.311  1.00  0.00     0.031 C 
ATOM     45  C   UNL A   1      46.342  24.816  28.697  1.00  0.00     0.029 A 
ATOM     46  C   UNL A   1      46.032  26.161  29.172  1.00  0.00     0.049 A 
ATOM     47  H   UNL A   1      44.162  27.074  29.258  1.00  0.00     0.167 HD
ATOM     48  C   UNL A   1      40.228  28.944  29.291  1.00  0.00     0.031 A 
ATOM     49  C   UNL A   1      46.931  27.047  29.641  1.00  0.00     0.031 A 
ATOM     50  C   UNL A   1      41.102  29.920  29.885  1.00  0.00     0.049 A 
ATOM     51  C   UNL A   1      46.467  28.402  30.099  1.00  0.00     0.074 A 
ATOM     52  C   UNL A   1      40.778  31.160  30.410  1.00  0.00     0.029 A 
ATOM     53  N   UNL A   1      42.470  29.767  30.032  1.00  0.00    -0.354 N 
ATOM     54  N   UNL A   1      45.253  28.893  30.130  1.00  0.00    -0.248 NA
ATOM     55  C   UNL A   1      47.502  29.322  30.596  1.00  0.00     0.031 C 
ATOM     56  C   UNL A   1      41.960  31.776  30.835  1.00  0.00     0.029 A 
ATOM     57  C   UNL A   1      43.011  30.900  30.617  1.00  0.00     0.049 A 
ATOM     58  H   UNL A   1      42.983  28.971  29.761  1.00  0.00     0.167 HD
ATOM     59  C   UNL A   1      45.373  30.165  30.678  1.00  0.00     0.074 A 
ATOM     60  C   UNL A   1      46.776  30.364  30.975  1.00  0.00     0.031 C 
ATOM     61  C   UNL A   1      44.406  31.084  30.913  1.00  0.00     0.031 A 
BRANCH  48  62
ATOM     62  C   UNL A   1      38.780  29.309  29.114  1.00  0.00    -0.014 A 
ATOM     63  C   UNL A   1      38.296  29.809  27.895  1.00  0.00     0.009 A 
ATOM     64  C   UNL A   1      37.878  29.103  30.170  1.00  0.00     0.009 A 
ATOM     65  C   UNL A   1      36.944  30.126  27.748  1.00  0.00     0.001 A 
ATOM     66  C   UNL A   1      36.522  29.396  30.011  1.00  0.00     0.001 A 
ATOM     67  C   UNL A   1      36.058  29.915  28.803  1.00  0.00     0.000 A 
ENDBRANCH  48  62
BRANCH  49  68
ATOM     68  C   UNL A   1      48.370  26.682  29.720  1.00  0.00    -0.014 A 
ATOM     69  C   UNL A   1      48.876  26.040  30.861  1.00  0.00     0.009 A 
ATOM     70  C   UNL A   1      49.247  26.993  28.669  1.00  0.00     0.009 A 
ATOM     71  C   UNL A   1      50.238  25.743  30.959  1.00  0.00     0.001 A 
ATOM     72  C   UNL A   1      50.602  26.670  28.761  1.00  0.00     0.001 A 
ATOM     73  C   UNL A   1      51.098  26.055  29.909  1.00  0.00     0.000 A 
ENDBRANCH  49  68
BRANCH  61  74
ATOM     74  C   UNL A   1      44.826  32.373  31.559  1.00  0.00    -0.014 A 
ATOM     75  C   UNL A   1      45.187  33.490  30.791  1.00  0.00     0.009 A 
ATOM     76  C   UNL A   1      44.820  32.482  32.959  1.00  0.00     0.009 A 
ATOM     77  C   UNL A   1      45.565  34.681  31.412  1.00  0.00     0.001 A 
ATOM     78  C   UNL A   1      45.173  33.683  33.578  1.00  0.00     0.001 A 
ATOM     79  C   UNL A   1      45.554  34.778  32.803  1.00  0.00     0.000 A 
ENDBRANCH  61  74
ENDBRANCH  35  36
ENDBRANCH  27  30
ENDBRANCH  25  26
ENDBRANCH  24  25
ENDBRANCH  23  24
ENDBRANCH   3  23
TORSDOF 17
ENDMDL
MODEL 3
REMARK VINA RESULT:      -9.5      2.806      7.035
REMARK SMILES CCCCCN(C(=O)N1CCC(CC(=O)NCCCNC(=O)c2ccc(-c3c4nc(c(-c5ccccc5)c5ccc([nH]5)c(-c5ccccc5)c5nc(c(-c6ccccc6)c6ccc3[nH]6)C=C5)C=C4)cc2)CC1)C(C)C
REMARK SMILES IDX 14 1 15 2 16 3 13 5 12 6 7 7 8 8 9 9 10 10 72 11 11 12 71 13
REMARK SMILES IDX 6 14 5 15 4 16 3 17 2 18 1 19 73 20 74 21 75 22 17 23 18 24
REMARK SMILES IDX 19 25 20 26 21 27 22 29 23 30 24 31 70 32 25 33 69 34 26 35
REMARK SMILES IDX 27 36 28 37 63 38 29 39 68 40 62 41 64 42 30 43 67 44 61 45
REMARK SMILES IDX 60 46 31 48 53 49 38 50 52 51 39 52 42 53 51 54 65 55 40 56
REMARK SMILES IDX 41 57 50 59 66 60 43 61 32 62 33 63 37 64 34 65 36 66 35 67
REMARK SMILES IDX 54 68 55 69 59 70 56 71 58 72 57 73 44 74 45 75 49 76 46 77
REMARK SMILES IDX 48 78 47 79
REMARK H PARENT 16 4 20 28 64 47 42 58
REMARK Flexibility Score: inf
ROOT
ATOM      1  C   UNL A   1      31.034  29.337  23.723  1.00  0.00     0.220 C 
ATOM      2  O   UNL A   1      30.285  29.345  22.744  1.00  0.00    -0.275 OA
ATOM      3  N   UNL A   1      30.776  30.213  24.737  1.00  0.00    -0.356 N 
ATOM      4  H   UNL A   1      29.993  30.790  24.587  1.00  0.00     0.163 HD
ENDROOT
BRANCH   1   5
ATOM      5  C   UNL A   1      32.229  28.401  23.779  1.00  0.00     0.103 C 
BRANCH   5   6
ATOM      6  C   UNL A   1      31.857  26.933  23.496  1.00  0.00     0.002 C 
ATOM      7  C   UNL A   1      33.786  23.345  23.336  1.00  0.00     0.320 C 
ATOM      8  O   UNL A   1      34.829  23.687  22.777  1.00  0.00    -0.248 OA
ATOM      9  N   UNL A   1      32.650  24.130  23.263  1.00  0.00    -0.325 N 
ATOM     10  C   UNL A   1      32.413  24.901  22.062  1.00  0.00     0.121 C 
ATOM     11  C   UNL A   1      31.911  24.565  24.449  1.00  0.00     0.121 C 
ATOM     12  C   UNL A   1      32.635  26.383  22.301  1.00  0.00     0.026 C 
ATOM     13  C   UNL A   1      32.124  26.057  24.734  1.00  0.00     0.026 C 
BRANCH   7  14
ATOM     14  N   UNL A   1      33.671  22.143  24.036  1.00  0.00    -0.322 N 
BRANCH  14  15
ATOM     15  C   UNL A   1      32.845  21.029  23.533  1.00  0.00     0.121 C 
BRANCH  15  16
ATOM     16  C   UNL A   1      32.339  20.046  24.605  1.00  0.00     0.022 C 
BRANCH  16  17
ATOM     17  C   UNL A   1      33.084  18.713  24.773  1.00  0.00     0.002 C 
BRANCH  17  18
ATOM     18  C   UNL A   1      32.764  17.613  23.759  1.00  0.00    -0.003 C 
ATOM     19  C   UNL A   1      34.004  17.001  23.127  1.00  0.00     0.004 C 
ENDBRANCH  17  18
ENDBRANCH  16  17
ENDBRANCH  15  16
ENDBRANCH  14  15
BRANCH  14  20
ATOM     20  C   UNL A   1      34.620  21.926  25.149  1.00  0.00     0.080 C 
ATOM     21  C   UNL A   1      35.984  21.424  24.672  1.00  0.00     0.031 C 
ATOM     22  C   UNL A   1      34.774  23.129  26.075  1.00  0.00     0.031 C 
ENDBRANCH  14  20
ENDBRANCH   7  14
ENDBRANCH   5   6
ENDBRANCH   1   5
BRANCH   3  23
ATOM     23  C   UNL A   1      31.461  30.441  26.004  1.00  0.00     0.117 C 
BRANCH  23  24
ATOM     24  C   UNL A   1      31.395  31.898  26.469  1.00  0.00     0.042 C 
BRANCH  24  25
ATOM     25  C   UNL A   1      32.672  32.413  27.119  1.00  0.00     0.118 C 
BRANCH  25  26
ATOM     26  N   UNL A   1      32.520  33.782  27.580  1.00  0.00    -0.352 N 
ATOM     27  C   UNL A   1      33.193  34.456  28.571  1.00  0.00     0.251 C 
ATOM     28  H   UNL A   1      31.830  34.306  27.112  1.00  0.00     0.163 HD
ATOM     29  O   UNL A   1      32.731  35.513  28.991  1.00  0.00    -0.269 OA
BRANCH  27  30
ATOM     30  C   UNL A   1      34.463  33.937  29.141  1.00  0.00     0.039 A 
ATOM     31  C   UNL A   1      35.661  34.223  28.477  1.00  0.00     0.014 A 
ATOM     32  C   UNL A   1      34.484  33.102  30.261  1.00  0.00     0.014 A 
ATOM     33  C   UNL A   1      36.871  33.698  28.947  1.00  0.00     0.010 A 
ATOM     34  C   UNL A   1      35.699  32.641  30.775  1.00  0.00     0.010 A 
ATOM     35  C   UNL A   1      36.904  32.914  30.110  1.00  0.00    -0.014 A 
BRANCH  35  36
ATOM     36  C   UNL A   1      38.179  32.336  30.616  1.00  0.00     0.031 A 
ATOM     37  C   UNL A   1      38.726  31.065  30.019  1.00  0.00     0.074 A 
ATOM     38  C   UNL A   1      38.828  32.923  31.641  1.00  0.00     0.049 A 
ATOM     39  N   UNL A   1      39.793  30.383  30.359  1.00  0.00    -0.248 NA
ATOM     40  C   UNL A   1      37.965  30.469  28.909  1.00  0.00     0.031 C 
ATOM     41  C   UNL A   1      38.398  34.139  32.334  1.00  0.00     0.029 A 
ATOM     42  N   UNL A   1      39.989  32.569  32.282  1.00  0.00    -0.354 N 
ATOM     43  C   UNL A   1      39.810  29.267  29.529  1.00  0.00     0.074 A 
ATOM     44  C   UNL A   1      38.631  29.343  28.695  1.00  0.00     0.031 C 
ATOM     45  C   UNL A   1      39.298  34.445  33.283  1.00  0.00     0.029 A 
ATOM     46  C   UNL A   1      40.346  33.430  33.294  1.00  0.00     0.049 A 
ATOM     47  H   UNL A   1      40.518  31.774  32.041  1.00  0.00     0.167 HD
ATOM     48  C   UNL A   1      40.731  28.277  29.454  1.00  0.00     0.031 A 
ATOM     49  C   UNL A   1      41.394  33.401  34.138  1.00  0.00     0.031 A 
ATOM     50  C   UNL A   1      41.924  28.213  30.254  1.00  0.00     0.049 A 
ATOM     51  C   UNL A   1      42.402  32.290  34.032  1.00  0.00     0.074 A 
ATOM     52  C   UNL A   1      42.954  27.289  30.193  1.00  0.00     0.029 A 
ATOM     53  N   UNL A   1      42.248  29.108  31.259  1.00  0.00    -0.354 N 
ATOM     54  N   UNL A   1      42.438  31.285  33.194  1.00  0.00    -0.248 NA
ATOM     55  C   UNL A   1      43.520  32.319  34.988  1.00  0.00     0.031 C 
ATOM     56  C   UNL A   1      43.880  27.600  31.194  1.00  0.00     0.029 A 
ATOM     57  C   UNL A   1      43.449  28.745  31.845  1.00  0.00     0.049 A 
ATOM     58  H   UNL A   1      41.705  29.888  31.519  1.00  0.00     0.167 HD
ATOM     59  C   UNL A   1      43.596  30.580  33.500  1.00  0.00     0.074 A 
ATOM     60  C   UNL A   1      44.240  31.280  34.592  1.00  0.00     0.031 C 
ATOM     61  C   UNL A   1      44.082  29.453  32.926  1.00  0.00     0.031 A 
BRANCH  48  62
ATOM     62  C   UNL A   1      40.481  27.166  28.471  1.00  0.00    -0.014 A 
ATOM     63  C   UNL A   1      39.730  26.034  28.824  1.00  0.00     0.009 A 
ATOM     64  C   UNL A   1      40.964  27.279  27.158  1.00  0.00     0.009 A 
ATOM     65  C   UNL A   1      39.496  25.022  27.890  1.00  0.00     0.001 A 
ATOM     66  C   UNL A   1      40.706  26.278  26.219  1.00  0.00     0.001 A 
ATOM     67  C   UNL A   1      39.979  25.147  26.588  1.00  0.00     0.000 A 
ENDBRANCH  48  62
BRANCH  49  68
ATOM     68  C   UNL A   1      41.562  34.472  35.156  1.00  0.00    -0.014 A 
ATOM     69  C   UNL A   1      40.977  34.341  36.426  1.00  0.00     0.009 A 
ATOM     70  C   UNL A   1      42.287  35.636  34.858  1.00  0.00     0.009 A 
ATOM     71  C   UNL A   1      41.089  35.369  37.365  1.00  0.00     0.001 A 
ATOM     72  C   UNL A   1      42.419  36.649  35.810  1.00  0.00     0.001 A 
ATOM     73  C   UNL A   1      41.813  36.520  37.058  1.00  0.00     0.000 A 
ENDBRANCH  49  68
BRANCH  61  74
ATOM     74  C   UNL A   1      45.392  28.929  33.440  1.00  0.00    -0.014 A 
ATOM     75  C   UNL A   1      45.442  27.949  34.442  1.00  0.00     0.009 A 
ATOM     76  C   UNL A   1      46.593  29.396  32.882  1.00  0.00     0.009 A 
ATOM     77  C   UNL A   1      46.671  27.469  34.899  1.00  0.00     0.001 A 
ATOM     78  C   UNL A   1      47.820  28.896  33.323  1.00  0.00     0.001 A 
ATOM     79  C   UNL A   1      47.858  27.939  34.337  1.00  0.00     0.000 A 
ENDBRANCH  61  74
ENDBRANCH  35  36
ENDBRANCH  27  30
ENDBRANCH  25  26
ENDBRANCH  24  25
ENDBRANCH  23  24
ENDBRANCH   3  23
TORSDOF 17
ENDMDL
