MODEL 1
REMARK VINA RESULT:     -11.8      0.000      0.000
REMARK SMILES CCOC(=O)[C@H](c1ccccc1)N1C(=O)/C(=C/c2ccc(C(=O)NCCCNC(=O)c3ccc(-c4c5nc(c(-c6ccccc6)c6ccc([nH]6)c(-c6ccccc6)c6nc(c(-c7ccccc7)c7ccc4[nH]7)C=C6)C=C5)cc3)cc2)SC1=S
REMARK SMILES IDX 22 1 23 2 24 3 21 5 18 6 19 7 80 8 20 9 79 10 17 11 13 12
REMARK SMILES IDX 14 13 82 14 15 15 16 16 81 17 83 18 6 19 4 20 5 21 3 22 2 23
REMARK SMILES IDX 1 24 7 25 8 26 12 27 9 28 11 29 10 30 25 31 26 32 27 33
REMARK SMILES IDX 28 34 29 35 30 37 31 38 32 39 78 40 33 41 77 42 34 43 35 44
REMARK SMILES IDX 36 45 71 46 37 47 76 48 70 49 72 50 38 51 75 52 69 53 68 54
REMARK SMILES IDX 39 56 61 57 46 58 60 59 47 60 50 61 59 62 73 63 48 64 49 65
REMARK SMILES IDX 58 67 74 68 51 69 40 70 41 71 45 72 42 73 44 74 43 75 62 76
REMARK SMILES IDX 63 77 67 78 64 79 66 80 65 81 52 82 53 83 57 84 54 85 56 86
REMARK SMILES IDX 55 87
REMARK H PARENT 24 4 28 36 72 55 50 66
REMARK Flexibility Score: inf
ROOT
ATOM      1  C   UNL A   1      34.350  18.658  24.622  1.00  0.00     0.251 C 
ATOM      2  O   UNL A   1      33.846  17.562  24.376  1.00  0.00    -0.269 OA
ATOM      3  N   UNL A   1      35.706  18.718  24.812  1.00  0.00    -0.352 N 
ATOM      4  H   UNL A   1      36.152  17.840  24.819  1.00  0.00     0.163 HD
ENDROOT
BRANCH   1   5
ATOM      5  C   UNL A   1      33.478  19.860  24.655  1.00  0.00     0.039 A 
ATOM      6  C   UNL A   1      31.820  22.125  24.569  1.00  0.00    -0.024 A 
ATOM      7  C   UNL A   1      32.009  21.357  23.420  1.00  0.00     0.009 A 
ATOM      8  C   UNL A   1      32.417  21.731  25.771  1.00  0.00     0.009 A 
ATOM      9  C   UNL A   1      32.835  20.229  23.465  1.00  0.00     0.014 A 
ATOM     10  C   UNL A   1      33.228  20.596  25.816  1.00  0.00     0.014 A 
BRANCH   6  11
ATOM     11  C   UNL A   1      31.011  23.342  24.528  1.00  0.00     0.029 C 
ATOM     12  N   UNL A   1      31.423  26.895  24.069  1.00  0.00    -0.274 N 
ATOM     13  C   UNL A   1      30.640  25.764  24.218  1.00  0.00     0.267 C 
ATOM     14  C   UNL A   1      32.607  26.639  23.401  1.00  0.00     0.149 C 
ATOM     15  O   UNL A   1      29.418  25.702  24.282  1.00  0.00    -0.268 OA
ATOM     16  C   UNL A   1      31.478  24.542  24.159  1.00  0.00     0.081 C 
ATOM     17  S   UNL A   1      33.035  24.939  23.575  1.00  0.00    -0.054 SA
ATOM     18  S   UNL A   1      33.570  27.664  22.500  1.00  0.00    -0.052 S 
BRANCH  12  19
ATOM     19  C   UNL A   1      30.835  28.254  24.238  1.00  0.00     0.232 C 
BRANCH  19  20
ATOM     20  C   UNL A   1      30.782  28.976  22.869  1.00  0.00     0.333 C 
ATOM     21  O   UNL A   1      31.665  29.710  22.435  1.00  0.00    -0.249 OA
BRANCH  20  22
ATOM     22  O   UNL A   1      29.647  28.624  22.195  1.00  0.00    -0.464 OA
BRANCH  22  23
ATOM     23  C   UNL A   1      28.407  28.773  22.905  1.00  0.00     0.229 C 
ATOM     24  C   UNL A   1      27.976  30.224  22.850  1.00  0.00     0.049 C 
ENDBRANCH  22  23
ENDBRANCH  20  22
ENDBRANCH  19  20
BRANCH  19  25
ATOM     25  C   UNL A   1      31.614  29.163  25.194  1.00  0.00    -0.014 A 
ATOM     26  C   UNL A   1      32.793  28.720  25.823  1.00  0.00     0.006 A 
ATOM     27  C   UNL A   1      31.142  30.452  25.487  1.00  0.00     0.006 A 
ATOM     28  C   UNL A   1      33.468  29.535  26.733  1.00  0.00     0.000 A 
ATOM     29  C   UNL A   1      31.822  31.266  26.398  1.00  0.00     0.000 A 
ATOM     30  C   UNL A   1      32.979  30.806  27.023  1.00  0.00     0.000 A 
ENDBRANCH  19  25
ENDBRANCH  12  19
ENDBRANCH   6  11
ENDBRANCH   1   5
BRANCH   3  31
ATOM     31  C   UNL A   1      36.607  19.843  25.006  1.00  0.00     0.118 C 
BRANCH  31  32
ATOM     32  C   UNL A   1      38.061  19.447  24.749  1.00  0.00     0.042 C 
BRANCH  32  33
ATOM     33  C   UNL A   1      39.028  19.914  25.834  1.00  0.00     0.118 C 
BRANCH  33  34
ATOM     34  N   UNL A   1      40.191  19.049  25.946  1.00  0.00    -0.352 N 
ATOM     35  C   UNL A   1      41.505  19.366  26.182  1.00  0.00     0.251 C 
ATOM     36  H   UNL A   1      40.008  18.088  25.836  1.00  0.00     0.163 HD
ATOM     37  O   UNL A   1      42.369  18.504  26.048  1.00  0.00    -0.269 OA
BRANCH  35  38
ATOM     38  C   UNL A   1      41.897  20.737  26.582  1.00  0.00     0.039 A 
ATOM     39  C   UNL A   1      41.943  21.048  27.946  1.00  0.00     0.014 A 
ATOM     40  C   UNL A   1      42.164  21.728  25.633  1.00  0.00     0.014 A 
ATOM     41  C   UNL A   1      42.300  22.334  28.358  1.00  0.00     0.010 A 
ATOM     42  C   UNL A   1      42.580  22.994  26.046  1.00  0.00     0.010 A 
ATOM     43  C   UNL A   1      42.644  23.311  27.411  1.00  0.00    -0.014 A 
BRANCH  43  44
ATOM     44  C   UNL A   1      43.065  24.671  27.830  1.00  0.00     0.031 A 
ATOM     45  C   UNL A   1      42.036  25.721  28.145  1.00  0.00     0.074 A 
ATOM     46  C   UNL A   1      44.375  24.980  27.871  1.00  0.00     0.049 A 
ATOM     47  N   UNL A   1      42.211  26.978  28.471  1.00  0.00    -0.248 NA
ATOM     48  C   UNL A   1      40.626  25.312  28.061  1.00  0.00     0.031 C 
ATOM     49  C   UNL A   1      45.473  24.064  27.560  1.00  0.00     0.029 A 
ATOM     50  N   UNL A   1      45.004  26.159  28.186  1.00  0.00    -0.354 N 
ATOM     51  C   UNL A   1      40.937  27.513  28.607  1.00  0.00     0.074 A 
ATOM     52  C   UNL A   1      39.999  26.457  28.292  1.00  0.00     0.031 C 
ATOM     53  C   UNL A   1      46.640  24.707  27.722  1.00  0.00     0.029 A 
ATOM     54  C   UNL A   1      46.373  26.088  28.113  1.00  0.00     0.049 A 
ATOM     55  H   UNL A   1      44.519  26.978  28.438  1.00  0.00     0.167 HD
ATOM     56  C   UNL A   1      40.577  28.767  28.974  1.00  0.00     0.031 A 
ATOM     57  C   UNL A   1      47.310  27.028  28.332  1.00  0.00     0.031 A 
ATOM     58  C   UNL A   1      41.507  29.815  29.302  1.00  0.00     0.049 A 
ATOM     59  C   UNL A   1      46.888  28.413  28.732  1.00  0.00     0.074 A 
ATOM     60  C   UNL A   1      41.238  31.098  29.746  1.00  0.00     0.029 A 
ATOM     61  N   UNL A   1      42.884  29.700  29.218  1.00  0.00    -0.354 N 
ATOM     62  N   UNL A   1      45.679  28.886  28.914  1.00  0.00    -0.248 NA
ATOM     63  C   UNL A   1      47.961  29.390  28.963  1.00  0.00     0.031 C 
ATOM     64  C   UNL A   1      42.455  31.774  29.890  1.00  0.00     0.029 A 
ATOM     65  C   UNL A   1      43.482  30.896  29.580  1.00  0.00     0.049 A 
ATOM     66  H   UNL A   1      43.368  28.888  28.943  1.00  0.00     0.167 HD
ATOM     67  C   UNL A   1      45.846  30.208  29.304  1.00  0.00     0.074 A 
ATOM     68  C   UNL A   1      47.273  30.458  29.343  1.00  0.00     0.031 C 
ATOM     69  C   UNL A   1      44.902  31.132  29.606  1.00  0.00     0.031 A 
BRANCH  56  70
ATOM     70  C   UNL A   1      39.106  29.072  29.023  1.00  0.00    -0.014 A 
ATOM     71  C   UNL A   1      38.363  28.888  30.201  1.00  0.00     0.009 A 
ATOM     72  C   UNL A   1      38.458  29.566  27.881  1.00  0.00     0.009 A 
ATOM     73  C   UNL A   1      36.992  29.153  30.220  1.00  0.00     0.001 A 
ATOM     74  C   UNL A   1      37.093  29.856  27.911  1.00  0.00     0.001 A 
ATOM     75  C   UNL A   1      36.359  29.639  29.077  1.00  0.00     0.000 A 
ENDBRANCH  56  70
BRANCH  57  76
ATOM     76  C   UNL A   1      48.748  26.681  28.202  1.00  0.00    -0.014 A 
ATOM     77  C   UNL A   1      49.465  26.216  29.314  1.00  0.00     0.009 A 
ATOM     78  C   UNL A   1      49.404  26.798  26.967  1.00  0.00     0.009 A 
ATOM     79  C   UNL A   1      50.818  25.890  29.196  1.00  0.00     0.001 A 
ATOM     80  C   UNL A   1      50.751  26.449  26.847  1.00  0.00     0.001 A 
ATOM     81  C   UNL A   1      51.458  26.001  27.962  1.00  0.00     0.000 A 
ENDBRANCH  57  76
BRANCH  69  82
ATOM     82  C   UNL A   1      45.382  32.489  30.030  1.00  0.00    -0.014 A 
ATOM     83  C   UNL A   1      45.675  32.769  31.374  1.00  0.00     0.009 A 
ATOM     84  C   UNL A   1      45.579  33.490  29.067  1.00  0.00     0.009 A 
ATOM     85  C   UNL A   1      46.127  34.035  31.749  1.00  0.00     0.001 A 
ATOM     86  C   UNL A   1      46.053  34.748  29.441  1.00  0.00     0.001 A 
ATOM     87  C   UNL A   1      46.320  35.022  30.782  1.00  0.00     0.000 A 
ENDBRANCH  69  82
ENDBRANCH  43  44
ENDBRANCH  35  38
ENDBRANCH  33  34
ENDBRANCH  32  33
ENDBRANCH  31  32
ENDBRANCH   3  31
TORSDOF 16
ENDMDL
MODEL 2
REMARK VINA RESULT:     -11.8      1.300      6.019
REMARK SMILES CCOC(=O)[C@H](c1ccccc1)N1C(=O)/C(=C/c2ccc(C(=O)NCCCNC(=O)c3ccc(-c4c5nc(c(-c6ccccc6)c6ccc([nH]6)c(-c6ccccc6)c6nc(c(-c7ccccc7)c7ccc4[nH]7)C=C6)C=C5)cc3)cc2)SC1=S
REMARK SMILES IDX 22 1 23 2 24 3 21 5 18 6 19 7 80 8 20 9 79 10 17 11 13 12
REMARK SMILES IDX 14 13 82 14 15 15 16 16 81 17 83 18 6 19 4 20 5 21 3 22 2 23
REMARK SMILES IDX 1 24 7 25 8 26 12 27 9 28 11 29 10 30 25 31 26 32 27 33
REMARK SMILES IDX 28 34 29 35 30 37 31 38 32 39 78 40 33 41 77 42 34 43 35 44
REMARK SMILES IDX 36 45 71 46 37 47 76 48 70 49 72 50 38 51 75 52 69 53 68 54
REMARK SMILES IDX 39 56 61 57 46 58 60 59 47 60 50 61 59 62 73 63 48 64 49 65
REMARK SMILES IDX 58 67 74 68 51 69 40 70 41 71 45 72 42 73 44 74 43 75 62 76
REMARK SMILES IDX 63 77 67 78 64 79 66 80 65 81 52 82 53 83 57 84 54 85 56 86
REMARK SMILES IDX 55 87
REMARK H PARENT 24 4 28 36 72 55 50 66
REMARK Flexibility Score: inf
ROOT
ATOM      1  C   UNL A   1      33.516  19.530  24.856  1.00  0.00     0.251 C 
ATOM      2  O   UNL A   1      32.837  18.508  24.763  1.00  0.00    -0.269 OA
ATOM      3  N   UNL A   1      34.877  19.394  24.957  1.00  0.00    -0.352 N 
ATOM      4  H   UNL A   1      35.185  18.461  25.034  1.00  0.00     0.163 HD
ENDROOT
BRANCH   1   5
ATOM      5  C   UNL A   1      32.840  20.851  24.810  1.00  0.00     0.039 A 
ATOM      6  C   UNL A   1      31.565  23.342  24.571  1.00  0.00    -0.024 A 
ATOM      7  C   UNL A   1      31.744  22.541  23.443  1.00  0.00     0.009 A 
ATOM      8  C   UNL A   1      31.977  22.875  25.824  1.00  0.00     0.009 A 
ATOM      9  C   UNL A   1      32.379  21.301  23.564  1.00  0.00     0.014 A 
ATOM     10  C   UNL A   1      32.595  21.630  25.943  1.00  0.00     0.014 A 
BRANCH   6  11
ATOM     11  C   UNL A   1      30.960  24.668  24.456  1.00  0.00     0.029 C 
ATOM     12  N   UNL A   1      31.936  28.083  23.833  1.00  0.00    -0.274 N 
ATOM     13  C   UNL A   1      30.981  27.099  24.023  1.00  0.00     0.267 C 
ATOM     14  C   UNL A   1      33.071  27.610  23.200  1.00  0.00     0.149 C 
ATOM     15  O   UNL A   1      29.765  27.235  24.068  1.00  0.00    -0.268 OA
ATOM     16  C   UNL A   1      31.615  25.758  24.039  1.00  0.00     0.081 C 
ATOM     17  S   UNL A   1      33.222  25.874  23.464  1.00  0.00    -0.054 SA
ATOM     18  S   UNL A   1      34.194  28.423  22.268  1.00  0.00    -0.052 S 
BRANCH  12  19
ATOM     19  C   UNL A   1      31.569  29.525  23.925  1.00  0.00     0.232 C 
BRANCH  19  20
ATOM     20  C   UNL A   1      31.484  29.949  25.412  1.00  0.00     0.333 C 
ATOM     21  O   UNL A   1      31.319  31.103  25.798  1.00  0.00    -0.249 OA
BRANCH  20  22
ATOM     22  O   UNL A   1      31.553  28.850  26.220  1.00  0.00    -0.464 OA
BRANCH  22  23
ATOM     23  C   UNL A   1      32.510  28.898  27.290  1.00  0.00     0.229 C 
ATOM     24  C   UNL A   1      33.730  28.091  26.899  1.00  0.00     0.049 C 
ENDBRANCH  22  23
ENDBRANCH  20  22
ENDBRANCH  19  20
BRANCH  19  25
ATOM     25  C   UNL A   1      30.223  29.875  23.282  1.00  0.00    -0.014 A 
ATOM     26  C   UNL A   1      30.010  29.709  21.900  1.00  0.00     0.006 A 
ATOM     27  C   UNL A   1      29.182  30.403  24.062  1.00  0.00     0.006 A 
ATOM     28  C   UNL A   1      28.799  30.080  21.314  1.00  0.00     0.000 A 
ATOM     29  C   UNL A   1      27.970  30.771  23.470  1.00  0.00     0.000 A 
ATOM     30  C   UNL A   1      27.781  30.614  22.098  1.00  0.00     0.000 A 
ENDBRANCH  19  25
ENDBRANCH  12  19
ENDBRANCH   6  11
ENDBRANCH   1   5
BRANCH   3  31
ATOM     31  C   UNL A   1      35.948  20.376  24.971  1.00  0.00     0.118 C 
BRANCH  31  32
ATOM     32  C   UNL A   1      37.311  19.723  24.743  1.00  0.00     0.042 C 
BRANCH  32  33
ATOM     33  C   UNL A   1      38.428  20.309  25.603  1.00  0.00     0.118 C 
BRANCH  33  34
ATOM     34  N   UNL A   1      39.574  19.420  25.700  1.00  0.00    -0.352 N 
ATOM     35  C   UNL A   1      40.874  19.694  26.045  1.00  0.00     0.251 C 
ATOM     36  H   UNL A   1      39.390  18.477  25.485  1.00  0.00     0.163 HD
ATOM     37  O   UNL A   1      41.738  18.836  25.879  1.00  0.00    -0.269 OA
BRANCH  35  38
ATOM     38  C   UNL A   1      41.252  21.013  26.601  1.00  0.00     0.039 A 
ATOM     39  C   UNL A   1      41.778  21.978  25.734  1.00  0.00     0.014 A 
ATOM     40  C   UNL A   1      41.148  21.289  27.967  1.00  0.00     0.014 A 
ATOM     41  C   UNL A   1      42.153  23.230  26.227  1.00  0.00     0.010 A 
ATOM     42  C   UNL A   1      41.464  22.559  28.448  1.00  0.00     0.010 A 
ATOM     43  C   UNL A   1      41.977  23.539  27.585  1.00  0.00    -0.014 A 
BRANCH  43  44
ATOM     44  C   UNL A   1      42.332  24.877  28.120  1.00  0.00     0.031 A 
ATOM     45  C   UNL A   1      43.746  25.179  28.534  1.00  0.00     0.074 A 
ATOM     46  C   UNL A   1      41.370  25.803  28.289  1.00  0.00     0.049 A 
ATOM     47  N   UNL A   1      44.233  26.267  29.075  1.00  0.00    -0.248 NA
ATOM     48  C   UNL A   1      44.736  24.110  28.335  1.00  0.00     0.031 C 
ATOM     49  C   UNL A   1      39.956  25.628  27.956  1.00  0.00     0.029 A 
ATOM     50  N   UNL A   1      41.438  27.079  28.792  1.00  0.00    -0.354 N 
ATOM     51  C   UNL A   1      45.579  26.006  29.302  1.00  0.00     0.074 A 
ATOM     52  C   UNL A   1      45.822  24.645  28.876  1.00  0.00     0.031 C 
ATOM     53  C   UNL A   1      39.294  26.761  28.241  1.00  0.00     0.029 A 
ATOM     54  C   UNL A   1      40.229  27.728  28.809  1.00  0.00     0.049 A 
ATOM     55  H   UNL A   1      42.275  27.488  29.111  1.00  0.00     0.167 HD
ATOM     56  C   UNL A   1      46.530  26.827  29.807  1.00  0.00     0.031 A 
ATOM     57  C   UNL A   1      39.905  28.962  29.236  1.00  0.00     0.031 A 
ATOM     58  C   UNL A   1      46.295  28.186  30.219  1.00  0.00     0.049 A 
ATOM     59  C   UNL A   1      40.976  29.853  29.799  1.00  0.00     0.074 A 
ATOM     60  C   UNL A   1      47.207  29.117  30.683  1.00  0.00     0.029 A 
ATOM     61  N   UNL A   1      45.055  28.805  30.217  1.00  0.00    -0.354 N 
ATOM     62  N   UNL A   1      42.255  29.611  29.951  1.00  0.00    -0.248 NA
ATOM     63  C   UNL A   1      40.556  31.191  30.241  1.00  0.00     0.031 C 
ATOM     64  C   UNL A   1      46.511  30.288  31.004  1.00  0.00     0.029 A 
ATOM     65  C   UNL A   1      45.174  30.101  30.694  1.00  0.00     0.049 A 
ATOM     66  H   UNL A   1      44.215  28.388  29.920  1.00  0.00     0.167 HD
ATOM     67  C   UNL A   1      42.798  30.772  30.484  1.00  0.00     0.074 A 
ATOM     68  C   UNL A   1      41.711  31.722  30.618  1.00  0.00     0.031 C 
ATOM     69  C   UNL A   1      44.083  31.030  30.829  1.00  0.00     0.031 A 
BRANCH  56  70
ATOM     70  C   UNL A   1      47.916  26.264  29.956  1.00  0.00    -0.014 A 
ATOM     71  C   UNL A   1      48.369  25.759  31.186  1.00  0.00     0.009 A 
ATOM     72  C   UNL A   1      48.774  26.222  28.847  1.00  0.00     0.009 A 
ATOM     73  C   UNL A   1      49.669  25.264  31.311  1.00  0.00     0.001 A 
ATOM     74  C   UNL A   1      50.063  25.701  28.968  1.00  0.00     0.001 A 
ATOM     75  C   UNL A   1      50.513  25.232  30.202  1.00  0.00     0.000 A 
ENDBRANCH  56  70
BRANCH  57  76
ATOM     76  C   UNL A   1      38.503  29.438  29.124  1.00  0.00    -0.014 A 
ATOM     77  C   UNL A   1      37.623  29.302  30.207  1.00  0.00     0.009 A 
ATOM     78  C   UNL A   1      38.044  30.042  27.944  1.00  0.00     0.009 A 
ATOM     79  C   UNL A   1      36.303  29.746  30.105  1.00  0.00     0.001 A 
ATOM     80  C   UNL A   1      36.731  30.507  27.853  1.00  0.00     0.001 A 
ATOM     81  C   UNL A   1      35.860  30.354  28.930  1.00  0.00     0.000 A 
ENDBRANCH  57  76
BRANCH  69  82
ATOM     82  C   UNL A   1      44.388  32.401  31.358  1.00  0.00    -0.014 A 
ATOM     83  C   UNL A   1      44.719  33.456  30.494  1.00  0.00     0.009 A 
ATOM     84  C   UNL A   1      44.308  32.648  32.737  1.00  0.00     0.009 A 
ATOM     85  C   UNL A   1      44.993  34.727  31.005  1.00  0.00     0.001 A 
ATOM     86  C   UNL A   1      44.559  33.924  33.243  1.00  0.00     0.001 A 
ATOM     87  C   UNL A   1      44.909  34.960  32.377  1.00  0.00     0.000 A 
ENDBRANCH  69  82
ENDBRANCH  43  44
ENDBRANCH  35  38
ENDBRANCH  33  34
ENDBRANCH  32  33
ENDBRANCH  31  32
ENDBRANCH   3  31
TORSDOF 16
ENDMDL
MODEL 3
REMARK VINA RESULT:     -11.6      0.767      5.639
REMARK SMILES CCOC(=O)[C@H](c1ccccc1)N1C(=O)/C(=C/c2ccc(C(=O)NCCCNC(=O)c3ccc(-c4c5nc(c(-c6ccccc6)c6ccc([nH]6)c(-c6ccccc6)c6nc(c(-c7ccccc7)c7ccc4[nH]7)C=C6)C=C5)cc3)cc2)SC1=S
REMARK SMILES IDX 22 1 23 2 24 3 21 5 18 6 19 7 80 8 20 9 79 10 17 11 13 12
REMARK SMILES IDX 14 13 82 14 15 15 16 16 81 17 83 18 6 19 4 20 5 21 3 22 2 23
REMARK SMILES IDX 1 24 7 25 8 26 12 27 9 28 11 29 10 30 25 31 26 32 27 33
REMARK SMILES IDX 28 34 29 35 30 37 31 38 32 39 78 40 33 41 77 42 34 43 35 44
REMARK SMILES IDX 36 45 71 46 37 47 76 48 70 49 72 50 38 51 75 52 69 53 68 54
REMARK SMILES IDX 39 56 61 57 46 58 60 59 47 60 50 61 59 62 73 63 48 64 49 65
REMARK SMILES IDX 58 67 74 68 51 69 40 70 41 71 45 72 42 73 44 74 43 75 62 76
REMARK SMILES IDX 63 77 67 78 64 79 66 80 65 81 52 82 53 83 57 84 54 85 56 86
REMARK SMILES IDX 55 87
REMARK H PARENT 24 4 28 36 72 55 50 66
REMARK Flexibility Score: inf
ROOT
ATOM      1  C   UNL A   1      34.451  18.653  24.661  1.00  0.00     0.251 C 
ATOM      2  O   UNL A   1      33.957  17.545  24.451  1.00  0.00    -0.269 OA
ATOM      3  N   UNL A   1      35.806  18.732  24.851  1.00  0.00    -0.352 N 
ATOM      4  H   UNL A   1      36.260  17.858  24.889  1.00  0.00     0.163 HD
ENDROOT
BRANCH   1   5
ATOM      5  C   UNL A   1      33.569  19.849  24.653  1.00  0.00     0.039 A 
ATOM      6  C   UNL A   1      31.888  22.092  24.488  1.00  0.00    -0.024 A 
ATOM      7  C   UNL A   1      32.059  21.267  23.376  1.00  0.00     0.009 A 
ATOM      8  C   UNL A   1      32.516  21.765  25.694  1.00  0.00     0.009 A 
ATOM      9  C   UNL A   1      32.896  20.151  23.460  1.00  0.00     0.014 A 
ATOM     10  C   UNL A   1      33.337  20.640  25.780  1.00  0.00     0.014 A 
BRANCH   6  11
ATOM     11  C   UNL A   1      31.067  23.299  24.403  1.00  0.00     0.029 C 
ATOM     12  N   UNL A   1      31.459  26.859  23.990  1.00  0.00    -0.274 N 
ATOM     13  C   UNL A   1      30.683  25.717  24.084  1.00  0.00     0.267 C 
ATOM     14  C   UNL A   1      32.685  26.623  23.396  1.00  0.00     0.149 C 
ATOM     15  O   UNL A   1      29.460  25.639  24.072  1.00  0.00    -0.268 OA
ATOM     16  C   UNL A   1      31.539  24.506  24.071  1.00  0.00     0.081 C 
ATOM     17  S   UNL A   1      33.124  24.928  23.587  1.00  0.00    -0.054 SA
ATOM     18  S   UNL A   1      33.689  27.667  22.563  1.00  0.00    -0.052 S 
BRANCH  12  19
ATOM     19  C   UNL A   1      30.842  28.210  24.129  1.00  0.00     0.232 C 
BRANCH  19  20
ATOM     20  C   UNL A   1      30.870  28.941  22.765  1.00  0.00     0.333 C 
ATOM     21  O   UNL A   1      31.775  29.682  22.391  1.00  0.00    -0.249 OA
BRANCH  20  22
ATOM     22  O   UNL A   1      29.780  28.590  22.021  1.00  0.00    -0.464 OA
BRANCH  22  23
ATOM     23  C   UNL A   1      28.566  29.313  22.279  1.00  0.00     0.229 C 
ATOM     24  C   UNL A   1      28.616  30.640  21.551  1.00  0.00     0.049 C 
ENDBRANCH  22  23
ENDBRANCH  20  22
ENDBRANCH  19  20
BRANCH  19  25
ATOM     25  C   UNL A   1      31.545  29.121  25.141  1.00  0.00    -0.014 A 
ATOM     26  C   UNL A   1      32.631  28.658  25.909  1.00  0.00     0.006 A 
ATOM     27  C   UNL A   1      31.092  30.434  25.345  1.00  0.00     0.006 A 
ATOM     28  C   UNL A   1      33.231  29.478  26.866  1.00  0.00     0.000 A 
ATOM     29  C   UNL A   1      31.697  31.251  26.303  1.00  0.00     0.000 A 
ATOM     30  C   UNL A   1      32.761  30.773  27.065  1.00  0.00     0.000 A 
ENDBRANCH  19  25
ENDBRANCH  12  19
ENDBRANCH   6  11
ENDBRANCH   1   5
BRANCH   3  31
ATOM     31  C   UNL A   1      36.697  19.870  25.008  1.00  0.00     0.118 C 
BRANCH  31  32
ATOM     32  C   UNL A   1      38.151  19.486  24.736  1.00  0.00     0.042 C 
BRANCH  32  33
ATOM     33  C   UNL A   1      39.136  20.023  25.772  1.00  0.00     0.118 C 
BRANCH  33  34
ATOM     34  N   UNL A   1      40.333  19.205  25.872  1.00  0.00    -0.352 N 
ATOM     35  C   UNL A   1      41.621  19.564  26.182  1.00  0.00     0.251 C 
ATOM     36  H   UNL A   1      40.201  18.247  25.689  1.00  0.00     0.163 HD
ATOM     37  O   UNL A   1      42.530  18.754  26.025  1.00  0.00    -0.269 OA
BRANCH  35  38
ATOM     38  C   UNL A   1      41.932  20.920  26.692  1.00  0.00     0.039 A 
ATOM     39  C   UNL A   1      42.306  21.909  25.776  1.00  0.00     0.014 A 
ATOM     40  C   UNL A   1      41.913  21.210  28.059  1.00  0.00     0.014 A 
ATOM     41  C   UNL A   1      42.613  23.196  26.223  1.00  0.00     0.010 A 
ATOM     42  C   UNL A   1      42.160  22.510  28.500  1.00  0.00     0.010 A 
ATOM     43  C   UNL A   1      42.521  23.513  27.588  1.00  0.00    -0.014 A 
BRANCH  43  44
ATOM     44  C   UNL A   1      42.804  24.884  28.078  1.00  0.00     0.031 A 
ATOM     45  C   UNL A   1      44.207  25.285  28.444  1.00  0.00     0.074 A 
ATOM     46  C   UNL A   1      41.791  25.753  28.251  1.00  0.00     0.049 A 
ATOM     47  N   UNL A   1      44.639  26.416  28.942  1.00  0.00    -0.248 NA
ATOM     48  C   UNL A   1      45.258  24.275  28.243  1.00  0.00     0.031 C 
ATOM     49  C   UNL A   1      40.382  25.481  27.964  1.00  0.00     0.029 A 
ATOM     50  N   UNL A   1      41.792  27.044  28.720  1.00  0.00    -0.354 N 
ATOM     51  C   UNL A   1      46.004  26.246  29.137  1.00  0.00     0.074 A 
ATOM     52  C   UNL A   1      46.321  24.891  28.738  1.00  0.00     0.031 C 
ATOM     53  C   UNL A   1      39.658  26.577  28.239  1.00  0.00     0.029 A 
ATOM     54  C   UNL A   1      40.545  27.616  28.755  1.00  0.00     0.049 A 
ATOM     55  H   UNL A   1      42.610  27.513  29.003  1.00  0.00     0.167 HD
ATOM     56  C   UNL A   1      46.915  27.138  29.593  1.00  0.00     0.031 A 
ATOM     57  C   UNL A   1      40.156  28.839  29.160  1.00  0.00     0.031 A 
ATOM     58  C   UNL A   1      46.606  28.490  29.977  1.00  0.00     0.049 A 
ATOM     59  C   UNL A   1      41.183  29.810  29.669  1.00  0.00     0.074 A 
ATOM     60  C   UNL A   1      47.470  29.489  30.391  1.00  0.00     0.029 A 
ATOM     61  N   UNL A   1      45.330  29.031  29.995  1.00  0.00    -0.354 N 
ATOM     62  N   UNL A   1      42.478  29.653  29.790  1.00  0.00    -0.248 NA
ATOM     63  C   UNL A   1      40.692  31.130  30.089  1.00  0.00     0.031 C 
ATOM     64  C   UNL A   1      46.710  30.622  30.701  1.00  0.00     0.029 A 
ATOM     65  C   UNL A   1      45.380  30.343  30.436  1.00  0.00     0.049 A 
ATOM     66  H   UNL A   1      44.511  28.554  29.733  1.00  0.00     0.167 HD
ATOM     67  C   UNL A   1      42.961  30.859  30.277  1.00  0.00     0.074 A 
ATOM     68  C   UNL A   1      41.821  31.743  30.418  1.00  0.00     0.031 C 
ATOM     69  C   UNL A   1      44.236  31.206  30.578  1.00  0.00     0.031 A 
BRANCH  56  70
ATOM     70  C   UNL A   1      48.337  26.667  29.716  1.00  0.00    -0.014 A 
ATOM     71  C   UNL A   1      48.804  26.059  30.893  1.00  0.00     0.009 A 
ATOM     72  C   UNL A   1      49.218  26.818  28.634  1.00  0.00     0.009 A 
ATOM     73  C   UNL A   1      50.136  25.651  30.997  1.00  0.00     0.001 A 
ATOM     74  C   UNL A   1      50.541  26.384  28.732  1.00  0.00     0.001 A 
ATOM     75  C   UNL A   1      51.002  25.811  29.917  1.00  0.00     0.000 A 
ENDBRANCH  56  70
BRANCH  57  76
ATOM     76  C   UNL A   1      38.724  29.223  29.077  1.00  0.00    -0.014 A 
ATOM     77  C   UNL A   1      37.882  29.056  30.186  1.00  0.00     0.009 A 
ATOM     78  C   UNL A   1      38.197  29.770  27.897  1.00  0.00     0.009 A 
ATOM     79  C   UNL A   1      36.535  29.414  30.111  1.00  0.00     0.001 A 
ATOM     80  C   UNL A   1      36.855  30.149  27.833  1.00  0.00     0.001 A 
ATOM     81  C   UNL A   1      36.023  29.966  28.937  1.00  0.00     0.000 A 
ENDBRANCH  57  76
BRANCH  69  82
ATOM     82  C   UNL A   1      44.468  32.608  31.064  1.00  0.00    -0.014 A 
ATOM     83  C   UNL A   1      44.457  32.913  32.433  1.00  0.00     0.009 A 
ATOM     84  C   UNL A   1      44.736  33.629  30.140  1.00  0.00     0.009 A 
ATOM     85  C   UNL A   1      44.681  34.221  32.866  1.00  0.00     0.001 A 
ATOM     86  C   UNL A   1      44.983  34.931  30.576  1.00  0.00     0.001 A 
ATOM     87  C   UNL A   1      44.947  35.227  31.938  1.00  0.00     0.000 A 
ENDBRANCH  69  82
ENDBRANCH  43  44
ENDBRANCH  35  38
ENDBRANCH  33  34
ENDBRANCH  32  33
ENDBRANCH  31  32
ENDBRANCH   3  31
TORSDOF 16
ENDMDL
