MODEL 1
REMARK VINA RESULT:     -10.4      0.000      0.000
REMARK SMILES C[C@H](O)[C@@H](NS(=O)(=O)c1ccc(F)cc1)C(=O)NCCCNC(=O)c1ccc(-c2c3nc(c(-c4ccccc4)c4ccc([nH]4)c(-c4ccccc4)c4nc(c(-c5ccccc5)c5ccc2[nH]5)C=C4)C=C3)cc1
REMARK SMILES IDX 19 1 18 2 16 3 17 4 4 6 2 7 1 8 3 9 5 11 6 13 7 14 8 15 9 16
REMARK SMILES IDX 10 17 15 18 11 19 14 20 12 21 13 22 20 23 21 24 22 25 23 26
REMARK SMILES IDX 24 28 25 29 26 30 72 31 27 32 71 33 28 34 29 35 30 36 65 37
REMARK SMILES IDX 31 38 70 39 64 40 66 41 32 42 69 43 63 44 62 45 33 47 55 48
REMARK SMILES IDX 40 49 54 50 41 51 44 52 53 53 67 54 42 55 43 56 52 58 68 59
REMARK SMILES IDX 45 60 34 61 35 62 39 63 36 64 38 65 37 66 56 67 57 68 61 69
REMARK SMILES IDX 58 70 60 71 59 72 46 73 47 74 51 75 48 76 50 77 49 78
REMARK H PARENT 18 5 3 10 5 12 22 27 66 46 44 57
REMARK Flexibility Score: inf
ROOT
ATOM      1  C   UNL A   1      35.651  22.198  26.231  1.00  0.00     0.117 C 
ENDROOT
BRANCH   1   2
ATOM      2  N   UNL A   1      34.719  22.238  27.350  1.00  0.00    -0.355 N 
ATOM      3  C   UNL A   1      33.396  22.573  27.388  1.00  0.00     0.240 C 
ATOM      4  O   UNL A   1      32.836  22.585  28.487  1.00  0.00    -0.273 OA
ATOM      5  H   UNL A   1      35.106  21.982  28.218  1.00  0.00     0.163 HD
BRANCH   3   6
ATOM      6  C   UNL A   1      32.642  22.946  26.116  1.00  0.00     0.187 C 
BRANCH   6   7
ATOM      7  C   UNL A   1      31.991  21.675  25.519  1.00  0.00     0.139 C 
ATOM      8  C   UNL A   1      32.147  21.581  24.002  1.00  0.00     0.040 C 
BRANCH   7   9
ATOM      9  O   UNL A   1      30.596  21.652  25.855  1.00  0.00    -0.391 OA
ATOM     10  H   UNL A   1      30.248  20.755  25.729  1.00  0.00     0.211 HD
ENDBRANCH   7   9
ENDBRANCH   6   7
BRANCH   6  11
ATOM     11  N   UNL A   1      31.593  23.979  26.390  1.00  0.00    -0.196 NA
ATOM     12  H   UNL A   1      31.796  24.377  27.307  1.00  0.00     0.142 HD
BRANCH  11  13
ATOM     13  S   UNL A   1      31.426  25.271  25.315  1.00  0.00     0.241 S 
ATOM     14  O   UNL A   1      32.185  24.949  24.129  1.00  0.00    -0.207 OA
ATOM     15  O   UNL A   1      30.009  25.553  25.249  1.00  0.00    -0.207 OA
BRANCH  13  16
ATOM     16  C   UNL A   1      32.196  26.650  26.132  1.00  0.00     0.082 A 
ATOM     17  C   UNL A   1      33.560  26.903  25.945  1.00  0.00     0.025 A 
ATOM     18  C   UNL A   1      31.416  27.500  26.928  1.00  0.00     0.025 A 
ATOM     19  C   UNL A   1      34.121  28.068  26.479  1.00  0.00     0.040 A 
ATOM     20  C   UNL A   1      31.984  28.659  27.458  1.00  0.00     0.040 A 
ATOM     21  C   UNL A   1      33.323  28.942  27.214  1.00  0.00     0.123 A 
ATOM     22  F   UNL A   1      33.851  30.082  27.678  1.00  0.00    -0.207 F 
ENDBRANCH  13  16
ENDBRANCH  11  13
ENDBRANCH   6  11
ENDBRANCH   3   6
ENDBRANCH   1   2
BRANCH   1  23
ATOM     23  C   UNL A   1      36.138  23.593  25.874  1.00  0.00     0.042 C 
BRANCH  23  24
ATOM     24  C   UNL A   1      37.343  23.576  24.948  1.00  0.00     0.118 C 
BRANCH  24  25
ATOM     25  N   UNL A   1      38.370  22.642  25.389  1.00  0.00    -0.352 N 
ATOM     26  C   UNL A   1      39.496  22.877  26.137  1.00  0.00     0.251 C 
ATOM     27  H   UNL A   1      38.237  21.707  25.109  1.00  0.00     0.163 HD
ATOM     28  O   UNL A   1      40.351  22.005  26.251  1.00  0.00    -0.269 OA
BRANCH  26  29
ATOM     29  C   UNL A   1      39.682  24.191  26.784  1.00  0.00     0.039 A 
ATOM     30  C   UNL A   1      39.186  24.386  28.074  1.00  0.00     0.014 A 
ATOM     31  C   UNL A   1      40.354  25.222  26.122  1.00  0.00     0.014 A 
ATOM     32  C   UNL A   1      39.420  25.598  28.724  1.00  0.00     0.010 A 
ATOM     33  C   UNL A   1      40.667  26.392  26.804  1.00  0.00     0.010 A 
ATOM     34  C   UNL A   1      40.194  26.595  28.108  1.00  0.00    -0.014 A 
BRANCH  34  35
ATOM     35  C   UNL A   1      40.515  27.862  28.810  1.00  0.00     0.031 A 
ATOM     36  C   UNL A   1      41.846  28.032  29.489  1.00  0.00     0.074 A 
ATOM     37  C   UNL A   1      39.583  28.830  28.895  1.00  0.00     0.049 A 
ATOM     38  N   UNL A   1      42.290  29.043  30.191  1.00  0.00    -0.248 NA
ATOM     39  C   UNL A   1      42.791  26.909  29.389  1.00  0.00     0.031 C 
ATOM     40  C   UNL A   1      38.238  28.767  28.319  1.00  0.00     0.029 A 
ATOM     41  N   UNL A   1      39.626  30.058  29.504  1.00  0.00    -0.354 N 
ATOM     42  C   UNL A   1      43.553  28.669  30.632  1.00  0.00     0.074 A 
ATOM     43  C   UNL A   1      43.782  27.320  30.165  1.00  0.00     0.031 C 
ATOM     44  C   UNL A   1      37.597  29.917  28.575  1.00  0.00     0.029 A 
ATOM     45  C   UNL A   1      38.466  30.780  29.369  1.00  0.00     0.049 A 
ATOM     46  H   UNL A   1      40.415  30.390  29.992  1.00  0.00     0.167 HD
ATOM     47  C   UNL A   1      44.451  29.390  31.343  1.00  0.00     0.031 A 
ATOM     48  C   UNL A   1      38.135  31.999  29.836  1.00  0.00     0.031 A 
ATOM     49  C   UNL A   1      44.224  30.735  31.801  1.00  0.00     0.049 A 
ATOM     50  C   UNL A   1      39.144  32.776  30.633  1.00  0.00     0.074 A 
ATOM     51  C   UNL A   1      45.094  31.576  32.474  1.00  0.00     0.029 A 
ATOM     52  N   UNL A   1      43.037  31.433  31.640  1.00  0.00    -0.354 N 
ATOM     53  N   UNL A   1      40.364  32.440  30.975  1.00  0.00    -0.248 NA
ATOM     54  C   UNL A   1      38.732  34.107  31.099  1.00  0.00     0.031 C 
ATOM     55  C   UNL A   1      44.412  32.760  32.772  1.00  0.00     0.029 A 
ATOM     56  C   UNL A   1      43.140  32.682  32.227  1.00  0.00     0.049 A 
ATOM     57  H   UNL A   1      42.239  31.091  31.175  1.00  0.00     0.167 HD
ATOM     58  C   UNL A   1      40.876  33.526  31.673  1.00  0.00     0.074 A 
ATOM     59  C   UNL A   1      39.838  34.538  31.689  1.00  0.00     0.031 C 
ATOM     60  C   UNL A   1      42.096  33.674  32.244  1.00  0.00     0.031 A 
BRANCH  47  61
ATOM     61  C   UNL A   1      45.758  28.725  31.682  1.00  0.00    -0.014 A 
ATOM     62  C   UNL A   1      45.915  27.980  32.863  1.00  0.00     0.009 A 
ATOM     63  C   UNL A   1      46.843  28.830  30.799  1.00  0.00     0.009 A 
ATOM     64  C   UNL A   1      47.145  27.395  33.173  1.00  0.00     0.001 A 
ATOM     65  C   UNL A   1      48.062  28.217  31.096  1.00  0.00     0.001 A 
ATOM     66  C   UNL A   1      48.216  27.511  32.288  1.00  0.00     0.000 A 
ENDBRANCH  47  61
BRANCH  48  67
ATOM     67  C   UNL A   1      36.793  32.563  29.543  1.00  0.00    -0.014 A 
ATOM     68  C   UNL A   1      35.752  32.449  30.478  1.00  0.00     0.009 A 
ATOM     69  C   UNL A   1      36.547  33.230  28.332  1.00  0.00     0.009 A 
ATOM     70  C   UNL A   1      34.488  32.972  30.197  1.00  0.00     0.001 A 
ATOM     71  C   UNL A   1      35.290  33.777  28.066  1.00  0.00     0.001 A 
ATOM     72  C   UNL A   1      34.259  33.640  28.995  1.00  0.00     0.000 A 
ENDBRANCH  48  67
BRANCH  60  73
ATOM     73  C   UNL A   1      42.386  34.989  32.912  1.00  0.00    -0.014 A 
ATOM     74  C   UNL A   1      41.913  35.275  34.202  1.00  0.00     0.009 A 
ATOM     75  C   UNL A   1      43.181  35.941  32.253  1.00  0.00     0.009 A 
ATOM     76  C   UNL A   1      42.201  36.503  34.803  1.00  0.00     0.001 A 
ATOM     77  C   UNL A   1      43.492  37.154  32.869  1.00  0.00     0.001 A 
ATOM     78  C   UNL A   1      42.994  37.437  34.139  1.00  0.00     0.000 A 
ENDBRANCH  60  73
ENDBRANCH  34  35
ENDBRANCH  26  29
ENDBRANCH  24  25
ENDBRANCH  23  24
ENDBRANCH   1  23
TORSDOF 15
ENDMDL
MODEL 2
REMARK VINA RESULT:     -10.4      2.354      3.568
REMARK SMILES C[C@H](O)[C@@H](NS(=O)(=O)c1ccc(F)cc1)C(=O)NCCCNC(=O)c1ccc(-c2c3nc(c(-c4ccccc4)c4ccc([nH]4)c(-c4ccccc4)c4nc(c(-c5ccccc5)c5ccc2[nH]5)C=C4)C=C3)cc1
REMARK SMILES IDX 19 1 18 2 16 3 17 4 4 6 2 7 1 8 3 9 5 11 6 13 7 14 8 15 9 16
REMARK SMILES IDX 10 17 15 18 11 19 14 20 12 21 13 22 20 23 21 24 22 25 23 26
REMARK SMILES IDX 24 28 25 29 26 30 72 31 27 32 71 33 28 34 29 35 30 36 65 37
REMARK SMILES IDX 31 38 70 39 64 40 66 41 32 42 69 43 63 44 62 45 33 47 55 48
REMARK SMILES IDX 40 49 54 50 41 51 44 52 53 53 67 54 42 55 43 56 52 58 68 59
REMARK SMILES IDX 45 60 34 61 35 62 39 63 36 64 38 65 37 66 56 67 57 68 61 69
REMARK SMILES IDX 58 70 60 71 59 72 46 73 47 74 51 75 48 76 50 77 49 78
REMARK H PARENT 18 5 3 10 5 12 22 27 66 46 44 57
REMARK Flexibility Score: inf
ROOT
ATOM      1  C   UNL A   1      36.752  20.845  24.683  1.00  0.00     0.117 C 
ENDROOT
BRANCH   1   2
ATOM      2  N   UNL A   1      35.887  21.060  25.835  1.00  0.00    -0.355 N 
ATOM      3  C   UNL A   1      34.596  21.498  25.902  1.00  0.00     0.240 C 
ATOM      4  O   UNL A   1      34.098  21.654  27.020  1.00  0.00    -0.273 OA
ATOM      5  H   UNL A   1      36.301  20.857  26.705  1.00  0.00     0.163 HD
BRANCH   3   6
ATOM      6  C   UNL A   1      33.804  21.808  24.636  1.00  0.00     0.187 C 
BRANCH   6   7
ATOM      7  C   UNL A   1      32.735  20.708  24.423  1.00  0.00     0.139 C 
ATOM      8  C   UNL A   1      32.138  20.722  23.016  1.00  0.00     0.040 C 
BRANCH   7   9
ATOM      9  O   UNL A   1      31.684  20.873  25.386  1.00  0.00    -0.391 OA
ATOM     10  H   UNL A   1      32.045  21.277  26.191  1.00  0.00     0.211 HD
ENDBRANCH   7   9
ENDBRANCH   6   7
BRANCH   6  11
ATOM     11  N   UNL A   1      33.147  23.151  24.723  1.00  0.00    -0.196 NA
ATOM     12  H   UNL A   1      33.520  23.615  25.551  1.00  0.00     0.142 HD
BRANCH  11  13
ATOM     13  S   UNL A   1      33.324  24.225  23.431  1.00  0.00     0.241 S 
ATOM     14  O   UNL A   1      34.510  23.839  22.705  1.00  0.00    -0.207 OA
ATOM     15  O   UNL A   1      32.031  24.285  22.784  1.00  0.00    -0.207 OA
BRANCH  13  16
ATOM     16  C   UNL A   1      33.604  25.810  24.187  1.00  0.00     0.082 A 
ATOM     17  C   UNL A   1      33.639  26.966  23.400  1.00  0.00     0.025 A 
ATOM     18  C   UNL A   1      33.747  25.891  25.579  1.00  0.00     0.025 A 
ATOM     19  C   UNL A   1      33.718  28.217  24.021  1.00  0.00     0.040 A 
ATOM     20  C   UNL A   1      33.828  27.142  26.191  1.00  0.00     0.040 A 
ATOM     21  C   UNL A   1      33.794  28.292  25.410  1.00  0.00     0.123 A 
ATOM     22  F   UNL A   1      33.817  29.493  26.004  1.00  0.00    -0.207 F 
ENDBRANCH  13  16
ENDBRANCH  11  13
ENDBRANCH   6  11
ENDBRANCH   3   6
ENDBRANCH   1   2
BRANCH   1  23
ATOM     23  C   UNL A   1      37.789  19.771  24.968  1.00  0.00     0.042 C 
BRANCH  23  24
ATOM     24  C   UNL A   1      38.969  20.291  25.773  1.00  0.00     0.118 C 
BRANCH  24  25
ATOM     25  N   UNL A   1      40.084  19.355  25.794  1.00  0.00    -0.352 N 
ATOM     26  C   UNL A   1      41.410  19.587  26.063  1.00  0.00     0.251 C 
ATOM     27  H   UNL A   1      39.854  18.421  25.585  1.00  0.00     0.163 HD
ATOM     28  O   UNL A   1      42.243  18.714  25.845  1.00  0.00    -0.269 OA
BRANCH  26  29
ATOM     29  C   UNL A   1      41.829  20.900  26.592  1.00  0.00     0.039 A 
ATOM     30  C   UNL A   1      42.263  21.882  25.700  1.00  0.00     0.014 A 
ATOM     31  C   UNL A   1      41.781  21.164  27.964  1.00  0.00     0.014 A 
ATOM     32  C   UNL A   1      42.590  23.150  26.180  1.00  0.00     0.010 A 
ATOM     33  C   UNL A   1      42.017  22.452  28.429  1.00  0.00     0.010 A 
ATOM     34  C   UNL A   1      42.434  23.455  27.542  1.00  0.00    -0.014 A 
BRANCH  34  35
ATOM     35  C   UNL A   1      42.708  24.817  28.061  1.00  0.00     0.031 A 
ATOM     36  C   UNL A   1      44.096  25.194  28.496  1.00  0.00     0.074 A 
ATOM     37  C   UNL A   1      41.693  25.690  28.205  1.00  0.00     0.049 A 
ATOM     38  N   UNL A   1      44.521  26.316  29.020  1.00  0.00    -0.248 NA
ATOM     39  C   UNL A   1      45.141  24.168  28.349  1.00  0.00     0.031 C 
ATOM     40  C   UNL A   1      40.293  25.429  27.864  1.00  0.00     0.029 A 
ATOM     41  N   UNL A   1      41.684  26.976  28.682  1.00  0.00    -0.354 N 
ATOM     42  C   UNL A   1      45.871  26.122  29.283  1.00  0.00     0.074 A 
ATOM     43  C   UNL A   1      46.183  24.759  28.913  1.00  0.00     0.031 C 
ATOM     44  C   UNL A   1      39.568  26.530  28.112  1.00  0.00     0.029 A 
ATOM     45  C   UNL A   1      40.440  27.559  28.671  1.00  0.00     0.049 A 
ATOM     46  H   UNL A   1      42.493  27.438  29.003  1.00  0.00     0.167 HD
ATOM     47  C   UNL A   1      46.776  27.004  29.769  1.00  0.00     0.031 A 
ATOM     48  C   UNL A   1      40.044  28.782  29.069  1.00  0.00     0.031 A 
ATOM     49  C   UNL A   1      46.465  28.362  30.130  1.00  0.00     0.049 A 
ATOM     50  C   UNL A   1      41.064  29.740  29.616  1.00  0.00     0.074 A 
ATOM     51  C   UNL A   1      47.323  29.354  30.571  1.00  0.00     0.029 A 
ATOM     52  N   UNL A   1      45.194  28.915  30.099  1.00  0.00    -0.354 N 
ATOM     53  N   UNL A   1      42.352  29.568  29.785  1.00  0.00    -0.248 NA
ATOM     54  C   UNL A   1      40.575  31.066  30.016  1.00  0.00     0.031 C 
ATOM     55  C   UNL A   1      46.560  30.490  30.864  1.00  0.00     0.029 A 
ATOM     56  C   UNL A   1      45.238  30.225  30.543  1.00  0.00     0.049 A 
ATOM     57  H   UNL A   1      44.381  28.445  29.804  1.00  0.00     0.167 HD
ATOM     58  C   UNL A   1      42.833  30.771  30.286  1.00  0.00     0.074 A 
ATOM     59  C   UNL A   1      41.699  31.669  30.376  1.00  0.00     0.031 C 
ATOM     60  C   UNL A   1      44.100  31.103  30.636  1.00  0.00     0.031 A 
BRANCH  47  61
ATOM     61  C   UNL A   1      48.187  26.514  29.952  1.00  0.00    -0.014 A 
ATOM     62  C   UNL A   1      48.595  25.884  31.139  1.00  0.00     0.009 A 
ATOM     63  C   UNL A   1      49.119  26.671  28.914  1.00  0.00     0.009 A 
ATOM     64  C   UNL A   1      49.917  25.464  31.301  1.00  0.00     0.001 A 
ATOM     65  C   UNL A   1      50.432  26.220  29.066  1.00  0.00     0.001 A 
ATOM     66  C   UNL A   1      50.833  25.630  30.263  1.00  0.00     0.000 A 
ENDBRANCH  47  61
BRANCH  48  67
ATOM     67  C   UNL A   1      38.617  29.173  28.946  1.00  0.00    -0.014 A 
ATOM     68  C   UNL A   1      37.759  29.097  30.055  1.00  0.00     0.009 A 
ATOM     69  C   UNL A   1      38.105  29.636  27.724  1.00  0.00     0.009 A 
ATOM     70  C   UNL A   1      36.414  29.456  29.935  1.00  0.00     0.001 A 
ATOM     71  C   UNL A   1      36.767  30.022  27.615  1.00  0.00     0.001 A 
ATOM     72  C   UNL A   1      35.921  29.923  28.718  1.00  0.00     0.000 A 
ENDBRANCH  48  67
BRANCH  60  73
ATOM     73  C   UNL A   1      44.332  32.506  31.122  1.00  0.00    -0.014 A 
ATOM     74  C   UNL A   1      44.616  33.552  30.231  1.00  0.00     0.009 A 
ATOM     75  C   UNL A   1      44.224  32.791  32.493  1.00  0.00     0.009 A 
ATOM     76  C   UNL A   1      44.822  34.849  30.708  1.00  0.00     0.001 A 
ATOM     77  C   UNL A   1      44.400  34.093  32.963  1.00  0.00     0.001 A 
ATOM     78  C   UNL A   1      44.708  35.119  32.071  1.00  0.00     0.000 A 
ENDBRANCH  60  73
ENDBRANCH  34  35
ENDBRANCH  26  29
ENDBRANCH  24  25
ENDBRANCH  23  24
ENDBRANCH   1  23
TORSDOF 15
ENDMDL
MODEL 3
REMARK VINA RESULT:     -10.4      3.335      5.241
REMARK SMILES C[C@H](O)[C@@H](NS(=O)(=O)c1ccc(F)cc1)C(=O)NCCCNC(=O)c1ccc(-c2c3nc(c(-c4ccccc4)c4ccc([nH]4)c(-c4ccccc4)c4nc(c(-c5ccccc5)c5ccc2[nH]5)C=C4)C=C3)cc1
REMARK SMILES IDX 19 1 18 2 16 3 17 4 4 6 2 7 1 8 3 9 5 11 6 13 7 14 8 15 9 16
REMARK SMILES IDX 10 17 15 18 11 19 14 20 12 21 13 22 20 23 21 24 22 25 23 26
REMARK SMILES IDX 24 28 25 29 26 30 72 31 27 32 71 33 28 34 29 35 30 36 65 37
REMARK SMILES IDX 31 38 70 39 64 40 66 41 32 42 69 43 63 44 62 45 33 47 55 48
REMARK SMILES IDX 40 49 54 50 41 51 44 52 53 53 67 54 42 55 43 56 52 58 68 59
REMARK SMILES IDX 45 60 34 61 35 62 39 63 36 64 38 65 37 66 56 67 57 68 61 69
REMARK SMILES IDX 58 70 60 71 59 72 46 73 47 74 51 75 48 76 50 77 49 78
REMARK H PARENT 18 5 3 10 5 12 22 27 66 46 44 57
REMARK Flexibility Score: inf
ROOT
ATOM      1  C   UNL A   1      36.665  20.775  24.847  1.00  0.00     0.117 C 
ENDROOT
BRANCH   1   2
ATOM      2  N   UNL A   1      36.050  21.078  26.133  1.00  0.00    -0.355 N 
ATOM      3  C   UNL A   1      34.888  21.732  26.426  1.00  0.00     0.240 C 
ATOM      4  O   UNL A   1      34.614  21.915  27.615  1.00  0.00    -0.273 OA
ATOM      5  H   UNL A   1      36.555  20.760  26.916  1.00  0.00     0.163 HD
BRANCH   3   6
ATOM      6  C   UNL A   1      33.972  22.242  25.319  1.00  0.00     0.187 C 
BRANCH   6   7
ATOM      7  C   UNL A   1      34.531  23.578  24.772  1.00  0.00     0.139 C 
ATOM      8  C   UNL A   1      34.963  23.491  23.310  1.00  0.00     0.040 C 
BRANCH   7   9
ATOM      9  O   UNL A   1      35.648  23.991  25.574  1.00  0.00    -0.391 OA
ATOM     10  H   UNL A   1      35.991  24.835  25.239  1.00  0.00     0.211 HD
ENDBRANCH   7   9
ENDBRANCH   6   7
BRANCH   6  11
ATOM     11  N   UNL A   1      33.855  21.243  24.209  1.00  0.00    -0.196 NA
ATOM     12  H   UNL A   1      34.626  20.585  24.315  1.00  0.00     0.142 HD
BRANCH  11  13
ATOM     13  S   UNL A   1      32.437  20.332  24.084  1.00  0.00     0.241 S 
ATOM     14  O   UNL A   1      31.534  20.793  25.112  1.00  0.00    -0.207 OA
ATOM     15  O   UNL A   1      32.067  20.362  22.686  1.00  0.00    -0.207 OA
BRANCH  13  16
ATOM     16  C   UNL A   1      32.930  18.665  24.460  1.00  0.00     0.082 A 
ATOM     17  C   UNL A   1      32.615  18.104  25.703  1.00  0.00     0.025 A 
ATOM     18  C   UNL A   1      33.598  17.910  23.486  1.00  0.00     0.025 A 
ATOM     19  C   UNL A   1      32.882  16.751  25.932  1.00  0.00     0.040 A 
ATOM     20  C   UNL A   1      33.863  16.561  23.723  1.00  0.00     0.040 A 
ATOM     21  C   UNL A   1      33.487  15.990  24.934  1.00  0.00     0.123 A 
ATOM     22  F   UNL A   1      33.694  14.682  25.138  1.00  0.00    -0.207 F 
ENDBRANCH  13  16
ENDBRANCH  11  13
ENDBRANCH   6  11
ENDBRANCH   3   6
ENDBRANCH   1   2
BRANCH   1  23
ATOM     23  C   UNL A   1      37.774  19.747  24.998  1.00  0.00     0.042 C 
BRANCH  23  24
ATOM     24  C   UNL A   1      38.974  20.285  25.761  1.00  0.00     0.118 C 
BRANCH  24  25
ATOM     25  N   UNL A   1      40.080  19.338  25.797  1.00  0.00    -0.352 N 
ATOM     26  C   UNL A   1      41.406  19.559  26.073  1.00  0.00     0.251 C 
ATOM     27  H   UNL A   1      39.842  18.405  25.593  1.00  0.00     0.163 HD
ATOM     28  O   UNL A   1      42.232  18.677  25.868  1.00  0.00    -0.269 OA
BRANCH  26  29
ATOM     29  C   UNL A   1      41.834  20.872  26.595  1.00  0.00     0.039 A 
ATOM     30  C   UNL A   1      42.293  21.840  25.699  1.00  0.00     0.014 A 
ATOM     31  C   UNL A   1      41.771  21.150  27.963  1.00  0.00     0.014 A 
ATOM     32  C   UNL A   1      42.630  23.108  26.171  1.00  0.00     0.010 A 
ATOM     33  C   UNL A   1      42.017  22.440  28.418  1.00  0.00     0.010 A 
ATOM     34  C   UNL A   1      42.459  23.429  27.528  1.00  0.00    -0.014 A 
BRANCH  34  35
ATOM     35  C   UNL A   1      42.743  24.793  28.037  1.00  0.00     0.031 A 
ATOM     36  C   UNL A   1      44.139  25.171  28.446  1.00  0.00     0.074 A 
ATOM     37  C   UNL A   1      41.731  25.667  28.195  1.00  0.00     0.049 A 
ATOM     38  N   UNL A   1      44.573  26.294  28.958  1.00  0.00    -0.248 NA
ATOM     39  C   UNL A   1      45.179  24.142  28.285  1.00  0.00     0.031 C 
ATOM     40  C   UNL A   1      40.325  25.406  27.878  1.00  0.00     0.029 A 
ATOM     41  N   UNL A   1      41.732  26.955  28.667  1.00  0.00    -0.354 N 
ATOM     42  C   UNL A   1      45.927  26.099  29.198  1.00  0.00     0.074 A 
ATOM     43  C   UNL A   1      46.232  24.735  28.828  1.00  0.00     0.031 C 
ATOM     44  C   UNL A   1      39.605  26.509  28.135  1.00  0.00     0.029 A 
ATOM     45  C   UNL A   1      40.488  27.539  28.675  1.00  0.00     0.049 A 
ATOM     46  H   UNL A   1      42.546  27.417  28.972  1.00  0.00     0.167 HD
ATOM     47  C   UNL A   1      46.842  26.982  29.665  1.00  0.00     0.031 A 
ATOM     48  C   UNL A   1      40.100  28.764  29.075  1.00  0.00     0.031 A 
ATOM     49  C   UNL A   1      46.538  28.342  30.027  1.00  0.00     0.049 A 
ATOM     50  C   UNL A   1      41.130  29.723  29.601  1.00  0.00     0.074 A 
ATOM     51  C   UNL A   1      47.404  29.335  30.449  1.00  0.00     0.029 A 
ATOM     52  N   UNL A   1      45.268  28.896  30.015  1.00  0.00    -0.354 N 
ATOM     53  N   UNL A   1      42.421  29.551  29.748  1.00  0.00    -0.248 NA
ATOM     54  C   UNL A   1      40.649  31.051  30.004  1.00  0.00     0.031 C 
ATOM     55  C   UNL A   1      46.648  30.473  30.751  1.00  0.00     0.029 A 
ATOM     56  C   UNL A   1      45.320  30.208  30.453  1.00  0.00     0.049 A 
ATOM     57  H   UNL A   1      44.449  28.426  29.736  1.00  0.00     0.167 HD
ATOM     58  C   UNL A   1      42.912  30.755  30.236  1.00  0.00     0.074 A 
ATOM     59  C   UNL A   1      41.780  31.654  30.342  1.00  0.00     0.031 C 
ATOM     60  C   UNL A   1      44.185  31.087  30.563  1.00  0.00     0.031 A 
BRANCH  47  61
ATOM     61  C   UNL A   1      48.255  26.492  29.825  1.00  0.00    -0.014 A 
ATOM     62  C   UNL A   1      49.213  26.678  28.814  1.00  0.00     0.009 A 
ATOM     63  C   UNL A   1      48.640  25.850  31.013  1.00  0.00     0.009 A 
ATOM     64  C   UNL A   1      50.512  26.189  28.970  1.00  0.00     0.001 A 
ATOM     65  C   UNL A   1      49.948  25.392  31.179  1.00  0.00     0.001 A 
ATOM     66  C   UNL A   1      50.879  25.549  30.154  1.00  0.00     0.000 A 
ENDBRANCH  47  61
BRANCH  48  67
ATOM     67  C   UNL A   1      38.671  29.155  28.976  1.00  0.00    -0.014 A 
ATOM     68  C   UNL A   1      37.816  29.020  30.081  1.00  0.00     0.009 A 
ATOM     69  C   UNL A   1      38.155  29.679  27.779  1.00  0.00     0.009 A 
ATOM     70  C   UNL A   1      36.470  29.380  29.982  1.00  0.00     0.001 A 
ATOM     71  C   UNL A   1      36.816  30.065  27.693  1.00  0.00     0.001 A 
ATOM     72  C   UNL A   1      35.972  29.907  28.792  1.00  0.00     0.000 A 
ENDBRANCH  48  67
BRANCH  60  73
ATOM     73  C   UNL A   1      44.426  32.492  31.040  1.00  0.00    -0.014 A 
ATOM     74  C   UNL A   1      44.393  32.817  32.405  1.00  0.00     0.009 A 
ATOM     75  C   UNL A   1      44.733  33.497  30.108  1.00  0.00     0.009 A 
ATOM     76  C   UNL A   1      44.627  34.130  32.822  1.00  0.00     0.001 A 
ATOM     77  C   UNL A   1      44.996  34.800  30.532  1.00  0.00     0.001 A 
ATOM     78  C   UNL A   1      44.933  35.117  31.887  1.00  0.00     0.000 A 
ENDBRANCH  60  73
ENDBRANCH  34  35
ENDBRANCH  26  29
ENDBRANCH  24  25
ENDBRANCH  23  24
ENDBRANCH   1  23
TORSDOF 15
ENDMDL
