MODEL 1
REMARK VINA RESULT:     -12.7      0.000      0.000
REMARK SMILES Cc1cc(C(=O)NCCCNC(=O)c2ccc(-c3c4nc(c(-c5ccccc5)c5ccc([nH]5)c(-c5ccccc5)c5nc(c(-c6ccccc6)c6ccc3[nH]6)C=C5)C=C4)cc2)ccc1N[C@H](C)c1cc(F)cc(F)c1
REMARK SMILES IDX 8 1 7 2 5 3 6 4 4 6 1 7 2 8 3 9 64 10 63 11 62 12 65 13
REMARK SMILES IDX 66 15 67 16 68 17 69 18 75 19 70 20 73 21 71 22 72 23 74 24
REMARK SMILES IDX 9 25 10 26 11 27 12 28 13 30 14 31 15 32 61 33 16 34 60 35
REMARK SMILES IDX 17 36 18 37 19 38 54 39 20 40 59 41 53 42 55 43 21 44 58 45
REMARK SMILES IDX 52 46 51 47 22 49 44 50 29 51 43 52 30 53 33 54 42 55 56 56
REMARK SMILES IDX 31 57 32 58 41 60 57 61 34 62 23 63 24 64 28 65 25 66 27 67
REMARK SMILES IDX 26 68 45 69 46 70 50 71 47 72 49 73 48 74 35 75 36 76 40 77
REMARK SMILES IDX 37 78 39 79 38 80
REMARK H PARENT 7 5 65 14 11 29 55 48 33 59
REMARK Flexibility Score: inf
ROOT
ATOM      1  C   UNL A   1      36.261  21.569  24.676  1.00  0.00     0.118 C 
ENDROOT
BRANCH   1   2
ATOM      2  N   UNL A   1      35.372  20.429  24.893  1.00  0.00    -0.352 N 
ATOM      3  C   UNL A   1      34.004  20.251  24.879  1.00  0.00     0.251 C 
ATOM      4  O   UNL A   1      33.589  19.107  25.072  1.00  0.00    -0.269 OA
ATOM      5  H   UNL A   1      35.861  19.599  25.096  1.00  0.00     0.163 HD
BRANCH   3   6
ATOM      6  C   UNL A   1      33.003  21.342  24.667  1.00  0.00     0.040 A 
ATOM      7  C   UNL A   1      30.254  22.985  26.754  1.00  0.00     0.046 C 
ATOM      8  C   UNL A   1      31.190  22.769  25.594  1.00  0.00    -0.027 A 
ATOM      9  C   UNL A   1      32.138  21.708  25.716  1.00  0.00     0.019 A 
ATOM     10  C   UNL A   1      31.096  23.485  24.387  1.00  0.00     0.037 A 
ATOM     11  C   UNL A   1      31.880  23.009  23.340  1.00  0.00     0.027 A 
ATOM     12  C   UNL A   1      32.827  22.000  23.470  1.00  0.00     0.016 A 
BRANCH  10  13
ATOM     13  N   UNL A   1      30.295  24.610  24.209  1.00  0.00    -0.378 N 
ATOM     14  H   UNL A   1      29.328  24.472  24.079  1.00  0.00     0.161 HD
BRANCH  13  15
ATOM     15  C   UNL A   1      30.809  26.001  24.205  1.00  0.00     0.106 C 
ATOM     16  C   UNL A   1      31.073  26.435  25.653  1.00  0.00     0.036 C 
BRANCH  15  17
ATOM     17  C   UNL A   1      29.889  27.000  23.508  1.00  0.00    -0.020 A 
ATOM     18  C   UNL A   1      28.507  26.987  23.791  1.00  0.00     0.045 A 
ATOM     19  C   UNL A   1      30.395  28.047  22.718  1.00  0.00     0.045 A 
ATOM     20  C   UNL A   1      27.695  28.043  23.378  1.00  0.00     0.126 A 
ATOM     21  C   UNL A   1      29.553  29.075  22.292  1.00  0.00     0.126 A 
ATOM     22  F   UNL A   1      26.414  28.078  23.772  1.00  0.00    -0.207 F 
ATOM     23  C   UNL A   1      28.207  29.096  22.635  1.00  0.00     0.078 A 
ATOM     24  F   UNL A   1      30.065  30.095  21.590  1.00  0.00    -0.207 F 
ENDBRANCH  15  17
ENDBRANCH  13  15
ENDBRANCH  10  13
ENDBRANCH   3   6
ENDBRANCH   1   2
BRANCH   1  25
ATOM     25  C   UNL A   1      37.697  21.321  25.166  1.00  0.00     0.042 C 
BRANCH  25  26
ATOM     26  C   UNL A   1      38.286  22.528  25.884  1.00  0.00     0.118 C 
BRANCH  26  27
ATOM     27  N   UNL A   1      39.732  22.467  26.107  1.00  0.00    -0.352 N 
ATOM     28  C   UNL A   1      40.585  23.486  26.522  1.00  0.00     0.251 C 
ATOM     29  H   UNL A   1      40.157  21.594  25.943  1.00  0.00     0.163 HD
ATOM     30  O   UNL A   1      41.777  23.299  26.662  1.00  0.00    -0.269 OA
BRANCH  28  31
ATOM     31  C   UNL A   1      39.970  24.773  26.925  1.00  0.00     0.039 A 
ATOM     32  C   UNL A   1      40.443  25.926  26.293  1.00  0.00     0.014 A 
ATOM     33  C   UNL A   1      39.246  24.851  28.112  1.00  0.00     0.014 A 
ATOM     34  C   UNL A   1      40.460  27.119  27.006  1.00  0.00     0.010 A 
ATOM     35  C   UNL A   1      39.342  26.011  28.856  1.00  0.00     0.010 A 
ATOM     36  C   UNL A   1      40.030  27.111  28.335  1.00  0.00    -0.014 A 
BRANCH  36  37
ATOM     37  C   UNL A   1      40.374  28.176  29.268  1.00  0.00     0.031 A 
ATOM     38  C   UNL A   1      39.392  29.231  29.565  1.00  0.00     0.074 A 
ATOM     39  C   UNL A   1      41.597  28.250  29.838  1.00  0.00     0.049 A 
ATOM     40  N   UNL A   1      39.703  30.465  29.777  1.00  0.00    -0.248 NA
ATOM     41  C   UNL A   1      37.961  28.968  29.593  1.00  0.00     0.031 C 
ATOM     42  C   UNL A   1      42.021  29.176  30.886  1.00  0.00     0.029 A 
ATOM     43  N   UNL A   1      42.787  27.663  29.408  1.00  0.00    -0.354 N 
ATOM     44  C   UNL A   1      38.581  31.070  30.290  1.00  0.00     0.074 A 
ATOM     45  C   UNL A   1      37.502  30.137  30.045  1.00  0.00     0.031 C 
ATOM     46  C   UNL A   1      43.349  29.346  30.791  1.00  0.00     0.029 A 
ATOM     47  C   UNL A   1      43.801  28.615  29.622  1.00  0.00     0.049 A 
ATOM     48  H   UNL A   1      42.895  26.761  29.030  1.00  0.00     0.167 HD
ATOM     49  C   UNL A   1      38.698  32.213  31.023  1.00  0.00     0.031 A 
ATOM     50  C   UNL A   1      44.604  29.096  28.631  1.00  0.00     0.031 A 
ATOM     51  C   UNL A   1      40.081  32.681  31.121  1.00  0.00     0.049 A 
ATOM     52  C   UNL A   1      44.518  30.601  28.453  1.00  0.00     0.074 A 
ATOM     53  C   UNL A   1      41.031  32.658  32.133  1.00  0.00     0.029 A 
ATOM     54  N   UNL A   1      40.767  33.032  29.968  1.00  0.00    -0.354 N 
ATOM     55  N   UNL A   1      43.754  31.387  29.158  1.00  0.00    -0.248 NA
ATOM     56  C   UNL A   1      45.192  31.319  27.372  1.00  0.00     0.031 C 
ATOM     57  C   UNL A   1      42.291  33.011  31.576  1.00  0.00     0.029 A 
ATOM     58  C   UNL A   1      42.107  33.256  30.229  1.00  0.00     0.049 A 
ATOM     59  H   UNL A   1      40.353  33.112  29.078  1.00  0.00     0.167 HD
ATOM     60  C   UNL A   1      43.770  32.653  28.628  1.00  0.00     0.074 A 
ATOM     61  C   UNL A   1      44.687  32.556  27.507  1.00  0.00     0.031 C 
ATOM     62  C   UNL A   1      42.986  33.654  29.135  1.00  0.00     0.031 A 
BRANCH  49  63
ATOM     63  C   UNL A   1      37.577  32.721  31.900  1.00  0.00    -0.014 A 
ATOM     64  C   UNL A   1      36.886  33.892  31.546  1.00  0.00     0.009 A 
ATOM     65  C   UNL A   1      37.192  32.122  33.111  1.00  0.00     0.009 A 
ATOM     66  C   UNL A   1      35.960  34.497  32.407  1.00  0.00     0.001 A 
ATOM     67  C   UNL A   1      36.305  32.745  34.000  1.00  0.00     0.001 A 
ATOM     68  C   UNL A   1      35.700  33.944  33.654  1.00  0.00     0.000 A 
ENDBRANCH  49  63
BRANCH  50  69
ATOM     69  C   UNL A   1      44.828  28.120  27.530  1.00  0.00    -0.014 A 
ATOM     70  C   UNL A   1      45.518  26.931  27.845  1.00  0.00     0.009 A 
ATOM     71  C   UNL A   1      44.036  28.155  26.374  1.00  0.00     0.009 A 
ATOM     72  C   UNL A   1      45.296  25.765  27.110  1.00  0.00     0.001 A 
ATOM     73  C   UNL A   1      43.832  26.985  25.633  1.00  0.00     0.001 A 
ATOM     74  C   UNL A   1      44.421  25.785  26.028  1.00  0.00     0.000 A 
ENDBRANCH  50  69
BRANCH  62  75
ATOM     75  C   UNL A   1      42.919  35.092  28.656  1.00  0.00    -0.014 A 
ATOM     76  C   UNL A   1      42.229  35.530  27.520  1.00  0.00     0.009 A 
ATOM     77  C   UNL A   1      43.667  36.082  29.340  1.00  0.00     0.009 A 
ATOM     78  C   UNL A   1      42.211  36.884  27.144  1.00  0.00     0.001 A 
ATOM     79  C   UNL A   1      43.670  37.427  28.962  1.00  0.00     0.001 A 
ATOM     80  C   UNL A   1      42.925  37.832  27.868  1.00  0.00     0.000 A 
ENDBRANCH  62  75
ENDBRANCH  36  37
ENDBRANCH  28  31
ENDBRANCH  26  27
ENDBRANCH  25  26
ENDBRANCH   1  25
TORSDOF 13
ENDMDL
MODEL 2
REMARK VINA RESULT:     -12.6      4.293      9.942
REMARK SMILES Cc1cc(C(=O)NCCCNC(=O)c2ccc(-c3c4nc(c(-c5ccccc5)c5ccc([nH]5)c(-c5ccccc5)c5nc(c(-c6ccccc6)c6ccc3[nH]6)C=C5)C=C4)cc2)ccc1N[C@H](C)c1cc(F)cc(F)c1
REMARK SMILES IDX 8 1 7 2 5 3 6 4 4 6 1 7 2 8 3 9 64 10 63 11 62 12 65 13
REMARK SMILES IDX 66 15 67 16 68 17 69 18 75 19 70 20 73 21 71 22 72 23 74 24
REMARK SMILES IDX 9 25 10 26 11 27 12 28 13 30 14 31 15 32 61 33 16 34 60 35
REMARK SMILES IDX 17 36 18 37 19 38 54 39 20 40 59 41 53 42 55 43 21 44 58 45
REMARK SMILES IDX 52 46 51 47 22 49 44 50 29 51 43 52 30 53 33 54 42 55 56 56
REMARK SMILES IDX 31 57 32 58 41 60 57 61 34 62 23 63 24 64 28 65 25 66 27 67
REMARK SMILES IDX 26 68 45 69 46 70 50 71 47 72 49 73 48 74 35 75 36 76 40 77
REMARK SMILES IDX 37 78 39 79 38 80
REMARK H PARENT 7 5 65 14 11 29 55 48 33 59
REMARK Flexibility Score: inf
ROOT
ATOM      1  C   UNL A   1      32.857  35.772  29.990  1.00  0.00     0.118 C 
ENDROOT
BRANCH   1   2
ATOM      2  N   UNL A   1      34.238  35.467  29.620  1.00  0.00    -0.352 N 
ATOM      3  C   UNL A   1      34.847  34.466  28.893  1.00  0.00     0.251 C 
ATOM      4  O   UNL A   1      36.068  34.548  28.745  1.00  0.00    -0.269 OA
ATOM      5  H   UNL A   1      34.879  36.127  29.970  1.00  0.00     0.163 HD
BRANCH   3   6
ATOM      6  C   UNL A   1      34.139  33.291  28.296  1.00  0.00     0.040 A 
ATOM      7  C   UNL A   1      34.992  29.626  27.623  1.00  0.00     0.046 C 
ATOM      8  C   UNL A   1      34.151  30.872  27.724  1.00  0.00    -0.027 A 
ATOM      9  C   UNL A   1      34.786  32.042  28.241  1.00  0.00     0.019 A 
ATOM     10  C   UNL A   1      32.832  30.948  27.243  1.00  0.00     0.037 A 
ATOM     11  C   UNL A   1      32.277  32.224  27.203  1.00  0.00     0.027 A 
ATOM     12  C   UNL A   1      32.882  33.355  27.738  1.00  0.00     0.016 A 
BRANCH  10  13
ATOM     13  N   UNL A   1      32.086  29.846  26.836  1.00  0.00    -0.378 N 
ATOM     14  H   UNL A   1      31.438  29.466  27.473  1.00  0.00     0.161 HD
BRANCH  13  15
ATOM     15  C   UNL A   1      32.207  29.210  25.501  1.00  0.00     0.106 C 
ATOM     16  C   UNL A   1      31.038  29.676  24.623  1.00  0.00     0.036 C 
BRANCH  15  17
ATOM     17  C   UNL A   1      32.268  27.686  25.543  1.00  0.00    -0.020 A 
ATOM     18  C   UNL A   1      33.516  27.036  25.431  1.00  0.00     0.045 A 
ATOM     19  C   UNL A   1      31.141  26.907  25.859  1.00  0.00     0.045 A 
ATOM     20  C   UNL A   1      33.631  25.679  25.727  1.00  0.00     0.126 A 
ATOM     21  C   UNL A   1      31.281  25.544  26.121  1.00  0.00     0.126 A 
ATOM     22  F   UNL A   1      34.846  25.112  25.746  1.00  0.00    -0.207 F 
ATOM     23  C   UNL A   1      32.523  24.924  26.081  1.00  0.00     0.078 A 
ATOM     24  F   UNL A   1      30.205  24.830  26.479  1.00  0.00    -0.207 F 
ENDBRANCH  15  17
ENDBRANCH  13  15
ENDBRANCH  10  13
ENDBRANCH   3   6
ENDBRANCH   1   2
BRANCH   1  25
ATOM     25  C   UNL A   1      32.602  35.692  31.504  1.00  0.00     0.042 C 
BRANCH  25  26
ATOM     26  C   UNL A   1      33.673  36.408  32.317  1.00  0.00     0.118 C 
BRANCH  26  27
ATOM     27  N   UNL A   1      34.052  35.737  33.562  1.00  0.00    -0.352 N 
ATOM     28  C   UNL A   1      34.926  34.668  33.733  1.00  0.00     0.251 C 
ATOM     29  H   UNL A   1      33.636  36.086  34.383  1.00  0.00     0.163 HD
ATOM     30  O   UNL A   1      35.148  34.198  34.831  1.00  0.00    -0.269 OA
BRANCH  28  31
ATOM     31  C   UNL A   1      35.688  34.208  32.548  1.00  0.00     0.039 A 
ATOM     32  C   UNL A   1      35.487  32.886  32.139  1.00  0.00     0.014 A 
ATOM     33  C   UNL A   1      36.796  34.932  32.116  1.00  0.00     0.014 A 
ATOM     34  C   UNL A   1      36.546  32.199  31.558  1.00  0.00     0.010 A 
ATOM     35  C   UNL A   1      37.878  34.230  31.621  1.00  0.00     0.010 A 
ATOM     36  C   UNL A   1      37.776  32.848  31.431  1.00  0.00    -0.014 A 
BRANCH  36  37
ATOM     37  C   UNL A   1      39.019  32.119  31.218  1.00  0.00     0.031 A 
ATOM     38  C   UNL A   1      39.002  30.850  30.474  1.00  0.00     0.074 A 
ATOM     39  C   UNL A   1      40.192  32.556  31.729  1.00  0.00     0.049 A 
ATOM     40  N   UNL A   1      39.762  29.843  30.749  1.00  0.00    -0.248 NA
ATOM     41  C   UNL A   1      38.074  30.608  29.380  1.00  0.00     0.031 C 
ATOM     42  C   UNL A   1      41.520  32.000  31.475  1.00  0.00     0.029 A 
ATOM     43  N   UNL A   1      40.397  33.443  32.785  1.00  0.00    -0.354 N 
ATOM     44  C   UNL A   1      39.665  28.976  29.689  1.00  0.00     0.074 A 
ATOM     45  C   UNL A   1      38.522  29.435  28.927  1.00  0.00     0.031 C 
ATOM     46  C   UNL A   1      42.307  32.283  32.524  1.00  0.00     0.029 A 
ATOM     47  C   UNL A   1      41.485  32.939  33.523  1.00  0.00     0.049 A 
ATOM     48  H   UNL A   1      39.882  34.259  32.977  1.00  0.00     0.167 HD
ATOM     49  C   UNL A   1      40.653  28.067  29.459  1.00  0.00     0.031 A 
ATOM     50  C   UNL A   1      41.414  32.618  34.846  1.00  0.00     0.031 A 
ATOM     51  C   UNL A   1      41.715  28.121  30.465  1.00  0.00     0.049 A 
ATOM     52  C   UNL A   1      41.745  31.167  35.140  1.00  0.00     0.074 A 
ATOM     53  C   UNL A   1      43.010  28.620  30.466  1.00  0.00     0.029 A 
ATOM     54  N   UNL A   1      41.412  27.856  31.792  1.00  0.00    -0.354 N 
ATOM     55  N   UNL A   1      42.062  30.283  34.237  1.00  0.00    -0.248 NA
ATOM     56  C   UNL A   1      41.611  30.568  36.468  1.00  0.00     0.031 C 
ATOM     57  C   UNL A   1      43.484  28.640  31.806  1.00  0.00     0.029 A 
ATOM     58  C   UNL A   1      42.482  28.146  32.619  1.00  0.00     0.049 A 
ATOM     59  H   UNL A   1      40.546  27.506  32.106  1.00  0.00     0.167 HD
ATOM     60  C   UNL A   1      42.119  29.034  34.804  1.00  0.00     0.074 A 
ATOM     61  C   UNL A   1      41.826  29.268  36.206  1.00  0.00     0.031 C 
ATOM     62  C   UNL A   1      42.354  27.914  34.054  1.00  0.00     0.031 A 
BRANCH  49  63
ATOM     63  C   UNL A   1      40.787  27.344  28.138  1.00  0.00    -0.014 A 
ATOM     64  C   UNL A   1      40.726  25.941  28.097  1.00  0.00     0.009 A 
ATOM     65  C   UNL A   1      41.027  27.985  26.911  1.00  0.00     0.009 A 
ATOM     66  C   UNL A   1      41.014  25.219  26.932  1.00  0.00     0.001 A 
ATOM     67  C   UNL A   1      41.365  27.272  25.753  1.00  0.00     0.001 A 
ATOM     68  C   UNL A   1      41.373  25.884  25.768  1.00  0.00     0.000 A 
ENDBRANCH  49  63
BRANCH  50  69
ATOM     69  C   UNL A   1      40.421  33.434  35.596  1.00  0.00    -0.014 A 
ATOM     70  C   UNL A   1      39.067  33.043  35.520  1.00  0.00     0.009 A 
ATOM     71  C   UNL A   1      40.828  34.254  36.657  1.00  0.00     0.009 A 
ATOM     72  C   UNL A   1      38.183  33.338  36.560  1.00  0.00     0.001 A 
ATOM     73  C   UNL A   1      39.931  34.559  37.688  1.00  0.00     0.001 A 
ATOM     74  C   UNL A   1      38.628  34.062  37.663  1.00  0.00     0.000 A 
ENDBRANCH  50  69
BRANCH  62  75
ATOM     75  C   UNL A   1      42.456  26.485  34.554  1.00  0.00    -0.014 A 
ATOM     76  C   UNL A   1      41.533  25.862  35.401  1.00  0.00     0.009 A 
ATOM     77  C   UNL A   1      43.602  25.719  34.224  1.00  0.00     0.009 A 
ATOM     78  C   UNL A   1      41.696  24.529  35.818  1.00  0.00     0.001 A 
ATOM     79  C   UNL A   1      43.781  24.401  34.650  1.00  0.00     0.001 A 
ATOM     80  C   UNL A   1      42.815  23.798  35.436  1.00  0.00     0.000 A 
ENDBRANCH  62  75
ENDBRANCH  36  37
ENDBRANCH  28  31
ENDBRANCH  26  27
ENDBRANCH  25  26
ENDBRANCH   1  25
TORSDOF 13
ENDMDL
MODEL 3
REMARK VINA RESULT:     -12.6      3.250      5.480
REMARK SMILES Cc1cc(C(=O)NCCCNC(=O)c2ccc(-c3c4nc(c(-c5ccccc5)c5ccc([nH]5)c(-c5ccccc5)c5nc(c(-c6ccccc6)c6ccc3[nH]6)C=C5)C=C4)cc2)ccc1N[C@H](C)c1cc(F)cc(F)c1
REMARK SMILES IDX 8 1 7 2 5 3 6 4 4 6 1 7 2 8 3 9 64 10 63 11 62 12 65 13
REMARK SMILES IDX 66 15 67 16 68 17 69 18 75 19 70 20 73 21 71 22 72 23 74 24
REMARK SMILES IDX 9 25 10 26 11 27 12 28 13 30 14 31 15 32 61 33 16 34 60 35
REMARK SMILES IDX 17 36 18 37 19 38 54 39 20 40 59 41 53 42 55 43 21 44 58 45
REMARK SMILES IDX 52 46 51 47 22 49 44 50 29 51 43 52 30 53 33 54 42 55 56 56
REMARK SMILES IDX 31 57 32 58 41 60 57 61 34 62 23 63 24 64 28 65 25 66 27 67
REMARK SMILES IDX 26 68 45 69 46 70 50 71 47 72 49 73 48 74 35 75 36 76 40 77
REMARK SMILES IDX 37 78 39 79 38 80
REMARK H PARENT 7 5 65 14 11 29 55 48 33 59
REMARK Flexibility Score: inf
ROOT
ATOM      1  C   UNL A   1      43.088  18.855  25.757  1.00  0.00     0.118 C 
ENDROOT
BRANCH   1   2
ATOM      2  N   UNL A   1      42.928  19.781  26.877  1.00  0.00    -0.352 N 
ATOM      3  C   UNL A   1      41.910  20.599  27.319  1.00  0.00     0.251 C 
ATOM      4  O   UNL A   1      42.115  21.234  28.356  1.00  0.00    -0.269 OA
ATOM      5  H   UNL A   1      43.732  19.833  27.444  1.00  0.00     0.163 HD
BRANCH   3   6
ATOM      6  C   UNL A   1      40.597  20.782  26.625  1.00  0.00     0.040 A 
ATOM      7  C   UNL A   1      38.139  23.665  26.119  1.00  0.00     0.046 C 
ATOM      8  C   UNL A   1      38.748  22.298  25.947  1.00  0.00    -0.027 A 
ATOM      9  C   UNL A   1      39.978  22.046  26.626  1.00  0.00     0.019 A 
ATOM     10  C   UNL A   1      38.111  21.257  25.247  1.00  0.00     0.037 A 
ATOM     11  C   UNL A   1      38.693  19.999  25.375  1.00  0.00     0.027 A 
ATOM     12  C   UNL A   1      39.908  19.762  26.008  1.00  0.00     0.016 A 
BRANCH  10  13
ATOM     13  N   UNL A   1      36.980  21.429  24.454  1.00  0.00    -0.378 N 
ATOM     14  H   UNL A   1      37.108  21.546  23.485  1.00  0.00     0.161 HD
BRANCH  13  15
ATOM     15  C   UNL A   1      35.593  21.447  24.981  1.00  0.00     0.106 C 
ATOM     16  C   UNL A   1      34.982  20.048  24.812  1.00  0.00     0.036 C 
BRANCH  15  17
ATOM     17  C   UNL A   1      34.698  22.501  24.338  1.00  0.00    -0.020 A 
ATOM     18  C   UNL A   1      33.464  22.115  23.773  1.00  0.00     0.045 A 
ATOM     19  C   UNL A   1      34.981  23.875  24.437  1.00  0.00     0.045 A 
ATOM     20  C   UNL A   1      32.519  23.078  23.420  1.00  0.00     0.126 A 
ATOM     21  C   UNL A   1      34.029  24.817  24.047  1.00  0.00     0.126 A 
ATOM     22  F   UNL A   1      31.303  22.687  23.013  1.00  0.00    -0.207 F 
ATOM     23  C   UNL A   1      32.787  24.432  23.560  1.00  0.00     0.078 A 
ATOM     24  F   UNL A   1      34.294  26.121  24.204  1.00  0.00    -0.207 F 
ENDBRANCH  15  17
ENDBRANCH  13  15
ENDBRANCH  10  13
ENDBRANCH   3   6
ENDBRANCH   1   2
BRANCH   1  25
ATOM     25  C   UNL A   1      44.439  18.999  25.037  1.00  0.00     0.042 C 
BRANCH  25  26
ATOM     26  C   UNL A   1      44.365  19.933  23.836  1.00  0.00     0.118 C 
BRANCH  26  27
ATOM     27  N   UNL A   1      45.495  20.856  23.703  1.00  0.00    -0.352 N 
ATOM     28  C   UNL A   1      45.698  22.069  24.353  1.00  0.00     0.251 C 
ATOM     29  H   UNL A   1      46.200  20.584  23.073  1.00  0.00     0.163 HD
ATOM     30  O   UNL A   1      46.685  22.745  24.143  1.00  0.00    -0.269 OA
BRANCH  28  31
ATOM     31  C   UNL A   1      44.738  22.447  25.418  1.00  0.00     0.039 A 
ATOM     32  C   UNL A   1      43.632  23.210  25.033  1.00  0.00     0.014 A 
ATOM     33  C   UNL A   1      45.120  22.359  26.754  1.00  0.00     0.014 A 
ATOM     34  C   UNL A   1      43.106  24.126  25.936  1.00  0.00     0.010 A 
ATOM     35  C   UNL A   1      44.660  23.329  27.625  1.00  0.00     0.010 A 
ATOM     36  C   UNL A   1      43.721  24.266  27.182  1.00  0.00    -0.014 A 
BRANCH  36  37
ATOM     37  C   UNL A   1      43.514  25.438  28.022  1.00  0.00     0.031 A 
ATOM     38  C   UNL A   1      42.228  26.150  27.976  1.00  0.00     0.074 A 
ATOM     39  C   UNL A   1      44.495  25.922  28.817  1.00  0.00     0.049 A 
ATOM     40  N   UNL A   1      42.109  27.431  28.088  1.00  0.00    -0.248 NA
ATOM     41  C   UNL A   1      40.969  25.458  27.744  1.00  0.00     0.031 C 
ATOM     42  C   UNL A   1      44.376  26.994  29.803  1.00  0.00     0.029 A 
ATOM     43  N   UNL A   1      45.869  25.709  28.718  1.00  0.00    -0.354 N 
ATOM     44  C   UNL A   1      40.773  27.686  28.279  1.00  0.00     0.074 A 
ATOM     45  C   UNL A   1      40.098  26.451  27.940  1.00  0.00     0.031 C 
ATOM     46  C   UNL A   1      45.581  27.562  29.961  1.00  0.00     0.029 A 
ATOM     47  C   UNL A   1      46.485  26.940  29.012  1.00  0.00     0.049 A 
ATOM     48  H   UNL A   1      46.320  24.865  28.488  1.00  0.00     0.167 HD
ATOM     49  C   UNL A   1      40.379  28.850  28.869  1.00  0.00     0.031 A 
ATOM     50  C   UNL A   1      47.322  27.588  28.152  1.00  0.00     0.031 A 
ATOM     51  C   UNL A   1      41.505  29.730  29.187  1.00  0.00     0.049 A 
ATOM     52  C   UNL A   1      46.849  28.978  27.771  1.00  0.00     0.074 A 
ATOM     53  C   UNL A   1      42.156  30.063  30.366  1.00  0.00     0.029 A 
ATOM     54  N   UNL A   1      42.308  30.208  28.163  1.00  0.00    -0.354 N 
ATOM     55  N   UNL A   1      45.747  29.528  28.198  1.00  0.00    -0.248 NA
ATOM     56  C   UNL A   1      47.519  29.805  26.767  1.00  0.00     0.031 C 
ATOM     57  C   UNL A   1      43.353  30.757  30.038  1.00  0.00     0.029 A 
ATOM     58  C   UNL A   1      43.426  30.853  28.663  1.00  0.00     0.049 A 
ATOM     59  H   UNL A   1      42.109  30.102  27.205  1.00  0.00     0.167 HD
ATOM     60  C   UNL A   1      45.519  30.703  27.526  1.00  0.00     0.074 A 
ATOM     61  C   UNL A   1      46.660  30.830  26.638  1.00  0.00     0.031 C 
ATOM     62  C   UNL A   1      44.383  31.439  27.730  1.00  0.00     0.031 A 
BRANCH  49  63
ATOM     63  C   UNL A   1      38.987  29.035  29.426  1.00  0.00    -0.014 A 
ATOM     64  C   UNL A   1      38.024  29.743  28.687  1.00  0.00     0.009 A 
ATOM     65  C   UNL A   1      38.579  28.584  30.693  1.00  0.00     0.009 A 
ATOM     66  C   UNL A   1      36.779  30.089  29.228  1.00  0.00     0.001 A 
ATOM     67  C   UNL A   1      37.356  28.967  31.261  1.00  0.00     0.001 A 
ATOM     68  C   UNL A   1      36.460  29.735  30.532  1.00  0.00     0.000 A 
ENDBRANCH  49  63
BRANCH  50  69
ATOM     69  C   UNL A   1      48.070  26.667  27.254  1.00  0.00    -0.014 A 
ATOM     70  C   UNL A   1      47.463  26.315  26.031  1.00  0.00     0.009 A 
ATOM     71  C   UNL A   1      49.456  26.508  27.390  1.00  0.00     0.009 A 
ATOM     72  C   UNL A   1      48.242  25.963  24.926  1.00  0.00     0.001 A 
ATOM     73  C   UNL A   1      50.228  26.139  26.283  1.00  0.00     0.001 A 
ATOM     74  C   UNL A   1      49.628  25.915  25.044  1.00  0.00     0.000 A 
ENDBRANCH  50  69
BRANCH  62  75
ATOM     75  C   UNL A   1      44.016  32.754  27.068  1.00  0.00    -0.014 A 
ATOM     76  C   UNL A   1      44.002  32.983  25.687  1.00  0.00     0.009 A 
ATOM     77  C   UNL A   1      43.740  33.881  27.881  1.00  0.00     0.009 A 
ATOM     78  C   UNL A   1      43.646  34.231  25.150  1.00  0.00     0.001 A 
ATOM     79  C   UNL A   1      43.404  35.131  27.355  1.00  0.00     0.001 A 
ATOM     80  C   UNL A   1      43.340  35.302  25.983  1.00  0.00     0.000 A 
ENDBRANCH  62  75
ENDBRANCH  36  37
ENDBRANCH  28  31
ENDBRANCH  26  27
ENDBRANCH  25  26
ENDBRANCH   1  25
TORSDOF 13
ENDMDL
