MODEL 1
REMARK VINA RESULT:     -11.1      0.000      0.000
REMARK SMILES Cc1ccc(C)c(NC(=O)/C=C/C(=O)NCCCNC(=O)c2ccc(-c3c4nc(c(-c5ccccc5)c5ccc([nH]5)c(-c5ccccc5)c5nc(c(-c6ccccc6)c6ccc3[nH]6)C=C5)C=C4)cc2)c1
REMARK SMILES IDX 17 1 16 2 15 3 13 4 14 5 12 7 11 8 9 9 8 10 10 12 7 13 1 14
REMARK SMILES IDX 2 15 3 16 70 17 4 18 5 19 6 20 18 21 19 22 20 23 21 25 22 26
REMARK SMILES IDX 23 27 69 28 24 29 68 30 25 31 26 32 27 33 62 34 28 35 67 36
REMARK SMILES IDX 61 37 63 38 29 39 66 40 60 41 59 42 30 44 52 45 37 46 51 47
REMARK SMILES IDX 38 48 41 49 50 50 64 51 39 52 40 53 49 55 65 56 42 57 31 58
REMARK SMILES IDX 32 59 36 60 33 61 35 62 34 63 53 64 54 65 58 66 55 67 57 68
REMARK SMILES IDX 56 69 43 70 44 71 48 72 45 73 47 74 46 75
REMARK H PARENT 15 6 8 11 19 24 63 43 41 54
REMARK Flexibility Score: inf
ROOT
ATOM      1  C   UNL A   1      37.046  21.855  24.265  1.00  0.00     0.042 C 
ENDROOT
BRANCH   1   2
ATOM      2  C   UNL A   1      35.722  22.497  23.835  1.00  0.00     0.118 C 
BRANCH   2   3
ATOM      3  N   UNL A   1      34.777  22.594  24.926  1.00  0.00    -0.352 N 
ATOM      4  C   UNL A   1      34.394  23.722  25.583  1.00  0.00     0.244 C 
ATOM      5  O   UNL A   1      33.975  23.652  26.728  1.00  0.00    -0.270 OA
ATOM      6  H   UNL A   1      34.367  21.751  25.227  1.00  0.00     0.163 HD
BRANCH   4   7
ATOM      7  C   UNL A   1      34.458  24.988  24.822  1.00  0.00     0.077 C 
ATOM      8  C   UNL A   1      33.400  25.413  24.119  1.00  0.00     0.077 C 
BRANCH   8   9
ATOM      9  C   UNL A   1      33.633  26.524  23.194  1.00  0.00     0.248 C 
ATOM     10  N   UNL A   1      33.580  27.820  23.604  1.00  0.00    -0.322 N 
ATOM     11  H   UNL A   1      33.908  28.427  22.903  1.00  0.00     0.170 HD
ATOM     12  O   UNL A   1      33.923  26.275  22.021  1.00  0.00    -0.270 OA
BRANCH  10  13
ATOM     13  C   UNL A   1      33.184  28.542  24.758  1.00  0.00     0.044 A 
ATOM     14  C   UNL A   1      35.192  29.681  27.835  1.00  0.00     0.044 C 
ATOM     15  C   UNL A   1      34.047  29.400  26.910  1.00  0.00    -0.049 A 
ATOM     16  C   UNL A   1      32.782  29.866  27.237  1.00  0.00     0.004 A 
ATOM     17  C   UNL A   1      34.229  28.722  25.694  1.00  0.00     0.029 A 
ATOM     18  C   UNL A   1      31.748  29.733  26.323  1.00  0.00     0.006 A 
ATOM     19  C   UNL A   1      31.948  29.139  25.058  1.00  0.00    -0.027 A 
ATOM     20  C   UNL A   1      30.786  29.298  24.132  1.00  0.00     0.046 C 
ENDBRANCH  10  13
ENDBRANCH   8   9
ENDBRANCH   4   7
ENDBRANCH   2   3
ENDBRANCH   1   2
BRANCH   1  21
ATOM     21  C   UNL A   1      37.602  22.272  25.631  1.00  0.00     0.118 C 
BRANCH  21  22
ATOM     22  N   UNL A   1      38.929  21.726  25.886  1.00  0.00    -0.352 N 
ATOM     23  C   UNL A   1      40.104  22.206  26.424  1.00  0.00     0.251 C 
ATOM     24  H   UNL A   1      39.005  20.786  25.607  1.00  0.00     0.163 HD
ATOM     25  O   UNL A   1      41.088  21.486  26.365  1.00  0.00    -0.269 OA
BRANCH  23  26
ATOM     26  C   UNL A   1      40.226  23.546  27.054  1.00  0.00     0.039 A 
ATOM     27  C   UNL A   1      41.325  23.815  27.887  1.00  0.00     0.014 A 
ATOM     28  C   UNL A   1      39.278  24.543  26.864  1.00  0.00     0.014 A 
ATOM     29  C   UNL A   1      41.452  25.069  28.483  1.00  0.00     0.010 A 
ATOM     30  C   UNL A   1      39.471  25.821  27.322  1.00  0.00     0.010 A 
ATOM     31  C   UNL A   1      40.516  26.067  28.186  1.00  0.00    -0.014 A 
BRANCH  31  32
ATOM     32  C   UNL A   1      40.663  27.421  28.677  1.00  0.00     0.031 A 
ATOM     33  C   UNL A   1      41.781  28.165  28.069  1.00  0.00     0.074 A 
ATOM     34  C   UNL A   1      39.762  28.080  29.430  1.00  0.00     0.049 A 
ATOM     35  N   UNL A   1      42.952  28.335  28.576  1.00  0.00    -0.248 NA
ATOM     36  C   UNL A   1      41.632  28.647  26.690  1.00  0.00     0.031 C 
ATOM     37  C   UNL A   1      38.404  27.685  29.810  1.00  0.00     0.029 A 
ATOM     38  N   UNL A   1      39.879  29.330  29.950  1.00  0.00    -0.354 N 
ATOM     39  C   UNL A   1      43.632  29.137  27.675  1.00  0.00     0.074 A 
ATOM     40  C   UNL A   1      42.861  29.116  26.455  1.00  0.00     0.031 C 
ATOM     41  C   UNL A   1      37.761  28.751  30.341  1.00  0.00     0.029 A 
ATOM     42  C   UNL A   1      38.709  29.843  30.483  1.00  0.00     0.049 A 
ATOM     43  H   UNL A   1      40.727  29.830  29.947  1.00  0.00     0.167 HD
ATOM     44  C   UNL A   1      44.624  29.969  28.091  1.00  0.00     0.031 A 
ATOM     45  C   UNL A   1      38.547  31.089  30.987  1.00  0.00     0.031 A 
ATOM     46  C   UNL A   1      44.989  29.722  29.467  1.00  0.00     0.049 A 
ATOM     47  C   UNL A   1      39.892  31.609  31.332  1.00  0.00     0.074 A 
ATOM     48  C   UNL A   1      45.430  28.623  30.181  1.00  0.00     0.029 A 
ATOM     49  N   UNL A   1      44.501  30.607  30.402  1.00  0.00    -0.354 N 
ATOM     50  N   UNL A   1      40.616  31.141  32.307  1.00  0.00    -0.248 NA
ATOM     51  C   UNL A   1      40.616  32.403  30.352  1.00  0.00     0.031 C 
ATOM     52  C   UNL A   1      44.767  28.709  31.443  1.00  0.00     0.029 A 
ATOM     53  C   UNL A   1      44.004  29.879  31.454  1.00  0.00     0.049 A 
ATOM     54  H   UNL A   1      44.509  31.589  30.330  1.00  0.00     0.167 HD
ATOM     55  C   UNL A   1      41.919  31.188  31.835  1.00  0.00     0.074 A 
ATOM     56  C   UNL A   1      41.871  32.101  30.698  1.00  0.00     0.031 C 
ATOM     57  C   UNL A   1      42.845  30.265  32.234  1.00  0.00     0.031 A 
BRANCH  44  58
ATOM     58  C   UNL A   1      44.965  31.266  27.407  1.00  0.00    -0.014 A 
ATOM     59  C   UNL A   1      46.287  31.470  26.978  1.00  0.00     0.009 A 
ATOM     60  C   UNL A   1      44.115  32.388  27.403  1.00  0.00     0.009 A 
ATOM     61  C   UNL A   1      46.746  32.742  26.618  1.00  0.00     0.001 A 
ATOM     62  C   UNL A   1      44.556  33.650  26.999  1.00  0.00     0.001 A 
ATOM     63  C   UNL A   1      45.880  33.831  26.632  1.00  0.00     0.000 A 
ENDBRANCH  44  58
BRANCH  45  64
ATOM     64  C   UNL A   1      37.343  31.938  31.043  1.00  0.00    -0.014 A 
ATOM     65  C   UNL A   1      37.033  32.800  29.979  1.00  0.00     0.009 A 
ATOM     66  C   UNL A   1      36.349  31.696  32.007  1.00  0.00     0.009 A 
ATOM     67  C   UNL A   1      35.754  33.354  29.853  1.00  0.00     0.001 A 
ATOM     68  C   UNL A   1      35.072  32.255  31.883  1.00  0.00     0.001 A 
ATOM     69  C   UNL A   1      34.769  33.066  30.794  1.00  0.00     0.000 A 
ENDBRANCH  45  64
BRANCH  57  70
ATOM     70  C   UNL A   1      42.507  29.401  33.428  1.00  0.00    -0.014 A 
ATOM     71  C   UNL A   1      41.814  28.181  33.329  1.00  0.00     0.009 A 
ATOM     72  C   UNL A   1      43.000  29.780  34.686  1.00  0.00     0.009 A 
ATOM     73  C   UNL A   1      41.579  27.393  34.461  1.00  0.00     0.001 A 
ATOM     74  C   UNL A   1      42.787  28.980  35.812  1.00  0.00     0.001 A 
ATOM     75  C   UNL A   1      42.067  27.792  35.702  1.00  0.00     0.000 A 
ENDBRANCH  57  70
ENDBRANCH  31  32
ENDBRANCH  23  26
ENDBRANCH  21  22
ENDBRANCH   1  21
TORSDOF 12
ENDMDL
MODEL 2
REMARK VINA RESULT:     -11.1      2.392      7.722
REMARK SMILES Cc1ccc(C)c(NC(=O)/C=C/C(=O)NCCCNC(=O)c2ccc(-c3c4nc(c(-c5ccccc5)c5ccc([nH]5)c(-c5ccccc5)c5nc(c(-c6ccccc6)c6ccc3[nH]6)C=C5)C=C4)cc2)c1
REMARK SMILES IDX 17 1 16 2 15 3 13 4 14 5 12 7 11 8 9 9 8 10 10 12 7 13 1 14
REMARK SMILES IDX 2 15 3 16 70 17 4 18 5 19 6 20 18 21 19 22 20 23 21 25 22 26
REMARK SMILES IDX 23 27 69 28 24 29 68 30 25 31 26 32 27 33 62 34 28 35 67 36
REMARK SMILES IDX 61 37 63 38 29 39 66 40 60 41 59 42 30 44 52 45 37 46 51 47
REMARK SMILES IDX 38 48 41 49 50 50 64 51 39 52 40 53 49 55 65 56 42 57 31 58
REMARK SMILES IDX 32 59 36 60 33 61 35 62 34 63 53 64 54 65 58 66 55 67 57 68
REMARK SMILES IDX 56 69 43 70 44 71 48 72 45 73 47 74 46 75
REMARK H PARENT 15 6 8 11 19 24 63 43 41 54
REMARK Flexibility Score: inf
ROOT
ATOM      1  C   UNL A   1      32.142  29.821  26.236  1.00  0.00     0.042 C 
ENDROOT
BRANCH   1   2
ATOM      2  C   UNL A   1      32.300  28.914  25.009  1.00  0.00     0.118 C 
BRANCH   2   3
ATOM      3  N   UNL A   1      31.029  28.438  24.509  1.00  0.00    -0.352 N 
ATOM      4  C   UNL A   1      30.645  27.143  24.346  1.00  0.00     0.244 C 
ATOM      5  O   UNL A   1      29.784  26.858  23.527  1.00  0.00    -0.270 OA
ATOM      6  H   UNL A   1      30.370  29.126  24.259  1.00  0.00     0.163 HD
BRANCH   4   7
ATOM      7  C   UNL A   1      31.273  26.146  25.238  1.00  0.00     0.077 C 
ATOM      8  C   UNL A   1      30.891  24.863  25.200  1.00  0.00     0.077 C 
BRANCH   8   9
ATOM      9  C   UNL A   1      31.368  24.005  26.286  1.00  0.00     0.248 C 
ATOM     10  N   UNL A   1      32.619  23.471  26.280  1.00  0.00    -0.322 N 
ATOM     11  H   UNL A   1      32.830  23.053  27.145  1.00  0.00     0.170 HD
ATOM     12  O   UNL A   1      30.628  23.794  27.250  1.00  0.00    -0.270 OA
BRANCH  10  13
ATOM     13  C   UNL A   1      33.704  23.347  25.376  1.00  0.00     0.044 A 
ATOM     14  C   UNL A   1      37.484  23.845  25.889  1.00  0.00     0.044 C 
ATOM     15  C   UNL A   1      36.158  23.618  25.230  1.00  0.00    -0.049 A 
ATOM     16  C   UNL A   1      36.117  23.301  23.880  1.00  0.00     0.004 A 
ATOM     17  C   UNL A   1      34.955  23.664  25.955  1.00  0.00     0.029 A 
ATOM     18  C   UNL A   1      34.908  22.953  23.297  1.00  0.00     0.006 A 
ATOM     19  C   UNL A   1      33.710  22.904  24.043  1.00  0.00    -0.027 A 
ATOM     20  C   UNL A   1      32.570  22.286  23.303  1.00  0.00     0.046 C 
ENDBRANCH  10  13
ENDBRANCH   8   9
ENDBRANCH   4   7
ENDBRANCH   2   3
ENDBRANCH   1   2
BRANCH   1  21
ATOM     21  C   UNL A   1      33.291  29.816  27.249  1.00  0.00     0.118 C 
BRANCH  21  22
ATOM     22  N   UNL A   1      33.600  31.148  27.753  1.00  0.00    -0.352 N 
ATOM     23  C   UNL A   1      34.686  31.744  28.359  1.00  0.00     0.251 C 
ATOM     24  H   UNL A   1      32.852  31.775  27.632  1.00  0.00     0.163 HD
ATOM     25  O   UNL A   1      34.545  32.883  28.776  1.00  0.00    -0.269 OA
BRANCH  23  26
ATOM     26  C   UNL A   1      35.997  31.067  28.533  1.00  0.00     0.039 A 
ATOM     27  C   UNL A   1      37.079  31.793  29.057  1.00  0.00     0.014 A 
ATOM     28  C   UNL A   1      36.198  29.740  28.177  1.00  0.00     0.014 A 
ATOM     29  C   UNL A   1      38.315  31.169  29.227  1.00  0.00     0.010 A 
ATOM     30  C   UNL A   1      37.362  29.079  28.478  1.00  0.00     0.010 A 
ATOM     31  C   UNL A   1      38.440  29.805  28.937  1.00  0.00    -0.014 A 
BRANCH  31  32
ATOM     32  C   UNL A   1      39.661  29.076  29.206  1.00  0.00     0.031 A 
ATOM     33  C   UNL A   1      39.923  28.850  30.639  1.00  0.00     0.074 A 
ATOM     34  C   UNL A   1      40.403  28.430  28.289  1.00  0.00     0.049 A 
ATOM     35  N   UNL A   1      40.703  29.542  31.394  1.00  0.00    -0.248 NA
ATOM     36  C   UNL A   1      39.125  27.839  31.344  1.00  0.00     0.031 C 
ATOM     37  C   UNL A   1      40.117  28.177  26.875  1.00  0.00     0.029 A 
ATOM     38  N   UNL A   1      41.577  27.776  28.490  1.00  0.00    -0.354 N 
ATOM     39  C   UNL A   1      40.667  28.923  32.631  1.00  0.00     0.074 A 
ATOM     40  C   UNL A   1      39.534  28.029  32.602  1.00  0.00     0.031 C 
ATOM     41  C   UNL A   1      40.999  27.269  26.396  1.00  0.00     0.029 A 
ATOM     42  C   UNL A   1      41.998  27.007  27.418  1.00  0.00     0.049 A 
ATOM     43  H   UNL A   1      42.086  27.843  29.330  1.00  0.00     0.167 HD
ATOM     44  C   UNL A   1      41.729  28.991  33.478  1.00  0.00     0.031 A 
ATOM     45  C   UNL A   1      43.087  26.202  27.398  1.00  0.00     0.031 A 
ATOM     46  C   UNL A   1      42.719  29.938  33.019  1.00  0.00     0.049 A 
ATOM     47  C   UNL A   1      43.997  26.658  28.477  1.00  0.00     0.074 A 
ATOM     48  C   UNL A   1      42.715  31.284  32.703  1.00  0.00     0.029 A 
ATOM     49  N   UNL A   1      43.840  29.414  32.413  1.00  0.00    -0.354 N 
ATOM     50  N   UNL A   1      44.639  27.790  28.447  1.00  0.00    -0.248 NA
ATOM     51  C   UNL A   1      43.908  26.034  29.788  1.00  0.00     0.031 C 
ATOM     52  C   UNL A   1      43.561  31.402  31.559  1.00  0.00     0.029 A 
ATOM     53  C   UNL A   1      44.080  30.136  31.272  1.00  0.00     0.049 A 
ATOM     54  H   UNL A   1      44.374  28.656  32.742  1.00  0.00     0.167 HD
ATOM     55  C   UNL A   1      44.634  28.235  29.760  1.00  0.00     0.074 A 
ATOM     56  C   UNL A   1      44.303  27.056  30.553  1.00  0.00     0.031 C 
ATOM     57  C   UNL A   1      44.615  29.572  30.049  1.00  0.00     0.031 A 
BRANCH  44  58
ATOM     58  C   UNL A   1      42.071  27.916  34.474  1.00  0.00    -0.014 A 
ATOM     59  C   UNL A   1      42.653  26.727  34.002  1.00  0.00     0.009 A 
ATOM     60  C   UNL A   1      41.613  27.915  35.805  1.00  0.00     0.009 A 
ATOM     61  C   UNL A   1      42.717  25.582  34.805  1.00  0.00     0.001 A 
ATOM     62  C   UNL A   1      41.718  26.789  36.624  1.00  0.00     0.001 A 
ATOM     63  C   UNL A   1      42.247  25.614  36.114  1.00  0.00     0.000 A 
ENDBRANCH  44  58
BRANCH  45  64
ATOM     64  C   UNL A   1      43.337  24.967  26.634  1.00  0.00    -0.014 A 
ATOM     65  C   UNL A   1      42.437  23.893  26.709  1.00  0.00     0.009 A 
ATOM     66  C   UNL A   1      44.304  24.947  25.614  1.00  0.00     0.009 A 
ATOM     67  C   UNL A   1      42.466  22.864  25.760  1.00  0.00     0.001 A 
ATOM     68  C   UNL A   1      44.336  23.916  24.670  1.00  0.00     0.001 A 
ATOM     69  C   UNL A   1      43.403  22.886  24.730  1.00  0.00     0.000 A 
ENDBRANCH  45  64
BRANCH  57  70
ATOM     70  C   UNL A   1      44.922  30.537  28.926  1.00  0.00    -0.014 A 
ATOM     71  C   UNL A   1      46.202  31.073  28.696  1.00  0.00     0.009 A 
ATOM     72  C   UNL A   1      43.907  30.831  28.003  1.00  0.00     0.009 A 
ATOM     73  C   UNL A   1      46.443  31.916  27.606  1.00  0.00     0.001 A 
ATOM     74  C   UNL A   1      44.154  31.652  26.900  1.00  0.00     0.001 A 
ATOM     75  C   UNL A   1      45.419  32.204  26.707  1.00  0.00     0.000 A 
ENDBRANCH  57  70
ENDBRANCH  31  32
ENDBRANCH  23  26
ENDBRANCH  21  22
ENDBRANCH   1  21
TORSDOF 12
ENDMDL
MODEL 3
REMARK VINA RESULT:     -11.1      2.483      4.532
REMARK SMILES Cc1ccc(C)c(NC(=O)/C=C/C(=O)NCCCNC(=O)c2ccc(-c3c4nc(c(-c5ccccc5)c5ccc([nH]5)c(-c5ccccc5)c5nc(c(-c6ccccc6)c6ccc3[nH]6)C=C5)C=C4)cc2)c1
REMARK SMILES IDX 17 1 16 2 15 3 13 4 14 5 12 7 11 8 9 9 8 10 10 12 7 13 1 14
REMARK SMILES IDX 2 15 3 16 70 17 4 18 5 19 6 20 18 21 19 22 20 23 21 25 22 26
REMARK SMILES IDX 23 27 69 28 24 29 68 30 25 31 26 32 27 33 62 34 28 35 67 36
REMARK SMILES IDX 61 37 63 38 29 39 66 40 60 41 59 42 30 44 52 45 37 46 51 47
REMARK SMILES IDX 38 48 41 49 50 50 64 51 39 52 40 53 49 55 65 56 42 57 31 58
REMARK SMILES IDX 32 59 36 60 33 61 35 62 34 63 53 64 54 65 58 66 55 67 57 68
REMARK SMILES IDX 56 69 43 70 44 71 48 72 45 73 47 74 46 75
REMARK H PARENT 15 6 8 11 19 24 63 43 41 54
REMARK Flexibility Score: inf
ROOT
ATOM      1  C   UNL A   1      39.406  21.614  26.114  1.00  0.00     0.042 C 
ENDROOT
BRANCH   1   2
ATOM      2  C   UNL A   1      38.800  22.941  26.585  1.00  0.00     0.118 C 
BRANCH   2   3
ATOM      3  N   UNL A   1      38.106  23.637  25.524  1.00  0.00    -0.352 N 
ATOM      4  C   UNL A   1      36.847  23.395  25.070  1.00  0.00     0.244 C 
ATOM      5  O   UNL A   1      36.538  23.701  23.928  1.00  0.00    -0.270 OA
ATOM      6  H   UNL A   1      38.600  24.365  25.081  1.00  0.00     0.163 HD
BRANCH   4   7
ATOM      7  C   UNL A   1      35.892  22.814  26.037  1.00  0.00     0.077 C 
ATOM      8  C   UNL A   1      35.150  21.749  25.705  1.00  0.00     0.077 C 
BRANCH   8   9
ATOM      9  C   UNL A   1      34.055  21.406  26.614  1.00  0.00     0.248 C 
ATOM     10  N   UNL A   1      33.241  20.341  26.384  1.00  0.00    -0.322 N 
ATOM     11  H   UNL A   1      32.664  20.162  27.160  1.00  0.00     0.170 HD
ATOM     12  O   UNL A   1      33.891  22.079  27.635  1.00  0.00    -0.270 OA
BRANCH  10  13
ATOM     13  C   UNL A   1      32.990  19.416  25.338  1.00  0.00     0.044 A 
ATOM     14  C   UNL A   1      32.813  15.573  25.358  1.00  0.00     0.044 C 
ATOM     15  C   UNL A   1      32.853  16.991  24.876  1.00  0.00    -0.049 A 
ATOM     16  C   UNL A   1      32.629  17.256  23.532  1.00  0.00     0.004 A 
ATOM     17  C   UNL A   1      33.057  18.066  25.756  1.00  0.00     0.029 A 
ATOM     18  C   UNL A   1      32.525  18.570  23.103  1.00  0.00     0.006 A 
ATOM     19  C   UNL A   1      32.633  19.655  24.001  1.00  0.00    -0.027 A 
ATOM     20  C   UNL A   1      32.261  20.970  23.397  1.00  0.00     0.046 C 
ENDBRANCH  10  13
ENDBRANCH   8   9
ENDBRANCH   4   7
ENDBRANCH   2   3
ENDBRANCH   1   2
BRANCH   1  21
ATOM     21  C   UNL A   1      40.747  21.210  26.736  1.00  0.00     0.118 C 
BRANCH  21  22
ATOM     22  N   UNL A   1      41.887  21.624  25.928  1.00  0.00    -0.352 N 
ATOM     23  C   UNL A   1      42.538  22.814  25.680  1.00  0.00     0.251 C 
ATOM     24  H   UNL A   1      42.291  20.871  25.439  1.00  0.00     0.163 HD
ATOM     25  O   UNL A   1      43.406  22.815  24.822  1.00  0.00    -0.269 OA
BRANCH  23  26
ATOM     26  C   UNL A   1      42.226  24.079  26.394  1.00  0.00     0.039 A 
ATOM     27  C   UNL A   1      42.628  24.227  27.732  1.00  0.00     0.014 A 
ATOM     28  C   UNL A   1      41.531  25.119  25.791  1.00  0.00     0.014 A 
ATOM     29  C   UNL A   1      42.343  25.410  28.415  1.00  0.00     0.010 A 
ATOM     30  C   UNL A   1      41.378  26.337  26.402  1.00  0.00     0.010 A 
ATOM     31  C   UNL A   1      41.720  26.462  27.731  1.00  0.00    -0.014 A 
BRANCH  31  32
ATOM     32  C   UNL A   1      41.507  27.753  28.349  1.00  0.00     0.031 A 
ATOM     33  C   UNL A   1      42.460  28.791  27.917  1.00  0.00     0.074 A 
ATOM     34  C   UNL A   1      40.425  28.107  29.066  1.00  0.00     0.049 A 
ATOM     35  N   UNL A   1      43.518  29.169  28.546  1.00  0.00    -0.248 NA
ATOM     36  C   UNL A   1      42.303  29.371  26.577  1.00  0.00     0.031 C 
ATOM     37  C   UNL A   1      39.174  27.376  29.280  1.00  0.00     0.029 A 
ATOM     38  N   UNL A   1      40.206  29.289  29.701  1.00  0.00    -0.354 N 
ATOM     39  C   UNL A   1      44.054  30.195  27.787  1.00  0.00     0.074 A 
ATOM     40  C   UNL A   1      43.400  30.129  26.501  1.00  0.00     0.031 C 
ATOM     41  C   UNL A   1      38.261  28.206  29.837  1.00  0.00     0.029 A 
ATOM     42  C   UNL A   1      38.913  29.463  30.163  1.00  0.00     0.049 A 
ATOM     43  H   UNL A   1      40.911  29.965  29.823  1.00  0.00     0.167 HD
ATOM     44  C   UNL A   1      44.790  31.181  28.365  1.00  0.00     0.031 A 
ATOM     45  C   UNL A   1      38.425  30.579  30.754  1.00  0.00     0.031 A 
ATOM     46  C   UNL A   1      45.101  30.879  29.744  1.00  0.00     0.049 A 
ATOM     47  C   UNL A   1      39.582  31.352  31.270  1.00  0.00     0.074 A 
ATOM     48  C   UNL A   1      45.735  29.840  30.399  1.00  0.00     0.029 A 
ATOM     49  N   UNL A   1      44.352  31.526  30.701  1.00  0.00    -0.354 N 
ATOM     50  N   UNL A   1      40.323  30.959  32.266  1.00  0.00    -0.248 NA
ATOM     51  C   UNL A   1      40.168  32.388  30.436  1.00  0.00     0.031 C 
ATOM     52  C   UNL A   1      44.981  29.638  31.595  1.00  0.00     0.029 A 
ATOM     53  C   UNL A   1      43.965  30.597  31.634  1.00  0.00     0.049 A 
ATOM     54  H   UNL A   1      44.134  32.486  30.714  1.00  0.00     0.167 HD
ATOM     55  C   UNL A   1      41.609  31.351  31.926  1.00  0.00     0.074 A 
ATOM     56  C   UNL A   1      41.430  32.344  30.872  1.00  0.00     0.031 C 
ATOM     57  C   UNL A   1      42.695  30.625  32.330  1.00  0.00     0.031 A 
BRANCH  44  58
ATOM     58  C   UNL A   1      44.864  32.587  27.832  1.00  0.00    -0.014 A 
ATOM     59  C   UNL A   1      43.787  33.455  28.079  1.00  0.00     0.009 A 
ATOM     60  C   UNL A   1      45.817  33.011  26.886  1.00  0.00     0.009 A 
ATOM     61  C   UNL A   1      43.644  34.654  27.373  1.00  0.00     0.001 A 
ATOM     62  C   UNL A   1      45.704  34.229  26.214  1.00  0.00     0.001 A 
ATOM     63  C   UNL A   1      44.601  35.038  26.439  1.00  0.00     0.000 A 
ENDBRANCH  44  58
BRANCH  45  64
ATOM     64  C   UNL A   1      37.055  31.121  30.768  1.00  0.00    -0.014 A 
ATOM     65  C   UNL A   1      36.456  31.503  31.979  1.00  0.00     0.009 A 
ATOM     66  C   UNL A   1      36.441  31.530  29.572  1.00  0.00     0.009 A 
ATOM     67  C   UNL A   1      35.316  32.314  31.992  1.00  0.00     0.001 A 
ATOM     68  C   UNL A   1      35.297  32.336  29.586  1.00  0.00     0.001 A 
ATOM     69  C   UNL A   1      34.748  32.746  30.796  1.00  0.00     0.000 A 
ENDBRANCH  45  64
BRANCH  57  70
ATOM     70  C   UNL A   1      42.483  29.585  33.408  1.00  0.00    -0.014 A 
ATOM     71  C   UNL A   1      42.687  29.837  34.776  1.00  0.00     0.009 A 
ATOM     72  C   UNL A   1      41.953  28.339  33.038  1.00  0.00     0.009 A 
ATOM     73  C   UNL A   1      42.419  28.856  35.736  1.00  0.00     0.001 A 
ATOM     74  C   UNL A   1      41.660  27.369  33.999  1.00  0.00     0.001 A 
ATOM     75  C   UNL A   1      41.903  27.622  35.347  1.00  0.00     0.000 A 
ENDBRANCH  57  70
ENDBRANCH  31  32
ENDBRANCH  23  26
ENDBRANCH  21  22
ENDBRANCH   1  21
TORSDOF 12
ENDMDL
