MODEL 1
REMARK VINA RESULT:     -12.1      0.000      0.000
REMARK SMILES CCn1nc(C(=O)NCCCNC(=O)c2ccc(-c3c4nc(c(-c5ccccc5)c5ccc([nH]5)c(-c5ccccc5)c5nc(c(-c6ccccc6)c6ccc3[nH]6)C=C5)C=C4)cc2)c2c1CC[C@H]([NH2+]Cc1nn(CC)c3ccccc13)C2
REMARK SMILES IDX 9 1 8 2 6 3 7 4 5 6 3 7 4 8 64 9 63 10 65 11 81 12 66 13
REMARK SMILES IDX 67 14 2 15 1 16 68 17 69 20 70 21 71 22 80 23 72 24 75 25
REMARK SMILES IDX 79 26 76 27 78 28 77 29 73 30 74 31 10 32 11 33 12 34 13 35
REMARK SMILES IDX 14 37 15 38 16 39 62 40 17 41 61 42 18 43 19 44 20 45 55 46
REMARK SMILES IDX 21 47 60 48 54 49 56 50 22 51 59 52 53 53 52 54 23 56 45 57
REMARK SMILES IDX 30 58 44 59 31 60 34 61 43 62 57 63 32 64 33 65 42 67 58 68
REMARK SMILES IDX 35 69 24 70 25 71 29 72 26 73 28 74 27 75 46 76 47 77 51 78
REMARK SMILES IDX 48 79 50 80 49 81 36 82 37 83 41 84 38 85 40 86 39 87
REMARK H PARENT 8 5 68 18 68 19 12 36 56 55 34 66
REMARK Flexibility Score: inf
ROOT
ATOM      1  C   UNL A   1      34.245  32.971  27.895  1.00  0.00     0.118 C 
ENDROOT
BRANCH   1   2
ATOM      2  N   UNL A   1      34.177  31.549  28.280  1.00  0.00    -0.351 N 
ATOM      3  C   UNL A   1      34.028  30.346  27.594  1.00  0.00     0.272 C 
ATOM      4  O   UNL A   1      34.831  29.473  27.949  1.00  0.00    -0.267 OA
ATOM      5  H   UNL A   1      34.255  31.420  29.253  1.00  0.00     0.163 HD
BRANCH   3   6
ATOM      6  C   UNL A   1      32.907  30.031  26.668  1.00  0.00     0.153 A 
ATOM      7  N   UNL A   1      31.195  30.446  25.410  1.00  0.00    -0.269 N 
ATOM      8  N   UNL A   1      31.947  30.950  26.418  1.00  0.00    -0.167 NA
ATOM      9  C   UNL A   1      31.577  29.182  25.065  1.00  0.00     0.043 A 
ATOM     10  C   UNL A   1      32.622  28.887  25.896  1.00  0.00     0.012 A 
ATOM     11  C   UNL A   1      31.102  28.255  24.008  1.00  0.00     0.062 C 
ATOM     12  C   UNL A   1      33.286  27.601  25.900  1.00  0.00     0.105 C 
ATOM     13  C   UNL A   1      31.314  26.768  24.443  1.00  0.00     0.072 C 
ATOM     14  C   UNL A   1      32.617  26.406  25.242  1.00  0.00     0.187 C 
BRANCH   7  15
ATOM     15  C   UNL A   1      30.138  31.277  24.854  1.00  0.00     0.141 C 
ATOM     16  C   UNL A   1      29.465  30.658  23.631  1.00  0.00     0.029 C 
ENDBRANCH   7  15
BRANCH  14  17
ATOM     17  N   UNL A   1      32.413  25.254  26.193  1.00  0.00    -0.338 N 
ATOM     18  H   UNL A   1      31.763  25.565  26.914  1.00  0.00     0.346 HD
ATOM     19  H   UNL A   1      33.350  25.020  26.521  1.00  0.00     0.346 HD
BRANCH  17  20
ATOM     20  C   UNL A   1      31.874  23.966  25.624  1.00  0.00     0.320 C 
BRANCH  20  21
ATOM     21  C   UNL A   1      32.958  22.938  25.236  1.00  0.00     0.124 A 
ATOM     22  N   UNL A   1      32.625  21.638  25.070  1.00  0.00    -0.171 NA
ATOM     23  C   UNL A   1      34.396  23.083  25.145  1.00  0.00     0.029 A 
ATOM     24  N   UNL A   1      33.800  20.987  25.168  1.00  0.00    -0.265 N 
ATOM     25  C   UNL A   1      34.870  21.802  25.416  1.00  0.00     0.069 A 
ATOM     26  C   UNL A   1      35.373  24.082  24.959  1.00  0.00     0.012 A 
ATOM     27  C   UNL A   1      36.196  21.493  25.751  1.00  0.00     0.028 A 
ATOM     28  C   UNL A   1      36.744  23.738  25.076  1.00  0.00     0.001 A 
ATOM     29  C   UNL A   1      37.141  22.485  25.542  1.00  0.00     0.002 A 
BRANCH  24  30
ATOM     30  C   UNL A   1      33.941  19.605  24.753  1.00  0.00     0.141 C 
ATOM     31  C   UNL A   1      32.844  18.705  25.280  1.00  0.00     0.029 C 
ENDBRANCH  24  30
ENDBRANCH  20  21
ENDBRANCH  17  20
ENDBRANCH  14  17
ENDBRANCH   3   6
ENDBRANCH   1   2
BRANCH   1  32
ATOM     32  C   UNL A   1      33.384  33.926  28.750  1.00  0.00     0.042 C 
BRANCH  32  33
ATOM     33  C   UNL A   1      34.049  35.219  29.250  1.00  0.00     0.118 C 
BRANCH  33  34
ATOM     34  N   UNL A   1      33.487  35.842  30.464  1.00  0.00    -0.352 N 
ATOM     35  C   UNL A   1      33.495  35.353  31.775  1.00  0.00     0.251 C 
ATOM     36  H   UNL A   1      33.050  36.713  30.333  1.00  0.00     0.163 HD
ATOM     37  O   UNL A   1      32.687  35.732  32.599  1.00  0.00    -0.269 OA
BRANCH  35  38
ATOM     38  C   UNL A   1      34.552  34.389  32.145  1.00  0.00     0.039 A 
ATOM     39  C   UNL A   1      34.389  33.005  32.159  1.00  0.00     0.014 A 
ATOM     40  C   UNL A   1      35.786  34.954  32.430  1.00  0.00     0.014 A 
ATOM     41  C   UNL A   1      35.531  32.212  32.311  1.00  0.00     0.010 A 
ATOM     42  C   UNL A   1      36.917  34.201  32.455  1.00  0.00     0.010 A 
ATOM     43  C   UNL A   1      36.795  32.828  32.400  1.00  0.00    -0.014 A 
BRANCH  43  44
ATOM     44  C   UNL A   1      38.023  32.128  32.070  1.00  0.00     0.031 A 
ATOM     45  C   UNL A   1      38.742  31.690  33.288  1.00  0.00     0.074 A 
ATOM     46  C   UNL A   1      38.325  31.602  30.868  1.00  0.00     0.049 A 
ATOM     47  N   UNL A   1      39.694  32.335  33.868  1.00  0.00    -0.248 NA
ATOM     48  C   UNL A   1      38.209  30.568  34.081  1.00  0.00     0.031 C 
ATOM     49  C   UNL A   1      37.535  31.586  29.634  1.00  0.00     0.029 A 
ATOM     50  N   UNL A   1      39.411  30.860  30.537  1.00  0.00    -0.354 N 
ATOM     51  C   UNL A   1      40.073  31.546  34.939  1.00  0.00     0.074 A 
ATOM     52  C   UNL A   1      38.969  30.650  35.178  1.00  0.00     0.031 C 
ATOM     53  C   UNL A   1      38.082  30.711  28.755  1.00  0.00     0.029 A 
ATOM     54  C   UNL A   1      39.345  30.242  29.298  1.00  0.00     0.049 A 
ATOM     55  H   UNL A   1      40.188  30.766  31.134  1.00  0.00     0.167 HD
ATOM     56  C   UNL A   1      41.382  31.472  35.303  1.00  0.00     0.031 A 
ATOM     57  C   UNL A   1      40.278  29.409  28.773  1.00  0.00     0.031 A 
ATOM     58  C   UNL A   1      42.175  32.458  34.595  1.00  0.00     0.049 A 
ATOM     59  C   UNL A   1      41.554  29.692  29.477  1.00  0.00     0.074 A 
ATOM     60  C   UNL A   1      42.111  33.831  34.444  1.00  0.00     0.029 A 
ATOM     61  N   UNL A   1      42.911  32.000  33.522  1.00  0.00    -0.354 N 
ATOM     62  N   UNL A   1      42.191  30.821  29.362  1.00  0.00    -0.248 NA
ATOM     63  C   UNL A   1      41.876  28.917  30.664  1.00  0.00     0.031 C 
ATOM     64  C   UNL A   1      42.377  34.064  33.059  1.00  0.00     0.029 A 
ATOM     65  C   UNL A   1      42.690  32.842  32.459  1.00  0.00     0.049 A 
ATOM     66  H   UNL A   1      43.494  31.207  33.518  1.00  0.00     0.167 HD
ATOM     67  C   UNL A   1      42.604  31.123  30.653  1.00  0.00     0.074 A 
ATOM     68  C   UNL A   1      42.490  29.861  31.385  1.00  0.00     0.031 C 
ATOM     69  C   UNL A   1      42.708  32.420  31.072  1.00  0.00     0.031 A 
BRANCH  56  70
ATOM     70  C   UNL A   1      42.011  30.246  35.912  1.00  0.00    -0.014 A 
ATOM     71  C   UNL A   1      43.152  30.413  36.715  1.00  0.00     0.009 A 
ATOM     72  C   UNL A   1      41.697  28.927  35.527  1.00  0.00     0.009 A 
ATOM     73  C   UNL A   1      43.975  29.331  37.046  1.00  0.00     0.001 A 
ATOM     74  C   UNL A   1      42.493  27.839  35.889  1.00  0.00     0.001 A 
ATOM     75  C   UNL A   1      43.649  28.045  36.624  1.00  0.00     0.000 A 
ENDBRANCH  56  70
BRANCH  57  76
ATOM     76  C   UNL A   1      40.126  28.249  27.871  1.00  0.00    -0.014 A 
ATOM     77  C   UNL A   1      40.952  28.110  26.743  1.00  0.00     0.009 A 
ATOM     78  C   UNL A   1      39.386  27.128  28.284  1.00  0.00     0.009 A 
ATOM     79  C   UNL A   1      41.081  26.877  26.091  1.00  0.00     0.001 A 
ATOM     80  C   UNL A   1      39.513  25.896  27.630  1.00  0.00     0.001 A 
ATOM     81  C   UNL A   1      40.377  25.766  26.547  1.00  0.00     0.000 A 
ENDBRANCH  57  76
BRANCH  69  82
ATOM     82  C   UNL A   1      42.616  33.507  30.022  1.00  0.00    -0.014 A 
ATOM     83  C   UNL A   1      41.452  34.261  29.774  1.00  0.00     0.009 A 
ATOM     84  C   UNL A   1      43.780  33.853  29.320  1.00  0.00     0.009 A 
ATOM     85  C   UNL A   1      41.443  35.287  28.820  1.00  0.00     0.001 A 
ATOM     86  C   UNL A   1      43.779  34.892  28.385  1.00  0.00     0.001 A 
ATOM     87  C   UNL A   1      42.608  35.601  28.126  1.00  0.00     0.000 A 
ENDBRANCH  69  82
ENDBRANCH  43  44
ENDBRANCH  35  38
ENDBRANCH  33  34
ENDBRANCH  32  33
ENDBRANCH   1  32
TORSDOF 15
ENDMDL
MODEL 2
REMARK VINA RESULT:     -12.0      3.240      6.908
REMARK SMILES CCn1nc(C(=O)NCCCNC(=O)c2ccc(-c3c4nc(c(-c5ccccc5)c5ccc([nH]5)c(-c5ccccc5)c5nc(c(-c6ccccc6)c6ccc3[nH]6)C=C5)C=C4)cc2)c2c1CC[C@H]([NH2+]Cc1nn(CC)c3ccccc13)C2
REMARK SMILES IDX 9 1 8 2 6 3 7 4 5 6 3 7 4 8 64 9 63 10 65 11 81 12 66 13
REMARK SMILES IDX 67 14 2 15 1 16 68 17 69 20 70 21 71 22 80 23 72 24 75 25
REMARK SMILES IDX 79 26 76 27 78 28 77 29 73 30 74 31 10 32 11 33 12 34 13 35
REMARK SMILES IDX 14 37 15 38 16 39 62 40 17 41 61 42 18 43 19 44 20 45 55 46
REMARK SMILES IDX 21 47 60 48 54 49 56 50 22 51 59 52 53 53 52 54 23 56 45 57
REMARK SMILES IDX 30 58 44 59 31 60 34 61 43 62 57 63 32 64 33 65 42 67 58 68
REMARK SMILES IDX 35 69 24 70 25 71 29 72 26 73 28 74 27 75 46 76 47 77 51 78
REMARK SMILES IDX 48 79 50 80 49 81 36 82 37 83 41 84 38 85 40 86 39 87
REMARK H PARENT 8 5 68 18 68 19 12 36 56 55 34 66
REMARK Flexibility Score: inf
ROOT
ATOM      1  C   UNL A   1      38.525  30.549  34.387  1.00  0.00     0.118 C 
ENDROOT
BRANCH   1   2
ATOM      2  N   UNL A   1      37.569  29.710  33.639  1.00  0.00    -0.351 N 
ATOM      3  C   UNL A   1      37.044  29.722  32.350  1.00  0.00     0.272 C 
ATOM      4  O   UNL A   1      37.062  28.613  31.799  1.00  0.00    -0.267 OA
ATOM      5  H   UNL A   1      37.221  28.965  34.180  1.00  0.00     0.163 HD
BRANCH   3   6
ATOM      6  C   UNL A   1      36.338  30.878  31.732  1.00  0.00     0.153 A 
ATOM      7  N   UNL A   1      35.586  32.903  31.598  1.00  0.00    -0.269 N 
ATOM      8  N   UNL A   1      36.038  31.970  32.470  1.00  0.00    -0.167 NA
ATOM      9  C   UNL A   1      35.488  32.414  30.327  1.00  0.00     0.043 A 
ATOM     10  C   UNL A   1      35.904  31.115  30.412  1.00  0.00     0.012 A 
ATOM     11  C   UNL A   1      35.098  33.053  29.046  1.00  0.00     0.062 C 
ATOM     12  C   UNL A   1      35.896  30.210  29.284  1.00  0.00     0.105 C 
ATOM     13  C   UNL A   1      34.470  32.001  28.074  1.00  0.00     0.072 C 
ATOM     14  C   UNL A   1      35.083  30.555  28.047  1.00  0.00     0.187 C 
BRANCH   7  15
ATOM     15  C   UNL A   1      35.285  34.234  32.104  1.00  0.00     0.141 C 
ATOM     16  C   UNL A   1      34.810  34.233  33.555  1.00  0.00     0.029 C 
ENDBRANCH   7  15
BRANCH  14  17
ATOM     17  N   UNL A   1      34.062  29.499  27.706  1.00  0.00    -0.338 N 
ATOM     18  H   UNL A   1      33.851  28.990  28.564  1.00  0.00     0.346 HD
ATOM     19  H   UNL A   1      34.498  28.947  26.967  1.00  0.00     0.346 HD
BRANCH  17  20
ATOM     20  C   UNL A   1      32.752  29.958  27.119  1.00  0.00     0.320 C 
BRANCH  20  21
ATOM     21  C   UNL A   1      32.257  29.113  25.926  1.00  0.00     0.124 A 
ATOM     22  N   UNL A   1      31.911  29.720  24.768  1.00  0.00    -0.171 NA
ATOM     23  C   UNL A   1      31.934  27.704  25.847  1.00  0.00     0.029 A 
ATOM     24  N   UNL A   1      31.155  28.803  24.135  1.00  0.00    -0.265 N 
ATOM     25  C   UNL A   1      30.974  27.646  24.841  1.00  0.00     0.069 A 
ATOM     26  C   UNL A   1      32.226  26.489  26.499  1.00  0.00     0.012 A 
ATOM     27  C   UNL A   1      30.127  26.554  24.603  1.00  0.00     0.028 A 
ATOM     28  C   UNL A   1      31.530  25.314  26.116  1.00  0.00     0.001 A 
ATOM     29  C   UNL A   1      30.446  25.366  25.241  1.00  0.00     0.002 A 
BRANCH  24  30
ATOM     30  C   UNL A   1      30.826  28.929  22.729  1.00  0.00     0.141 C 
ATOM     31  C   UNL A   1      29.535  29.680  22.479  1.00  0.00     0.029 C 
ENDBRANCH  24  30
ENDBRANCH  20  21
ENDBRANCH  17  20
ENDBRANCH  14  17
ENDBRANCH   3   6
ENDBRANCH   1   2
BRANCH   1  32
ATOM     32  C   UNL A   1      39.761  31.012  33.586  1.00  0.00     0.042 C 
BRANCH  32  33
ATOM     33  C   UNL A   1      39.941  32.525  33.379  1.00  0.00     0.118 C 
BRANCH  33  34
ATOM     34  N   UNL A   1      39.085  33.173  32.367  1.00  0.00    -0.352 N 
ATOM     35  C   UNL A   1      39.262  33.219  30.980  1.00  0.00     0.251 C 
ATOM     36  H   UNL A   1      38.288  33.634  32.713  1.00  0.00     0.163 HD
ATOM     37  O   UNL A   1      38.744  34.083  30.301  1.00  0.00    -0.269 OA
BRANCH  35  38
ATOM     38  C   UNL A   1      40.066  32.150  30.351  1.00  0.00     0.039 A 
ATOM     39  C   UNL A   1      41.459  32.095  30.369  1.00  0.00     0.014 A 
ATOM     40  C   UNL A   1      39.330  31.128  29.771  1.00  0.00     0.014 A 
ATOM     41  C   UNL A   1      42.073  30.917  29.932  1.00  0.00     0.010 A 
ATOM     42  C   UNL A   1      39.902  29.935  29.460  1.00  0.00     0.010 A 
ATOM     43  C   UNL A   1      41.275  29.826  29.535  1.00  0.00    -0.014 A 
BRANCH  43  44
ATOM     44  C   UNL A   1      41.769  28.461  29.544  1.00  0.00     0.031 A 
ATOM     45  C   UNL A   1      42.304  28.086  30.872  1.00  0.00     0.074 A 
ATOM     46  C   UNL A   1      41.474  27.515  28.631  1.00  0.00     0.049 A 
ATOM     47  N   UNL A   1      43.542  28.151  31.226  1.00  0.00    -0.248 NA
ATOM     48  C   UNL A   1      41.373  27.851  31.991  1.00  0.00     0.031 C 
ATOM     49  C   UNL A   1      40.612  27.601  27.449  1.00  0.00     0.029 A 
ATOM     50  N   UNL A   1      41.831  26.208  28.647  1.00  0.00    -0.354 N 
ATOM     51  C   UNL A   1      43.576  27.684  32.528  1.00  0.00     0.074 A 
ATOM     52  C   UNL A   1      42.225  27.790  33.020  1.00  0.00     0.031 C 
ATOM     53  C   UNL A   1      40.365  26.355  26.976  1.00  0.00     0.029 A 
ATOM     54  C   UNL A   1      41.185  25.410  27.714  1.00  0.00     0.049 A 
ATOM     55  H   UNL A   1      42.500  25.851  29.276  1.00  0.00     0.167 HD
ATOM     56  C   UNL A   1      44.631  26.941  32.960  1.00  0.00     0.031 A 
ATOM     57  C   UNL A   1      41.333  24.069  27.575  1.00  0.00     0.031 A 
ATOM     58  C   UNL A   1      45.703  26.944  31.983  1.00  0.00     0.049 A 
ATOM     59  C   UNL A   1      42.636  23.712  28.192  1.00  0.00     0.074 A 
ATOM     60  C   UNL A   1      46.431  27.929  31.342  1.00  0.00     0.029 A 
ATOM     61  N   UNL A   1      45.814  25.823  31.187  1.00  0.00    -0.354 N 
ATOM     62  N   UNL A   1      43.779  24.101  27.708  1.00  0.00    -0.248 NA
ATOM     63  C   UNL A   1      42.654  23.328  29.594  1.00  0.00     0.031 C 
ATOM     64  C   UNL A   1      46.519  27.498  29.982  1.00  0.00     0.029 A 
ATOM     65  C   UNL A   1      45.936  26.233  29.882  1.00  0.00     0.049 A 
ATOM     66  H   UNL A   1      45.806  24.890  31.501  1.00  0.00     0.167 HD
ATOM     67  C   UNL A   1      44.522  24.473  28.820  1.00  0.00     0.074 A 
ATOM     68  C   UNL A   1      43.827  23.860  29.953  1.00  0.00     0.031 C 
ATOM     69  C   UNL A   1      45.445  25.480  28.746  1.00  0.00     0.031 A 
BRANCH  56  70
ATOM     70  C   UNL A   1      44.520  25.860  34.003  1.00  0.00    -0.014 A 
ATOM     71  C   UNL A   1      45.397  25.901  35.099  1.00  0.00     0.009 A 
ATOM     72  C   UNL A   1      43.781  24.672  33.828  1.00  0.00     0.009 A 
ATOM     73  C   UNL A   1      45.582  24.787  35.926  1.00  0.00     0.001 A 
ATOM     74  C   UNL A   1      43.932  23.573  34.676  1.00  0.00     0.001 A 
ATOM     75  C   UNL A   1      44.855  23.620  35.707  1.00  0.00     0.000 A 
ENDBRANCH  56  70
BRANCH  57  76
ATOM     76  C   UNL A   1      40.364  23.040  27.148  1.00  0.00    -0.014 A 
ATOM     77  C   UNL A   1      39.073  23.404  26.732  1.00  0.00     0.009 A 
ATOM     78  C   UNL A   1      40.804  21.737  26.855  1.00  0.00     0.009 A 
ATOM     79  C   UNL A   1      38.276  22.519  25.995  1.00  0.00     0.001 A 
ATOM     80  C   UNL A   1      40.006  20.852  26.121  1.00  0.00     0.001 A 
ATOM     81  C   UNL A   1      38.751  21.250  25.672  1.00  0.00     0.000 A 
ENDBRANCH  57  76
BRANCH  69  82
ATOM     82  C   UNL A   1      45.815  25.992  27.369  1.00  0.00    -0.014 A 
ATOM     83  C   UNL A   1      46.987  25.620  26.683  1.00  0.00     0.009 A 
ATOM     84  C   UNL A   1      44.894  26.807  26.694  1.00  0.00     0.009 A 
ATOM     85  C   UNL A   1      47.251  26.092  25.391  1.00  0.00     0.001 A 
ATOM     86  C   UNL A   1      45.143  27.258  25.395  1.00  0.00     0.001 A 
ATOM     87  C   UNL A   1      46.327  26.911  24.748  1.00  0.00     0.000 A 
ENDBRANCH  69  82
ENDBRANCH  43  44
ENDBRANCH  35  38
ENDBRANCH  33  34
ENDBRANCH  32  33
ENDBRANCH   1  32
TORSDOF 15
ENDMDL
MODEL 3
REMARK VINA RESULT:     -11.9      4.179      9.202
REMARK SMILES CCn1nc(C(=O)NCCCNC(=O)c2ccc(-c3c4nc(c(-c5ccccc5)c5ccc([nH]5)c(-c5ccccc5)c5nc(c(-c6ccccc6)c6ccc3[nH]6)C=C5)C=C4)cc2)c2c1CC[C@H]([NH2+]Cc1nn(CC)c3ccccc13)C2
REMARK SMILES IDX 9 1 8 2 6 3 7 4 5 6 3 7 4 8 64 9 63 10 65 11 81 12 66 13
REMARK SMILES IDX 67 14 2 15 1 16 68 17 69 20 70 21 71 22 80 23 72 24 75 25
REMARK SMILES IDX 79 26 76 27 78 28 77 29 73 30 74 31 10 32 11 33 12 34 13 35
REMARK SMILES IDX 14 37 15 38 16 39 62 40 17 41 61 42 18 43 19 44 20 45 55 46
REMARK SMILES IDX 21 47 60 48 54 49 56 50 22 51 59 52 53 53 52 54 23 56 45 57
REMARK SMILES IDX 30 58 44 59 31 60 34 61 43 62 57 63 32 64 33 65 42 67 58 68
REMARK SMILES IDX 35 69 24 70 25 71 29 72 26 73 28 74 27 75 46 76 47 77 51 78
REMARK SMILES IDX 48 79 50 80 49 81 36 82 37 83 41 84 38 85 40 86 39 87
REMARK H PARENT 8 5 68 18 68 19 12 36 56 55 34 66
REMARK Flexibility Score: inf
ROOT
ATOM      1  C   UNL A   1      39.080  34.158  32.514  1.00  0.00     0.118 C 
ENDROOT
BRANCH   1   2
ATOM      2  N   UNL A   1      38.009  33.929  33.502  1.00  0.00    -0.351 N 
ATOM      3  C   UNL A   1      36.719  33.408  33.456  1.00  0.00     0.272 C 
ATOM      4  O   UNL A   1      36.486  32.587  34.354  1.00  0.00    -0.267 OA
ATOM      5  H   UNL A   1      38.269  34.211  34.408  1.00  0.00     0.163 HD
BRANCH   3   6
ATOM      6  C   UNL A   1      35.634  33.905  32.566  1.00  0.00     0.153 A 
ATOM      7  N   UNL A   1      33.984  35.169  31.965  1.00  0.00    -0.269 N 
ATOM      8  N   UNL A   1      34.697  34.757  33.040  1.00  0.00    -0.167 NA
ATOM      9  C   UNL A   1      34.365  34.533  30.819  1.00  0.00     0.043 A 
ATOM     10  C   UNL A   1      35.369  33.686  31.199  1.00  0.00     0.012 A 
ATOM     11  C   UNL A   1      33.924  34.676  29.409  1.00  0.00     0.062 C 
ATOM     12  C   UNL A   1      36.016  32.770  30.286  1.00  0.00     0.105 C 
ATOM     13  C   UNL A   1      34.099  33.329  28.636  1.00  0.00     0.072 C 
ATOM     14  C   UNL A   1      35.362  32.449  28.952  1.00  0.00     0.187 C 
BRANCH   7  15
ATOM     15  C   UNL A   1      32.962  36.186  32.162  1.00  0.00     0.141 C 
ATOM     16  C   UNL A   1      33.505  37.611  32.073  1.00  0.00     0.029 C 
ENDBRANCH   7  15
BRANCH  14  17
ATOM     17  N   UNL A   1      35.103  30.975  28.768  1.00  0.00    -0.338 N 
ATOM     18  H   UNL A   1      34.162  30.876  28.388  1.00  0.00     0.346 HD
ATOM     19  H   UNL A   1      35.244  30.571  29.694  1.00  0.00     0.346 HD
BRANCH  17  20
ATOM     20  C   UNL A   1      36.038  30.209  27.868  1.00  0.00     0.320 C 
BRANCH  20  21
ATOM     21  C   UNL A   1      37.292  29.653  28.577  1.00  0.00     0.124 A 
ATOM     22  N   UNL A   1      37.306  29.532  29.923  1.00  0.00    -0.171 NA
ATOM     23  C   UNL A   1      38.605  29.345  28.050  1.00  0.00     0.029 A 
ATOM     24  N   UNL A   1      38.616  29.445  30.226  1.00  0.00    -0.265 N 
ATOM     25  C   UNL A   1      39.446  29.532  29.143  1.00  0.00     0.069 A 
ATOM     26  C   UNL A   1      39.233  29.018  26.830  1.00  0.00     0.012 A 
ATOM     27  C   UNL A   1      40.841  29.659  29.069  1.00  0.00     0.028 A 
ATOM     28  C   UNL A   1      40.647  28.922  26.785  1.00  0.00     0.001 A 
ATOM     29  C   UNL A   1      41.436  29.315  27.866  1.00  0.00     0.002 A 
BRANCH  24  30
ATOM     30  C   UNL A   1      39.066  29.005  31.532  1.00  0.00     0.141 C 
ATOM     31  C   UNL A   1      38.639  27.593  31.870  1.00  0.00     0.029 C 
ENDBRANCH  24  30
ENDBRANCH  20  21
ENDBRANCH  17  20
ENDBRANCH  14  17
ENDBRANCH   3   6
ENDBRANCH   1   2
BRANCH   1  32
ATOM     32  C   UNL A   1      39.760  32.881  31.973  1.00  0.00     0.042 C 
BRANCH  32  33
ATOM     33  C   UNL A   1      40.166  32.873  30.490  1.00  0.00     0.118 C 
BRANCH  33  34
ATOM     34  N   UNL A   1      40.893  34.053  29.983  1.00  0.00    -0.352 N 
ATOM     35  C   UNL A   1      42.272  34.291  29.987  1.00  0.00     0.251 C 
ATOM     36  H   UNL A   1      40.336  34.763  29.592  1.00  0.00     0.163 HD
ATOM     37  O   UNL A   1      42.722  35.417  29.918  1.00  0.00    -0.269 OA
BRANCH  35  38
ATOM     38  C   UNL A   1      43.174  33.121  30.031  1.00  0.00     0.039 A 
ATOM     39  C   UNL A   1      43.606  32.500  31.202  1.00  0.00     0.014 A 
ATOM     40  C   UNL A   1      43.536  32.614  28.792  1.00  0.00     0.014 A 
ATOM     41  C   UNL A   1      44.271  31.275  31.087  1.00  0.00     0.010 A 
ATOM     42  C   UNL A   1      44.069  31.370  28.668  1.00  0.00     0.010 A 
ATOM     43  C   UNL A   1      44.443  30.698  29.813  1.00  0.00    -0.014 A 
BRANCH  43  44
ATOM     44  C   UNL A   1      44.657  29.274  29.631  1.00  0.00     0.031 A 
ATOM     45  C   UNL A   1      45.739  29.008  28.656  1.00  0.00     0.074 A 
ATOM     46  C   UNL A   1      44.231  28.305  30.464  1.00  0.00     0.049 A 
ATOM     47  N   UNL A   1      45.573  28.774  27.399  1.00  0.00    -0.248 NA
ATOM     48  C   UNL A   1      47.140  29.262  29.037  1.00  0.00     0.031 C 
ATOM     49  C   UNL A   1      43.483  28.421  31.719  1.00  0.00     0.029 A 
ATOM     50  N   UNL A   1      44.486  26.976  30.390  1.00  0.00    -0.354 N 
ATOM     51  C   UNL A   1      46.843  28.562  26.895  1.00  0.00     0.074 A 
ATOM     52  C   UNL A   1      47.749  29.143  27.854  1.00  0.00     0.031 C 
ATOM     53  C   UNL A   1      43.513  27.236  32.376  1.00  0.00     0.029 A 
ATOM     54  C   UNL A   1      44.130  26.245  31.512  1.00  0.00     0.049 A 
ATOM     55  H   UNL A   1      44.895  26.561  29.595  1.00  0.00     0.167 HD
ATOM     56  C   UNL A   1      47.045  27.636  25.918  1.00  0.00     0.031 A 
ATOM     57  C   UNL A   1      44.336  24.917  31.696  1.00  0.00     0.031 A 
ATOM     58  C   UNL A   1      45.783  27.151  25.394  1.00  0.00     0.049 A 
ATOM     59  C   UNL A   1      44.498  24.315  30.348  1.00  0.00     0.074 A 
ATOM     60  C   UNL A   1      44.664  27.748  24.843  1.00  0.00     0.029 A 
ATOM     61  N   UNL A   1      45.359  25.920  25.852  1.00  0.00    -0.354 N 
ATOM     62  N   UNL A   1      43.535  24.260  29.475  1.00  0.00    -0.248 NA
ATOM     63  C   UNL A   1      45.840  24.203  29.798  1.00  0.00     0.031 C 
ATOM     64  C   UNL A   1      43.553  27.070  25.435  1.00  0.00     0.029 A 
ATOM     65  C   UNL A   1      44.044  26.033  26.231  1.00  0.00     0.049 A 
ATOM     66  H   UNL A   1      45.906  25.103  25.900  1.00  0.00     0.167 HD
ATOM     67  C   UNL A   1      44.134  24.597  28.269  1.00  0.00     0.074 A 
ATOM     68  C   UNL A   1      45.569  24.429  28.508  1.00  0.00     0.031 C 
ATOM     69  C   UNL A   1      43.438  25.261  27.298  1.00  0.00     0.031 A 
BRANCH  56  70
ATOM     70  C   UNL A   1      48.317  26.843  25.770  1.00  0.00    -0.014 A 
ATOM     71  C   UNL A   1      48.695  25.992  26.821  1.00  0.00     0.009 A 
ATOM     72  C   UNL A   1      49.283  27.085  24.774  1.00  0.00     0.009 A 
ATOM     73  C   UNL A   1      49.994  25.478  26.911  1.00  0.00     0.001 A 
ATOM     74  C   UNL A   1      50.568  26.541  24.838  1.00  0.00     0.001 A 
ATOM     75  C   UNL A   1      50.932  25.761  25.923  1.00  0.00     0.000 A 
ENDBRANCH  56  70
BRANCH  57  76
ATOM     76  C   UNL A   1      44.613  24.153  32.929  1.00  0.00    -0.014 A 
ATOM     77  C   UNL A   1      45.618  24.572  33.816  1.00  0.00     0.009 A 
ATOM     78  C   UNL A   1      43.691  23.196  33.388  1.00  0.00     0.009 A 
ATOM     79  C   UNL A   1      45.661  24.098  35.134  1.00  0.00     0.001 A 
ATOM     80  C   UNL A   1      43.736  22.721  34.704  1.00  0.00     0.001 A 
ATOM     81  C   UNL A   1      44.707  23.189  35.583  1.00  0.00     0.000 A 
ENDBRANCH  57  76
BRANCH  69  82
ATOM     82  C   UNL A   1      41.938  25.384  27.470  1.00  0.00    -0.014 A 
ATOM     83  C   UNL A   1      41.000  24.904  26.535  1.00  0.00     0.009 A 
ATOM     84  C   UNL A   1      41.450  25.918  28.671  1.00  0.00     0.009 A 
ATOM     85  C   UNL A   1      39.623  25.006  26.774  1.00  0.00     0.001 A 
ATOM     86  C   UNL A   1      40.077  25.997  28.922  1.00  0.00     0.001 A 
ATOM     87  C   UNL A   1      39.164  25.553  27.968  1.00  0.00     0.000 A 
ENDBRANCH  69  82
ENDBRANCH  43  44
ENDBRANCH  35  38
ENDBRANCH  33  34
ENDBRANCH  32  33
ENDBRANCH   1  32
TORSDOF 15
ENDMDL
