MODEL 1
REMARK VINA RESULT:     -12.9      0.000      0.000
REMARK SMILES O=C(NCCCNC(=O)[C@@H]1CC=CC[C@H]1C(=O)N1CC[NH+](Cc2ccc3c(c2)OCO3)CC1)c1ccc(-c2c3nc(c(-c4ccccc4)c4ccc([nH]4)c(-c4ccccc4)c4nc(c(-c5ccccc5)c5ccc2[nH]5)C=C4)C=C3)cc1
REMARK SMILES IDX 5 1 4 2 3 3 1 4 2 5 34 7 35 8 81 9 36 10 80 11 37 12 38 13
REMARK SMILES IDX 39 14 74 15 40 16 79 17 73 18 75 19 41 20 78 21 72 22 71 23
REMARK SMILES IDX 42 25 64 26 49 27 63 28 50 29 53 30 62 31 76 32 51 33 52 34
REMARK SMILES IDX 61 36 77 37 54 38 43 39 44 40 48 41 45 42 47 43 46 44 65 45
REMARK SMILES IDX 66 46 70 47 67 48 69 49 68 50 55 51 56 52 60 53 57 54 59 55
REMARK SMILES IDX 58 56 6 57 7 58 8 59 9 61 10 62 11 63 15 64 12 65 14 66
REMARK SMILES IDX 13 67 16 68 17 69 18 70 19 71 33 72 20 73 32 74 21 75 22 77
REMARK SMILES IDX 23 78 24 79 28 80 25 81 27 82 26 83 29 84 31 85 30 86
REMARK H PARENT 3 6 75 24 53 35 7 60 21 76
REMARK Flexibility Score: inf
ROOT
ATOM      1  C   UNL A   1      33.870  28.264  25.882  1.00  0.00     0.042 C 
ENDROOT
BRANCH   1   2
ATOM      2  C   UNL A   1      33.588  28.554  27.347  1.00  0.00     0.118 C 
BRANCH   2   3
ATOM      3  N   UNL A   1      33.541  29.979  27.651  1.00  0.00    -0.352 N 
ATOM      4  O   UNL A   1      34.174  31.950  28.537  1.00  0.00    -0.269 OA
ATOM      5  C   UNL A   1      34.484  30.804  28.215  1.00  0.00     0.251 C 
ATOM      6  H   UNL A   1      32.694  30.423  27.414  1.00  0.00     0.163 HD
BRANCH   5   7
ATOM      7  C   UNL A   1      35.861  30.323  28.456  1.00  0.00     0.039 A 
ATOM      8  C   UNL A   1      36.842  30.442  27.473  1.00  0.00     0.014 A 
ATOM      9  C   UNL A   1      36.191  29.782  29.704  1.00  0.00     0.014 A 
ATOM     10  C   UNL A   1      38.093  29.871  27.666  1.00  0.00     0.010 A 
ATOM     11  C   UNL A   1      37.488  29.313  29.941  1.00  0.00     0.010 A 
ATOM     12  C   UNL A   1      38.444  29.331  28.914  1.00  0.00    -0.014 A 
BRANCH  12  13
ATOM     13  C   UNL A   1      39.847  28.906  29.139  1.00  0.00     0.031 A 
ATOM     14  C   UNL A   1      40.847  29.807  29.808  1.00  0.00     0.074 A 
ATOM     15  C   UNL A   1      40.203  27.664  28.752  1.00  0.00     0.049 A 
ATOM     16  N   UNL A   1      42.102  29.564  30.096  1.00  0.00    -0.248 NA
ATOM     17  C   UNL A   1      40.392  31.150  30.198  1.00  0.00     0.031 C 
ATOM     18  C   UNL A   1      39.319  26.702  28.085  1.00  0.00     0.029 A 
ATOM     19  N   UNL A   1      41.387  26.987  28.881  1.00  0.00    -0.354 N 
ATOM     20  C   UNL A   1      42.590  30.725  30.681  1.00  0.00     0.074 A 
ATOM     21  C   UNL A   1      41.504  31.681  30.693  1.00  0.00     0.031 C 
ATOM     22  C   UNL A   1      39.974  25.546  27.912  1.00  0.00     0.029 A 
ATOM     23  C   UNL A   1      41.343  25.706  28.381  1.00  0.00     0.049 A 
ATOM     24  H   UNL A   1      42.192  27.378  29.291  1.00  0.00     0.167 HD
ATOM     25  C   UNL A   1      43.833  30.965  31.166  1.00  0.00     0.031 A 
ATOM     26  C   UNL A   1      42.302  24.770  28.284  1.00  0.00     0.031 A 
ATOM     27  C   UNL A   1      44.909  30.008  31.156  1.00  0.00     0.049 A 
ATOM     28  C   UNL A   1      43.677  25.088  28.793  1.00  0.00     0.074 A 
ATOM     29  C   UNL A   1      46.189  30.147  31.665  1.00  0.00     0.029 A 
ATOM     30  N   UNL A   1      44.834  28.738  30.604  1.00  0.00    -0.354 N 
ATOM     31  N   UNL A   1      44.105  26.172  29.390  1.00  0.00    -0.248 NA
ATOM     32  C   UNL A   1      44.702  24.051  28.612  1.00  0.00     0.031 C 
ATOM     33  C   UNL A   1      46.909  28.987  31.363  1.00  0.00     0.029 A 
ATOM     34  C   UNL A   1      46.058  28.099  30.726  1.00  0.00     0.049 A 
ATOM     35  H   UNL A   1      44.032  28.349  30.187  1.00  0.00     0.167 HD
ATOM     36  C   UNL A   1      45.444  25.943  29.671  1.00  0.00     0.074 A 
ATOM     37  C   UNL A   1      45.747  24.605  29.207  1.00  0.00     0.031 C 
ATOM     38  C   UNL A   1      46.345  26.770  30.255  1.00  0.00     0.031 A 
BRANCH  25  39
ATOM     39  C   UNL A   1      44.121  32.331  31.729  1.00  0.00    -0.014 A 
ATOM     40  C   UNL A   1      43.983  32.603  33.098  1.00  0.00     0.009 A 
ATOM     41  C   UNL A   1      44.631  33.333  30.887  1.00  0.00     0.009 A 
ATOM     42  C   UNL A   1      44.336  33.854  33.610  1.00  0.00     0.001 A 
ATOM     43  C   UNL A   1      45.005  34.574  31.404  1.00  0.00     0.001 A 
ATOM     44  C   UNL A   1      44.853  34.836  32.764  1.00  0.00     0.000 A 
ENDBRANCH  25  39
BRANCH  26  45
ATOM     45  C   UNL A   1      42.009  23.463  27.638  1.00  0.00    -0.014 A 
ATOM     46  C   UNL A   1      41.424  22.417  28.365  1.00  0.00     0.009 A 
ATOM     47  C   UNL A   1      42.335  23.253  26.288  1.00  0.00     0.009 A 
ATOM     48  C   UNL A   1      41.205  21.175  27.763  1.00  0.00     0.001 A 
ATOM     49  C   UNL A   1      42.081  22.024  25.679  1.00  0.00     0.001 A 
ATOM     50  C   UNL A   1      41.530  20.981  26.421  1.00  0.00     0.000 A 
ENDBRANCH  26  45
BRANCH  38  51
ATOM     51  C   UNL A   1      47.734  26.233  30.447  1.00  0.00    -0.014 A 
ATOM     52  C   UNL A   1      48.148  25.711  31.683  1.00  0.00     0.009 A 
ATOM     53  C   UNL A   1      48.634  26.234  29.371  1.00  0.00     0.009 A 
ATOM     54  C   UNL A   1      49.451  25.235  31.846  1.00  0.00     0.001 A 
ATOM     55  C   UNL A   1      49.925  25.728  29.529  1.00  0.00     0.001 A 
ATOM     56  C   UNL A   1      50.336  25.240  30.768  1.00  0.00     0.000 A 
ENDBRANCH  38  51
ENDBRANCH  12  13
ENDBRANCH   5   7
ENDBRANCH   2   3
ENDBRANCH   1   2
BRANCH   1  57
ATOM     57  C   UNL A   1      34.204  26.814  25.576  1.00  0.00     0.117 C 
BRANCH  57  58
ATOM     58  N   UNL A   1      33.306  25.861  26.206  1.00  0.00    -0.356 N 
ATOM     59  C   UNL A   1      33.207  24.510  26.143  1.00  0.00     0.224 C 
ATOM     60  H   UNL A   1      32.638  26.279  26.796  1.00  0.00     0.163 HD
ATOM     61  O   UNL A   1      32.395  23.984  26.910  1.00  0.00    -0.275 OA
BRANCH  59  62
ATOM     62  C   UNL A   1      34.011  23.653  25.171  1.00  0.00     0.095 C 
ATOM     63  C   UNL A   1      35.462  23.446  25.625  1.00  0.00     0.041 C 
ATOM     64  C   UNL A   1      33.839  24.129  23.726  1.00  0.00     0.095 C 
ATOM     65  C   UNL A   1      36.376  22.972  24.536  1.00  0.00    -0.030 C 
ATOM     66  C   UNL A   1      34.691  23.329  22.724  1.00  0.00     0.041 C 
ATOM     67  C   UNL A   1      36.031  22.914  23.244  1.00  0.00    -0.030 C 
BRANCH  64  68
ATOM     68  C   UNL A   1      32.395  24.124  23.201  1.00  0.00     0.227 C 
ATOM     69  O   UNL A   1      31.879  23.074  22.818  1.00  0.00    -0.275 OA
ATOM     70  N   UNL A   1      31.653  25.273  23.434  1.00  0.00    -0.331 N 
ATOM     71  C   UNL A   1      30.328  25.115  24.025  1.00  0.00     0.181 C 
ATOM     72  C   UNL A   1      31.745  26.424  22.542  1.00  0.00     0.181 C 
ATOM     73  C   UNL A   1      29.815  26.427  24.667  1.00  0.00     0.284 C 
ATOM     74  C   UNL A   1      31.312  27.720  23.247  1.00  0.00     0.284 C 
ATOM     75  N   UNL A   1      29.992  27.669  23.894  1.00  0.00    -0.328 N 
ATOM     76  H   UNL A   1      29.979  28.416  24.588  1.00  0.00     0.348 HD
BRANCH  75  77
ATOM     77  C   UNL A   1      28.866  28.075  23.045  1.00  0.00     0.299 C 
BRANCH  77  78
ATOM     78  C   UNL A   1      28.790  29.539  22.673  1.00  0.00     0.010 A 
ATOM     79  C   UNL A   1      29.049  30.531  23.646  1.00  0.00     0.013 A 
ATOM     80  C   UNL A   1      28.377  29.926  21.386  1.00  0.00     0.060 A 
ATOM     81  C   UNL A   1      28.786  31.879  23.389  1.00  0.00     0.051 A 
ATOM     82  C   UNL A   1      28.125  31.264  21.162  1.00  0.00     0.166 A 
ATOM     83  C   UNL A   1      28.303  32.209  22.143  1.00  0.00     0.165 A 
ATOM     84  O   UNL A   1      27.631  31.795  20.013  1.00  0.00    -0.454 OA
ATOM     85  O   UNL A   1      27.933  33.453  21.740  1.00  0.00    -0.454 OA
ATOM     86  C   UNL A   1      27.461  33.173  20.405  1.00  0.00     0.468 C 
ENDBRANCH  77  78
ENDBRANCH  75  77
ENDBRANCH  64  68
ENDBRANCH  59  62
ENDBRANCH  57  58
ENDBRANCH   1  57
TORSDOF 13
ENDMDL
MODEL 2
REMARK VINA RESULT:     -12.6      0.277      5.711
REMARK SMILES O=C(NCCCNC(=O)[C@@H]1CC=CC[C@H]1C(=O)N1CC[NH+](Cc2ccc3c(c2)OCO3)CC1)c1ccc(-c2c3nc(c(-c4ccccc4)c4ccc([nH]4)c(-c4ccccc4)c4nc(c(-c5ccccc5)c5ccc2[nH]5)C=C4)C=C3)cc1
REMARK SMILES IDX 5 1 4 2 3 3 1 4 2 5 34 7 35 8 81 9 36 10 80 11 37 12 38 13
REMARK SMILES IDX 39 14 74 15 40 16 79 17 73 18 75 19 41 20 78 21 72 22 71 23
REMARK SMILES IDX 42 25 64 26 49 27 63 28 50 29 53 30 62 31 76 32 51 33 52 34
REMARK SMILES IDX 61 36 77 37 54 38 43 39 44 40 48 41 45 42 47 43 46 44 65 45
REMARK SMILES IDX 66 46 70 47 67 48 69 49 68 50 55 51 56 52 60 53 57 54 59 55
REMARK SMILES IDX 58 56 6 57 7 58 8 59 9 61 10 62 11 63 15 64 12 65 14 66
REMARK SMILES IDX 13 67 16 68 17 69 18 70 19 71 33 72 20 73 32 74 21 75 22 77
REMARK SMILES IDX 23 78 24 79 28 80 25 81 27 82 26 83 29 84 31 85 30 86
REMARK H PARENT 3 6 75 24 53 35 7 60 21 76
REMARK Flexibility Score: inf
ROOT
ATOM      1  C   UNL A   1      33.782  28.209  25.887  1.00  0.00     0.042 C 
ENDROOT
BRANCH   1   2
ATOM      2  C   UNL A   1      33.627  28.518  27.367  1.00  0.00     0.118 C 
BRANCH   2   3
ATOM      3  N   UNL A   1      33.580  29.947  27.653  1.00  0.00    -0.352 N 
ATOM      4  O   UNL A   1      34.208  31.928  28.519  1.00  0.00    -0.269 OA
ATOM      5  C   UNL A   1      34.519  30.778  28.214  1.00  0.00     0.251 C 
ATOM      6  H   UNL A   1      32.735  30.388  27.404  1.00  0.00     0.163 HD
BRANCH   5   7
ATOM      7  C   UNL A   1      35.894  30.298  28.472  1.00  0.00     0.039 A 
ATOM      8  C   UNL A   1      36.233  29.728  29.698  1.00  0.00     0.014 A 
ATOM      9  C   UNL A   1      36.852  30.380  27.456  1.00  0.00     0.014 A 
ATOM     10  C   UNL A   1      37.554  29.401  29.971  1.00  0.00     0.010 A 
ATOM     11  C   UNL A   1      38.160  29.941  27.692  1.00  0.00     0.010 A 
ATOM     12  C   UNL A   1      38.527  29.469  28.962  1.00  0.00    -0.014 A 
BRANCH  12  13
ATOM     13  C   UNL A   1      39.882  28.932  29.238  1.00  0.00     0.031 A 
ATOM     14  C   UNL A   1      40.298  27.564  28.775  1.00  0.00     0.074 A 
ATOM     15  C   UNL A   1      40.755  29.721  29.897  1.00  0.00     0.049 A 
ATOM     16  N   UNL A   1      41.457  26.970  28.919  1.00  0.00    -0.248 NA
ATOM     17  C   UNL A   1      39.294  26.756  28.067  1.00  0.00     0.031 C 
ATOM     18  C   UNL A   1      40.460  31.066  30.403  1.00  0.00     0.029 A 
ATOM     19  N   UNL A   1      42.068  29.523  30.236  1.00  0.00    -0.354 N 
ATOM     20  C   UNL A   1      41.316  25.715  28.340  1.00  0.00     0.074 A 
ATOM     21  C   UNL A   1      39.955  25.624  27.857  1.00  0.00     0.031 C 
ATOM     22  C   UNL A   1      41.571  31.590  30.938  1.00  0.00     0.029 A 
ATOM     23  C   UNL A   1      42.633  30.595  30.886  1.00  0.00     0.049 A 
ATOM     24  H   UNL A   1      42.559  28.694  30.034  1.00  0.00     0.167 HD
ATOM     25  C   UNL A   1      42.242  24.733  28.223  1.00  0.00     0.031 A 
ATOM     26  C   UNL A   1      43.861  30.754  31.409  1.00  0.00     0.031 A 
ATOM     27  C   UNL A   1      43.597  24.831  28.702  1.00  0.00     0.049 A 
ATOM     28  C   UNL A   1      44.847  29.628  31.297  1.00  0.00     0.074 A 
ATOM     29  C   UNL A   1      44.620  23.904  28.589  1.00  0.00     0.029 A 
ATOM     30  N   UNL A   1      44.117  25.917  29.391  1.00  0.00    -0.354 N 
ATOM     31  N   UNL A   1      44.711  28.470  30.701  1.00  0.00    -0.248 NA
ATOM     32  C   UNL A   1      46.154  29.833  31.934  1.00  0.00     0.031 C 
ATOM     33  C   UNL A   1      45.738  24.401  29.265  1.00  0.00     0.029 A 
ATOM     34  C   UNL A   1      45.434  25.665  29.743  1.00  0.00     0.049 A 
ATOM     35  H   UNL A   1      43.624  26.743  29.599  1.00  0.00     0.167 HD
ATOM     36  C   UNL A   1      45.920  27.814  30.875  1.00  0.00     0.074 A 
ATOM     37  C   UNL A   1      46.786  28.716  31.606  1.00  0.00     0.031 C 
ATOM     38  C   UNL A   1      46.280  26.571  30.473  1.00  0.00     0.031 A 
BRANCH  25  39
ATOM     39  C   UNL A   1      41.826  23.440  27.574  1.00  0.00    -0.014 A 
ATOM     40  C   UNL A   1      42.071  23.191  26.215  1.00  0.00     0.009 A 
ATOM     41  C   UNL A   1      41.266  22.420  28.361  1.00  0.00     0.009 A 
ATOM     42  C   UNL A   1      41.750  21.952  25.655  1.00  0.00     0.001 A 
ATOM     43  C   UNL A   1      40.967  21.175  27.804  1.00  0.00     0.001 A 
ATOM     44  C   UNL A   1      41.206  20.943  26.451  1.00  0.00     0.000 A 
ENDBRANCH  25  39
BRANCH  26  45
ATOM     45  C   UNL A   1      44.212  32.009  32.125  1.00  0.00    -0.014 A 
ATOM     46  C   UNL A   1      43.967  32.147  33.499  1.00  0.00     0.009 A 
ATOM     47  C   UNL A   1      44.778  33.087  31.425  1.00  0.00     0.009 A 
ATOM     48  C   UNL A   1      44.248  33.351  34.149  1.00  0.00     0.001 A 
ATOM     49  C   UNL A   1      45.093  34.275  32.084  1.00  0.00     0.001 A 
ATOM     50  C   UNL A   1      44.814  34.412  33.443  1.00  0.00     0.000 A 
ENDBRANCH  26  45
BRANCH  38  51
ATOM     51  C   UNL A   1      47.680  26.132  30.793  1.00  0.00    -0.014 A 
ATOM     52  C   UNL A   1      48.024  25.677  32.076  1.00  0.00     0.009 A 
ATOM     53  C   UNL A   1      48.663  26.159  29.792  1.00  0.00     0.009 A 
ATOM     54  C   UNL A   1      49.337  25.294  32.359  1.00  0.00     0.001 A 
ATOM     55  C   UNL A   1      49.966  25.744  30.070  1.00  0.00     0.001 A 
ATOM     56  C   UNL A   1      50.305  25.323  31.355  1.00  0.00     0.000 A 
ENDBRANCH  38  51
ENDBRANCH  12  13
ENDBRANCH   5   7
ENDBRANCH   2   3
ENDBRANCH   1   2
BRANCH   1  57
ATOM     57  C   UNL A   1      34.143  26.766  25.575  1.00  0.00     0.117 C 
BRANCH  57  58
ATOM     58  N   UNL A   1      33.283  25.794  26.225  1.00  0.00    -0.356 N 
ATOM     59  C   UNL A   1      33.211  24.441  26.162  1.00  0.00     0.224 C 
ATOM     60  H   UNL A   1      32.620  26.196  26.832  1.00  0.00     0.163 HD
ATOM     61  O   UNL A   1      32.431  23.896  26.948  1.00  0.00    -0.275 OA
BRANCH  59  62
ATOM     62  C   UNL A   1      34.010  23.603  25.170  1.00  0.00     0.095 C 
ATOM     63  C   UNL A   1      35.466  23.393  25.607  1.00  0.00     0.041 C 
ATOM     64  C   UNL A   1      33.824  24.103  23.734  1.00  0.00     0.095 C 
ATOM     65  C   UNL A   1      36.372  22.941  24.503  1.00  0.00    -0.030 C 
ATOM     66  C   UNL A   1      34.671  23.322  22.712  1.00  0.00     0.041 C 
ATOM     67  C   UNL A   1      36.016  22.903  23.213  1.00  0.00    -0.030 C 
BRANCH  64  68
ATOM     68  C   UNL A   1      32.376  24.101  23.221  1.00  0.00     0.227 C 
ATOM     69  O   UNL A   1      31.850  23.049  22.855  1.00  0.00    -0.275 OA
ATOM     70  N   UNL A   1      31.644  25.258  23.446  1.00  0.00    -0.331 N 
ATOM     71  C   UNL A   1      30.323  25.117  24.050  1.00  0.00     0.181 C 
ATOM     72  C   UNL A   1      31.736  26.397  22.539  1.00  0.00     0.181 C 
ATOM     73  C   UNL A   1      29.824  26.440  24.680  1.00  0.00     0.284 C 
ATOM     74  C   UNL A   1      31.319  27.705  23.231  1.00  0.00     0.284 C 
ATOM     75  N   UNL A   1      30.004  27.672  23.889  1.00  0.00    -0.328 N 
ATOM     76  H   UNL A   1      30.002  28.427  24.575  1.00  0.00     0.348 HD
BRANCH  75  77
ATOM     77  C   UNL A   1      28.873  28.075  23.045  1.00  0.00     0.299 C 
BRANCH  77  78
ATOM     78  C   UNL A   1      28.795  29.538  22.669  1.00  0.00     0.010 A 
ATOM     79  C   UNL A   1      29.057  30.533  23.639  1.00  0.00     0.013 A 
ATOM     80  C   UNL A   1      28.377  29.921  21.383  1.00  0.00     0.060 A 
ATOM     81  C   UNL A   1      28.793  31.880  23.379  1.00  0.00     0.051 A 
ATOM     82  C   UNL A   1      28.124  31.258  21.157  1.00  0.00     0.166 A 
ATOM     83  C   UNL A   1      28.305  32.206  22.135  1.00  0.00     0.165 A 
ATOM     84  O   UNL A   1      27.625  31.786  20.008  1.00  0.00    -0.454 OA
ATOM     85  O   UNL A   1      27.932  33.449  21.729  1.00  0.00    -0.454 OA
ATOM     86  C   UNL A   1      27.455  33.165  20.397  1.00  0.00     0.468 C 
ENDBRANCH  77  78
ENDBRANCH  75  77
ENDBRANCH  64  68
ENDBRANCH  59  62
ENDBRANCH  57  58
ENDBRANCH   1  57
TORSDOF 13
ENDMDL
MODEL 3
REMARK VINA RESULT:     -12.6      2.169      6.735
REMARK SMILES O=C(NCCCNC(=O)[C@@H]1CC=CC[C@H]1C(=O)N1CC[NH+](Cc2ccc3c(c2)OCO3)CC1)c1ccc(-c2c3nc(c(-c4ccccc4)c4ccc([nH]4)c(-c4ccccc4)c4nc(c(-c5ccccc5)c5ccc2[nH]5)C=C4)C=C3)cc1
REMARK SMILES IDX 5 1 4 2 3 3 1 4 2 5 34 7 35 8 81 9 36 10 80 11 37 12 38 13
REMARK SMILES IDX 39 14 74 15 40 16 79 17 73 18 75 19 41 20 78 21 72 22 71 23
REMARK SMILES IDX 42 25 64 26 49 27 63 28 50 29 53 30 62 31 76 32 51 33 52 34
REMARK SMILES IDX 61 36 77 37 54 38 43 39 44 40 48 41 45 42 47 43 46 44 65 45
REMARK SMILES IDX 66 46 70 47 67 48 69 49 68 50 55 51 56 52 60 53 57 54 59 55
REMARK SMILES IDX 58 56 6 57 7 58 8 59 9 61 10 62 11 63 15 64 12 65 14 66
REMARK SMILES IDX 13 67 16 68 17 69 18 70 19 71 33 72 20 73 32 74 21 75 22 77
REMARK SMILES IDX 23 78 24 79 28 80 25 81 27 82 26 83 29 84 31 85 30 86
REMARK H PARENT 3 6 75 24 53 35 7 60 21 76
REMARK Flexibility Score: inf
ROOT
ATOM      1  C   UNL A   1      37.536  19.647  24.972  1.00  0.00     0.042 C 
ENDROOT
BRANCH   1   2
ATOM      2  C   UNL A   1      38.718  20.249  25.713  1.00  0.00     0.118 C 
BRANCH   2   3
ATOM      3  N   UNL A   1      39.883  19.373  25.743  1.00  0.00    -0.352 N 
ATOM      4  O   UNL A   1      42.054  18.783  25.846  1.00  0.00    -0.269 OA
ATOM      5  C   UNL A   1      41.196  19.642  26.046  1.00  0.00     0.251 C 
ATOM      6  H   UNL A   1      39.699  18.435  25.505  1.00  0.00     0.163 HD
BRANCH   5   7
ATOM      7  C   UNL A   1      41.591  20.958  26.593  1.00  0.00     0.039 A 
ATOM      8  C   UNL A   1      42.137  21.939  25.767  1.00  0.00     0.014 A 
ATOM      9  C   UNL A   1      41.374  21.233  27.947  1.00  0.00     0.014 A 
ATOM     10  C   UNL A   1      42.621  23.120  26.316  1.00  0.00     0.010 A 
ATOM     11  C   UNL A   1      41.754  22.470  28.479  1.00  0.00     0.010 A 
ATOM     12  C   UNL A   1      42.404  23.415  27.671  1.00  0.00    -0.014 A 
BRANCH  12  13
ATOM     13  C   UNL A   1      42.765  24.763  28.174  1.00  0.00     0.031 A 
ATOM     14  C   UNL A   1      44.188  25.138  28.478  1.00  0.00     0.074 A 
ATOM     15  C   UNL A   1      41.776  25.668  28.328  1.00  0.00     0.049 A 
ATOM     16  N   UNL A   1      44.659  26.285  28.900  1.00  0.00    -0.248 NA
ATOM     17  C   UNL A   1      45.213  24.101  28.294  1.00  0.00     0.031 C 
ATOM     18  C   UNL A   1      40.353  25.415  28.072  1.00  0.00     0.029 A 
ATOM     19  N   UNL A   1      41.811  26.983  28.712  1.00  0.00    -0.354 N 
ATOM     20  C   UNL A   1      46.028  26.104  29.050  1.00  0.00     0.074 A 
ATOM     21  C   UNL A   1      46.312  24.731  28.691  1.00  0.00     0.031 C 
ATOM     22  C   UNL A   1      39.663  26.549  28.254  1.00  0.00     0.029 A 
ATOM     23  C   UNL A   1      40.576  27.587  28.714  1.00  0.00     0.049 A 
ATOM     24  H   UNL A   1      42.641  27.451  28.961  1.00  0.00     0.167 HD
ATOM     25  C   UNL A   1      46.958  27.005  29.448  1.00  0.00     0.031 A 
ATOM     26  C   UNL A   1      40.208  28.829  29.072  1.00  0.00     0.031 A 
ATOM     27  C   UNL A   1      46.669  28.372  29.799  1.00  0.00     0.049 A 
ATOM     28  C   UNL A   1      41.261  29.786  29.548  1.00  0.00     0.074 A 
ATOM     29  C   UNL A   1      47.553  29.370  30.172  1.00  0.00     0.029 A 
ATOM     30  N   UNL A   1      45.400  28.931  29.827  1.00  0.00    -0.354 N 
ATOM     31  N   UNL A   1      42.556  29.611  29.633  1.00  0.00    -0.248 NA
ATOM     32  C   UNL A   1      40.798  31.111  29.980  1.00  0.00     0.031 C 
ATOM     33  C   UNL A   1      46.814  30.514  30.489  1.00  0.00     0.029 A 
ATOM     34  C   UNL A   1      45.476  30.249  30.250  1.00  0.00     0.049 A 
ATOM     35  H   UNL A   1      44.570  28.461  29.585  1.00  0.00     0.167 HD
ATOM     36  C   UNL A   1      43.066  30.808  30.113  1.00  0.00     0.074 A 
ATOM     37  C   UNL A   1      41.944  31.710  30.269  1.00  0.00     0.031 C 
ATOM     38  C   UNL A   1      44.350  31.131  30.404  1.00  0.00     0.031 A 
BRANCH  25  39
ATOM     39  C   UNL A   1      48.387  26.545  29.559  1.00  0.00    -0.014 A 
ATOM     40  C   UNL A   1      49.299  26.727  28.508  1.00  0.00     0.009 A 
ATOM     41  C   UNL A   1      48.849  26.009  30.772  1.00  0.00     0.009 A 
ATOM     42  C   UNL A   1      50.639  26.367  28.666  1.00  0.00     0.001 A 
ATOM     43  C   UNL A   1      50.194  25.672  30.935  1.00  0.00     0.001 A 
ATOM     44  C   UNL A   1      51.087  25.847  29.880  1.00  0.00     0.000 A 
ENDBRANCH  25  39
BRANCH  26  45
ATOM     45  C   UNL A   1      38.775  29.223  29.038  1.00  0.00    -0.014 A 
ATOM     46  C   UNL A   1      37.954  29.050  30.161  1.00  0.00     0.009 A 
ATOM     47  C   UNL A   1      38.217  29.759  27.866  1.00  0.00     0.009 A 
ATOM     48  C   UNL A   1      36.596  29.371  30.099  1.00  0.00     0.001 A 
ATOM     49  C   UNL A   1      36.870  30.115  27.818  1.00  0.00     0.001 A 
ATOM     50  C   UNL A   1      36.056  29.907  28.930  1.00  0.00     0.000 A 
ENDBRANCH  26  45
BRANCH  38  51
ATOM     51  C   UNL A   1      44.604  32.528  30.895  1.00  0.00    -0.014 A 
ATOM     52  C   UNL A   1      44.551  32.839  32.263  1.00  0.00     0.009 A 
ATOM     53  C   UNL A   1      44.917  33.541  29.976  1.00  0.00     0.009 A 
ATOM     54  C   UNL A   1      44.770  34.148  32.697  1.00  0.00     0.001 A 
ATOM     55  C   UNL A   1      45.167  34.841  30.417  1.00  0.00     0.001 A 
ATOM     56  C   UNL A   1      45.082  35.146  31.774  1.00  0.00     0.000 A 
ENDBRANCH  38  51
ENDBRANCH  12  13
ENDBRANCH   5   7
ENDBRANCH   2   3
ENDBRANCH   1   2
BRANCH   1  57
ATOM     57  C   UNL A   1      36.396  20.615  24.703  1.00  0.00     0.117 C 
BRANCH  57  58
ATOM     58  N   UNL A   1      35.683  21.027  25.899  1.00  0.00    -0.356 N 
ATOM     59  C   UNL A   1      34.388  21.355  26.131  1.00  0.00     0.224 C 
ATOM     60  H   UNL A   1      36.254  21.079  26.700  1.00  0.00     0.163 HD
ATOM     61  O   UNL A   1      34.074  21.547  27.310  1.00  0.00    -0.275 OA
BRANCH  59  62
ATOM     62  C   UNL A   1      33.351  21.517  25.025  1.00  0.00     0.095 C 
ATOM     63  C   UNL A   1      32.854  20.173  24.476  1.00  0.00     0.041 C 
ATOM     64  C   UNL A   1      33.810  22.526  23.968  1.00  0.00     0.095 C 
ATOM     65  C   UNL A   1      32.165  20.277  23.150  1.00  0.00    -0.030 C 
ATOM     66  C   UNL A   1      32.818  22.664  22.799  1.00  0.00     0.041 C 
ATOM     67  C   UNL A   1      32.144  21.389  22.405  1.00  0.00    -0.030 C 
BRANCH  64  68
ATOM     68  C   UNL A   1      34.096  23.941  24.493  1.00  0.00     0.227 C 
ATOM     69  O   UNL A   1      35.211  24.226  24.930  1.00  0.00    -0.275 OA
ATOM     70  N   UNL A   1      33.145  24.908  24.200  1.00  0.00    -0.331 N 
ATOM     71  C   UNL A   1      33.611  26.162  23.619  1.00  0.00     0.181 C 
ATOM     72  C   UNL A   1      31.957  25.073  25.031  1.00  0.00     0.181 C 
ATOM     73  C   UNL A   1      32.473  26.936  22.909  1.00  0.00     0.284 C 
ATOM     74  C   UNL A   1      30.820  25.764  24.260  1.00  0.00     0.284 C 
ATOM     75  N   UNL A   1      31.184  27.035  23.616  1.00  0.00    -0.328 N 
ATOM     76  H   UNL A   1      30.494  27.199  22.884  1.00  0.00     0.348 HD
BRANCH  75  77
ATOM     77  C   UNL A   1      30.985  28.232  24.443  1.00  0.00     0.299 C 
BRANCH  77  78
ATOM     78  C   UNL A   1      30.346  29.424  23.767  1.00  0.00     0.010 A 
ATOM     79  C   UNL A   1      30.142  30.622  24.489  1.00  0.00     0.013 A 
ATOM     80  C   UNL A   1      29.870  29.324  22.448  1.00  0.00     0.060 A 
ATOM     81  C   UNL A   1      29.373  31.661  23.959  1.00  0.00     0.051 A 
ATOM     82  C   UNL A   1      29.114  30.366  21.953  1.00  0.00     0.166 A 
ATOM     83  C   UNL A   1      28.855  31.492  22.696  1.00  0.00     0.165 A 
ATOM     84  O   UNL A   1      28.500  30.391  20.740  1.00  0.00    -0.454 OA
ATOM     85  O   UNL A   1      28.035  32.364  22.051  1.00  0.00    -0.454 OA
ATOM     86  C   UNL A   1      27.774  31.636  20.832  1.00  0.00     0.468 C 
ENDBRANCH  77  78
ENDBRANCH  75  77
ENDBRANCH  64  68
ENDBRANCH  59  62
ENDBRANCH  57  58
ENDBRANCH   1  57
TORSDOF 13
ENDMDL
