MODEL 1
REMARK VINA RESULT:     -15.6      0.000      0.000
REMARK SMILES Cc1cc(/C=C2/C(=O)NC(=S)[NH+]=C2NCCCNC(=O)c2ccc(-c3c4nc(c(-c5ccccc5)c5ccc([nH]5)c(-c5ccccc5)c5nc(c(-c6ccccc6)c6ccc3[nH]6)C=C5)C=C4)cc2)c(C)n1-c1cccc(C(=O)[O-])c1
REMARK SMILES IDX 16 1 15 2 14 3 5 4 6 5 7 6 13 7 8 8 9 9 12 10 10 11 11 15
REMARK SMILES IDX 4 16 1 17 2 18 3 19 71 20 69 21 70 22 72 23 73 24 80 25
REMARK SMILES IDX 74 26 76 27 75 28 77 29 78 30 79 31 17 32 18 33 19 34 20 36
REMARK SMILES IDX 21 37 22 38 68 39 23 40 67 41 24 42 25 43 26 44 61 45 27 46
REMARK SMILES IDX 66 47 60 48 62 49 28 50 65 51 59 52 58 53 29 55 51 56 36 57
REMARK SMILES IDX 50 58 37 59 40 60 49 61 63 62 38 63 39 64 48 66 64 67 41 68
REMARK SMILES IDX 30 69 31 70 35 71 32 72 34 73 33 74 52 75 53 76 57 77 54 78
REMARK SMILES IDX 56 79 55 80 42 81 43 82 47 83 44 84 46 85 45 86
REMARK H PARENT 9 12 12 13 14 14 18 35 62 54 40 65
REMARK Flexibility Score: inf
ROOT
ATOM      1  C   UNL A   1      33.161  30.118  25.454  1.00  0.00     0.059 C 
ENDROOT
BRANCH   1   2
ATOM      2  C   UNL A   1      32.801  28.858  24.766  1.00  0.00     0.195 C 
BRANCH   2   3
ATOM      3  N   UNL A   1      31.895  29.265  23.757  1.00  0.00    -0.305 N 
ATOM      4  C   UNL A   1      29.608  26.600  23.858  1.00  0.00     0.032 C 
ATOM      5  C   UNL A   1      29.580  27.956  23.674  1.00  0.00     0.128 C 
ATOM      6  C   UNL A   1      28.165  28.408  23.325  1.00  0.00     0.319 C 
ATOM      7  C   UNL A   1      30.557  29.127  23.619  1.00  0.00     0.234 C 
ATOM      8  O   UNL A   1      27.199  27.654  23.223  1.00  0.00    -0.250 OA
ATOM      9  N   UNL A   1      27.975  29.741  23.094  1.00  0.00    -0.229 N 
ATOM     10  N   UNL A   1      30.194  30.350  23.322  1.00  0.00    -0.236 N 
ATOM     11  C   UNL A   1      28.921  30.710  23.094  1.00  0.00     0.295 C 
ATOM     12  H   UNL A   1      27.052  30.027  22.907  1.00  0.00     0.268 HD
ATOM     13  H   UNL A   1      30.892  31.042  23.263  1.00  0.00     0.268 HD
ATOM     14  H   UNL A   1      32.323  29.743  23.009  1.00  0.00     0.256 HD
ATOM     15  S   UNL A   1      28.474  32.299  22.814  1.00  0.00    -0.005 S 
BRANCH   4  16
ATOM     16  C   UNL A   1      30.596  25.576  24.094  1.00  0.00    -0.003 A 
ATOM     17  C   UNL A   1      31.820  22.082  24.747  1.00  0.00     0.065 C 
ATOM     18  C   UNL A   1      31.575  23.502  24.365  1.00  0.00     0.020 A 
ATOM     19  C   UNL A   1      30.429  24.150  23.882  1.00  0.00     0.031 A 
ATOM     20  N   UNL A   1      32.483  24.550  24.459  1.00  0.00    -0.318 N 
ATOM     21  C   UNL A   1      31.651  25.560  24.985  1.00  0.00     0.027 A 
ATOM     22  C   UNL A   1      31.765  26.219  26.314  1.00  0.00     0.065 C 
BRANCH  20  23
ATOM     23  C   UNL A   1      33.929  24.538  24.338  1.00  0.00     0.046 A 
ATOM     24  C   UNL A   1      34.463  23.717  22.864  1.00  0.00     0.026 A 
ATOM     25  C   UNL A   1      35.040  24.593  25.828  1.00  0.00     0.036 A 
ATOM     26  C   UNL A   1      36.039  22.912  22.767  1.00  0.00     0.003 A 
ATOM     27  C   UNL A   1      36.771  23.731  25.717  1.00  0.00    -0.001 A 
ATOM     28  C   UNL A   1      37.173  22.910  24.125  1.00  0.00     0.010 A 
BRANCH  27  29
ATOM     29  C   UNL A   1      38.095  23.702  26.402  1.00  0.00     0.072 C 
ATOM     30  O   UNL A   1      38.582  24.705  26.907  1.00  0.00    -0.545 OA
ATOM     31  O   UNL A   1      38.690  22.534  26.584  1.00  0.00    -0.545 OA
ENDBRANCH  27  29
ENDBRANCH  20  23
ENDBRANCH   4  16
ENDBRANCH   2   3
ENDBRANCH   1   2
BRANCH   1  32
ATOM     32  C   UNL A   1      31.987  30.704  26.222  1.00  0.00     0.119 C 
BRANCH  32  33
ATOM     33  N   UNL A   1      32.360  32.092  27.216  1.00  0.00    -0.352 N 
ATOM     34  C   UNL A   1      33.894  32.577  28.385  1.00  0.00     0.251 C 
ATOM     35  H   UNL A   1      31.660  32.784  27.192  1.00  0.00     0.163 HD
ATOM     36  O   UNL A   1      34.071  33.645  29.015  1.00  0.00    -0.269 OA
BRANCH  34  37
ATOM     37  C   UNL A   1      35.445  31.418  28.651  1.00  0.00     0.039 A 
ATOM     38  C   UNL A   1      36.767  31.828  28.505  1.00  0.00     0.014 A 
ATOM     39  C   UNL A   1      35.618  29.894  28.562  1.00  0.00     0.014 A 
ATOM     40  C   UNL A   1      37.979  30.807  28.232  1.00  0.00     0.010 A 
ATOM     41  C   UNL A   1      36.812  28.891  28.323  1.00  0.00     0.010 A 
ATOM     42  C   UNL A   1      38.106  29.287  28.113  1.00  0.00    -0.014 A 
BRANCH  42  43
ATOM     43  C   UNL A   1      39.618  28.292  27.983  1.00  0.00     0.031 A 
ATOM     44  C   UNL A   1      39.988  28.414  29.382  1.00  0.00     0.074 A 
ATOM     45  C   UNL A   1      40.793  27.646  27.313  1.00  0.00     0.049 A 
ATOM     46  N   UNL A   1      40.516  29.565  29.620  1.00  0.00    -0.248 NA
ATOM     47  C   UNL A   1      39.386  27.740  30.516  1.00  0.00     0.031 C 
ATOM     48  C   UNL A   1      41.311  27.719  25.902  1.00  0.00     0.029 A 
ATOM     49  N   UNL A   1      41.969  26.784  27.824  1.00  0.00    -0.354 N 
ATOM     50  C   UNL A   1      40.405  29.799  30.962  1.00  0.00     0.074 A 
ATOM     51  C   UNL A   1      39.666  28.639  31.476  1.00  0.00     0.031 C 
ATOM     52  C   UNL A   1      42.409  26.915  25.631  1.00  0.00     0.029 A 
ATOM     53  C   UNL A   1      42.913  26.156  26.796  1.00  0.00     0.049 A 
ATOM     54  H   UNL A   1      42.108  26.642  28.788  1.00  0.00     0.167 HD
ATOM     55  C   UNL A   1      41.467  30.507  31.414  1.00  0.00     0.031 A 
ATOM     56  C   UNL A   1      44.048  25.244  26.890  1.00  0.00     0.031 A 
ATOM     57  C   UNL A   1      42.553  29.567  31.560  1.00  0.00     0.049 A 
ATOM     58  C   UNL A   1      44.779  25.731  28.056  1.00  0.00     0.074 A 
ATOM     59  C   UNL A   1      42.547  28.249  31.990  1.00  0.00     0.029 A 
ATOM     60  N   UNL A   1      43.649  29.722  30.746  1.00  0.00    -0.354 N 
ATOM     61  N   UNL A   1      45.591  26.739  27.960  1.00  0.00    -0.248 NA
ATOM     62  C   UNL A   1      44.826  25.004  29.314  1.00  0.00     0.031 C 
ATOM     63  C   UNL A   1      43.335  27.568  31.054  1.00  0.00     0.029 A 
ATOM     64  C   UNL A   1      44.167  28.490  30.437  1.00  0.00     0.049 A 
ATOM     65  H   UNL A   1      44.007  30.584  30.433  1.00  0.00     0.167 HD
ATOM     66  C   UNL A   1      45.693  27.135  29.254  1.00  0.00     0.074 A 
ATOM     67  C   UNL A   1      45.452  25.931  30.044  1.00  0.00     0.031 C 
ATOM     68  C   UNL A   1      45.219  28.388  29.466  1.00  0.00     0.031 A 
BRANCH  55  69
ATOM     69  C   UNL A   1      41.558  31.831  30.625  1.00  0.00    -0.014 A 
ATOM     70  C   UNL A   1      42.801  32.215  30.115  1.00  0.00     0.009 A 
ATOM     71  C   UNL A   1      40.513  32.797  30.570  1.00  0.00     0.009 A 
ATOM     72  C   UNL A   1      42.999  33.508  29.604  1.00  0.00     0.001 A 
ATOM     73  C   UNL A   1      40.724  34.098  30.102  1.00  0.00     0.001 A 
ATOM     74  C   UNL A   1      41.972  34.453  29.615  1.00  0.00     0.000 A 
ENDBRANCH  55  69
BRANCH  56  75
ATOM     75  C   UNL A   1      45.212  24.176  26.264  1.00  0.00    -0.014 A 
ATOM     76  C   UNL A   1      45.138  22.726  26.483  1.00  0.00     0.009 A 
ATOM     77  C   UNL A   1      45.973  24.458  25.114  1.00  0.00     0.009 A 
ATOM     78  C   UNL A   1      45.635  21.707  25.605  1.00  0.00     0.001 A 
ATOM     79  C   UNL A   1      46.510  23.429  24.243  1.00  0.00     0.001 A 
ATOM     80  C   UNL A   1      46.309  22.065  24.459  1.00  0.00     0.000 A 
ENDBRANCH  56  75
BRANCH  68  81
ATOM     81  C   UNL A   1      45.633  29.487  28.506  1.00  0.00    -0.014 A 
ATOM     82  C   UNL A   1      46.899  30.113  28.456  1.00  0.00     0.009 A 
ATOM     83  C   UNL A   1      44.656  29.961  27.622  1.00  0.00     0.009 A 
ATOM     84  C   UNL A   1      47.156  31.187  27.594  1.00  0.00     0.001 A 
ATOM     85  C   UNL A   1      44.924  30.999  26.726  1.00  0.00     0.001 A 
ATOM     86  C   UNL A   1      46.166  31.625  26.724  1.00  0.00     0.000 A 
ENDBRANCH  68  81
ENDBRANCH  42  43
ENDBRANCH  34  37
ENDBRANCH  32  33
ENDBRANCH   1  32
TORSDOF 12
ENDMDL
MODEL 2
REMARK VINA RESULT:     -15.5      3.443      8.582
REMARK SMILES Cc1cc(/C=C2/C(=O)NC(=S)[NH+]=C2NCCCNC(=O)c2ccc(-c3c4nc(c(-c5ccccc5)c5ccc([nH]5)c(-c5ccccc5)c5nc(c(-c6ccccc6)c6ccc3[nH]6)C=C5)C=C4)cc2)c(C)n1-c1cccc(C(=O)[O-])c1
REMARK SMILES IDX 16 1 15 2 14 3 5 4 6 5 7 6 13 7 8 8 9 9 12 10 10 11 11 15
REMARK SMILES IDX 4 16 1 17 2 18 3 19 71 20 69 21 70 22 72 23 73 24 80 25
REMARK SMILES IDX 74 26 76 27 75 28 77 29 78 30 79 31 17 32 18 33 19 34 20 36
REMARK SMILES IDX 21 37 22 38 68 39 23 40 67 41 24 42 25 43 26 44 61 45 27 46
REMARK SMILES IDX 66 47 60 48 62 49 28 50 65 51 59 52 58 53 29 55 51 56 36 57
REMARK SMILES IDX 50 58 37 59 40 60 49 61 63 62 38 63 39 64 48 66 64 67 41 68
REMARK SMILES IDX 30 69 31 70 35 71 32 72 34 73 33 74 52 75 53 76 57 77 54 78
REMARK SMILES IDX 56 79 55 80 42 81 43 82 47 83 44 84 46 85 45 86
REMARK H PARENT 9 12 12 13 14 14 18 35 62 54 40 65
REMARK Flexibility Score: inf
ROOT
ATOM      1  C   UNL A   1      35.100  21.120  26.778  1.00  0.00     0.059 C 
ENDROOT
BRANCH   1   2
ATOM      2  C   UNL A   1      33.757  21.738  26.830  1.00  0.00     0.195 C 
BRANCH   2   3
ATOM      3  N   UNL A   1      32.880  20.689  26.461  1.00  0.00    -0.305 N 
ATOM      4  C   UNL A   1      32.275  21.530  23.105  1.00  0.00     0.032 C 
ATOM      5  C   UNL A   1      32.447  20.397  23.852  1.00  0.00     0.128 C 
ATOM      6  C   UNL A   1      32.217  19.160  22.989  1.00  0.00     0.319 C 
ATOM      7  C   UNL A   1      32.703  20.009  25.305  1.00  0.00     0.234 C 
ATOM      8  O   UNL A   1      31.918  19.190  21.797  1.00  0.00    -0.250 OA
ATOM      9  N   UNL A   1      32.337  17.943  23.598  1.00  0.00    -0.229 N 
ATOM     10  N   UNL A   1      32.729  18.767  25.723  1.00  0.00    -0.236 N 
ATOM     11  C   UNL A   1      32.593  17.710  24.906  1.00  0.00     0.295 C 
ATOM     12  H   UNL A   1      32.224  17.152  23.024  1.00  0.00     0.268 HD
ATOM     13  H   UNL A   1      32.855  18.601  26.685  1.00  0.00     0.268 HD
ATOM     14  H   UNL A   1      32.284  20.396  27.188  1.00  0.00     0.256 HD
ATOM     15  S   UNL A   1      32.730  16.133  25.452  1.00  0.00    -0.005 S 
BRANCH   4  16
ATOM     16  C   UNL A   1      32.245  22.956  23.320  1.00  0.00    -0.003 A 
ATOM     17  C   UNL A   1      31.542  26.541  22.433  1.00  0.00     0.065 C 
ATOM     18  C   UNL A   1      31.781  25.201  23.041  1.00  0.00     0.020 A 
ATOM     19  C   UNL A   1      31.396  23.915  22.638  1.00  0.00     0.031 A 
ATOM     20  N   UNL A   1      32.523  24.936  24.187  1.00  0.00    -0.318 N 
ATOM     21  C   UNL A   1      33.244  23.800  23.764  1.00  0.00     0.027 A 
ATOM     22  C   UNL A   1      34.717  23.683  23.586  1.00  0.00     0.065 C 
BRANCH  20  23
ATOM     23  C   UNL A   1      32.728  25.752  25.369  1.00  0.00     0.046 A 
ATOM     24  C   UNL A   1      31.209  26.084  26.215  1.00  0.00     0.026 A 
ATOM     25  C   UNL A   1      34.150  26.941  25.507  1.00  0.00     0.036 A 
ATOM     26  C   UNL A   1      30.988  27.548  27.188  1.00  0.00     0.003 A 
ATOM     27  C   UNL A   1      33.918  28.533  26.586  1.00  0.00    -0.001 A 
ATOM     28  C   UNL A   1      32.280  28.741  27.389  1.00  0.00     0.010 A 
BRANCH  27  29
ATOM     29  C   UNL A   1      34.711  29.598  27.263  1.00  0.00     0.072 C 
ATOM     30  O   UNL A   1      35.703  29.337  27.931  1.00  0.00    -0.545 OA
ATOM     31  O   UNL A   1      34.412  30.863  27.019  1.00  0.00    -0.545 OA
ENDBRANCH  27  29
ENDBRANCH  20  23
ENDBRANCH   4  16
ENDBRANCH   2   3
ENDBRANCH   1   2
BRANCH   1  32
ATOM     32  C   UNL A   1      35.435  20.600  25.388  1.00  0.00     0.119 C 
BRANCH  32  33
ATOM     33  N   UNL A   1      37.002  19.843  25.230  1.00  0.00    -0.352 N 
ATOM     34  C   UNL A   1      38.865  20.452  25.560  1.00  0.00     0.251 C 
ATOM     35  H   UNL A   1      36.951  18.915  24.907  1.00  0.00     0.163 HD
ATOM     36  O   UNL A   1      39.921  19.785  25.457  1.00  0.00    -0.269 OA
BRANCH  34  37
ATOM     37  C   UNL A   1      39.308  22.245  26.201  1.00  0.00     0.039 A 
ATOM     38  C   UNL A   1      40.130  22.510  27.293  1.00  0.00     0.014 A 
ATOM     39  C   UNL A   1      38.582  23.593  26.071  1.00  0.00     0.014 A 
ATOM     40  C   UNL A   1      40.093  23.896  28.105  1.00  0.00     0.010 A 
ATOM     41  C   UNL A   1      38.567  24.963  26.852  1.00  0.00     0.010 A 
ATOM     42  C   UNL A   1      39.324  25.211  27.966  1.00  0.00    -0.014 A 
BRANCH  42  43
ATOM     43  C   UNL A   1      39.559  26.755  28.889  1.00  0.00     0.031 A 
ATOM     44  C   UNL A   1      40.738  27.181  28.156  1.00  0.00     0.074 A 
ATOM     45  C   UNL A   1      39.438  27.708  30.040  1.00  0.00     0.049 A 
ATOM     46  N   UNL A   1      41.783  26.540  28.551  1.00  0.00    -0.248 NA
ATOM     47  C   UNL A   1      40.792  27.726  26.813  1.00  0.00     0.031 C 
ATOM     48  C   UNL A   1      38.845  27.556  31.415  1.00  0.00     0.029 A 
ATOM     49  N   UNL A   1      39.973  29.134  30.302  1.00  0.00    -0.354 N 
ATOM     50  C   UNL A   1      42.717  26.621  27.556  1.00  0.00     0.074 A 
ATOM     51  C   UNL A   1      42.039  27.350  26.477  1.00  0.00     0.031 C 
ATOM     52  C   UNL A   1      38.858  28.701  32.197  1.00  0.00     0.029 A 
ATOM     53  C   UNL A   1      39.500  29.870  31.558  1.00  0.00     0.049 A 
ATOM     54  H   UNL A   1      40.604  29.558  29.677  1.00  0.00     0.167 HD
ATOM     55  C   UNL A   1      43.967  26.666  28.075  1.00  0.00     0.031 A 
ATOM     56  C   UNL A   1      39.716  31.214  32.084  1.00  0.00     0.031 A 
ATOM     57  C   UNL A   1      44.174  28.021  28.525  1.00  0.00     0.049 A 
ATOM     58  C   UNL A   1      41.133  31.456  31.826  1.00  0.00     0.074 A 
ATOM     59  C   UNL A   1      43.765  29.224  27.968  1.00  0.00     0.029 A 
ATOM     60  N   UNL A   1      44.333  28.232  29.873  1.00  0.00    -0.354 N 
ATOM     61  N   UNL A   1      42.044  30.992  32.626  1.00  0.00    -0.248 NA
ATOM     62  C   UNL A   1      41.599  32.395  30.820  1.00  0.00     0.031 C 
ATOM     63  C   UNL A   1      43.239  29.950  29.044  1.00  0.00     0.029 A 
ATOM     64  C   UNL A   1      43.778  29.439  30.215  1.00  0.00     0.049 A 
ATOM     65  H   UNL A   1      44.775  27.613  30.497  1.00  0.00     0.167 HD
ATOM     66  C   UNL A   1      43.148  31.031  31.839  1.00  0.00     0.074 A 
ATOM     67  C   UNL A   1      42.903  32.112  30.887  1.00  0.00     0.031 C 
ATOM     68  C   UNL A   1      43.675  29.805  31.599  1.00  0.00     0.031 A 
BRANCH  55  69
ATOM     69  C   UNL A   1      44.191  25.411  28.946  1.00  0.00    -0.014 A 
ATOM     70  C   UNL A   1      43.832  24.167  28.422  1.00  0.00     0.009 A 
ATOM     71  C   UNL A   1      44.531  25.454  30.328  1.00  0.00     0.009 A 
ATOM     72  C   UNL A   1      43.784  23.028  29.243  1.00  0.00     0.001 A 
ATOM     73  C   UNL A   1      44.440  24.329  31.155  1.00  0.00     0.001 A 
ATOM     74  C   UNL A   1      44.067  23.111  30.607  1.00  0.00     0.000 A 
ENDBRANCH  55  69
BRANCH  56  75
ATOM     75  C   UNL A   1      39.398  32.525  33.117  1.00  0.00    -0.014 A 
ATOM     76  C   UNL A   1      38.645  33.704  32.672  1.00  0.00     0.009 A 
ATOM     77  C   UNL A   1      39.326  32.399  34.517  1.00  0.00     0.009 A 
ATOM     78  C   UNL A   1      37.828  34.550  33.492  1.00  0.00     0.001 A 
ATOM     79  C   UNL A   1      38.530  33.276  35.355  1.00  0.00     0.001 A 
ATOM     80  C   UNL A   1      37.752  34.317  34.847  1.00  0.00     0.000 A 
ENDBRANCH  56  75
BRANCH  68  81
ATOM     81  C   UNL A   1      43.851  28.855  32.769  1.00  0.00    -0.014 A 
ATOM     82  C   UNL A   1      44.906  28.881  33.708  1.00  0.00     0.009 A 
ATOM     83  C   UNL A   1      42.909  27.827  32.902  1.00  0.00     0.009 A 
ATOM     84  C   UNL A   1      45.033  27.900  34.701  1.00  0.00     0.001 A 
ATOM     85  C   UNL A   1      43.005  26.876  33.921  1.00  0.00     0.001 A 
ATOM     86  C   UNL A   1      44.076  26.900  34.809  1.00  0.00     0.000 A 
ENDBRANCH  68  81
ENDBRANCH  42  43
ENDBRANCH  34  37
ENDBRANCH  32  33
ENDBRANCH   1  32
TORSDOF 12
ENDMDL
MODEL 3
REMARK VINA RESULT:     -15.4      3.707      8.927
REMARK SMILES Cc1cc(/C=C2/C(=O)NC(=S)[NH+]=C2NCCCNC(=O)c2ccc(-c3c4nc(c(-c5ccccc5)c5ccc([nH]5)c(-c5ccccc5)c5nc(c(-c6ccccc6)c6ccc3[nH]6)C=C5)C=C4)cc2)c(C)n1-c1cccc(C(=O)[O-])c1
REMARK SMILES IDX 16 1 15 2 14 3 5 4 6 5 7 6 13 7 8 8 9 9 12 10 10 11 11 15
REMARK SMILES IDX 4 16 1 17 2 18 3 19 71 20 69 21 70 22 72 23 73 24 80 25
REMARK SMILES IDX 74 26 76 27 75 28 77 29 78 30 79 31 17 32 18 33 19 34 20 36
REMARK SMILES IDX 21 37 22 38 68 39 23 40 67 41 24 42 25 43 26 44 61 45 27 46
REMARK SMILES IDX 66 47 60 48 62 49 28 50 65 51 59 52 58 53 29 55 51 56 36 57
REMARK SMILES IDX 50 58 37 59 40 60 49 61 63 62 38 63 39 64 48 66 64 67 41 68
REMARK SMILES IDX 30 69 31 70 35 71 32 72 34 73 33 74 52 75 53 76 57 77 54 78
REMARK SMILES IDX 56 79 55 80 42 81 43 82 47 83 44 84 46 85 45 86
REMARK H PARENT 9 12 12 13 14 14 18 35 62 54 40 65
REMARK Flexibility Score: inf
ROOT
ATOM      1  C   UNL A   1      36.486  21.465  26.299  1.00  0.00     0.059 C 
ENDROOT
BRANCH   1   2
ATOM      2  C   UNL A   1      35.127  21.953  25.974  1.00  0.00     0.195 C 
BRANCH   2   3
ATOM      3  N   UNL A   1      34.338  20.778  25.946  1.00  0.00    -0.305 N 
ATOM      4  C   UNL A   1      32.321  21.444  23.149  1.00  0.00     0.032 C 
ATOM      5  C   UNL A   1      32.940  20.366  23.720  1.00  0.00     0.128 C 
ATOM      6  C   UNL A   1      32.563  19.090  22.974  1.00  0.00     0.319 C 
ATOM      7  C   UNL A   1      33.811  20.053  24.933  1.00  0.00     0.234 C 
ATOM      8  O   UNL A   1      31.809  19.048  22.004  1.00  0.00    -0.250 OA
ATOM      9  N   UNL A   1      33.092  17.918  23.436  1.00  0.00    -0.229 N 
ATOM     10  N   UNL A   1      34.182  18.839  25.256  1.00  0.00    -0.236 N 
ATOM     11  C   UNL A   1      33.883  17.754  24.523  1.00  0.00     0.295 C 
ATOM     12  H   UNL A   1      32.874  17.106  22.925  1.00  0.00     0.268 HD
ATOM     13  H   UNL A   1      34.706  18.715  26.080  1.00  0.00     0.268 HD
ATOM     14  H   UNL A   1      34.134  20.417  26.839  1.00  0.00     0.256 HD
ATOM     15  S   UNL A   1      34.454  16.228  24.906  1.00  0.00    -0.005 S 
BRANCH   4  16
ATOM     16  C   UNL A   1      32.174  22.854  23.414  1.00  0.00    -0.003 A 
ATOM     17  C   UNL A   1      30.963  26.354  22.768  1.00  0.00     0.065 C 
ATOM     18  C   UNL A   1      31.437  25.039  23.286  1.00  0.00     0.020 A 
ATOM     19  C   UNL A   1      31.131  23.726  22.905  1.00  0.00     0.031 A 
ATOM     20  N   UNL A   1      32.375  24.839  24.292  1.00  0.00    -0.318 N 
ATOM     21  C   UNL A   1      33.136  23.796  23.724  1.00  0.00     0.027 A 
ATOM     22  C   UNL A   1      34.566  23.844  23.314  1.00  0.00     0.065 C 
BRANCH  20  23
ATOM     23  C   UNL A   1      32.678  25.653  25.454  1.00  0.00     0.046 A 
ATOM     24  C   UNL A   1      31.232  26.001  26.414  1.00  0.00     0.026 A 
ATOM     25  C   UNL A   1      34.119  26.828  25.481  1.00  0.00     0.036 A 
ATOM     26  C   UNL A   1      31.101  27.467  27.399  1.00  0.00     0.003 A 
ATOM     27  C   UNL A   1      33.985  28.422  26.573  1.00  0.00    -0.001 A 
ATOM     28  C   UNL A   1      32.416  28.648  27.500  1.00  0.00     0.010 A 
BRANCH  27  29
ATOM     29  C   UNL A   1      34.838  29.480  27.186  1.00  0.00     0.072 C 
ATOM     30  O   UNL A   1      35.884  29.211  27.763  1.00  0.00    -0.545 OA
ATOM     31  O   UNL A   1      34.523  30.748  26.979  1.00  0.00    -0.545 OA
ENDBRANCH  27  29
ENDBRANCH  20  23
ENDBRANCH   4  16
ENDBRANCH   2   3
ENDBRANCH   1   2
BRANCH   1  32
ATOM     32  C   UNL A   1      37.183  20.869  25.086  1.00  0.00     0.119 C 
BRANCH  32  33
ATOM     33  N   UNL A   1      38.857  20.426  25.327  1.00  0.00    -0.352 N 
ATOM     34  C   UNL A   1      40.448  21.386  26.034  1.00  0.00     0.251 C 
ATOM     35  H   UNL A   1      39.054  19.501  25.053  1.00  0.00     0.163 HD
ATOM     36  O   UNL A   1      41.603  20.933  26.209  1.00  0.00    -0.269 OA
BRANCH  34  37
ATOM     37  C   UNL A   1      40.391  23.238  26.657  1.00  0.00     0.039 A 
ATOM     38  C   UNL A   1      41.015  23.698  27.814  1.00  0.00     0.014 A 
ATOM     39  C   UNL A   1      39.386  24.374  26.416  1.00  0.00     0.014 A 
ATOM     40  C   UNL A   1      40.573  25.043  28.575  1.00  0.00     0.010 A 
ATOM     41  C   UNL A   1      38.972  25.708  27.148  1.00  0.00     0.010 A 
ATOM     42  C   UNL A   1      39.534  26.137  28.322  1.00  0.00    -0.014 A 
BRANCH  42  43
ATOM     43  C   UNL A   1      39.307  27.701  29.214  1.00  0.00     0.031 A 
ATOM     44  C   UNL A   1      40.566  28.289  28.792  1.00  0.00     0.074 A 
ATOM     45  C   UNL A   1      38.761  28.629  30.257  1.00  0.00     0.049 A 
ATOM     46  N   UNL A   1      41.551  27.804  29.466  1.00  0.00    -0.248 NA
ATOM     47  C   UNL A   1      40.891  28.834  27.488  1.00  0.00     0.031 C 
ATOM     48  C   UNL A   1      37.859  28.395  31.438  1.00  0.00     0.029 A 
ATOM     49  N   UNL A   1      39.009  30.117  30.593  1.00  0.00    -0.354 N 
ATOM     50  C   UNL A   1      42.690  28.016  28.743  1.00  0.00     0.074 A 
ATOM     51  C   UNL A   1      42.222  28.640  27.499  1.00  0.00     0.031 C 
ATOM     52  C   UNL A   1      37.510  29.532  32.153  1.00  0.00     0.029 A 
ATOM     53  C   UNL A   1      38.130  30.779  31.656  1.00  0.00     0.049 A 
ATOM     54  H   UNL A   1      39.716  30.625  30.135  1.00  0.00     0.167 HD
ATOM     55  C   UNL A   1      43.744  28.240  29.563  1.00  0.00     0.031 A 
ATOM     56  C   UNL A   1      38.015  32.141  32.168  1.00  0.00     0.031 A 
ATOM     57  C   UNL A   1      43.639  29.612  29.999  1.00  0.00     0.049 A 
ATOM     58  C   UNL A   1      39.403  32.583  32.273  1.00  0.00     0.074 A 
ATOM     59  C   UNL A   1      43.227  30.743  29.310  1.00  0.00     0.029 A 
ATOM     60  N   UNL A   1      43.411  29.845  31.333  1.00  0.00    -0.354 N 
ATOM     61  N   UNL A   1      40.130  32.255  33.298  1.00  0.00    -0.248 NA
ATOM     62  C   UNL A   1      39.981  33.577  31.385  1.00  0.00     0.031 C 
ATOM     63  C   UNL A   1      42.346  31.388  30.185  1.00  0.00     0.029 A 
ATOM     64  C   UNL A   1      42.626  30.962  31.474  1.00  0.00     0.049 A 
ATOM     65  H   UNL A   1      43.757  29.296  32.073  1.00  0.00     0.167 HD
ATOM     66  C   UNL A   1      41.384  32.449  32.819  1.00  0.00     0.074 A 
ATOM     67  C   UNL A   1      41.249  33.483  31.796  1.00  0.00     0.031 C 
ATOM     68  C   UNL A   1      42.119  31.311  32.771  1.00  0.00     0.031 A 
BRANCH  55  69
ATOM     69  C   UNL A   1      43.905  27.032  30.511  1.00  0.00    -0.014 A 
ATOM     70  C   UNL A   1      44.072  27.279  31.876  1.00  0.00     0.009 A 
ATOM     71  C   UNL A   1      44.117  25.696  30.067  1.00  0.00     0.009 A 
ATOM     72  C   UNL A   1      44.462  26.250  32.749  1.00  0.00     0.001 A 
ATOM     73  C   UNL A   1      44.548  24.682  30.930  1.00  0.00     0.001 A 
ATOM     74  C   UNL A   1      44.718  24.962  32.277  1.00  0.00     0.000 A 
ENDBRANCH  55  69
BRANCH  56  75
ATOM     75  C   UNL A   1      37.262  33.395  33.033  1.00  0.00    -0.014 A 
ATOM     76  C   UNL A   1      36.574  34.504  32.360  1.00  0.00     0.009 A 
ATOM     77  C   UNL A   1      36.769  33.236  34.341  1.00  0.00     0.009 A 
ATOM     78  C   UNL A   1      35.462  35.250  32.873  1.00  0.00     0.001 A 
ATOM     79  C   UNL A   1      35.669  34.015  34.877  1.00  0.00     0.001 A 
ATOM     80  C   UNL A   1      34.990  34.985  34.139  1.00  0.00     0.000 A 
ENDBRANCH  56  75
BRANCH  68  81
ATOM     81  C   UNL A   1      42.113  30.397  33.982  1.00  0.00    -0.014 A 
ATOM     82  C   UNL A   1      42.739  30.659  35.221  1.00  0.00     0.009 A 
ATOM     83  C   UNL A   1      41.472  29.160  33.844  1.00  0.00     0.009 A 
ATOM     84  C   UNL A   1      42.759  29.710  36.252  1.00  0.00     0.001 A 
ATOM     85  C   UNL A   1      41.446  28.231  34.887  1.00  0.00     0.001 A 
ATOM     86  C   UNL A   1      42.105  28.496  36.083  1.00  0.00     0.000 A 
ENDBRANCH  68  81
ENDBRANCH  42  43
ENDBRANCH  34  37
ENDBRANCH  32  33
ENDBRANCH   1  32
TORSDOF 12
ENDMDL
