MODEL 1
REMARK VINA RESULT:     -10.3      0.000      0.000
REMARK SMILES O=C(COc1cccc(/C=C2\SC(=O)N(c3cccc(Cl)c3)C2=O)c1)NCCCNC(=O)c1ccc(-c2c3nc(c(-c4ccccc4)c4ccc([nH]4)c(-c4ccccc4)c4nc(c(-c5ccccc5)c5ccc2[nH]5)C=C4)C=C3)cc1
REMARK SMILES IDX 27 1 26 2 1 3 2 4 3 6 4 7 5 8 6 9 25 10 7 11 9 12 8 13 10 14
REMARK SMILES IDX 11 15 12 16 23 17 13 18 15 19 24 20 14 21 16 22 17 23 22 24
REMARK SMILES IDX 18 25 20 26 19 27 21 28 28 29 29 30 30 31 31 32 32 34 33 35
REMARK SMILES IDX 34 36 80 37 35 38 79 39 36 40 37 41 38 42 73 43 39 44 78 45
REMARK SMILES IDX 72 46 74 47 40 48 77 49 71 50 70 51 41 53 63 54 48 55 62 56
REMARK SMILES IDX 49 57 52 58 61 59 75 60 50 61 51 62 60 64 76 65 53 66 42 67
REMARK SMILES IDX 43 68 47 69 44 70 46 71 45 72 64 73 65 74 69 75 66 76 68 77
REMARK SMILES IDX 67 78 54 79 55 80 59 81 56 82 58 83 57 84
REMARK H PARENT 26 5 30 33 74 52 52 63
REMARK Flexibility Score: inf
ROOT
ATOM      1  C   UNL A   1      33.767  35.472  29.030  1.00  0.00     0.117 C 
ENDROOT
BRANCH   1   2
ATOM      2  N   UNL A   1      34.195  35.293  30.403  1.00  0.00    -0.353 N 
ATOM      3  O   UNL A   1      32.120  35.594  31.339  1.00  0.00    -0.271 OA
ATOM      4  C   UNL A   1      33.293  35.248  31.448  1.00  0.00     0.257 C 
ATOM      5  H   UNL A   1      35.156  35.199  30.596  1.00  0.00     0.163 HD
BRANCH   4   6
ATOM      6  C   UNL A   1      33.869  34.696  32.761  1.00  0.00     0.329 C 
BRANCH   6   7
ATOM      7  O   UNL A   1      34.418  33.379  32.728  1.00  0.00    -0.484 OA
BRANCH   7   8
ATOM      8  C   UNL A   1      35.748  33.307  33.052  1.00  0.00     0.120 A 
ATOM      9  C   UNL A   1      36.432  34.499  33.278  1.00  0.00     0.046 A 
ATOM     10  C   UNL A   1      36.462  32.113  33.025  1.00  0.00     0.054 A 
ATOM     11  C   UNL A   1      37.814  34.483  33.505  1.00  0.00     0.004 A 
ATOM     12  C   UNL A   1      37.851  32.090  33.195  1.00  0.00    -0.021 A 
ATOM     13  C   UNL A   1      38.526  33.280  33.460  1.00  0.00     0.008 A 
BRANCH  12  14
ATOM     14  C   UNL A   1      38.540  30.801  33.069  1.00  0.00     0.029 C 
ATOM     15  C   UNL A   1      39.479  30.360  33.921  1.00  0.00     0.083 C 
ATOM     16  S   UNL A   1      39.960  31.066  35.410  1.00  0.00    -0.022 SA
ATOM     17  C   UNL A   1      40.286  29.141  33.644  1.00  0.00     0.272 C 
ATOM     18  C   UNL A   1      41.171  29.832  35.708  1.00  0.00     0.298 C 
ATOM     19  N   UNL A   1      41.193  28.923  34.671  1.00  0.00    -0.236 N 
ATOM     20  O   UNL A   1      40.103  28.458  32.644  1.00  0.00    -0.268 OA
ATOM     21  O   UNL A   1      41.892  29.889  36.691  1.00  0.00    -0.260 OA
BRANCH  19  22
ATOM     22  C   UNL A   1      42.098  27.820  34.657  1.00  0.00     0.054 A 
ATOM     23  C   UNL A   1      43.409  27.970  34.176  1.00  0.00     0.027 A 
ATOM     24  C   UNL A   1      41.694  26.553  35.107  1.00  0.00     0.047 A 
ATOM     25  C   UNL A   1      44.291  26.886  34.137  1.00  0.00     0.004 A 
ATOM     26  C   UNL A   1      42.567  25.466  35.031  1.00  0.00     0.043 A 
ATOM     27  C   UNL A   1      43.864  25.627  34.553  1.00  0.00     0.020 A 
ATOM     28  Cl  UNL A   1      42.023  23.903  35.502  1.00  0.00    -0.084 Cl
ENDBRANCH  19  22
ENDBRANCH  12  14
ENDBRANCH   7   8
ENDBRANCH   6   7
ENDBRANCH   4   6
ENDBRANCH   1   2
BRANCH   1  29
ATOM     29  C   UNL A   1      34.527  34.609  28.037  1.00  0.00     0.042 C 
BRANCH  29  30
ATOM     30  C   UNL A   1      34.936  33.247  28.582  1.00  0.00     0.118 C 
BRANCH  30  31
ATOM     31  N   UNL A   1      34.081  32.158  28.132  1.00  0.00    -0.352 N 
ATOM     32  C   UNL A   1      34.367  30.831  27.917  1.00  0.00     0.251 C 
ATOM     33  H   UNL A   1      33.148  32.413  27.952  1.00  0.00     0.163 HD
ATOM     34  O   UNL A   1      33.505  30.099  27.441  1.00  0.00    -0.269 OA
BRANCH  32  35
ATOM     35  C   UNL A   1      35.704  30.275  28.225  1.00  0.00     0.039 A 
ATOM     36  C   UNL A   1      36.673  30.282  27.217  1.00  0.00     0.014 A 
ATOM     37  C   UNL A   1      36.004  29.722  29.472  1.00  0.00     0.014 A 
ATOM     38  C   UNL A   1      37.954  29.793  27.477  1.00  0.00     0.010 A 
ATOM     39  C   UNL A   1      37.305  29.311  29.756  1.00  0.00     0.010 A 
ATOM     40  C   UNL A   1      38.293  29.336  28.762  1.00  0.00    -0.014 A 
BRANCH  40  41
ATOM     41  C   UNL A   1      39.675  28.887  29.071  1.00  0.00     0.031 A 
ATOM     42  C   UNL A   1      40.638  29.804  29.774  1.00  0.00     0.074 A 
ATOM     43  C   UNL A   1      40.079  27.663  28.680  1.00  0.00     0.049 A 
ATOM     44  N   UNL A   1      41.885  29.588  30.112  1.00  0.00    -0.248 NA
ATOM     45  C   UNL A   1      40.147  31.147  30.121  1.00  0.00     0.031 C 
ATOM     46  C   UNL A   1      39.259  26.691  27.952  1.00  0.00     0.029 A 
ATOM     47  N   UNL A   1      41.284  27.025  28.841  1.00  0.00    -0.354 N 
ATOM     48  C   UNL A   1      42.328  30.768  30.699  1.00  0.00     0.074 A 
ATOM     49  C   UNL A   1      41.236  31.713  30.621  1.00  0.00     0.031 C 
ATOM     50  C   UNL A   1      39.973  25.569  27.763  1.00  0.00     0.029 A 
ATOM     51  C   UNL A   1      41.309  25.754  28.319  1.00  0.00     0.049 A 
ATOM     52  H   UNL A   1      42.057  27.439  29.288  1.00  0.00     0.167 HD
ATOM     53  C   UNL A   1      43.527  31.035  31.269  1.00  0.00     0.031 A 
ATOM     54  C   UNL A   1      42.296  24.839  28.290  1.00  0.00     0.031 A 
ATOM     55  C   UNL A   1      44.613  30.095  31.355  1.00  0.00     0.049 A 
ATOM     56  C   UNL A   1      43.620  25.165  28.921  1.00  0.00     0.074 A 
ATOM     57  C   UNL A   1      45.846  30.256  31.962  1.00  0.00     0.029 A 
ATOM     58  N   UNL A   1      44.596  28.819  30.814  1.00  0.00    -0.354 N 
ATOM     59  N   UNL A   1      43.997  26.259  29.534  1.00  0.00    -0.248 NA
ATOM     60  C   UNL A   1      44.651  24.118  28.867  1.00  0.00     0.031 C 
ATOM     61  C   UNL A   1      46.596  29.095  31.743  1.00  0.00     0.029 A 
ATOM     62  C   UNL A   1      45.808  28.190  31.052  1.00  0.00     0.049 A 
ATOM     63  H   UNL A   1      43.837  28.419  30.332  1.00  0.00     0.167 HD
ATOM     64  C   UNL A   1      45.296  26.024  29.965  1.00  0.00     0.074 A 
ATOM     65  C   UNL A   1      45.634  24.675  29.558  1.00  0.00     0.031 C 
ATOM     66  C   UNL A   1      46.134  26.850  30.638  1.00  0.00     0.031 A 
BRANCH  53  67
ATOM     67  C   UNL A   1      43.729  32.412  31.843  1.00  0.00    -0.014 A 
ATOM     68  C   UNL A   1      44.256  33.455  31.064  1.00  0.00     0.009 A 
ATOM     69  C   UNL A   1      43.353  32.679  33.168  1.00  0.00     0.009 A 
ATOM     70  C   UNL A   1      44.439  34.726  31.613  1.00  0.00     0.001 A 
ATOM     71  C   UNL A   1      43.507  33.959  33.705  1.00  0.00     0.001 A 
ATOM     72  C   UNL A   1      44.059  34.979  32.930  1.00  0.00     0.000 A 
ENDBRANCH  53  67
BRANCH  54  73
ATOM     73  C   UNL A   1      42.064  23.514  27.658  1.00  0.00    -0.014 A 
ATOM     74  C   UNL A   1      41.494  22.463  28.395  1.00  0.00     0.009 A 
ATOM     75  C   UNL A   1      42.419  23.288  26.319  1.00  0.00     0.009 A 
ATOM     76  C   UNL A   1      41.312  21.207  27.812  1.00  0.00     0.001 A 
ATOM     77  C   UNL A   1      42.208  22.039  25.731  1.00  0.00     0.001 A 
ATOM     78  C   UNL A   1      41.665  20.997  26.480  1.00  0.00     0.000 A 
ENDBRANCH  54  73
BRANCH  66  79
ATOM     79  C   UNL A   1      47.485  26.304  31.007  1.00  0.00    -0.014 A 
ATOM     80  C   UNL A   1      48.560  26.338  30.106  1.00  0.00     0.009 A 
ATOM     81  C   UNL A   1      47.691  25.773  32.291  1.00  0.00     0.009 A 
ATOM     82  C   UNL A   1      49.802  25.814  30.467  1.00  0.00     0.001 A 
ATOM     83  C   UNL A   1      48.942  25.278  32.660  1.00  0.00     0.001 A 
ATOM     84  C   UNL A   1      49.993  25.288  31.745  1.00  0.00     0.000 A 
ENDBRANCH  66  79
ENDBRANCH  40  41
ENDBRANCH  32  35
ENDBRANCH  30  31
ENDBRANCH  29  30
ENDBRANCH   1  29
TORSDOF 14
ENDMDL
MODEL 2
REMARK VINA RESULT:     -10.0      1.025      5.825
REMARK SMILES O=C(COc1cccc(/C=C2\SC(=O)N(c3cccc(Cl)c3)C2=O)c1)NCCCNC(=O)c1ccc(-c2c3nc(c(-c4ccccc4)c4ccc([nH]4)c(-c4ccccc4)c4nc(c(-c5ccccc5)c5ccc2[nH]5)C=C4)C=C3)cc1
REMARK SMILES IDX 27 1 26 2 1 3 2 4 3 6 4 7 5 8 6 9 25 10 7 11 9 12 8 13 10 14
REMARK SMILES IDX 11 15 12 16 23 17 13 18 15 19 24 20 14 21 16 22 17 23 22 24
REMARK SMILES IDX 18 25 20 26 19 27 21 28 28 29 29 30 30 31 31 32 32 34 33 35
REMARK SMILES IDX 34 36 80 37 35 38 79 39 36 40 37 41 38 42 73 43 39 44 78 45
REMARK SMILES IDX 72 46 74 47 40 48 77 49 71 50 70 51 41 53 63 54 48 55 62 56
REMARK SMILES IDX 49 57 52 58 61 59 75 60 50 61 51 62 60 64 76 65 53 66 42 67
REMARK SMILES IDX 43 68 47 69 44 70 46 71 45 72 64 73 65 74 69 75 66 76 68 77
REMARK SMILES IDX 67 78 54 79 55 80 59 81 56 82 58 83 57 84
REMARK H PARENT 26 5 30 33 74 52 52 63
REMARK Flexibility Score: inf
ROOT
ATOM      1  C   UNL A   1      33.849  35.110  30.360  1.00  0.00     0.117 C 
ENDROOT
BRANCH   1   2
ATOM      2  N   UNL A   1      34.467  35.299  31.657  1.00  0.00    -0.353 N 
ATOM      3  O   UNL A   1      32.859  34.176  32.851  1.00  0.00    -0.271 OA
ATOM      4  C   UNL A   1      33.969  34.698  32.797  1.00  0.00     0.257 C 
ATOM      5  H   UNL A   1      35.266  35.871  31.728  1.00  0.00     0.163 HD
BRANCH   4   6
ATOM      6  C   UNL A   1      34.934  34.703  33.992  1.00  0.00     0.329 C 
BRANCH   6   7
ATOM      7  O   UNL A   1      35.479  33.448  34.396  1.00  0.00    -0.484 OA
BRANCH   7   8
ATOM      8  C   UNL A   1      36.790  33.255  34.047  1.00  0.00     0.120 A 
ATOM      9  C   UNL A   1      37.542  34.371  33.688  1.00  0.00     0.046 A 
ATOM     10  C   UNL A   1      37.350  31.989  33.906  1.00  0.00     0.054 A 
ATOM     11  C   UNL A   1      38.853  34.213  33.222  1.00  0.00     0.004 A 
ATOM     12  C   UNL A   1      38.638  31.815  33.389  1.00  0.00    -0.021 A 
ATOM     13  C   UNL A   1      39.402  32.935  33.068  1.00  0.00     0.008 A 
BRANCH  12  14
ATOM     14  C   UNL A   1      39.123  30.444  33.192  1.00  0.00     0.029 C 
ATOM     15  C   UNL A   1      39.964  29.814  34.027  1.00  0.00     0.083 C 
ATOM     16  S   UNL A   1      40.515  30.348  35.563  1.00  0.00    -0.022 SA
ATOM     17  C   UNL A   1      40.580  28.503  33.686  1.00  0.00     0.272 C 
ATOM     18  C   UNL A   1      41.516  28.925  35.799  1.00  0.00     0.298 C 
ATOM     19  N   UNL A   1      41.420  28.086  34.709  1.00  0.00    -0.236 N 
ATOM     20  O   UNL A   1      40.316  27.917  32.643  1.00  0.00    -0.268 OA
ATOM     21  O   UNL A   1      42.215  28.812  36.793  1.00  0.00    -0.260 OA
BRANCH  19  22
ATOM     22  C   UNL A   1      42.145  26.860  34.638  1.00  0.00     0.054 A 
ATOM     23  C   UNL A   1      41.713  25.726  35.346  1.00  0.00     0.027 A 
ATOM     24  C   UNL A   1      43.319  26.762  33.876  1.00  0.00     0.047 A 
ATOM     25  C   UNL A   1      42.434  24.530  35.299  1.00  0.00     0.004 A 
ATOM     26  C   UNL A   1      44.056  25.576  33.864  1.00  0.00     0.043 A 
ATOM     27  C   UNL A   1      43.617  24.459  34.568  1.00  0.00     0.020 A 
ATOM     28  Cl  UNL A   1      45.541  25.505  32.997  1.00  0.00    -0.084 Cl
ENDBRANCH  19  22
ENDBRANCH  12  14
ENDBRANCH   7   8
ENDBRANCH   6   7
ENDBRANCH   4   6
ENDBRANCH   1   2
BRANCH   1  29
ATOM     29  C   UNL A   1      34.721  34.350  29.375  1.00  0.00     0.042 C 
BRANCH  29  30
ATOM     30  C   UNL A   1      34.964  32.895  29.753  1.00  0.00     0.118 C 
BRANCH  30  31
ATOM     31  N   UNL A   1      34.204  31.949  28.947  1.00  0.00    -0.352 N 
ATOM     32  C   UNL A   1      34.591  30.772  28.354  1.00  0.00     0.251 C 
ATOM     33  H   UNL A   1      33.262  32.192  28.805  1.00  0.00     0.163 HD
ATOM     34  O   UNL A   1      33.799  30.172  27.633  1.00  0.00    -0.269 OA
BRANCH  32  35
ATOM     35  C   UNL A   1      35.953  30.226  28.547  1.00  0.00     0.039 A 
ATOM     36  C   UNL A   1      36.834  30.242  27.461  1.00  0.00     0.014 A 
ATOM     37  C   UNL A   1      36.361  29.675  29.764  1.00  0.00     0.014 A 
ATOM     38  C   UNL A   1      38.137  29.764  27.613  1.00  0.00     0.010 A 
ATOM     39  C   UNL A   1      37.685  29.275  29.937  1.00  0.00     0.010 A 
ATOM     40  C   UNL A   1      38.586  29.309  28.863  1.00  0.00    -0.014 A 
BRANCH  40  41
ATOM     41  C   UNL A   1      39.993  28.872  29.054  1.00  0.00     0.031 A 
ATOM     42  C   UNL A   1      40.419  27.479  28.677  1.00  0.00     0.074 A 
ATOM     43  C   UNL A   1      40.882  29.717  29.611  1.00  0.00     0.049 A 
ATOM     44  N   UNL A   1      41.599  26.919  28.785  1.00  0.00    -0.248 NA
ATOM     45  C   UNL A   1      39.382  26.591  28.127  1.00  0.00     0.031 C 
ATOM     46  C   UNL A   1      40.589  31.080  30.063  1.00  0.00     0.029 A 
ATOM     47  N   UNL A   1      42.216  29.554  29.891  1.00  0.00    -0.354 N 
ATOM     48  C   UNL A   1      41.442  25.615  28.331  1.00  0.00     0.074 A 
ATOM     49  C   UNL A   1      40.044  25.450  27.997  1.00  0.00     0.031 C 
ATOM     50  C   UNL A   1      41.718  31.639  30.528  1.00  0.00     0.029 A 
ATOM     51  C   UNL A   1      42.802  30.667  30.445  1.00  0.00     0.049 A 
ATOM     52  H   UNL A   1      42.707  28.720  29.711  1.00  0.00     0.167 HD
ATOM     53  C   UNL A   1      42.379  24.648  28.185  1.00  0.00     0.031 A 
ATOM     54  C   UNL A   1      44.070  30.882  30.842  1.00  0.00     0.031 A 
ATOM     55  C   UNL A   1      43.772  24.811  28.508  1.00  0.00     0.049 A 
ATOM     56  C   UNL A   1      45.088  29.789  30.678  1.00  0.00     0.074 A 
ATOM     57  C   UNL A   1      44.806  23.908  28.343  1.00  0.00     0.029 A 
ATOM     58  N   UNL A   1      44.323  25.954  29.067  1.00  0.00    -0.354 N 
ATOM     59  N   UNL A   1      44.937  28.586  30.180  1.00  0.00    -0.248 NA
ATOM     60  C   UNL A   1      46.458  30.092  31.120  1.00  0.00     0.031 C 
ATOM     61  C   UNL A   1      45.976  24.484  28.850  1.00  0.00     0.029 A 
ATOM     62  C   UNL A   1      45.680  25.769  29.276  1.00  0.00     0.049 A 
ATOM     63  H   UNL A   1      43.825  26.775  29.283  1.00  0.00     0.167 HD
ATOM     64  C   UNL A   1      46.195  27.999  30.220  1.00  0.00     0.074 A 
ATOM     65  C   UNL A   1      47.100  28.986  30.775  1.00  0.00     0.031 C 
ATOM     66  C   UNL A   1      46.568  26.756  29.832  1.00  0.00     0.031 A 
BRANCH  53  67
ATOM     67  C   UNL A   1      41.922  23.317  27.653  1.00  0.00    -0.014 A 
ATOM     68  C   UNL A   1      41.715  23.113  26.279  1.00  0.00     0.009 A 
ATOM     69  C   UNL A   1      41.730  22.240  28.534  1.00  0.00     0.009 A 
ATOM     70  C   UNL A   1      41.289  21.872  25.803  1.00  0.00     0.001 A 
ATOM     71  C   UNL A   1      41.334  20.991  28.052  1.00  0.00     0.001 A 
ATOM     72  C   UNL A   1      41.104  20.810  26.688  1.00  0.00     0.000 A 
ENDBRANCH  53  67
BRANCH  54  73
ATOM     73  C   UNL A   1      44.458  32.198  31.417  1.00  0.00    -0.014 A 
ATOM     74  C   UNL A   1      45.057  33.178  30.610  1.00  0.00     0.009 A 
ATOM     75  C   UNL A   1      44.239  32.477  32.775  1.00  0.00     0.009 A 
ATOM     76  C   UNL A   1      45.457  34.398  31.158  1.00  0.00     0.001 A 
ATOM     77  C   UNL A   1      44.613  33.710  33.313  1.00  0.00     0.001 A 
ATOM     78  C   UNL A   1      45.231  34.666  32.507  1.00  0.00     0.000 A 
ENDBRANCH  54  73
BRANCH  66  79
ATOM     79  C   UNL A   1      48.025  26.405  29.961  1.00  0.00    -0.014 A 
ATOM     80  C   UNL A   1      48.923  26.610  28.903  1.00  0.00     0.009 A 
ATOM     81  C   UNL A   1      48.510  25.888  31.173  1.00  0.00     0.009 A 
ATOM     82  C   UNL A   1      50.269  26.265  29.042  1.00  0.00     0.001 A 
ATOM     83  C   UNL A   1      49.860  25.574  31.320  1.00  0.00     0.001 A 
ATOM     84  C   UNL A   1      50.737  25.751  30.251  1.00  0.00     0.000 A 
ENDBRANCH  66  79
ENDBRANCH  40  41
ENDBRANCH  32  35
ENDBRANCH  30  31
ENDBRANCH  29  30
ENDBRANCH   1  29
TORSDOF 14
ENDMDL
MODEL 3
REMARK VINA RESULT:      -9.9      4.611     10.598
REMARK SMILES O=C(COc1cccc(/C=C2\SC(=O)N(c3cccc(Cl)c3)C2=O)c1)NCCCNC(=O)c1ccc(-c2c3nc(c(-c4ccccc4)c4ccc([nH]4)c(-c4ccccc4)c4nc(c(-c5ccccc5)c5ccc2[nH]5)C=C4)C=C3)cc1
REMARK SMILES IDX 27 1 26 2 1 3 2 4 3 6 4 7 5 8 6 9 25 10 7 11 9 12 8 13 10 14
REMARK SMILES IDX 11 15 12 16 23 17 13 18 15 19 24 20 14 21 16 22 17 23 22 24
REMARK SMILES IDX 18 25 20 26 19 27 21 28 28 29 29 30 30 31 31 32 32 34 33 35
REMARK SMILES IDX 34 36 80 37 35 38 79 39 36 40 37 41 38 42 73 43 39 44 78 45
REMARK SMILES IDX 72 46 74 47 40 48 77 49 71 50 70 51 41 53 63 54 48 55 62 56
REMARK SMILES IDX 49 57 52 58 61 59 75 60 50 61 51 62 60 64 76 65 53 66 42 67
REMARK SMILES IDX 43 68 47 69 44 70 46 71 45 72 64 73 65 74 69 75 66 76 68 77
REMARK SMILES IDX 67 78 54 79 55 80 59 81 56 82 58 83 57 84
REMARK H PARENT 26 5 30 33 74 52 52 63
REMARK Flexibility Score: inf
ROOT
ATOM      1  C   UNL A   1      44.224  19.417  24.880  1.00  0.00     0.117 C 
ENDROOT
BRANCH   1   2
ATOM      2  N   UNL A   1      45.181  20.453  25.218  1.00  0.00    -0.353 N 
ATOM      3  O   UNL A   1      44.548  21.910  23.561  1.00  0.00    -0.271 OA
ATOM      4  C   UNL A   1      45.175  21.684  24.591  1.00  0.00     0.257 C 
ATOM      5  H   UNL A   1      45.853  20.274  25.916  1.00  0.00     0.163 HD
BRANCH   4   6
ATOM      6  C   UNL A   1      45.996  22.766  25.309  1.00  0.00     0.329 C 
BRANCH   6   7
ATOM      7  O   UNL A   1      46.260  23.969  24.588  1.00  0.00    -0.484 OA
BRANCH   7   8
ATOM      8  C   UNL A   1      45.657  25.087  25.102  1.00  0.00     0.120 A 
ATOM      9  C   UNL A   1      44.293  25.256  24.879  1.00  0.00     0.046 A 
ATOM     10  C   UNL A   1      46.374  26.114  25.709  1.00  0.00     0.054 A 
ATOM     11  C   UNL A   1      43.655  26.433  25.290  1.00  0.00     0.004 A 
ATOM     12  C   UNL A   1      45.759  27.316  26.074  1.00  0.00    -0.021 A 
ATOM     13  C   UNL A   1      44.387  27.465  25.885  1.00  0.00     0.008 A 
BRANCH  12  14
ATOM     14  C   UNL A   1      46.601  28.380  26.631  1.00  0.00     0.029 C 
ATOM     15  C   UNL A   1      46.172  29.626  26.888  1.00  0.00     0.083 C 
ATOM     16  S   UNL A   1      44.562  30.218  26.815  1.00  0.00    -0.022 SA
ATOM     17  C   UNL A   1      47.107  30.720  27.266  1.00  0.00     0.272 C 
ATOM     18  C   UNL A   1      45.043  31.843  27.270  1.00  0.00     0.298 C 
ATOM     19  N   UNL A   1      46.408  31.904  27.454  1.00  0.00    -0.236 N 
ATOM     20  O   UNL A   1      48.309  30.526  27.400  1.00  0.00    -0.268 OA
ATOM     21  O   UNL A   1      44.222  32.744  27.325  1.00  0.00    -0.260 OA
BRANCH  19  22
ATOM     22  C   UNL A   1      47.063  33.118  27.819  1.00  0.00     0.054 A 
ATOM     23  C   UNL A   1      47.840  33.195  28.987  1.00  0.00     0.027 A 
ATOM     24  C   UNL A   1      46.931  34.271  27.029  1.00  0.00     0.047 A 
ATOM     25  C   UNL A   1      48.463  34.390  29.360  1.00  0.00     0.004 A 
ATOM     26  C   UNL A   1      47.525  35.471  27.427  1.00  0.00     0.043 A 
ATOM     27  C   UNL A   1      48.292  35.534  28.586  1.00  0.00     0.020 A 
ATOM     28  Cl  UNL A   1      47.275  36.895  26.493  1.00  0.00    -0.084 Cl
ENDBRANCH  19  22
ENDBRANCH  12  14
ENDBRANCH   7   8
ENDBRANCH   6   7
ENDBRANCH   4   6
ENDBRANCH   1   2
BRANCH   1  29
ATOM     29  C   UNL A   1      44.190  18.271  25.876  1.00  0.00     0.042 C 
BRANCH  29  30
ATOM     30  C   UNL A   1      43.014  18.321  26.842  1.00  0.00     0.118 C 
BRANCH  30  31
ATOM     31  N   UNL A   1      41.728  18.516  26.186  1.00  0.00    -0.352 N 
ATOM     32  C   UNL A   1      40.924  19.627  26.113  1.00  0.00     0.251 C 
ATOM     33  H   UNL A   1      41.379  17.723  25.719  1.00  0.00     0.163 HD
ATOM     34  O   UNL A   1      39.822  19.540  25.579  1.00  0.00    -0.269 OA
BRANCH  32  35
ATOM     35  C   UNL A   1      41.350  20.921  26.691  1.00  0.00     0.039 A 
ATOM     36  C   UNL A   1      41.661  21.968  25.817  1.00  0.00     0.014 A 
ATOM     37  C   UNL A   1      41.476  21.108  28.069  1.00  0.00     0.014 A 
ATOM     38  C   UNL A   1      42.038  23.212  26.325  1.00  0.00     0.010 A 
ATOM     39  C   UNL A   1      41.771  22.372  28.576  1.00  0.00     0.010 A 
ATOM     40  C   UNL A   1      42.061  23.437  27.711  1.00  0.00    -0.014 A 
BRANCH  40  41
ATOM     41  C   UNL A   1      42.384  24.778  28.260  1.00  0.00     0.031 A 
ATOM     42  C   UNL A   1      43.786  25.110  28.695  1.00  0.00     0.074 A 
ATOM     43  C   UNL A   1      41.404  25.690  28.409  1.00  0.00     0.049 A 
ATOM     44  N   UNL A   1      44.250  26.222  29.209  1.00  0.00    -0.248 NA
ATOM     45  C   UNL A   1      44.796  24.048  28.556  1.00  0.00     0.031 C 
ATOM     46  C   UNL A   1      39.994  25.482  28.068  1.00  0.00     0.029 A 
ATOM     47  N   UNL A   1      41.443  26.976  28.886  1.00  0.00    -0.354 N 
ATOM     48  C   UNL A   1      45.595  25.989  29.466  1.00  0.00     0.074 A 
ATOM     49  C   UNL A   1      45.862  24.615  29.102  1.00  0.00     0.031 C 
ATOM     50  C   UNL A   1      39.312  26.614  28.313  1.00  0.00     0.029 A 
ATOM     51  C   UNL A   1      40.224  27.611  28.862  1.00  0.00     0.049 A 
ATOM     52  H   UNL A   1      42.267  27.405  29.213  1.00  0.00     0.167 HD
ATOM     53  C   UNL A   1      46.530  26.846  29.941  1.00  0.00     0.031 A 
ATOM     54  C   UNL A   1      39.878  28.856  29.239  1.00  0.00     0.031 A 
ATOM     55  C   UNL A   1      46.271  28.216  30.297  1.00  0.00     0.049 A 
ATOM     56  C   UNL A   1      40.933  29.783  29.773  1.00  0.00     0.074 A 
ATOM     57  C   UNL A   1      47.164  29.177  30.736  1.00  0.00     0.029 A 
ATOM     58  N   UNL A   1      45.022  28.818  30.257  1.00  0.00    -0.354 N 
ATOM     59  N   UNL A   1      42.214  29.568  29.941  1.00  0.00    -0.248 NA
ATOM     60  C   UNL A   1      40.492  31.133  30.156  1.00  0.00     0.031 C 
ATOM     61  C   UNL A   1      46.448  30.347  31.012  1.00  0.00     0.029 A 
ATOM     62  C   UNL A   1      45.119  30.132  30.688  1.00  0.00     0.049 A 
ATOM     63  H   UNL A   1      44.191  28.379  29.967  1.00  0.00     0.167 HD
ATOM     64  C   UNL A   1      42.739  30.762  30.420  1.00  0.00     0.074 A 
ATOM     65  C   UNL A   1      41.638  31.701  30.498  1.00  0.00     0.031 C 
ATOM     66  C   UNL A   1      44.016  31.054  30.765  1.00  0.00     0.031 A 
BRANCH  53  67
ATOM     67  C   UNL A   1      47.929  26.318  30.111  1.00  0.00    -0.014 A 
ATOM     68  C   UNL A   1      48.392  25.872  31.359  1.00  0.00     0.009 A 
ATOM     69  C   UNL A   1      48.784  26.233  29.001  1.00  0.00     0.009 A 
ATOM     70  C   UNL A   1      49.695  25.387  31.500  1.00  0.00     0.001 A 
ATOM     71  C   UNL A   1      50.075  25.718  29.138  1.00  0.00     0.001 A 
ATOM     72  C   UNL A   1      50.533  25.306  30.388  1.00  0.00     0.000 A 
ENDBRANCH  53  67
BRANCH  54  73
ATOM     73  C   UNL A   1      38.468  29.309  29.106  1.00  0.00    -0.014 A 
ATOM     74  C   UNL A   1      37.987  29.786  27.877  1.00  0.00     0.009 A 
ATOM     75  C   UNL A   1      37.599  29.276  30.208  1.00  0.00     0.009 A 
ATOM     76  C   UNL A   1      36.674  30.249  27.762  1.00  0.00     0.001 A 
ATOM     77  C   UNL A   1      36.278  29.710  30.082  1.00  0.00     0.001 A 
ATOM     78  C   UNL A   1      35.820  30.207  28.862  1.00  0.00     0.000 A 
ENDBRANCH  54  73
BRANCH  66  79
ATOM     79  C   UNL A   1      44.299  32.459  31.222  1.00  0.00    -0.014 A 
ATOM     80  C   UNL A   1      44.610  33.477  30.309  1.00  0.00     0.009 A 
ATOM     81  C   UNL A   1      44.224  32.771  32.589  1.00  0.00     0.009 A 
ATOM     82  C   UNL A   1      44.880  34.772  30.758  1.00  0.00     0.001 A 
ATOM     83  C   UNL A   1      44.465  34.071  33.033  1.00  0.00     0.001 A 
ATOM     84  C   UNL A   1      44.804  35.067  32.119  1.00  0.00     0.000 A 
ENDBRANCH  66  79
ENDBRANCH  40  41
ENDBRANCH  32  35
ENDBRANCH  30  31
ENDBRANCH  29  30
ENDBRANCH   1  29
TORSDOF 14
ENDMDL
