MODEL 1
REMARK VINA RESULT:     -11.3      0.000      0.000
REMARK SMILES O=C(C[C@@H](c1cccc([N+](=O)[O-])c1)N1Cc2ccccc2C1=O)NCCCNC(=O)c1ccc(-c2c3nc(c(-c4ccccc4)c4ccc([nH]4)c(-c4ccccc4)c4nc(c(-c5ccccc5)c5ccc2[nH]5)C=C4)C=C3)cc1
REMARK SMILES IDX 25 1 24 2 1 3 2 4 3 6 4 7 5 8 6 9 13 10 7 11 9 12 8 13 10 14
REMARK SMILES IDX 11 15 12 16 14 17 15 18 22 19 16 20 21 21 23 22 17 23 20 24
REMARK SMILES IDX 18 25 19 26 26 27 27 28 28 29 29 30 30 32 31 33 32 34 78 35
REMARK SMILES IDX 33 36 77 37 34 38 35 39 36 40 71 41 37 42 76 43 70 44 72 45
REMARK SMILES IDX 38 46 75 47 69 48 68 49 39 51 61 52 46 53 60 54 47 55 50 56
REMARK SMILES IDX 59 57 73 58 48 59 49 60 58 62 74 63 51 64 40 65 41 66 45 67
REMARK SMILES IDX 42 68 44 69 43 70 62 71 63 72 67 73 64 74 66 75 65 76 52 77
REMARK SMILES IDX 53 78 57 79 54 80 56 81 55 82
REMARK H PARENT 24 5 28 31 72 50 50 61
REMARK Flexibility Score: inf
ROOT
ATOM      1  C   UNL A   1      34.603  22.770  25.071  1.00  0.00     0.117 C 
ENDROOT
BRANCH   1   2
ATOM      2  N   UNL A   1      33.564  23.418  24.300  1.00  0.00    -0.356 N 
ATOM      3  O   UNL A   1      31.959  23.212  25.931  1.00  0.00    -0.275 OA
ATOM      4  C   UNL A   1      32.319  23.654  24.847  1.00  0.00     0.222 C 
ATOM      5  H   UNL A   1      33.748  23.694  23.373  1.00  0.00     0.163 HD
BRANCH   4   6
ATOM      6  C   UNL A   1      31.472  24.606  24.031  1.00  0.00     0.130 C 
BRANCH   6   7
ATOM      7  C   UNL A   1      31.999  26.036  24.199  1.00  0.00     0.125 C 
BRANCH   7   8
ATOM      8  C   UNL A   1      31.090  27.115  23.566  1.00  0.00    -0.018 A 
ATOM      9  C   UNL A   1      31.650  28.218  22.901  1.00  0.00     0.006 A 
ATOM     10  C   UNL A   1      29.690  27.051  23.633  1.00  0.00     0.091 A 
ATOM     11  C   UNL A   1      30.843  29.230  22.361  1.00  0.00     0.007 A 
ATOM     12  C   UNL A   1      28.891  28.111  23.183  1.00  0.00     0.269 A 
ATOM     13  C   UNL A   1      29.458  29.196  22.524  1.00  0.00     0.085 A 
BRANCH  12  14
ATOM     14  N   UNL A   1      27.451  28.071  23.454  1.00  0.00     0.062 N 
ATOM     15  O   UNL A   1      26.977  27.049  23.963  1.00  0.00    -0.258 OA
ATOM     16  O   UNL A   1      26.786  29.073  23.142  1.00  0.00    -0.258 OA
ENDBRANCH  12  14
ENDBRANCH   7   8
BRANCH   7  17
ATOM     17  N   UNL A   1      32.289  26.355  25.617  1.00  0.00    -0.327 N 
ATOM     18  C   UNL A   1      31.361  27.076  26.474  1.00  0.00     0.157 C 
ATOM     19  C   UNL A   1      33.600  26.703  25.976  1.00  0.00     0.255 C 
ATOM     20  C   UNL A   1      32.138  28.310  26.762  1.00  0.00    -0.016 A 
ATOM     21  C   UNL A   1      33.494  27.983  26.707  1.00  0.00     0.045 A 
ATOM     22  O   UNL A   1      34.643  26.209  25.590  1.00  0.00    -0.269 OA
ATOM     23  C   UNL A   1      31.741  29.623  26.920  1.00  0.00     0.006 A 
ATOM     24  C   UNL A   1      34.494  28.899  26.960  1.00  0.00     0.014 A 
ATOM     25  C   UNL A   1      32.742  30.586  27.102  1.00  0.00     0.000 A 
ATOM     26  C   UNL A   1      34.101  30.221  27.173  1.00  0.00     0.001 A 
ENDBRANCH   7  17
ENDBRANCH   6   7
ENDBRANCH   4   6
ENDBRANCH   1   2
BRANCH   1  27
ATOM     27  C   UNL A   1      35.941  22.712  24.341  1.00  0.00     0.042 C 
BRANCH  27  28
ATOM     28  C   UNL A   1      37.093  23.447  25.027  1.00  0.00     0.118 C 
BRANCH  28  29
ATOM     29  N   UNL A   1      38.223  22.594  25.358  1.00  0.00    -0.352 N 
ATOM     30  C   UNL A   1      39.354  22.895  26.084  1.00  0.00     0.251 C 
ATOM     31  H   UNL A   1      38.172  21.672  25.015  1.00  0.00     0.163 HD
ATOM     32  O   UNL A   1      40.250  22.064  26.191  1.00  0.00    -0.269 OA
BRANCH  30  33
ATOM     33  C   UNL A   1      39.506  24.230  26.707  1.00  0.00     0.039 A 
ATOM     34  C   UNL A   1      38.974  24.448  27.982  1.00  0.00     0.014 A 
ATOM     35  C   UNL A   1      40.181  25.261  26.050  1.00  0.00     0.014 A 
ATOM     36  C   UNL A   1      39.196  25.668  28.629  1.00  0.00     0.010 A 
ATOM     37  C   UNL A   1      40.433  26.462  26.707  1.00  0.00     0.010 A 
ATOM     38  C   UNL A   1      39.963  26.669  28.012  1.00  0.00    -0.014 A 
BRANCH  38  39
ATOM     39  C   UNL A   1      40.354  27.912  28.722  1.00  0.00     0.031 A 
ATOM     40  C   UNL A   1      41.668  27.999  29.446  1.00  0.00     0.074 A 
ATOM     41  C   UNL A   1      39.468  28.922  28.816  1.00  0.00     0.049 A 
ATOM     42  N   UNL A   1      42.118  28.950  30.226  1.00  0.00    -0.248 NA
ATOM     43  C   UNL A   1      42.587  26.861  29.288  1.00  0.00     0.031 C 
ATOM     44  C   UNL A   1      38.142  28.948  28.194  1.00  0.00     0.029 A 
ATOM     45  N   UNL A   1      39.541  30.114  29.493  1.00  0.00    -0.354 N 
ATOM     46  C   UNL A   1      43.361  28.519  30.667  1.00  0.00     0.074 A 
ATOM     47  C   UNL A   1      43.582  27.208  30.091  1.00  0.00     0.031 C 
ATOM     48  C   UNL A   1      37.532  30.101  28.510  1.00  0.00     0.029 A 
ATOM     49  C   UNL A   1      38.402  30.875  29.390  1.00  0.00     0.049 A 
ATOM     50  H   UNL A   1      40.334  30.396  30.003  1.00  0.00     0.167 HD
ATOM     51  C   UNL A   1      44.244  29.160  31.471  1.00  0.00     0.031 A 
ATOM     52  C   UNL A   1      38.083  32.054  29.953  1.00  0.00     0.031 A 
ATOM     53  C   UNL A   1      44.029  30.464  32.040  1.00  0.00     0.049 A 
ATOM     54  C   UNL A   1      39.069  32.735  30.858  1.00  0.00     0.074 A 
ATOM     55  C   UNL A   1      44.892  31.216  32.820  1.00  0.00     0.029 A 
ATOM     56  N   UNL A   1      42.870  31.208  31.896  1.00  0.00    -0.354 N 
ATOM     57  N   UNL A   1      40.266  32.340  31.217  1.00  0.00    -0.248 NA
ATOM     58  C   UNL A   1      38.661  34.025  31.432  1.00  0.00     0.031 C 
ATOM     59  C   UNL A   1      44.237  32.397  33.183  1.00  0.00     0.029 A 
ATOM     60  C   UNL A   1      42.985  32.400  32.591  1.00  0.00     0.049 A 
ATOM     61  H   UNL A   1      42.080  30.930  31.376  1.00  0.00     0.167 HD
ATOM     62  C   UNL A   1      40.765  33.346  32.034  1.00  0.00     0.074 A 
ATOM     63  C   UNL A   1      39.745  34.371  32.114  1.00  0.00     0.031 C 
ATOM     64  C   UNL A   1      41.965  33.413  32.658  1.00  0.00     0.031 A 
BRANCH  51  65
ATOM     65  C   UNL A   1      45.528  28.450  31.792  1.00  0.00    -0.014 A 
ATOM     66  C   UNL A   1      45.611  27.555  32.869  1.00  0.00     0.009 A 
ATOM     67  C   UNL A   1      46.656  28.645  30.980  1.00  0.00     0.009 A 
ATOM     68  C   UNL A   1      46.809  26.892  33.146  1.00  0.00     0.001 A 
ATOM     69  C   UNL A   1      47.844  27.964  31.245  1.00  0.00     0.001 A 
ATOM     70  C   UNL A   1      47.923  27.094  32.332  1.00  0.00     0.000 A 
ENDBRANCH  51  65
BRANCH  52  71
ATOM     71  C   UNL A   1      36.765  32.677  29.671  1.00  0.00    -0.014 A 
ATOM     72  C   UNL A   1      35.729  32.598  30.614  1.00  0.00     0.009 A 
ATOM     73  C   UNL A   1      36.536  33.352  28.461  1.00  0.00     0.009 A 
ATOM     74  C   UNL A   1      34.482  33.164  30.341  1.00  0.00     0.001 A 
ATOM     75  C   UNL A   1      35.294  33.938  28.203  1.00  0.00     0.001 A 
ATOM     76  C   UNL A   1      34.267  33.837  29.139  1.00  0.00     0.000 A 
ENDBRANCH  52  71
BRANCH  64  77
ATOM     77  C   UNL A   1      42.259  34.652  33.454  1.00  0.00    -0.014 A 
ATOM     78  C   UNL A   1      41.956  34.729  34.822  1.00  0.00     0.009 A 
ATOM     79  C   UNL A   1      42.898  35.739  32.834  1.00  0.00     0.009 A 
ATOM     80  C   UNL A   1      42.267  35.879  35.548  1.00  0.00     0.001 A 
ATOM     81  C   UNL A   1      43.227  36.878  33.568  1.00  0.00     0.001 A 
ATOM     82  C   UNL A   1      42.907  36.950  34.923  1.00  0.00     0.000 A 
ENDBRANCH  64  77
ENDBRANCH  38  39
ENDBRANCH  30  33
ENDBRANCH  28  29
ENDBRANCH  27  28
ENDBRANCH   1  27
TORSDOF 14
ENDMDL
MODEL 2
REMARK VINA RESULT:     -11.2      2.875      7.745
REMARK SMILES O=C(C[C@@H](c1cccc([N+](=O)[O-])c1)N1Cc2ccccc2C1=O)NCCCNC(=O)c1ccc(-c2c3nc(c(-c4ccccc4)c4ccc([nH]4)c(-c4ccccc4)c4nc(c(-c5ccccc5)c5ccc2[nH]5)C=C4)C=C3)cc1
REMARK SMILES IDX 25 1 24 2 1 3 2 4 3 6 4 7 5 8 6 9 13 10 7 11 9 12 8 13 10 14
REMARK SMILES IDX 11 15 12 16 14 17 15 18 22 19 16 20 21 21 23 22 17 23 20 24
REMARK SMILES IDX 18 25 19 26 26 27 27 28 28 29 29 30 30 32 31 33 32 34 78 35
REMARK SMILES IDX 33 36 77 37 34 38 35 39 36 40 71 41 37 42 76 43 70 44 72 45
REMARK SMILES IDX 38 46 75 47 69 48 68 49 39 51 61 52 46 53 60 54 47 55 50 56
REMARK SMILES IDX 59 57 73 58 48 59 49 60 58 62 74 63 51 64 40 65 41 66 45 67
REMARK SMILES IDX 42 68 44 69 43 70 62 71 63 72 67 73 64 74 66 75 65 76 52 77
REMARK SMILES IDX 53 78 57 79 54 80 56 81 55 82
REMARK H PARENT 24 5 28 31 72 50 50 61
REMARK Flexibility Score: inf
ROOT
ATOM      1  C   UNL A   1      37.931  21.784  24.987  1.00  0.00     0.117 C 
ENDROOT
BRANCH   1   2
ATOM      2  N   UNL A   1      36.553  22.164  24.762  1.00  0.00    -0.356 N 
ATOM      3  O   UNL A   1      36.933  23.034  22.670  1.00  0.00    -0.275 OA
ATOM      4  C   UNL A   1      36.154  22.703  23.556  1.00  0.00     0.222 C 
ATOM      5  H   UNL A   1      35.891  22.036  25.480  1.00  0.00     0.163 HD
BRANCH   4   6
ATOM      6  C   UNL A   1      34.652  22.746  23.381  1.00  0.00     0.130 C 
BRANCH   6   7
ATOM      7  C   UNL A   1      33.974  22.747  24.757  1.00  0.00     0.125 C 
BRANCH   7   8
ATOM      8  C   UNL A   1      33.350  24.108  25.145  1.00  0.00    -0.018 A 
ATOM      9  C   UNL A   1      34.169  25.185  25.522  1.00  0.00     0.006 A 
ATOM     10  C   UNL A   1      31.964  24.324  25.148  1.00  0.00     0.091 A 
ATOM     11  C   UNL A   1      33.619  26.413  25.921  1.00  0.00     0.007 A 
ATOM     12  C   UNL A   1      31.415  25.515  25.643  1.00  0.00     0.269 A 
ATOM     13  C   UNL A   1      32.237  26.576  26.011  1.00  0.00     0.085 A 
BRANCH  12  14
ATOM     14  N   UNL A   1      29.961  25.608  25.801  1.00  0.00     0.062 N 
ATOM     15  O   UNL A   1      29.439  25.049  26.772  1.00  0.00    -0.258 OA
ATOM     16  O   UNL A   1      29.334  26.239  24.933  1.00  0.00    -0.258 OA
ENDBRANCH  12  14
ENDBRANCH   7   8
BRANCH   7  17
ATOM     17  N   UNL A   1      32.981  21.655  24.884  1.00  0.00    -0.327 N 
ATOM     18  C   UNL A   1      33.163  20.515  25.770  1.00  0.00     0.157 C 
ATOM     19  C   UNL A   1      32.295  21.229  23.736  1.00  0.00     0.255 C 
ATOM     20  C   UNL A   1      33.233  19.400  24.791  1.00  0.00    -0.016 A 
ATOM     21  C   UNL A   1      32.476  19.764  23.674  1.00  0.00     0.045 A 
ATOM     22  O   UNL A   1      31.837  21.909  22.837  1.00  0.00    -0.269 OA
ATOM     23  C   UNL A   1      33.978  18.237  24.780  1.00  0.00     0.006 A 
ATOM     24  C   UNL A   1      32.303  18.934  22.586  1.00  0.00     0.014 A 
ATOM     25  C   UNL A   1      33.881  17.413  23.652  1.00  0.00     0.000 A 
ATOM     26  C   UNL A   1      33.013  17.732  22.589  1.00  0.00     0.001 A 
ENDBRANCH   7  17
ENDBRANCH   6   7
ENDBRANCH   4   6
ENDBRANCH   1   2
BRANCH   1  27
ATOM     27  C   UNL A   1      38.182  20.294  24.781  1.00  0.00     0.042 C 
BRANCH  27  28
ATOM     28  C   UNL A   1      38.757  19.555  25.989  1.00  0.00     0.118 C 
BRANCH  28  29
ATOM     29  N   UNL A   1      40.053  18.943  25.745  1.00  0.00    -0.352 N 
ATOM     30  C   UNL A   1      41.312  19.472  25.927  1.00  0.00     0.251 C 
ATOM     31  H   UNL A   1      40.027  18.021  25.400  1.00  0.00     0.163 HD
ATOM     32  O   UNL A   1      42.299  18.830  25.583  1.00  0.00    -0.269 OA
BRANCH  30  33
ATOM     33  C   UNL A   1      41.474  20.825  26.506  1.00  0.00     0.039 A 
ATOM     34  C   UNL A   1      41.464  20.975  27.896  1.00  0.00     0.014 A 
ATOM     35  C   UNL A   1      41.650  21.943  25.688  1.00  0.00     0.014 A 
ATOM     36  C   UNL A   1      41.717  22.228  28.463  1.00  0.00     0.010 A 
ATOM     37  C   UNL A   1      41.939  23.184  26.251  1.00  0.00     0.010 A 
ATOM     38  C   UNL A   1      41.998  23.333  27.645  1.00  0.00    -0.014 A 
BRANCH  38  39
ATOM     39  C   UNL A   1      42.426  24.639  28.204  1.00  0.00     0.031 A 
ATOM     40  C   UNL A   1      41.435  25.749  28.406  1.00  0.00     0.074 A 
ATOM     41  C   UNL A   1      43.737  24.864  28.417  1.00  0.00     0.049 A 
ATOM     42  N   UNL A   1      41.648  26.992  28.757  1.00  0.00    -0.248 NA
ATOM     43  C   UNL A   1      40.020  25.425  28.162  1.00  0.00     0.031 C 
ATOM     44  C   UNL A   1      44.809  23.884  28.222  1.00  0.00     0.029 A 
ATOM     45  N   UNL A   1      44.394  25.999  28.822  1.00  0.00    -0.354 N 
ATOM     46  C   UNL A   1      40.402  27.603  28.758  1.00  0.00     0.074 A 
ATOM     47  C   UNL A   1      39.441  26.602  28.345  1.00  0.00     0.031 C 
ATOM     48  C   UNL A   1      45.986  24.458  28.516  1.00  0.00     0.029 A 
ATOM     49  C   UNL A   1      45.759  25.853  28.878  1.00  0.00     0.049 A 
ATOM     50  H   UNL A   1      43.932  26.837  29.050  1.00  0.00     0.167 HD
ATOM     51  C   UNL A   1      40.085  28.880  29.084  1.00  0.00     0.031 A 
ATOM     52  C   UNL A   1      46.724  26.745  29.170  1.00  0.00     0.031 A 
ATOM     53  C   UNL A   1      41.037  29.875  29.500  1.00  0.00     0.049 A 
ATOM     54  C   UNL A   1      46.349  28.160  29.506  1.00  0.00     0.074 A 
ATOM     55  C   UNL A   1      40.800  31.178  29.905  1.00  0.00     0.029 A 
ATOM     56  N   UNL A   1      42.407  29.681  29.561  1.00  0.00    -0.354 N 
ATOM     57  N   UNL A   1      45.159  28.705  29.561  1.00  0.00    -0.248 NA
ATOM     58  C   UNL A   1      47.451  29.080  29.824  1.00  0.00     0.031 C 
ATOM     59  C   UNL A   1      42.032  31.786  30.169  1.00  0.00     0.029 A 
ATOM     60  C   UNL A   1      43.031  30.846  29.974  1.00  0.00     0.049 A 
ATOM     61  H   UNL A   1      42.870  28.839  29.343  1.00  0.00     0.167 HD
ATOM     62  C   UNL A   1      45.366  30.023  29.947  1.00  0.00     0.074 A 
ATOM     63  C   UNL A   1      46.794  30.193  30.119  1.00  0.00     0.031 C 
ATOM     64  C   UNL A   1      44.452  31.002  30.145  1.00  0.00     0.031 A 
BRANCH  51  65
ATOM     65  C   UNL A   1      38.640  29.277  28.993  1.00  0.00    -0.014 A 
ATOM     66  C   UNL A   1      38.095  29.757  27.792  1.00  0.00     0.009 A 
ATOM     67  C   UNL A   1      37.803  29.128  30.110  1.00  0.00     0.009 A 
ATOM     68  C   UNL A   1      36.745  30.110  27.721  1.00  0.00     0.001 A 
ATOM     69  C   UNL A   1      36.449  29.459  30.028  1.00  0.00     0.001 A 
ATOM     70  C   UNL A   1      35.923  29.957  28.837  1.00  0.00     0.000 A 
ENDBRANCH  51  65
BRANCH  52  71
ATOM     71  C   UNL A   1      48.148  26.323  29.164  1.00  0.00    -0.014 A 
ATOM     72  C   UNL A   1      48.908  26.415  27.989  1.00  0.00     0.009 A 
ATOM     73  C   UNL A   1      48.752  25.829  30.330  1.00  0.00     0.009 A 
ATOM     74  C   UNL A   1      50.241  26.000  27.976  1.00  0.00     0.001 A 
ATOM     75  C   UNL A   1      50.093  25.437  30.320  1.00  0.00     0.001 A 
ATOM     76  C   UNL A   1      50.833  25.514  29.142  1.00  0.00     0.000 A 
ENDBRANCH  52  71
BRANCH  64  77
ATOM     77  C   UNL A   1      44.960  32.337  30.608  1.00  0.00    -0.014 A 
ATOM     78  C   UNL A   1      45.129  32.618  31.972  1.00  0.00     0.009 A 
ATOM     79  C   UNL A   1      45.325  33.306  29.660  1.00  0.00     0.009 A 
ATOM     80  C   UNL A   1      45.632  33.856  32.378  1.00  0.00     0.001 A 
ATOM     81  C   UNL A   1      45.849  34.532  30.067  1.00  0.00     0.001 A 
ATOM     82  C   UNL A   1      45.997  34.809  31.426  1.00  0.00     0.000 A 
ENDBRANCH  64  77
ENDBRANCH  38  39
ENDBRANCH  30  33
ENDBRANCH  28  29
ENDBRANCH  27  28
ENDBRANCH   1  27
TORSDOF 14
ENDMDL
MODEL 3
REMARK VINA RESULT:     -11.1      1.010      5.861
REMARK SMILES O=C(C[C@@H](c1cccc([N+](=O)[O-])c1)N1Cc2ccccc2C1=O)NCCCNC(=O)c1ccc(-c2c3nc(c(-c4ccccc4)c4ccc([nH]4)c(-c4ccccc4)c4nc(c(-c5ccccc5)c5ccc2[nH]5)C=C4)C=C3)cc1
REMARK SMILES IDX 25 1 24 2 1 3 2 4 3 6 4 7 5 8 6 9 13 10 7 11 9 12 8 13 10 14
REMARK SMILES IDX 11 15 12 16 14 17 15 18 22 19 16 20 21 21 23 22 17 23 20 24
REMARK SMILES IDX 18 25 19 26 26 27 27 28 28 29 29 30 30 32 31 33 32 34 78 35
REMARK SMILES IDX 33 36 77 37 34 38 35 39 36 40 71 41 37 42 76 43 70 44 72 45
REMARK SMILES IDX 38 46 75 47 69 48 68 49 39 51 61 52 46 53 60 54 47 55 50 56
REMARK SMILES IDX 59 57 73 58 48 59 49 60 58 62 74 63 51 64 40 65 41 66 45 67
REMARK SMILES IDX 42 68 44 69 43 70 62 71 63 72 67 73 64 74 66 75 65 76 52 77
REMARK SMILES IDX 53 78 57 79 54 80 56 81 55 82
REMARK H PARENT 24 5 28 31 72 50 50 61
REMARK Flexibility Score: inf
ROOT
ATOM      1  C   UNL A   1      34.302  22.276  24.980  1.00  0.00     0.117 C 
ENDROOT
BRANCH   1   2
ATOM      2  N   UNL A   1      33.283  23.009  24.259  1.00  0.00    -0.356 N 
ATOM      3  O   UNL A   1      31.673  22.740  25.876  1.00  0.00    -0.275 OA
ATOM      4  C   UNL A   1      32.046  23.245  24.824  1.00  0.00     0.222 C 
ATOM      5  H   UNL A   1      33.475  23.343  23.353  1.00  0.00     0.163 HD
BRANCH   4   6
ATOM      6  C   UNL A   1      31.229  24.277  24.078  1.00  0.00     0.130 C 
BRANCH   6   7
ATOM      7  C   UNL A   1      31.901  25.651  24.201  1.00  0.00     0.125 C 
BRANCH   7   8
ATOM      8  C   UNL A   1      31.066  26.810  23.609  1.00  0.00    -0.018 A 
ATOM      9  C   UNL A   1      31.700  27.907  23.004  1.00  0.00     0.006 A 
ATOM     10  C   UNL A   1      29.664  26.825  23.656  1.00  0.00     0.091 A 
ATOM     11  C   UNL A   1      30.960  28.989  22.502  1.00  0.00     0.007 A 
ATOM     12  C   UNL A   1      28.934  27.950  23.247  1.00  0.00     0.269 A 
ATOM     13  C   UNL A   1      29.574  29.029  22.646  1.00  0.00     0.085 A 
BRANCH  12  14
ATOM     14  N   UNL A   1      27.491  27.983  23.498  1.00  0.00     0.062 N 
ATOM     15  O   UNL A   1      26.962  26.991  24.012  1.00  0.00    -0.258 OA
ATOM     16  O   UNL A   1      26.879  29.011  23.165  1.00  0.00    -0.258 OA
ENDBRANCH  12  14
ENDBRANCH   7   8
BRANCH   7  17
ATOM     17  N   UNL A   1      32.301  25.947  25.597  1.00  0.00    -0.327 N 
ATOM     18  C   UNL A   1      31.417  26.591  26.556  1.00  0.00     0.157 C 
ATOM     19  C   UNL A   1      33.618  26.361  25.849  1.00  0.00     0.255 C 
ATOM     20  C   UNL A   1      32.148  27.859  26.813  1.00  0.00    -0.016 A 
ATOM     21  C   UNL A   1      33.510  27.612  26.626  1.00  0.00     0.045 A 
ATOM     22  O   UNL A   1      34.647  25.938  25.355  1.00  0.00    -0.269 OA
ATOM     23  C   UNL A   1      31.697  29.143  27.048  1.00  0.00     0.006 A 
ATOM     24  C   UNL A   1      34.477  28.577  26.818  1.00  0.00     0.014 A 
ATOM     25  C   UNL A   1      32.655  30.156  27.170  1.00  0.00     0.000 A 
ATOM     26  C   UNL A   1      34.033  29.868  27.107  1.00  0.00     0.001 A 
ENDBRANCH   7  17
ENDBRANCH   6   7
ENDBRANCH   4   6
ENDBRANCH   1   2
BRANCH   1  27
ATOM     27  C   UNL A   1      35.719  22.709  24.617  1.00  0.00     0.042 C 
BRANCH  27  28
ATOM     28  C   UNL A   1      36.621  23.055  25.801  1.00  0.00     0.118 C 
BRANCH  28  29
ATOM     29  N   UNL A   1      37.852  22.284  25.851  1.00  0.00    -0.352 N 
ATOM     30  C   UNL A   1      39.103  22.671  26.278  1.00  0.00     0.251 C 
ATOM     31  H   UNL A   1      37.782  21.354  25.534  1.00  0.00     0.163 HD
ATOM     32  O   UNL A   1      40.052  21.901  26.168  1.00  0.00    -0.269 OA
BRANCH  30  33
ATOM     33  C   UNL A   1      39.311  24.026  26.840  1.00  0.00     0.039 A 
ATOM     34  C   UNL A   1      38.899  24.288  28.150  1.00  0.00     0.014 A 
ATOM     35  C   UNL A   1      39.922  25.032  26.089  1.00  0.00     0.014 A 
ATOM     36  C   UNL A   1      39.180  25.528  28.733  1.00  0.00     0.010 A 
ATOM     37  C   UNL A   1      40.234  26.254  26.679  1.00  0.00     0.010 A 
ATOM     38  C   UNL A   1      39.887  26.506  28.015  1.00  0.00    -0.014 A 
BRANCH  38  39
ATOM     39  C   UNL A   1      40.342  27.770  28.644  1.00  0.00     0.031 A 
ATOM     40  C   UNL A   1      39.394  28.921  28.824  1.00  0.00     0.074 A 
ATOM     41  C   UNL A   1      41.646  27.923  28.943  1.00  0.00     0.049 A 
ATOM     42  N   UNL A   1      39.645  30.140  29.230  1.00  0.00    -0.248 NA
ATOM     43  C   UNL A   1      37.983  28.676  28.485  1.00  0.00     0.031 C 
ATOM     44  C   UNL A   1      42.680  26.897  28.779  1.00  0.00     0.029 A 
ATOM     45  N   UNL A   1      42.331  29.010  29.425  1.00  0.00    -0.354 N 
ATOM     46  C   UNL A   1      38.432  30.813  29.178  1.00  0.00     0.074 A 
ATOM     47  C   UNL A   1      37.451  29.875  28.673  1.00  0.00     0.031 C 
ATOM     48  C   UNL A   1      43.863  27.401  29.163  1.00  0.00     0.029 A 
ATOM     49  C   UNL A   1      43.681  28.794  29.558  1.00  0.00     0.049 A 
ATOM     50  H   UNL A   1      41.896  29.862  29.654  1.00  0.00     0.167 HD
ATOM     51  C   UNL A   1      38.157  32.092  29.528  1.00  0.00     0.031 A 
ATOM     52  C   UNL A   1      44.668  29.627  29.938  1.00  0.00     0.031 A 
ATOM     53  C   UNL A   1      39.128  33.026  30.035  1.00  0.00     0.049 A 
ATOM     54  C   UNL A   1      44.341  31.048  30.300  1.00  0.00     0.074 A 
ATOM     55  C   UNL A   1      38.929  34.325  30.470  1.00  0.00     0.029 A 
ATOM     56  N   UNL A   1      40.481  32.761  30.171  1.00  0.00    -0.354 N 
ATOM     57  N   UNL A   1      43.177  31.650  30.302  1.00  0.00    -0.248 NA
ATOM     58  C   UNL A   1      45.464  31.901  30.715  1.00  0.00     0.031 C 
ATOM     59  C   UNL A   1      40.170  34.862  30.829  1.00  0.00     0.029 A 
ATOM     60  C   UNL A   1      41.133  33.880  30.661  1.00  0.00     0.049 A 
ATOM     61  H   UNL A   1      40.915  31.905  29.952  1.00  0.00     0.167 HD
ATOM     62  C   UNL A   1      43.423  32.942  30.746  1.00  0.00     0.074 A 
ATOM     63  C   UNL A   1      44.845  33.036  31.009  1.00  0.00     0.031 C 
ATOM     64  C   UNL A   1      42.546  33.959  30.923  1.00  0.00     0.031 A 
BRANCH  51  65
ATOM     65  C   UNL A   1      36.741  32.565  29.365  1.00  0.00    -0.014 A 
ATOM     66  C   UNL A   1      35.847  32.560  30.447  1.00  0.00     0.009 A 
ATOM     67  C   UNL A   1      36.308  33.062  28.126  1.00  0.00     0.009 A 
ATOM     68  C   UNL A   1      34.536  33.016  30.282  1.00  0.00     0.001 A 
ATOM     69  C   UNL A   1      35.006  33.539  27.971  1.00  0.00     0.001 A 
ATOM     70  C   UNL A   1      34.118  33.508  29.047  1.00  0.00     0.000 A 
ENDBRANCH  51  65
BRANCH  52  71
ATOM     71  C   UNL A   1      46.067  29.135  30.003  1.00  0.00    -0.014 A 
ATOM     72  C   UNL A   1      46.901  29.222  28.878  1.00  0.00     0.009 A 
ATOM     73  C   UNL A   1      46.576  28.579  31.187  1.00  0.00     0.009 A 
ATOM     74  C   UNL A   1      48.210  28.740  28.931  1.00  0.00     0.001 A 
ATOM     75  C   UNL A   1      47.895  28.122  31.244  1.00  0.00     0.001 A 
ATOM     76  C   UNL A   1      48.707  28.194  30.114  1.00  0.00     0.000 A 
ENDBRANCH  52  71
BRANCH  64  77
ATOM     77  C   UNL A   1      43.089  35.252  31.461  1.00  0.00    -0.014 A 
ATOM     78  C   UNL A   1      43.119  35.510  32.840  1.00  0.00     0.009 A 
ATOM     79  C   UNL A   1      43.626  36.200  30.576  1.00  0.00     0.009 A 
ATOM     80  C   UNL A   1      43.656  36.706  33.320  1.00  0.00     0.001 A 
ATOM     81  C   UNL A   1      44.182  37.384  31.060  1.00  0.00     0.001 A 
ATOM     82  C   UNL A   1      44.192  37.639  32.431  1.00  0.00     0.000 A 
ENDBRANCH  64  77
ENDBRANCH  38  39
ENDBRANCH  30  33
ENDBRANCH  28  29
ENDBRANCH  27  28
ENDBRANCH   1  27
TORSDOF 14
ENDMDL
