MODEL 1
REMARK VINA RESULT:     -12.5      0.000      0.000
REMARK SMILES Cc1nn(-c2ccc(Cl)c(F)c2)cc1C(=O)NCCCNC(=O)c1ccc(-c2c3nc(c(-c4ccccc4)c4ccc([nH]4)c(-c4ccccc4)c4nc(c(-c5ccccc5)c5ccc2[nH]5)C=C4)C=C3)cc1
REMARK SMILES IDX 19 1 18 2 17 3 15 4 16 5 14 7 1 8 2 9 3 10 4 11 13 12 5 13
REMARK SMILES IDX 6 14 12 15 7 16 10 17 8 18 11 19 9 20 20 21 21 22 22 23
REMARK SMILES IDX 23 25 24 26 25 27 71 28 26 29 70 30 27 31 28 32 29 33 64 34
REMARK SMILES IDX 30 35 69 36 63 37 65 38 31 39 68 40 62 41 61 42 32 44 54 45
REMARK SMILES IDX 39 46 53 47 40 48 43 49 52 50 66 51 41 52 42 53 51 55 67 56
REMARK SMILES IDX 44 57 33 58 34 59 38 60 35 61 37 62 36 63 55 64 56 65 60 66
REMARK SMILES IDX 57 67 59 68 58 69 45 70 46 71 50 72 47 73 49 74 48 75
REMARK H PARENT 17 6 21 24 65 43 43 54
REMARK Flexibility Score: inf
ROOT
ATOM      1  C   UNL A   1      37.456  19.987  24.662  1.00  0.00     0.042 C 
ENDROOT
BRANCH   1   2
ATOM      2  C   UNL A   1      36.152  20.715  25.025  1.00  0.00     0.118 C 
BRANCH   2   3
ATOM      3  N   UNL A   1      35.047  19.797  25.257  1.00  0.00    -0.352 N 
ATOM      4  C   UNL A   1      33.685  19.957  25.165  1.00  0.00     0.254 C 
ATOM      5  O   UNL A   1      32.993  18.958  25.348  1.00  0.00    -0.269 OA
ATOM      6  H   UNL A   1      35.327  18.894  25.529  1.00  0.00     0.163 HD
BRANCH   4   7
ATOM      7  C   UNL A   1      33.088  21.253  24.872  1.00  0.00     0.081 A 
ATOM      8  C   UNL A   1      32.143  20.838  22.460  1.00  0.00     0.069 C 
ATOM      9  C   UNL A   1      32.368  21.638  23.695  1.00  0.00     0.073 A 
ATOM     10  N   UNL A   1      31.844  22.874  23.795  1.00  0.00    -0.173 NA
ATOM     11  N   UNL A   1      32.372  23.356  24.932  1.00  0.00    -0.240 N 
ATOM     12  C   UNL A   1      33.027  22.388  25.645  1.00  0.00     0.129 A 
BRANCH  11  13
ATOM     13  C   UNL A   1      32.217  24.687  25.365  1.00  0.00     0.068 A 
ATOM     14  C   UNL A   1      30.944  25.194  25.632  1.00  0.00     0.030 A 
ATOM     15  C   UNL A   1      33.365  25.454  25.614  1.00  0.00     0.069 A 
ATOM     16  C   UNL A   1      30.827  26.458  26.220  1.00  0.00     0.026 A 
ATOM     17  C   UNL A   1      33.227  26.728  26.147  1.00  0.00     0.143 A 
ATOM     18  C   UNL A   1      31.968  27.225  26.475  1.00  0.00     0.076 A 
ATOM     19  F   UNL A   1      34.335  27.457  26.354  1.00  0.00    -0.205 F 
ATOM     20  Cl  UNL A   1      31.807  28.771  27.213  1.00  0.00    -0.081 Cl
ENDBRANCH  11  13
ENDBRANCH   4   7
ENDBRANCH   2   3
ENDBRANCH   1   2
BRANCH   1  21
ATOM     21  C   UNL A   1      38.592  20.420  25.572  1.00  0.00     0.118 C 
BRANCH  21  22
ATOM     22  N   UNL A   1      39.571  19.339  25.804  1.00  0.00    -0.352 N 
ATOM     23  C   UNL A   1      40.946  19.397  26.024  1.00  0.00     0.251 C 
ATOM     24  H   UNL A   1      39.191  18.431  25.803  1.00  0.00     0.163 HD
ATOM     25  O   UNL A   1      41.646  18.412  25.916  1.00  0.00    -0.269 OA
BRANCH  23  26
ATOM     26  C   UNL A   1      41.533  20.684  26.434  1.00  0.00     0.039 A 
ATOM     27  C   UNL A   1      42.411  21.455  25.658  1.00  0.00     0.014 A 
ATOM     28  C   UNL A   1      41.103  21.155  27.645  1.00  0.00     0.014 A 
ATOM     29  C   UNL A   1      42.821  22.694  26.162  1.00  0.00     0.010 A 
ATOM     30  C   UNL A   1      41.044  22.497  27.727  1.00  0.00     0.010 A 
ATOM     31  C   UNL A   1      42.139  23.186  27.268  1.00  0.00    -0.014 A 
BRANCH  31  32
ATOM     32  C   UNL A   1      42.419  24.395  28.021  1.00  0.00     0.031 A 
ATOM     33  C   UNL A   1      41.369  25.435  27.923  1.00  0.00     0.074 A 
ATOM     34  C   UNL A   1      43.317  24.353  29.038  1.00  0.00     0.049 A 
ATOM     35  N   UNL A   1      41.448  26.588  27.350  1.00  0.00    -0.248 NA
ATOM     36  C   UNL A   1      40.009  25.085  28.374  1.00  0.00     0.031 C 
ATOM     37  C   UNL A   1      44.129  23.215  29.512  1.00  0.00     0.029 A 
ATOM     38  N   UNL A   1      43.583  25.293  29.979  1.00  0.00    -0.354 N 
ATOM     39  C   UNL A   1      40.206  27.183  27.547  1.00  0.00     0.074 A 
ATOM     40  C   UNL A   1      39.308  26.127  27.930  1.00  0.00     0.031 C 
ATOM     41  C   UNL A   1      44.582  23.464  30.763  1.00  0.00     0.029 A 
ATOM     42  C   UNL A   1      44.236  24.828  31.115  1.00  0.00     0.049 A 
ATOM     43  H   UNL A   1      43.331  26.239  29.865  1.00  0.00     0.167 HD
ATOM     44  C   UNL A   1      40.066  28.531  27.685  1.00  0.00     0.031 A 
ATOM     45  C   UNL A   1      44.420  25.512  32.274  1.00  0.00     0.031 A 
ATOM     46  C   UNL A   1      41.290  29.220  27.365  1.00  0.00     0.049 A 
ATOM     47  C   UNL A   1      44.176  26.946  31.972  1.00  0.00     0.074 A 
ATOM     48  C   UNL A   1      42.086  29.313  26.241  1.00  0.00     0.029 A 
ATOM     49  N   UNL A   1      42.088  29.581  28.427  1.00  0.00    -0.354 N 
ATOM     50  N   UNL A   1      44.929  27.642  31.166  1.00  0.00    -0.248 NA
ATOM     51  C   UNL A   1      42.823  27.454  32.151  1.00  0.00     0.031 C 
ATOM     52  C   UNL A   1      43.421  29.233  26.738  1.00  0.00     0.029 A 
ATOM     53  C   UNL A   1      43.370  29.189  28.133  1.00  0.00     0.049 A 
ATOM     54  H   UNL A   1      41.794  30.037  29.248  1.00  0.00     0.167 HD
ATOM     55  C   UNL A   1      44.041  28.394  30.407  1.00  0.00     0.074 A 
ATOM     56  C   UNL A   1      42.765  28.305  31.121  1.00  0.00     0.031 C 
ATOM     57  C   UNL A   1      44.336  28.755  29.121  1.00  0.00     0.031 A 
BRANCH  44  58
ATOM     58  C   UNL A   1      38.982  29.188  28.501  1.00  0.00    -0.014 A 
ATOM     59  C   UNL A   1      38.966  28.972  29.890  1.00  0.00     0.009 A 
ATOM     60  C   UNL A   1      37.839  29.794  27.944  1.00  0.00     0.009 A 
ATOM     61  C   UNL A   1      37.842  29.286  30.663  1.00  0.00     0.001 A 
ATOM     62  C   UNL A   1      36.732  30.149  28.719  1.00  0.00     0.001 A 
ATOM     63  C   UNL A   1      36.723  29.867  30.076  1.00  0.00     0.000 A 
ENDBRANCH  44  58
BRANCH  45  64
ATOM     64  C   UNL A   1      44.465  24.985  33.660  1.00  0.00    -0.014 A 
ATOM     65  C   UNL A   1      43.402  24.242  34.197  1.00  0.00     0.009 A 
ATOM     66  C   UNL A   1      45.679  24.993  34.374  1.00  0.00     0.009 A 
ATOM     67  C   UNL A   1      43.559  23.514  35.388  1.00  0.00     0.001 A 
ATOM     68  C   UNL A   1      45.837  24.264  35.559  1.00  0.00     0.001 A 
ATOM     69  C   UNL A   1      44.779  23.513  36.060  1.00  0.00     0.000 A 
ENDBRANCH  45  64
BRANCH  57  70
ATOM     70  C   UNL A   1      45.725  28.446  28.604  1.00  0.00    -0.014 A 
ATOM     71  C   UNL A   1      46.802  29.348  28.697  1.00  0.00     0.009 A 
ATOM     72  C   UNL A   1      45.996  27.142  28.170  1.00  0.00     0.009 A 
ATOM     73  C   UNL A   1      48.101  28.964  28.344  1.00  0.00     0.001 A 
ATOM     74  C   UNL A   1      47.295  26.753  27.834  1.00  0.00     0.001 A 
ATOM     75  C   UNL A   1      48.347  27.663  27.916  1.00  0.00     0.000 A 
ENDBRANCH  57  70
ENDBRANCH  31  32
ENDBRANCH  23  26
ENDBRANCH  21  22
ENDBRANCH   1  21
TORSDOF 11
ENDMDL
MODEL 2
REMARK VINA RESULT:     -12.1      4.880      9.444
REMARK SMILES Cc1nn(-c2ccc(Cl)c(F)c2)cc1C(=O)NCCCNC(=O)c1ccc(-c2c3nc(c(-c4ccccc4)c4ccc([nH]4)c(-c4ccccc4)c4nc(c(-c5ccccc5)c5ccc2[nH]5)C=C4)C=C3)cc1
REMARK SMILES IDX 19 1 18 2 17 3 15 4 16 5 14 7 1 8 2 9 3 10 4 11 13 12 5 13
REMARK SMILES IDX 6 14 12 15 7 16 10 17 8 18 11 19 9 20 20 21 21 22 22 23
REMARK SMILES IDX 23 25 24 26 25 27 71 28 26 29 70 30 27 31 28 32 29 33 64 34
REMARK SMILES IDX 30 35 69 36 63 37 65 38 31 39 68 40 62 41 61 42 32 44 54 45
REMARK SMILES IDX 39 46 53 47 40 48 43 49 52 50 66 51 41 52 42 53 51 55 67 56
REMARK SMILES IDX 44 57 33 58 34 59 38 60 35 61 37 62 36 63 55 64 56 65 60 66
REMARK SMILES IDX 57 67 59 68 58 69 45 70 46 71 50 72 47 73 49 74 48 75
REMARK H PARENT 17 6 21 24 65 43 43 54
REMARK Flexibility Score: inf
ROOT
ATOM      1  C   UNL A   1      31.319  31.900  26.269  1.00  0.00     0.042 C 
ENDROOT
BRANCH   1   2
ATOM      2  C   UNL A   1      31.639  30.497  25.732  1.00  0.00     0.118 C 
BRANCH   2   3
ATOM      3  N   UNL A   1      30.775  30.114  24.626  1.00  0.00    -0.352 N 
ATOM      4  C   UNL A   1      30.733  28.985  23.841  1.00  0.00     0.254 C 
ATOM      5  O   UNL A   1      29.822  28.912  23.020  1.00  0.00    -0.269 OA
ATOM      6  H   UNL A   1      30.094  30.786  24.398  1.00  0.00     0.163 HD
BRANCH   4   7
ATOM      7  C   UNL A   1      31.728  27.930  23.970  1.00  0.00     0.081 A 
ATOM      8  C   UNL A   1      33.781  29.022  22.755  1.00  0.00     0.069 C 
ATOM      9  C   UNL A   1      33.091  27.954  23.529  1.00  0.00     0.073 A 
ATOM     10  N   UNL A   1      33.774  26.860  23.913  1.00  0.00    -0.173 NA
ATOM     11  N   UNL A   1      32.829  26.054  24.425  1.00  0.00    -0.240 N 
ATOM     12  C   UNL A   1      31.629  26.697  24.570  1.00  0.00     0.129 A 
BRANCH  11  13
ATOM     13  C   UNL A   1      33.065  24.723  24.820  1.00  0.00     0.068 A 
ATOM     14  C   UNL A   1      33.694  24.455  26.038  1.00  0.00     0.030 A 
ATOM     15  C   UNL A   1      32.571  23.683  24.019  1.00  0.00     0.069 A 
ATOM     16  C   UNL A   1      33.764  23.131  26.487  1.00  0.00     0.026 A 
ATOM     17  C   UNL A   1      32.699  22.372  24.455  1.00  0.00     0.143 A 
ATOM     18  C   UNL A   1      33.269  22.091  25.694  1.00  0.00     0.076 A 
ATOM     19  F   UNL A   1      32.243  21.388  23.664  1.00  0.00    -0.205 F 
ATOM     20  Cl  UNL A   1      33.350  20.471  26.268  1.00  0.00    -0.081 Cl
ENDBRANCH  11  13
ENDBRANCH   4   7
ENDBRANCH   2   3
ENDBRANCH   1   2
BRANCH   1  21
ATOM     21  C   UNL A   1      32.391  32.370  27.239  1.00  0.00     0.118 C 
BRANCH  21  22
ATOM     22  N   UNL A   1      32.331  33.824  27.485  1.00  0.00    -0.352 N 
ATOM     23  C   UNL A   1      33.006  34.612  28.415  1.00  0.00     0.251 C 
ATOM     24  H   UNL A   1      31.715  34.317  26.897  1.00  0.00     0.163 HD
ATOM     25  O   UNL A   1      32.639  35.738  28.676  1.00  0.00    -0.269 OA
BRANCH  23  26
ATOM     26  C   UNL A   1      34.212  34.058  29.055  1.00  0.00     0.039 A 
ATOM     27  C   UNL A   1      34.273  33.550  30.361  1.00  0.00     0.014 A 
ATOM     28  C   UNL A   1      35.314  33.990  28.246  1.00  0.00     0.014 A 
ATOM     29  C   UNL A   1      35.479  32.988  30.793  1.00  0.00     0.010 A 
ATOM     30  C   UNL A   1      36.130  32.952  28.508  1.00  0.00     0.010 A 
ATOM     31  C   UNL A   1      36.447  32.742  29.828  1.00  0.00    -0.014 A 
BRANCH  31  32
ATOM     32  C   UNL A   1      37.796  32.246  30.026  1.00  0.00     0.031 A 
ATOM     33  C   UNL A   1      38.002  30.841  29.605  1.00  0.00     0.074 A 
ATOM     34  C   UNL A   1      38.819  33.130  30.153  1.00  0.00     0.049 A 
ATOM     35  N   UNL A   1      38.245  29.818  30.352  1.00  0.00    -0.248 NA
ATOM     36  C   UNL A   1      37.739  30.500  28.194  1.00  0.00     0.031 C 
ATOM     37  C   UNL A   1      38.775  34.605  30.153  1.00  0.00     0.029 A 
ATOM     38  N   UNL A   1      40.155  32.894  30.151  1.00  0.00    -0.354 N 
ATOM     39  C   UNL A   1      38.363  28.743  29.478  1.00  0.00     0.074 A 
ATOM     40  C   UNL A   1      37.785  29.169  28.232  1.00  0.00     0.031 C 
ATOM     41  C   UNL A   1      40.010  35.102  29.903  1.00  0.00     0.029 A 
ATOM     42  C   UNL A   1      40.953  34.001  29.885  1.00  0.00     0.049 A 
ATOM     43  H   UNL A   1      40.532  32.000  30.325  1.00  0.00     0.167 HD
ATOM     44  C   UNL A   1      39.196  27.696  29.732  1.00  0.00     0.031 A 
ATOM     45  C   UNL A   1      42.285  33.987  29.618  1.00  0.00     0.031 A 
ATOM     46  C   UNL A   1      39.712  27.750  31.075  1.00  0.00     0.049 A 
ATOM     47  C   UNL A   1      42.800  32.665  30.060  1.00  0.00     0.074 A 
ATOM     48  C   UNL A   1      39.143  27.738  32.333  1.00  0.00     0.029 A 
ATOM     49  N   UNL A   1      40.969  28.290  31.232  1.00  0.00    -0.354 N 
ATOM     50  N   UNL A   1      42.806  32.284  31.306  1.00  0.00    -0.248 NA
ATOM     51  C   UNL A   1      42.822  31.587  29.080  1.00  0.00     0.031 C 
ATOM     52  C   UNL A   1      39.877  28.716  33.069  1.00  0.00     0.029 A 
ATOM     53  C   UNL A   1      40.904  29.201  32.256  1.00  0.00     0.049 A 
ATOM     54  H   UNL A   1      41.768  28.064  30.704  1.00  0.00     0.167 HD
ATOM     55  C   UNL A   1      42.389  30.959  31.278  1.00  0.00     0.074 A 
ATOM     56  C   UNL A   1      42.502  30.558  29.873  1.00  0.00     0.031 C 
ATOM     57  C   UNL A   1      41.701  30.409  32.323  1.00  0.00     0.031 A 
BRANCH  44  58
ATOM     58  C   UNL A   1      39.872  26.875  28.662  1.00  0.00    -0.014 A 
ATOM     59  C   UNL A   1      40.770  27.517  27.793  1.00  0.00     0.009 A 
ATOM     60  C   UNL A   1      39.477  25.570  28.309  1.00  0.00     0.009 A 
ATOM     61  C   UNL A   1      41.195  26.910  26.606  1.00  0.00     0.001 A 
ATOM     62  C   UNL A   1      39.933  24.942  27.147  1.00  0.00     0.001 A 
ATOM     63  C   UNL A   1      40.771  25.625  26.280  1.00  0.00     0.000 A 
ENDBRANCH  44  58
BRANCH  45  64
ATOM     64  C   UNL A   1      43.057  34.887  28.727  1.00  0.00    -0.014 A 
ATOM     65  C   UNL A   1      42.640  35.153  27.413  1.00  0.00     0.009 A 
ATOM     66  C   UNL A   1      44.077  35.698  29.262  1.00  0.00     0.009 A 
ATOM     67  C   UNL A   1      43.204  36.207  26.676  1.00  0.00     0.001 A 
ATOM     68  C   UNL A   1      44.636  36.751  28.528  1.00  0.00     0.001 A 
ATOM     69  C   UNL A   1      44.190  37.014  27.238  1.00  0.00     0.000 A 
ENDBRANCH  45  64
BRANCH  57  70
ATOM     70  C   UNL A   1      41.545  31.239  33.579  1.00  0.00    -0.014 A 
ATOM     71  C   UNL A   1      40.513  32.179  33.761  1.00  0.00     0.009 A 
ATOM     72  C   UNL A   1      42.359  30.938  34.679  1.00  0.00     0.009 A 
ATOM     73  C   UNL A   1      40.318  32.813  34.994  1.00  0.00     0.001 A 
ATOM     74  C   UNL A   1      42.155  31.557  35.915  1.00  0.00     0.001 A 
ATOM     75  C   UNL A   1      41.138  32.497  36.072  1.00  0.00     0.000 A 
ENDBRANCH  57  70
ENDBRANCH  31  32
ENDBRANCH  23  26
ENDBRANCH  21  22
ENDBRANCH   1  21
TORSDOF 11
ENDMDL
MODEL 3
REMARK VINA RESULT:     -11.9      5.743     10.474
REMARK SMILES Cc1nn(-c2ccc(Cl)c(F)c2)cc1C(=O)NCCCNC(=O)c1ccc(-c2c3nc(c(-c4ccccc4)c4ccc([nH]4)c(-c4ccccc4)c4nc(c(-c5ccccc5)c5ccc2[nH]5)C=C4)C=C3)cc1
REMARK SMILES IDX 19 1 18 2 17 3 15 4 16 5 14 7 1 8 2 9 3 10 4 11 13 12 5 13
REMARK SMILES IDX 6 14 12 15 7 16 10 17 8 18 11 19 9 20 20 21 21 22 22 23
REMARK SMILES IDX 23 25 24 26 25 27 71 28 26 29 70 30 27 31 28 32 29 33 64 34
REMARK SMILES IDX 30 35 69 36 63 37 65 38 31 39 68 40 62 41 61 42 32 44 54 45
REMARK SMILES IDX 39 46 53 47 40 48 43 49 52 50 66 51 41 52 42 53 51 55 67 56
REMARK SMILES IDX 44 57 33 58 34 59 38 60 35 61 37 62 36 63 55 64 56 65 60 66
REMARK SMILES IDX 57 67 59 68 58 69 45 70 46 71 50 72 47 73 49 74 48 75
REMARK H PARENT 17 6 21 24 65 43 43 54
REMARK Flexibility Score: inf
ROOT
ATOM      1  C   UNL A   1      34.265  33.835  32.705  1.00  0.00     0.042 C 
ENDROOT
BRANCH   1   2
ATOM      2  C   UNL A   1      35.350  34.368  33.654  1.00  0.00     0.118 C 
BRANCH   2   3
ATOM      3  N   UNL A   1      35.916  33.325  34.495  1.00  0.00    -0.352 N 
ATOM      4  C   UNL A   1      37.216  32.951  34.745  1.00  0.00     0.254 C 
ATOM      5  O   UNL A   1      37.390  32.066  35.579  1.00  0.00    -0.269 OA
ATOM      6  H   UNL A   1      35.245  32.788  34.974  1.00  0.00     0.163 HD
BRANCH   4   7
ATOM      7  C   UNL A   1      38.334  33.569  34.046  1.00  0.00     0.081 A 
ATOM      8  C   UNL A   1      39.304  35.123  35.925  1.00  0.00     0.069 C 
ATOM      9  C   UNL A   1      39.287  34.499  34.572  1.00  0.00     0.073 A 
ATOM     10  N   UNL A   1      40.268  34.783  33.695  1.00  0.00    -0.173 NA
ATOM     11  N   UNL A   1      39.857  34.200  32.556  1.00  0.00    -0.240 N 
ATOM     12  C   UNL A   1      38.773  33.388  32.756  1.00  0.00     0.129 A 
BRANCH  11  13
ATOM     13  C   UNL A   1      40.504  34.363  31.316  1.00  0.00     0.068 A 
ATOM     14  C   UNL A   1      39.772  34.741  30.188  1.00  0.00     0.030 A 
ATOM     15  C   UNL A   1      41.899  34.234  31.260  1.00  0.00     0.069 A 
ATOM     16  C   UNL A   1      40.458  35.061  29.011  1.00  0.00     0.026 A 
ATOM     17  C   UNL A   1      42.558  34.502  30.067  1.00  0.00     0.143 A 
ATOM     18  C   UNL A   1      41.850  34.938  28.951  1.00  0.00     0.076 A 
ATOM     19  F   UNL A   1      43.891  34.348  30.025  1.00  0.00    -0.205 F 
ATOM     20  Cl  UNL A   1      42.678  35.350  27.500  1.00  0.00    -0.081 Cl
ENDBRANCH  11  13
ENDBRANCH   4   7
ENDBRANCH   2   3
ENDBRANCH   1   2
BRANCH   1  21
ATOM     21  C   UNL A   1      34.786  32.666  31.886  1.00  0.00     0.118 C 
BRANCH  21  22
ATOM     22  N   UNL A   1      34.357  32.731  30.475  1.00  0.00    -0.352 N 
ATOM     23  C   UNL A   1      35.017  32.339  29.312  1.00  0.00     0.251 C 
ATOM     24  H   UNL A   1      33.461  33.113  30.333  1.00  0.00     0.163 HD
ATOM     25  O   UNL A   1      34.650  32.716  28.219  1.00  0.00    -0.269 OA
BRANCH  23  26
ATOM     26  C   UNL A   1      36.158  31.415  29.434  1.00  0.00     0.039 A 
ATOM     27  C   UNL A   1      36.120  30.042  29.150  1.00  0.00     0.014 A 
ATOM     28  C   UNL A   1      37.342  32.005  29.787  1.00  0.00     0.014 A 
ATOM     29  C   UNL A   1      37.313  29.317  29.244  1.00  0.00     0.010 A 
ATOM     30  C   UNL A   1      38.432  31.413  29.265  1.00  0.00     0.010 A 
ATOM     31  C   UNL A   1      38.490  30.044  29.362  1.00  0.00    -0.014 A 
BRANCH  31  32
ATOM     32  C   UNL A   1      39.835  29.536  29.554  1.00  0.00     0.031 A 
ATOM     33  C   UNL A   1      40.175  29.212  30.959  1.00  0.00     0.074 A 
ATOM     34  C   UNL A   1      40.504  29.006  28.497  1.00  0.00     0.049 A 
ATOM     35  N   UNL A   1      41.022  29.810  31.726  1.00  0.00    -0.248 NA
ATOM     36  C   UNL A   1      39.350  28.204  31.652  1.00  0.00     0.031 C 
ATOM     37  C   UNL A   1      40.070  28.883  27.093  1.00  0.00     0.029 A 
ATOM     38  N   UNL A   1      41.669  28.312  28.488  1.00  0.00    -0.354 N 
ATOM     39  C   UNL A   1      40.977  29.120  32.933  1.00  0.00     0.074 A 
ATOM     40  C   UNL A   1      39.766  28.343  32.909  1.00  0.00     0.031 C 
ATOM     41  C   UNL A   1      40.831  27.962  26.455  1.00  0.00     0.029 A 
ATOM     42  C   UNL A   1      41.898  27.551  27.347  1.00  0.00     0.049 A 
ATOM     43  H   UNL A   1      42.308  28.343  29.238  1.00  0.00     0.167 HD
ATOM     44  C   UNL A   1      42.072  28.989  33.732  1.00  0.00     0.031 A 
ATOM     45  C   UNL A   1      42.868  26.614  27.185  1.00  0.00     0.031 A 
ATOM     46  C   UNL A   1      43.150  29.834  33.284  1.00  0.00     0.049 A 
ATOM     47  C   UNL A   1      43.869  26.839  28.260  1.00  0.00     0.074 A 
ATOM     48  C   UNL A   1      43.308  31.195  33.111  1.00  0.00     0.029 A 
ATOM     49  N   UNL A   1      44.119  29.238  32.510  1.00  0.00    -0.354 N 
ATOM     50  N   UNL A   1      44.596  27.919  28.342  1.00  0.00    -0.248 NA
ATOM     51  C   UNL A   1      43.692  26.114  29.511  1.00  0.00     0.031 C 
ATOM     52  C   UNL A   1      44.015  31.321  31.878  1.00  0.00     0.029 A 
ATOM     53  C   UNL A   1      44.328  30.040  31.416  1.00  0.00     0.049 A 
ATOM     54  H   UNL A   1      44.578  28.389  32.704  1.00  0.00     0.167 HD
ATOM     55  C   UNL A   1      44.594  28.250  29.692  1.00  0.00     0.074 A 
ATOM     56  C   UNL A   1      44.099  27.051  30.373  1.00  0.00     0.031 C 
ATOM     57  C   UNL A   1      44.693  29.550  30.103  1.00  0.00     0.031 A 
BRANCH  44  58
ATOM     58  C   UNL A   1      42.320  27.812  34.641  1.00  0.00    -0.014 A 
ATOM     59  C   UNL A   1      42.751  26.604  34.067  1.00  0.00     0.009 A 
ATOM     60  C   UNL A   1      41.909  27.761  35.987  1.00  0.00     0.009 A 
ATOM     61  C   UNL A   1      42.708  25.402  34.784  1.00  0.00     0.001 A 
ATOM     62  C   UNL A   1      41.907  26.571  36.720  1.00  0.00     0.001 A 
ATOM     63  C   UNL A   1      42.280  25.385  36.108  1.00  0.00     0.000 A 
ENDBRANCH  44  58
BRANCH  45  64
ATOM     64  C   UNL A   1      42.821  25.364  26.389  1.00  0.00    -0.014 A 
ATOM     65  C   UNL A   1      43.741  25.118  25.356  1.00  0.00     0.009 A 
ATOM     66  C   UNL A   1      42.025  24.286  26.820  1.00  0.00     0.009 A 
ATOM     67  C   UNL A   1      43.875  23.836  24.798  1.00  0.00     0.001 A 
ATOM     68  C   UNL A   1      42.161  23.007  26.266  1.00  0.00     0.001 A 
ATOM     69  C   UNL A   1      43.096  22.779  25.263  1.00  0.00     0.000 A 
ENDBRANCH  45  64
BRANCH  57  70
ATOM     70  C   UNL A   1      44.963  30.604  29.051  1.00  0.00    -0.014 A 
ATOM     71  C   UNL A   1      43.955  31.173  28.251  1.00  0.00     0.009 A 
ATOM     72  C   UNL A   1      46.246  31.164  28.987  1.00  0.00     0.009 A 
ATOM     73  C   UNL A   1      44.227  32.250  27.399  1.00  0.00     0.001 A 
ATOM     74  C   UNL A   1      46.515  32.250  28.150  1.00  0.00     0.001 A 
ATOM     75  C   UNL A   1      45.508  32.791  27.353  1.00  0.00     0.000 A 
ENDBRANCH  57  70
ENDBRANCH  31  32
ENDBRANCH  23  26
ENDBRANCH  21  22
ENDBRANCH   1  21
TORSDOF 11
ENDMDL
