MODEL 1
REMARK VINA RESULT:     -11.0      0.000      0.000
REMARK SMILES Cc1csc(=O)n1CCCC(=O)N1CC[C@H](C(=O)NCCCNC(=O)c2ccc(-c3c4nc(c(-c5ccccc5)c5ccc([nH]5)c(-c5ccccc5)c5nc(c(-c6ccccc6)c6ccc3[nH]6)C=C5)C=C4)cc2)[C@@H]1C
REMARK SMILES IDX 17 1 18 2 19 3 16 5 13 6 14 7 74 8 15 9 75 10 11 11 12 12
REMARK SMILES IDX 10 13 9 14 8 15 7 16 1 17 2 18 3 19 4 20 5 21 6 22 20 23
REMARK SMILES IDX 21 24 22 25 23 26 24 27 25 29 26 30 27 31 73 32 28 33 72 34
REMARK SMILES IDX 29 35 30 36 31 37 66 38 32 39 71 40 65 41 67 42 33 43 70 44
REMARK SMILES IDX 64 45 63 46 34 48 56 49 41 50 55 51 42 52 45 53 54 54 68 55
REMARK SMILES IDX 43 56 44 57 53 59 69 60 46 61 35 62 36 63 40 64 37 65 39 66
REMARK SMILES IDX 38 67 57 68 58 69 62 70 59 71 61 72 60 73 47 74 48 75 52 76
REMARK SMILES IDX 49 77 51 78 50 79
REMARK H PARENT 19 4 23 28 67 47 45 58
REMARK Flexibility Score: inf
ROOT
ATOM      1  C   UNL A   1      31.296  29.188  24.621  1.00  0.00     0.225 C 
ATOM      2  O   UNL A   1      30.524  29.689  23.806  1.00  0.00    -0.275 OA
ATOM      3  N   UNL A   1      31.812  30.002  25.589  1.00  0.00    -0.356 N 
ATOM      4  H   UNL A   1      31.593  30.956  25.479  1.00  0.00     0.163 HD
ENDROOT
BRANCH   1   5
ATOM      5  C   UNL A   1      31.652  27.712  24.614  1.00  0.00     0.102 C 
ATOM      6  N   UNL A   1      32.291  26.360  22.740  1.00  0.00    -0.339 N 
ATOM      7  C   UNL A   1      30.850  26.508  22.683  1.00  0.00     0.120 C 
ATOM      8  C   UNL A   1      32.835  27.278  23.721  1.00  0.00     0.094 C 
ATOM      9  C   UNL A   1      30.469  26.877  24.109  1.00  0.00     0.037 C 
ATOM     10  C   UNL A   1      33.648  28.389  23.063  1.00  0.00     0.032 C 
BRANCH   6  11
ATOM     11  C   UNL A   1      32.921  25.520  21.863  1.00  0.00     0.222 C 
ATOM     12  O   UNL A   1      33.281  25.967  20.763  1.00  0.00    -0.275 OA
BRANCH  11  13
ATOM     13  C   UNL A   1      33.056  24.006  22.065  1.00  0.00     0.102 C 
BRANCH  13  14
ATOM     14  C   UNL A   1      32.359  23.054  23.028  1.00  0.00     0.032 C 
BRANCH  14  15
ATOM     15  C   UNL A   1      32.815  22.607  24.424  1.00  0.00     0.127 C 
BRANCH  15  16
ATOM     16  N   UNL A   1      34.193  22.257  24.796  1.00  0.00    -0.303 N 
ATOM     17  C   UNL A   1      34.667  24.683  25.383  1.00  0.00     0.065 C 
ATOM     18  C   UNL A   1      35.080  23.256  25.224  1.00  0.00     0.029 A 
ATOM     19  C   UNL A   1      36.305  22.807  25.531  1.00  0.00     0.091 A 
ATOM     20  S   UNL A   1      36.436  21.100  25.347  1.00  0.00    -0.082 S 
ATOM     21  C   UNL A   1      34.728  20.973  24.887  1.00  0.00     0.307 A 
ATOM     22  O   UNL A   1      34.199  19.890  24.754  1.00  0.00    -0.257 OA
ENDBRANCH  15  16
ENDBRANCH  14  15
ENDBRANCH  13  14
ENDBRANCH  11  13
ENDBRANCH   6  11
ENDBRANCH   1   5
BRANCH   3  23
ATOM     23  C   UNL A   1      32.627  29.699  26.756  1.00  0.00     0.117 C 
BRANCH  23  24
ATOM     24  C   UNL A   1      34.130  29.700  26.462  1.00  0.00     0.042 C 
BRANCH  24  25
ATOM     25  C   UNL A   1      34.970  29.067  27.569  1.00  0.00     0.118 C 
BRANCH  25  26
ATOM     26  N   UNL A   1      35.236  29.980  28.677  1.00  0.00    -0.352 N 
ATOM     27  C   UNL A   1      36.343  30.058  29.496  1.00  0.00     0.251 C 
ATOM     28  H   UNL A   1      34.525  30.634  28.866  1.00  0.00     0.163 HD
ATOM     29  O   UNL A   1      36.274  30.665  30.558  1.00  0.00    -0.269 OA
BRANCH  27  30
ATOM     30  C   UNL A   1      37.595  29.375  29.117  1.00  0.00     0.039 A 
ATOM     31  C   UNL A   1      38.294  29.800  27.986  1.00  0.00     0.014 A 
ATOM     32  C   UNL A   1      38.084  28.321  29.888  1.00  0.00     0.014 A 
ATOM     33  C   UNL A   1      39.536  29.236  27.705  1.00  0.00     0.010 A 
ATOM     34  C   UNL A   1      39.363  27.838  29.674  1.00  0.00     0.010 A 
ATOM     35  C   UNL A   1      40.096  28.284  28.578  1.00  0.00    -0.014 A 
BRANCH  35  36
ATOM     36  C   UNL A   1      41.496  27.892  28.397  1.00  0.00     0.031 A 
ATOM     37  C   UNL A   1      41.692  26.654  27.596  1.00  0.00     0.074 A 
ATOM     38  C   UNL A   1      42.585  28.602  28.754  1.00  0.00     0.049 A 
ATOM     39  N   UNL A   1      42.020  25.488  28.040  1.00  0.00    -0.248 NA
ATOM     40  C   UNL A   1      41.374  26.683  26.160  1.00  0.00     0.031 C 
ATOM     41  C   UNL A   1      42.654  29.967  29.278  1.00  0.00     0.029 A 
ATOM     42  N   UNL A   1      43.903  28.255  28.635  1.00  0.00    -0.354 N 
ATOM     43  C   UNL A   1      42.163  24.677  26.921  1.00  0.00     0.074 A 
ATOM     44  C   UNL A   1      41.592  25.410  25.819  1.00  0.00     0.031 C 
ATOM     45  C   UNL A   1      43.930  30.411  29.221  1.00  0.00     0.029 A 
ATOM     46  C   UNL A   1      44.787  29.305  28.834  1.00  0.00     0.049 A 
ATOM     47  H   UNL A   1      44.199  27.338  28.428  1.00  0.00     0.167 HD
ATOM     48  C   UNL A   1      42.987  23.592  26.948  1.00  0.00     0.031 A 
ATOM     49  C   UNL A   1      46.134  29.277  28.702  1.00  0.00     0.031 A 
ATOM     50  C   UNL A   1      43.368  23.248  28.299  1.00  0.00     0.049 A 
ATOM     51  C   UNL A   1      46.570  27.876  28.868  1.00  0.00     0.074 A 
ATOM     52  C   UNL A   1      42.716  22.884  29.457  1.00  0.00     0.029 A 
ATOM     53  N   UNL A   1      44.631  23.636  28.673  1.00  0.00    -0.354 N 
ATOM     54  N   UNL A   1      46.519  27.238  30.000  1.00  0.00    -0.248 NA
ATOM     55  C   UNL A   1      46.794  27.047  27.696  1.00  0.00     0.031 C 
ATOM     56  C   UNL A   1      43.485  23.452  30.519  1.00  0.00     0.029 A 
ATOM     57  C   UNL A   1      44.595  24.091  29.962  1.00  0.00     0.049 A 
ATOM     58  H   UNL A   1      45.433  23.595  28.104  1.00  0.00     0.167 HD
ATOM     59  C   UNL A   1      46.237  25.932  29.648  1.00  0.00     0.074 A 
ATOM     60  C   UNL A   1      46.603  25.842  28.239  1.00  0.00     0.031 C 
ATOM     61  C   UNL A   1      45.455  25.150  30.449  1.00  0.00     0.031 A 
BRANCH  48  62
ATOM     62  C   UNL A   1      43.849  23.172  25.772  1.00  0.00    -0.014 A 
ATOM     63  C   UNL A   1      44.133  21.800  25.611  1.00  0.00     0.009 A 
ATOM     64  C   UNL A   1      44.648  24.067  25.036  1.00  0.00     0.009 A 
ATOM     65  C   UNL A   1      45.228  21.364  24.855  1.00  0.00     0.001 A 
ATOM     66  C   UNL A   1      45.713  23.631  24.243  1.00  0.00     0.001 A 
ATOM     67  C   UNL A   1      46.026  22.282  24.182  1.00  0.00     0.000 A 
ENDBRANCH  48  62
BRANCH  49  68
ATOM     68  C   UNL A   1      47.080  30.346  28.330  1.00  0.00    -0.014 A 
ATOM     69  C   UNL A   1      47.000  30.962  27.070  1.00  0.00     0.009 A 
ATOM     70  C   UNL A   1      47.872  30.961  29.314  1.00  0.00     0.009 A 
ATOM     71  C   UNL A   1      47.636  32.185  26.824  1.00  0.00     0.001 A 
ATOM     72  C   UNL A   1      48.514  32.181  29.066  1.00  0.00     0.001 A 
ATOM     73  C   UNL A   1      48.376  32.802  27.829  1.00  0.00     0.000 A 
ENDBRANCH  49  68
BRANCH  61  74
ATOM     74  C   UNL A   1      45.286  25.570  31.889  1.00  0.00    -0.014 A 
ATOM     75  C   UNL A   1      44.264  26.424  32.338  1.00  0.00     0.009 A 
ATOM     76  C   UNL A   1      46.152  25.014  32.842  1.00  0.00     0.009 A 
ATOM     77  C   UNL A   1      44.152  26.755  33.693  1.00  0.00     0.001 A 
ATOM     78  C   UNL A   1      46.023  25.320  34.197  1.00  0.00     0.001 A 
ATOM     79  C   UNL A   1      45.031  26.201  34.621  1.00  0.00     0.000 A 
ENDBRANCH  61  74
ENDBRANCH  35  36
ENDBRANCH  27  30
ENDBRANCH  25  26
ENDBRANCH  24  25
ENDBRANCH  23  24
ENDBRANCH   3  23
TORSDOF 15
ENDMDL
MODEL 2
REMARK VINA RESULT:     -10.9      3.251      7.586
REMARK SMILES Cc1csc(=O)n1CCCC(=O)N1CC[C@H](C(=O)NCCCNC(=O)c2ccc(-c3c4nc(c(-c5ccccc5)c5ccc([nH]5)c(-c5ccccc5)c5nc(c(-c6ccccc6)c6ccc3[nH]6)C=C5)C=C4)cc2)[C@@H]1C
REMARK SMILES IDX 17 1 18 2 19 3 16 5 13 6 14 7 74 8 15 9 75 10 11 11 12 12
REMARK SMILES IDX 10 13 9 14 8 15 7 16 1 17 2 18 3 19 4 20 5 21 6 22 20 23
REMARK SMILES IDX 21 24 22 25 23 26 24 27 25 29 26 30 27 31 73 32 28 33 72 34
REMARK SMILES IDX 29 35 30 36 31 37 66 38 32 39 71 40 65 41 67 42 33 43 70 44
REMARK SMILES IDX 64 45 63 46 34 48 56 49 41 50 55 51 42 52 45 53 54 54 68 55
REMARK SMILES IDX 43 56 44 57 53 59 69 60 46 61 35 62 36 63 40 64 37 65 39 66
REMARK SMILES IDX 38 67 57 68 58 69 62 70 59 71 61 72 60 73 47 74 48 75 52 76
REMARK SMILES IDX 49 77 51 78 50 79
REMARK H PARENT 19 4 23 28 67 47 45 58
REMARK Flexibility Score: inf
ROOT
ATOM      1  C   UNL A   1      37.547  23.199  25.830  1.00  0.00     0.225 C 
ATOM      2  O   UNL A   1      37.779  24.349  26.199  1.00  0.00    -0.275 OA
ATOM      3  N   UNL A   1      38.600  22.332  25.757  1.00  0.00    -0.356 N 
ATOM      4  H   UNL A   1      39.480  22.745  25.911  1.00  0.00     0.163 HD
ENDROOT
BRANCH   1   5
ATOM      5  C   UNL A   1      36.147  22.708  25.505  1.00  0.00     0.102 C 
ATOM      6  N   UNL A   1      34.588  23.639  23.940  1.00  0.00    -0.339 N 
ATOM      7  C   UNL A   1      34.542  24.470  25.126  1.00  0.00     0.120 C 
ATOM      8  C   UNL A   1      35.720  22.737  24.021  1.00  0.00     0.094 C 
ATOM      9  C   UNL A   1      35.098  23.568  26.219  1.00  0.00     0.037 C 
ATOM     10  C   UNL A   1      36.796  23.089  22.999  1.00  0.00     0.032 C 
BRANCH   6  11
ATOM     11  C   UNL A   1      33.697  23.857  22.924  1.00  0.00     0.222 C 
ATOM     12  O   UNL A   1      33.800  24.896  22.253  1.00  0.00    -0.275 OA
BRANCH  11  13
ATOM     13  C   UNL A   1      32.456  22.996  22.666  1.00  0.00     0.102 C 
BRANCH  13  14
ATOM     14  C   UNL A   1      32.311  21.517  22.327  1.00  0.00     0.032 C 
BRANCH  14  15
ATOM     15  C   UNL A   1      31.946  20.356  23.262  1.00  0.00     0.127 C 
BRANCH  15  16
ATOM     16  N   UNL A   1      32.752  19.144  23.465  1.00  0.00    -0.303 N 
ATOM     17  C   UNL A   1      33.577  20.047  25.692  1.00  0.00     0.065 C 
ATOM     18  C   UNL A   1      33.550  19.015  24.611  1.00  0.00     0.029 A 
ATOM     19  C   UNL A   1      34.236  17.866  24.676  1.00  0.00     0.091 A 
ATOM     20  S   UNL A   1      33.910  16.839  23.333  1.00  0.00    -0.082 S 
ATOM     21  C   UNL A   1      32.739  17.995  22.675  1.00  0.00     0.307 A 
ATOM     22  O   UNL A   1      32.050  17.708  21.720  1.00  0.00    -0.257 OA
ENDBRANCH  15  16
ENDBRANCH  14  15
ENDBRANCH  13  14
ENDBRANCH  11  13
ENDBRANCH   6  11
ENDBRANCH   1   5
BRANCH   3  23
ATOM     23  C   UNL A   1      38.641  20.901  25.494  1.00  0.00     0.117 C 
BRANCH  23  24
ATOM     24  C   UNL A   1      39.957  20.244  25.921  1.00  0.00     0.042 C 
BRANCH  24  25
ATOM     25  C   UNL A   1      40.910  21.197  26.639  1.00  0.00     0.118 C 
BRANCH  25  26
ATOM     26  N   UNL A   1      42.016  21.643  25.795  1.00  0.00    -0.352 N 
ATOM     27  C   UNL A   1      42.471  22.923  25.560  1.00  0.00     0.251 C 
ATOM     28  H   UNL A   1      42.505  20.929  25.328  1.00  0.00     0.163 HD
ATOM     29  O   UNL A   1      43.197  23.145  24.597  1.00  0.00    -0.269 OA
BRANCH  27  30
ATOM     30  C   UNL A   1      42.051  24.033  26.438  1.00  0.00     0.039 A 
ATOM     31  C   UNL A   1      42.674  24.202  27.675  1.00  0.00     0.014 A 
ATOM     32  C   UNL A   1      41.049  24.913  26.031  1.00  0.00     0.014 A 
ATOM     33  C   UNL A   1      42.362  25.322  28.443  1.00  0.00     0.010 A 
ATOM     34  C   UNL A   1      40.819  26.079  26.739  1.00  0.00     0.010 A 
ATOM     35  C   UNL A   1      41.466  26.290  27.953  1.00  0.00    -0.014 A 
BRANCH  35  36
ATOM     36  C   UNL A   1      41.343  27.567  28.661  1.00  0.00     0.031 A 
ATOM     37  C   UNL A   1      42.371  28.578  28.295  1.00  0.00     0.074 A 
ATOM     38  C   UNL A   1      40.337  27.944  29.476  1.00  0.00     0.049 A 
ATOM     39  N   UNL A   1      43.389  28.938  29.002  1.00  0.00    -0.248 NA
ATOM     40  C   UNL A   1      42.335  29.168  26.949  1.00  0.00     0.031 C 
ATOM     41  C   UNL A   1      39.077  27.251  29.753  1.00  0.00     0.029 A 
ATOM     42  N   UNL A   1      40.206  29.108  30.182  1.00  0.00    -0.354 N 
ATOM     43  C   UNL A   1      44.009  29.958  28.290  1.00  0.00     0.074 A 
ATOM     44  C   UNL A   1      43.425  29.938  26.972  1.00  0.00     0.031 C 
ATOM     45  C   UNL A   1      38.224  28.094  30.376  1.00  0.00     0.029 A 
ATOM     46  C   UNL A   1      38.937  29.315  30.705  1.00  0.00     0.049 A 
ATOM     47  H   UNL A   1      40.947  29.744  30.309  1.00  0.00     0.167 HD
ATOM     48  C   UNL A   1      44.748  30.905  28.932  1.00  0.00     0.031 A 
ATOM     49  C   UNL A   1      38.496  30.405  31.373  1.00  0.00     0.031 A 
ATOM     50  C   UNL A   1      45.051  30.513  30.289  1.00  0.00     0.049 A 
ATOM     51  C   UNL A   1      39.674  31.084  31.949  1.00  0.00     0.074 A 
ATOM     52  C   UNL A   1      45.709  29.468  30.902  1.00  0.00     0.029 A 
ATOM     53  N   UNL A   1      44.289  31.112  31.262  1.00  0.00    -0.354 N 
ATOM     54  N   UNL A   1      40.382  30.591  32.922  1.00  0.00    -0.248 NA
ATOM     55  C   UNL A   1      40.280  32.201  31.243  1.00  0.00     0.031 C 
ATOM     56  C   UNL A   1      45.002  29.240  32.123  1.00  0.00     0.029 A 
ATOM     57  C   UNL A   1      43.981  30.189  32.221  1.00  0.00     0.049 A 
ATOM     58  H   UNL A   1      44.010  32.056  31.266  1.00  0.00     0.167 HD
ATOM     59  C   UNL A   1      41.673  31.006  32.655  1.00  0.00     0.074 A 
ATOM     60  C   UNL A   1      41.518  32.129  31.738  1.00  0.00     0.031 C 
ATOM     61  C   UNL A   1      42.737  30.206  32.962  1.00  0.00     0.031 A 
BRANCH  48  62
ATOM     62  C   UNL A   1      44.753  32.369  28.532  1.00  0.00    -0.014 A 
ATOM     63  C   UNL A   1      43.592  33.131  28.780  1.00  0.00     0.009 A 
ATOM     64  C   UNL A   1      45.690  32.927  27.642  1.00  0.00     0.009 A 
ATOM     65  C   UNL A   1      43.336  34.320  28.084  1.00  0.00     0.001 A 
ATOM     66  C   UNL A   1      45.458  34.136  26.981  1.00  0.00     0.001 A 
ATOM     67  C   UNL A   1      44.263  34.814  27.175  1.00  0.00     0.000 A 
ENDBRANCH  48  62
BRANCH  49  68
ATOM     68  C   UNL A   1      37.143  30.986  31.468  1.00  0.00    -0.014 A 
ATOM     69  C   UNL A   1      36.649  31.446  32.700  1.00  0.00     0.009 A 
ATOM     70  C   UNL A   1      36.451  31.356  30.302  1.00  0.00     0.009 A 
ATOM     71  C   UNL A   1      35.542  32.300  32.758  1.00  0.00     0.001 A 
ATOM     72  C   UNL A   1      35.339  32.204  30.361  1.00  0.00     0.001 A 
ATOM     73  C   UNL A   1      34.900  32.694  31.587  1.00  0.00     0.000 A 
ENDBRANCH  49  68
BRANCH  61  74
ATOM     74  C   UNL A   1      42.518  29.106  33.971  1.00  0.00    -0.014 A 
ATOM     75  C   UNL A   1      42.051  27.822  33.639  1.00  0.00     0.009 A 
ATOM     76  C   UNL A   1      42.876  29.357  35.304  1.00  0.00     0.009 A 
ATOM     77  C   UNL A   1      41.893  26.841  34.624  1.00  0.00     0.001 A 
ATOM     78  C   UNL A   1      42.745  28.370  36.282  1.00  0.00     0.001 A 
ATOM     79  C   UNL A   1      42.242  27.116  35.945  1.00  0.00     0.000 A 
ENDBRANCH  61  74
ENDBRANCH  35  36
ENDBRANCH  27  30
ENDBRANCH  25  26
ENDBRANCH  24  25
ENDBRANCH  23  24
ENDBRANCH   3  23
TORSDOF 15
ENDMDL
MODEL 3
REMARK VINA RESULT:     -10.8      1.988      5.819
REMARK SMILES Cc1csc(=O)n1CCCC(=O)N1CC[C@H](C(=O)NCCCNC(=O)c2ccc(-c3c4nc(c(-c5ccccc5)c5ccc([nH]5)c(-c5ccccc5)c5nc(c(-c6ccccc6)c6ccc3[nH]6)C=C5)C=C4)cc2)[C@@H]1C
REMARK SMILES IDX 17 1 18 2 19 3 16 5 13 6 14 7 74 8 15 9 75 10 11 11 12 12
REMARK SMILES IDX 10 13 9 14 8 15 7 16 1 17 2 18 3 19 4 20 5 21 6 22 20 23
REMARK SMILES IDX 21 24 22 25 23 26 24 27 25 29 26 30 27 31 73 32 28 33 72 34
REMARK SMILES IDX 29 35 30 36 31 37 66 38 32 39 71 40 65 41 67 42 33 43 70 44
REMARK SMILES IDX 64 45 63 46 34 48 56 49 41 50 55 51 42 52 45 53 54 54 68 55
REMARK SMILES IDX 43 56 44 57 53 59 69 60 46 61 35 62 36 63 40 64 37 65 39 66
REMARK SMILES IDX 38 67 57 68 58 69 62 70 59 71 61 72 60 73 47 74 48 75 52 76
REMARK SMILES IDX 49 77 51 78 50 79
REMARK H PARENT 19 4 23 28 67 47 45 58
REMARK Flexibility Score: inf
ROOT
ATOM      1  C   UNL A   1      32.014  28.338  26.708  1.00  0.00     0.225 C 
ATOM      2  O   UNL A   1      31.325  27.429  27.168  1.00  0.00    -0.275 OA
ATOM      3  N   UNL A   1      31.756  29.609  27.138  1.00  0.00    -0.356 N 
ATOM      4  H   UNL A   1      30.959  29.693  27.709  1.00  0.00     0.163 HD
ENDROOT
BRANCH   1   5
ATOM      5  C   UNL A   1      33.152  28.092  25.733  1.00  0.00     0.102 C 
ATOM      6  N   UNL A   1      33.137  26.712  23.773  1.00  0.00    -0.339 N 
ATOM      7  C   UNL A   1      33.281  25.827  24.911  1.00  0.00     0.120 C 
ATOM      8  C   UNL A   1      32.791  28.043  24.232  1.00  0.00     0.094 C 
ATOM      9  C   UNL A   1      33.813  26.737  26.009  1.00  0.00     0.037 C 
ATOM     10  C   UNL A   1      31.362  28.416  23.851  1.00  0.00     0.032 C 
BRANCH   6  11
ATOM     11  C   UNL A   1      33.233  26.206  22.505  1.00  0.00     0.222 C 
ATOM     12  O   UNL A   1      33.724  26.917  21.614  1.00  0.00    -0.275 OA
BRANCH  11  13
ATOM     13  C   UNL A   1      32.609  24.880  22.056  1.00  0.00     0.102 C 
BRANCH  13  14
ATOM     14  C   UNL A   1      33.190  23.474  21.966  1.00  0.00     0.032 C 
BRANCH  14  15
ATOM     15  C   UNL A   1      33.548  22.516  23.111  1.00  0.00     0.127 C 
BRANCH  15  16
ATOM     16  N   UNL A   1      34.686  22.675  24.027  1.00  0.00    -0.303 N 
ATOM     17  C   UNL A   1      33.218  21.999  25.989  1.00  0.00     0.065 C 
ATOM     18  C   UNL A   1      34.515  22.456  25.402  1.00  0.00     0.029 A 
ATOM     19  C   UNL A   1      35.626  22.636  26.129  1.00  0.00     0.091 A 
ATOM     20  S   UNL A   1      36.980  23.053  25.151  1.00  0.00    -0.082 S 
ATOM     21  C   UNL A   1      36.011  22.922  23.672  1.00  0.00     0.307 A 
ATOM     22  O   UNL A   1      36.530  22.996  22.579  1.00  0.00    -0.257 OA
ENDBRANCH  15  16
ENDBRANCH  14  15
ENDBRANCH  13  14
ENDBRANCH  11  13
ENDBRANCH   6  11
ENDBRANCH   1   5
BRANCH   3  23
ATOM     23  C   UNL A   1      32.461  30.859  26.897  1.00  0.00     0.117 C 
BRANCH  23  24
ATOM     24  C   UNL A   1      33.793  30.958  27.646  1.00  0.00     0.042 C 
BRANCH  24  25
ATOM     25  C   UNL A   1      34.250  32.394  27.894  1.00  0.00     0.118 C 
BRANCH  25  26
ATOM     26  N   UNL A   1      34.307  32.739  29.312  1.00  0.00    -0.352 N 
ATOM     27  C   UNL A   1      35.121  32.230  30.301  1.00  0.00     0.251 C 
ATOM     28  H   UNL A   1      33.674  33.434  29.602  1.00  0.00     0.163 HD
ATOM     29  O   UNL A   1      34.830  32.402  31.479  1.00  0.00    -0.269 OA
BRANCH  27  30
ATOM     30  C   UNL A   1      36.316  31.440  29.944  1.00  0.00     0.039 A 
ATOM     31  C   UNL A   1      37.529  32.094  29.721  1.00  0.00     0.014 A 
ATOM     32  C   UNL A   1      36.240  30.052  29.844  1.00  0.00     0.014 A 
ATOM     33  C   UNL A   1      38.678  31.337  29.509  1.00  0.00     0.010 A 
ATOM     34  C   UNL A   1      37.395  29.297  29.742  1.00  0.00     0.010 A 
ATOM     35  C   UNL A   1      38.621  29.931  29.566  1.00  0.00    -0.014 A 
BRANCH  35  36
ATOM     36  C   UNL A   1      39.873  29.171  29.585  1.00  0.00     0.031 A 
ATOM     37  C   UNL A   1      40.408  28.894  30.945  1.00  0.00     0.074 A 
ATOM     38  C   UNL A   1      40.485  28.597  28.529  1.00  0.00     0.049 A 
ATOM     39  N   UNL A   1      41.415  29.468  31.513  1.00  0.00    -0.248 NA
ATOM     40  C   UNL A   1      39.674  27.966  31.819  1.00  0.00     0.031 C 
ATOM     41  C   UNL A   1      40.004  28.473  27.152  1.00  0.00     0.029 A 
ATOM     42  N   UNL A   1      41.669  27.913  28.501  1.00  0.00    -0.354 N 
ATOM     43  C   UNL A   1      41.584  28.827  32.734  1.00  0.00     0.074 A 
ATOM     44  C   UNL A   1      40.394  28.040  32.942  1.00  0.00     0.031 C 
ATOM     45  C   UNL A   1      40.766  27.578  26.484  1.00  0.00     0.029 A 
ATOM     46  C   UNL A   1      41.890  27.210  27.325  1.00  0.00     0.049 A 
ATOM     47  H   UNL A   1      42.309  27.920  29.249  1.00  0.00     0.167 HD
ATOM     48  C   UNL A   1      42.806  28.785  33.335  1.00  0.00     0.031 A 
ATOM     49  C   UNL A   1      42.928  26.387  27.048  1.00  0.00     0.031 A 
ATOM     50  C   UNL A   1      43.724  29.726  32.738  1.00  0.00     0.049 A 
ATOM     51  C   UNL A   1      44.052  26.773  27.925  1.00  0.00     0.074 A 
ATOM     52  C   UNL A   1      43.773  31.091  32.551  1.00  0.00     0.029 A 
ATOM     53  N   UNL A   1      44.645  29.186  31.874  1.00  0.00    -0.354 N 
ATOM     54  N   UNL A   1      44.710  27.888  27.799  1.00  0.00    -0.248 NA
ATOM     55  C   UNL A   1      44.277  26.054  29.168  1.00  0.00     0.031 C 
ATOM     56  C   UNL A   1      44.434  31.278  31.298  1.00  0.00     0.029 A 
ATOM     57  C   UNL A   1      44.801  30.023  30.806  1.00  0.00     0.049 A 
ATOM     58  H   UNL A   1      45.117  28.332  32.004  1.00  0.00     0.167 HD
ATOM     59  C   UNL A   1      45.047  28.237  29.093  1.00  0.00     0.074 A 
ATOM     60  C   UNL A   1      44.926  26.999  29.854  1.00  0.00     0.031 C 
ATOM     61  C   UNL A   1      45.093  29.550  29.468  1.00  0.00     0.031 A 
BRANCH  48  62
ATOM     62  C   UNL A   1      43.322  27.571  34.085  1.00  0.00    -0.014 A 
ATOM     63  C   UNL A   1      43.789  26.472  33.333  1.00  0.00     0.009 A 
ATOM     64  C   UNL A   1      43.062  27.332  35.447  1.00  0.00     0.009 A 
ATOM     65  C   UNL A   1      43.871  25.189  33.888  1.00  0.00     0.001 A 
ATOM     66  C   UNL A   1      43.188  26.061  36.016  1.00  0.00     0.001 A 
ATOM     67  C   UNL A   1      43.557  24.982  35.226  1.00  0.00     0.000 A 
ENDBRANCH  48  62
BRANCH  49  68
ATOM     68  C   UNL A   1      43.004  25.209  26.163  1.00  0.00    -0.014 A 
ATOM     69  C   UNL A   1      44.053  25.078  25.238  1.00  0.00     0.009 A 
ATOM     70  C   UNL A   1      42.213  24.077  26.425  1.00  0.00     0.009 A 
ATOM     71  C   UNL A   1      44.344  23.843  24.649  1.00  0.00     0.001 A 
ATOM     72  C   UNL A   1      42.500  22.843  25.830  1.00  0.00     0.001 A 
ATOM     73  C   UNL A   1      43.579  22.722  24.960  1.00  0.00     0.000 A 
ENDBRANCH  49  68
BRANCH  61  74
ATOM     74  C   UNL A   1      45.210  30.587  28.378  1.00  0.00    -0.014 A 
ATOM     75  C   UNL A   1      46.435  31.068  27.886  1.00  0.00     0.009 A 
ATOM     76  C   UNL A   1      44.028  31.036  27.769  1.00  0.00     0.009 A 
ATOM     77  C   UNL A   1      46.471  32.014  26.856  1.00  0.00     0.001 A 
ATOM     78  C   UNL A   1      44.064  31.958  26.723  1.00  0.00     0.001 A 
ATOM     79  C   UNL A   1      45.285  32.457  26.274  1.00  0.00     0.000 A 
ENDBRANCH  61  74
ENDBRANCH  35  36
ENDBRANCH  27  30
ENDBRANCH  25  26
ENDBRANCH  24  25
ENDBRANCH  23  24
ENDBRANCH   3  23
TORSDOF 15
ENDMDL
