MODEL 1
REMARK VINA RESULT:     -10.2      0.000      0.000
REMARK SMILES C[C@H](C(=O)NCCCNC(=O)c1ccc(-c2c3nc(c(-c4ccccc4)c4ccc([nH]4)c(-c4ccccc4)c4nc(c(-c5ccccc5)c5ccc2[nH]5)C=C4)C=C3)cc1)[C@@H](C)[NH2+]C[C@@H]1CCCC[C@@H]1CO
REMARK SMILES IDX 3 1 4 2 5 3 2 5 1 6 60 7 61 8 62 9 63 12 64 13 65 14 69 15
REMARK SMILES IDX 66 16 68 17 67 18 70 19 71 20 6 22 7 23 8 24 9 25 10 26
REMARK SMILES IDX 11 28 12 29 13 30 59 31 14 32 58 33 15 34 16 35 17 36 52 37
REMARK SMILES IDX 18 38 57 39 51 40 53 41 19 42 56 43 50 44 49 45 20 47 42 48
REMARK SMILES IDX 27 49 41 50 28 51 31 52 40 53 54 54 29 55 30 56 39 58 55 59
REMARK SMILES IDX 32 60 21 61 22 62 26 63 23 64 25 65 24 66 43 67 44 68 48 69
REMARK SMILES IDX 45 70 47 71 46 72 33 73 34 74 38 75 35 76 37 77 36 78
REMARK H PARENT 5 4 62 10 62 11 71 21 9 27 53 46 31 57
REMARK Flexibility Score: inf
ROOT
ATOM      1  C   UNL A   1      35.796  23.140  23.880  1.00  0.00     0.228 C 
ATOM      2  O   UNL A   1      35.363  23.349  22.744  1.00  0.00    -0.275 OA
ATOM      3  N   UNL A   1      36.922  22.369  23.969  1.00  0.00    -0.356 N 
ATOM      4  H   UNL A   1      37.319  22.133  23.101  1.00  0.00     0.163 HD
ENDROOT
BRANCH   1   5
ATOM      5  C   UNL A   1      35.123  23.745  25.124  1.00  0.00     0.133 C 
ATOM      6  C   UNL A   1      34.445  25.073  24.710  1.00  0.00     0.024 C 
BRANCH   5   7
ATOM      7  C   UNL A   1      34.067  22.864  25.869  1.00  0.00     0.191 C 
ATOM      8  C   UNL A   1      33.109  23.617  26.787  1.00  0.00     0.076 C 
BRANCH   7   9
ATOM      9  N   UNL A   1      33.453  21.953  24.849  1.00  0.00    -0.343 N 
ATOM     10  H   UNL A   1      34.217  21.556  24.303  1.00  0.00     0.346 HD
ATOM     11  H   UNL A   1      32.801  22.550  24.342  1.00  0.00     0.346 HD
BRANCH   9  12
ATOM     12  C   UNL A   1      32.627  20.834  25.317  1.00  0.00     0.264 C 
BRANCH  12  13
ATOM     13  C   UNL A   1      33.196  19.398  25.092  1.00  0.00     0.049 C 
ATOM     14  C   UNL A   1      34.675  19.396  24.648  1.00  0.00     0.010 C 
ATOM     15  C   UNL A   1      32.365  18.433  24.209  1.00  0.00     0.023 C 
ATOM     16  C   UNL A   1      35.274  17.984  24.558  1.00  0.00     0.001 C 
ATOM     17  C   UNL A   1      32.947  17.014  24.357  1.00  0.00     0.006 C 
ATOM     18  C   UNL A   1      34.387  16.958  23.859  1.00  0.00     0.000 C 
BRANCH  15  19
ATOM     19  C   UNL A   1      32.197  18.769  22.706  1.00  0.00     0.160 C 
BRANCH  19  20
ATOM     20  O   UNL A   1      31.930  17.654  21.878  1.00  0.00    -0.396 OA
ATOM     21  H   UNL A   1      32.489  17.699  21.087  1.00  0.00     0.210 HD
ENDBRANCH  19  20
ENDBRANCH  15  19
ENDBRANCH  12  13
ENDBRANCH   9  12
ENDBRANCH   7   9
ENDBRANCH   5   7
ENDBRANCH   1   5
BRANCH   3  22
ATOM     22  C   UNL A   1      37.638  21.833  25.117  1.00  0.00     0.117 C 
BRANCH  22  23
ATOM     23  C   UNL A   1      38.237  20.460  24.823  1.00  0.00     0.042 C 
BRANCH  23  24
ATOM     24  C   UNL A   1      38.802  19.733  26.033  1.00  0.00     0.118 C 
BRANCH  24  25
ATOM     25  N   UNL A   1      40.097  19.120  25.771  1.00  0.00    -0.352 N 
ATOM     26  C   UNL A   1      41.377  19.597  25.914  1.00  0.00     0.251 C 
ATOM     27  H   UNL A   1      40.045  18.198  25.430  1.00  0.00     0.163 HD
ATOM     28  O   UNL A   1      42.304  18.907  25.474  1.00  0.00    -0.269 OA
BRANCH  26  29
ATOM     29  C   UNL A   1      41.694  20.906  26.543  1.00  0.00     0.039 A 
ATOM     30  C   UNL A   1      42.107  21.960  25.715  1.00  0.00     0.014 A 
ATOM     31  C   UNL A   1      41.659  21.118  27.924  1.00  0.00     0.014 A 
ATOM     32  C   UNL A   1      42.425  23.210  26.259  1.00  0.00     0.010 A 
ATOM     33  C   UNL A   1      41.863  22.395  28.453  1.00  0.00     0.010 A 
ATOM     34  C   UNL A   1      42.272  23.453  27.633  1.00  0.00    -0.014 A 
BRANCH  34  35
ATOM     35  C   UNL A   1      42.569  24.791  28.217  1.00  0.00     0.031 A 
ATOM     36  C   UNL A   1      43.969  25.151  28.649  1.00  0.00     0.074 A 
ATOM     37  C   UNL A   1      41.571  25.681  28.392  1.00  0.00     0.049 A 
ATOM     38  N   UNL A   1      44.411  26.266  29.176  1.00  0.00    -0.248 NA
ATOM     39  C   UNL A   1      45.004  24.115  28.496  1.00  0.00     0.031 C 
ATOM     40  C   UNL A   1      40.160  25.448  28.078  1.00  0.00     0.029 A 
ATOM     41  N   UNL A   1      41.594  26.968  28.874  1.00  0.00    -0.354 N 
ATOM     42  C   UNL A   1      45.761  26.057  29.432  1.00  0.00     0.074 A 
ATOM     43  C   UNL A   1      46.054  24.692  29.060  1.00  0.00     0.031 C 
ATOM     44  C   UNL A   1      39.462  26.567  28.331  1.00  0.00     0.029 A 
ATOM     45  C   UNL A   1      40.365  27.584  28.857  1.00  0.00     0.049 A 
ATOM     46  H   UNL A   1      42.412  27.406  29.202  1.00  0.00     0.167 HD
ATOM     47  C   UNL A   1      46.686  26.927  29.907  1.00  0.00     0.031 A 
ATOM     48  C   UNL A   1      40.006  28.832  29.213  1.00  0.00     0.031 A 
ATOM     49  C   UNL A   1      46.410  28.293  30.260  1.00  0.00     0.049 A 
ATOM     50  C   UNL A   1      41.053  29.787  29.711  1.00  0.00     0.074 A 
ATOM     51  C   UNL A   1      47.290  29.268  30.697  1.00  0.00     0.029 A 
ATOM     52  N   UNL A   1      45.156  28.881  30.209  1.00  0.00    -0.354 N 
ATOM     53  N   UNL A   1      42.337  29.590  29.882  1.00  0.00    -0.248 NA
ATOM     54  C   UNL A   1      40.600  31.144  30.049  1.00  0.00     0.031 C 
ATOM     55  C   UNL A   1      46.560  30.435  30.949  1.00  0.00     0.029 A 
ATOM     56  C   UNL A   1      45.235  30.200  30.623  1.00  0.00     0.049 A 
ATOM     57  H   UNL A   1      44.331  28.427  29.921  1.00  0.00     0.167 HD
ATOM     58  C   UNL A   1      42.849  30.799  30.332  1.00  0.00     0.074 A 
ATOM     59  C   UNL A   1      41.741  31.731  30.381  1.00  0.00     0.031 C 
ATOM     60  C   UNL A   1      44.121  31.110  30.678  1.00  0.00     0.031 A 
BRANCH  47  61
ATOM     61  C   UNL A   1      48.094  26.419  30.066  1.00  0.00    -0.014 A 
ATOM     62  C   UNL A   1      49.028  26.531  29.023  1.00  0.00     0.009 A 
ATOM     63  C   UNL A   1      48.501  25.844  31.280  1.00  0.00     0.009 A 
ATOM     64  C   UNL A   1      50.327  26.043  29.179  1.00  0.00     0.001 A 
ATOM     65  C   UNL A   1      49.809  25.385  31.444  1.00  0.00     0.001 A 
ATOM     66  C   UNL A   1      50.718  25.475  30.390  1.00  0.00     0.000 A 
ENDBRANCH  47  61
BRANCH  48  67
ATOM     67  C   UNL A   1      38.588  29.262  29.083  1.00  0.00    -0.014 A 
ATOM     68  C   UNL A   1      38.096  29.729  27.855  1.00  0.00     0.009 A 
ATOM     69  C   UNL A   1      37.721  29.207  30.186  1.00  0.00     0.009 A 
ATOM     70  C   UNL A   1      36.771  30.156  27.739  1.00  0.00     0.001 A 
ATOM     71  C   UNL A   1      36.390  29.609  30.059  1.00  0.00     0.001 A 
ATOM     72  C   UNL A   1      35.918  30.091  28.839  1.00  0.00     0.000 A 
ENDBRANCH  48  67
BRANCH  60  73
ATOM     73  C   UNL A   1      44.379  32.520  31.128  1.00  0.00    -0.014 A 
ATOM     74  C   UNL A   1      44.296  32.876  32.483  1.00  0.00     0.009 A 
ATOM     75  C   UNL A   1      44.726  33.501  30.185  1.00  0.00     0.009 A 
ATOM     76  C   UNL A   1      44.514  34.197  32.879  1.00  0.00     0.001 A 
ATOM     77  C   UNL A   1      44.971  34.814  30.588  1.00  0.00     0.001 A 
ATOM     78  C   UNL A   1      44.854  35.164  31.933  1.00  0.00     0.000 A 
ENDBRANCH  60  73
ENDBRANCH  34  35
ENDBRANCH  26  29
ENDBRANCH  24  25
ENDBRANCH  23  24
ENDBRANCH  22  23
ENDBRANCH   3  22
TORSDOF 16
ENDMDL
MODEL 2
REMARK VINA RESULT:      -9.7      3.743      8.838
REMARK SMILES C[C@H](C(=O)NCCCNC(=O)c1ccc(-c2c3nc(c(-c4ccccc4)c4ccc([nH]4)c(-c4ccccc4)c4nc(c(-c5ccccc5)c5ccc2[nH]5)C=C4)C=C3)cc1)[C@@H](C)[NH2+]C[C@@H]1CCCC[C@@H]1CO
REMARK SMILES IDX 3 1 4 2 5 3 2 5 1 6 60 7 61 8 62 9 63 12 64 13 65 14 69 15
REMARK SMILES IDX 66 16 68 17 67 18 70 19 71 20 6 22 7 23 8 24 9 25 10 26
REMARK SMILES IDX 11 28 12 29 13 30 59 31 14 32 58 33 15 34 16 35 17 36 52 37
REMARK SMILES IDX 18 38 57 39 51 40 53 41 19 42 56 43 50 44 49 45 20 47 42 48
REMARK SMILES IDX 27 49 41 50 28 51 31 52 40 53 54 54 29 55 30 56 39 58 55 59
REMARK SMILES IDX 32 60 21 61 22 62 26 63 23 64 25 65 24 66 43 67 44 68 48 69
REMARK SMILES IDX 45 70 47 71 46 72 33 73 34 74 38 75 35 76 37 77 36 78
REMARK H PARENT 5 4 62 10 62 11 71 21 9 27 53 46 31 57
REMARK Flexibility Score: inf
ROOT
ATOM      1  C   UNL A   1      32.209  29.010  24.597  1.00  0.00     0.228 C 
ATOM      2  O   UNL A   1      32.833  29.020  23.533  1.00  0.00    -0.275 OA
ATOM      3  N   UNL A   1      32.383  30.093  25.414  1.00  0.00    -0.356 N 
ATOM      4  H   UNL A   1      32.926  30.813  25.020  1.00  0.00     0.163 HD
ENDROOT
BRANCH   1   5
ATOM      5  C   UNL A   1      31.262  27.855  24.965  1.00  0.00     0.133 C 
ATOM      6  C   UNL A   1      30.261  27.661  23.802  1.00  0.00     0.024 C 
BRANCH   5   7
ATOM      7  C   UNL A   1      31.912  26.471  25.293  1.00  0.00     0.191 C 
ATOM      8  C   UNL A   1      30.939  25.305  25.446  1.00  0.00     0.076 C 
BRANCH   7   9
ATOM      9  N   UNL A   1      33.053  26.282  24.341  1.00  0.00    -0.343 N 
ATOM     10  H   UNL A   1      33.894  26.618  24.809  1.00  0.00     0.346 HD
ATOM     11  H   UNL A   1      32.769  26.793  23.506  1.00  0.00     0.346 HD
BRANCH   9  12
ATOM     12  C   UNL A   1      33.341  24.928  23.852  1.00  0.00     0.264 C 
BRANCH  12  13
ATOM     13  C   UNL A   1      34.770  24.367  24.133  1.00  0.00     0.049 C 
ATOM     14  C   UNL A   1      35.173  23.228  23.171  1.00  0.00     0.010 C 
ATOM     15  C   UNL A   1      35.110  23.985  25.596  1.00  0.00     0.023 C 
ATOM     16  C   UNL A   1      36.626  22.768  23.358  1.00  0.00     0.001 C 
ATOM     17  C   UNL A   1      36.628  23.737  25.694  1.00  0.00     0.006 C 
ATOM     18  C   UNL A   1      37.050  22.569  24.811  1.00  0.00     0.000 C 
BRANCH  15  19
ATOM     19  C   UNL A   1      34.349  22.802  26.244  1.00  0.00     0.160 C 
BRANCH  19  20
ATOM     20  O   UNL A   1      34.253  22.863  27.654  1.00  0.00    -0.396 OA
ATOM     21  H   UNL A   1      34.333  21.970  28.022  1.00  0.00     0.210 HD
ENDBRANCH  19  20
ENDBRANCH  15  19
ENDBRANCH  12  13
ENDBRANCH   9  12
ENDBRANCH   7   9
ENDBRANCH   5   7
ENDBRANCH   1   5
BRANCH   3  22
ATOM     22  C   UNL A   1      31.909  30.373  26.761  1.00  0.00     0.117 C 
BRANCH  22  23
ATOM     23  C   UNL A   1      31.427  31.815  26.906  1.00  0.00     0.042 C 
BRANCH  23  24
ATOM     24  C   UNL A   1      32.502  32.874  26.717  1.00  0.00     0.118 C 
BRANCH  24  25
ATOM     25  N   UNL A   1      32.357  33.996  27.634  1.00  0.00    -0.352 N 
ATOM     26  C   UNL A   1      33.109  34.395  28.713  1.00  0.00     0.251 C 
ATOM     27  H   UNL A   1      31.581  34.572  27.448  1.00  0.00     0.163 HD
ATOM     28  O   UNL A   1      32.672  35.314  29.414  1.00  0.00    -0.269 OA
BRANCH  26  29
ATOM     29  C   UNL A   1      34.399  33.758  29.088  1.00  0.00     0.039 A 
ATOM     30  C   UNL A   1      35.541  34.077  28.338  1.00  0.00     0.014 A 
ATOM     31  C   UNL A   1      34.516  32.813  30.109  1.00  0.00     0.014 A 
ATOM     32  C   UNL A   1      36.778  33.499  28.644  1.00  0.00     0.010 A 
ATOM     33  C   UNL A   1      35.769  32.325  30.487  1.00  0.00     0.010 A 
ATOM     34  C   UNL A   1      36.915  32.642  29.747  1.00  0.00    -0.014 A 
BRANCH  34  35
ATOM     35  C   UNL A   1      38.234  32.051  30.107  1.00  0.00     0.031 A 
ATOM     36  C   UNL A   1      39.161  32.760  31.063  1.00  0.00     0.074 A 
ATOM     37  C   UNL A   1      38.620  30.886  29.549  1.00  0.00     0.049 A 
ATOM     38  N   UNL A   1      40.345  32.395  31.491  1.00  0.00    -0.248 NA
ATOM     39  C   UNL A   1      38.714  34.061  31.588  1.00  0.00     0.031 C 
ATOM     40  C   UNL A   1      37.855  30.121  28.563  1.00  0.00     0.029 A 
ATOM     41  N   UNL A   1      39.756  30.136  29.739  1.00  0.00    -0.354 N 
ATOM     42  C   UNL A   1      40.787  33.425  32.313  1.00  0.00     0.074 A 
ATOM     43  C   UNL A   1      39.774  34.455  32.278  1.00  0.00     0.031 C 
ATOM     44  C   UNL A   1      38.519  28.991  28.269  1.00  0.00     0.029 A 
ATOM     45  C   UNL A   1      39.771  28.966  29.017  1.00  0.00     0.049 A 
ATOM     46  H   UNL A   1      40.490  30.411  30.334  1.00  0.00     0.167 HD
ATOM     47  C   UNL A   1      41.919  33.502  33.055  1.00  0.00     0.031 A 
ATOM     48  C   UNL A   1      40.683  27.977  28.970  1.00  0.00     0.031 A 
ATOM     49  C   UNL A   1      42.922  32.473  33.113  1.00  0.00     0.049 A 
ATOM     50  C   UNL A   1      41.917  28.070  29.822  1.00  0.00     0.074 A 
ATOM     51  C   UNL A   1      44.075  32.433  33.877  1.00  0.00     0.029 A 
ATOM     52  N   UNL A   1      42.886  31.297  32.381  1.00  0.00    -0.354 N 
ATOM     53  N   UNL A   1      42.283  29.023  30.643  1.00  0.00    -0.248 NA
ATOM     54  C   UNL A   1      42.855  26.940  29.749  1.00  0.00     0.031 C 
ATOM     55  C   UNL A   1      44.759  31.249  33.576  1.00  0.00     0.029 A 
ATOM     56  C   UNL A   1      44.006  30.532  32.662  1.00  0.00     0.049 A 
ATOM     57  H   UNL A   1      42.172  31.044  31.753  1.00  0.00     0.167 HD
ATOM     58  C   UNL A   1      43.484  28.602  31.198  1.00  0.00     0.074 A 
ATOM     59  C   UNL A   1      43.770  27.296  30.640  1.00  0.00     0.031 C 
ATOM     60  C   UNL A   1      44.282  29.241  32.087  1.00  0.00     0.031 A 
BRANCH  47  61
ATOM     61  C   UNL A   1      42.125  34.748  33.873  1.00  0.00    -0.014 A 
ATOM     62  C   UNL A   1      41.692  34.821  35.207  1.00  0.00     0.009 A 
ATOM     63  C   UNL A   1      42.784  35.854  33.314  1.00  0.00     0.009 A 
ATOM     64  C   UNL A   1      41.878  35.988  35.950  1.00  0.00     0.001 A 
ATOM     65  C   UNL A   1      42.995  37.010  34.069  1.00  0.00     0.001 A 
ATOM     66  C   UNL A   1      42.533  37.080  35.382  1.00  0.00     0.000 A 
ENDBRANCH  47  61
BRANCH  48  67
ATOM     67  C   UNL A   1      40.449  26.792  28.102  1.00  0.00    -0.014 A 
ATOM     68  C   UNL A   1      39.698  25.703  28.571  1.00  0.00     0.009 A 
ATOM     69  C   UNL A   1      40.974  26.744  26.801  1.00  0.00     0.009 A 
ATOM     70  C   UNL A   1      39.500  24.580  27.765  1.00  0.00     0.001 A 
ATOM     71  C   UNL A   1      40.749  25.631  25.988  1.00  0.00     0.001 A 
ATOM     72  C   UNL A   1      40.021  24.547  26.473  1.00  0.00     0.000 A 
ENDBRANCH  48  67
BRANCH  60  73
ATOM     73  C   UNL A   1      45.532  28.527  32.516  1.00  0.00    -0.014 A 
ATOM     74  C   UNL A   1      46.743  28.709  31.831  1.00  0.00     0.009 A 
ATOM     75  C   UNL A   1      45.501  27.672  33.629  1.00  0.00     0.009 A 
ATOM     76  C   UNL A   1      47.889  28.017  32.228  1.00  0.00     0.001 A 
ATOM     77  C   UNL A   1      46.655  27.004  34.041  1.00  0.00     0.001 A 
ATOM     78  C   UNL A   1      47.845  27.168  33.333  1.00  0.00     0.000 A 
ENDBRANCH  60  73
ENDBRANCH  34  35
ENDBRANCH  26  29
ENDBRANCH  24  25
ENDBRANCH  23  24
ENDBRANCH  22  23
ENDBRANCH   3  22
TORSDOF 16
ENDMDL
MODEL 3
REMARK VINA RESULT:      -9.7      3.872      8.809
REMARK SMILES C[C@H](C(=O)NCCCNC(=O)c1ccc(-c2c3nc(c(-c4ccccc4)c4ccc([nH]4)c(-c4ccccc4)c4nc(c(-c5ccccc5)c5ccc2[nH]5)C=C4)C=C3)cc1)[C@@H](C)[NH2+]C[C@@H]1CCCC[C@@H]1CO
REMARK SMILES IDX 3 1 4 2 5 3 2 5 1 6 60 7 61 8 62 9 63 12 64 13 65 14 69 15
REMARK SMILES IDX 66 16 68 17 67 18 70 19 71 20 6 22 7 23 8 24 9 25 10 26
REMARK SMILES IDX 11 28 12 29 13 30 59 31 14 32 58 33 15 34 16 35 17 36 52 37
REMARK SMILES IDX 18 38 57 39 51 40 53 41 19 42 56 43 50 44 49 45 20 47 42 48
REMARK SMILES IDX 27 49 41 50 28 51 31 52 40 53 54 54 29 55 30 56 39 58 55 59
REMARK SMILES IDX 32 60 21 61 22 62 26 63 23 64 25 65 24 66 43 67 44 68 48 69
REMARK SMILES IDX 45 70 47 71 46 72 33 73 34 74 38 75 35 76 37 77 36 78
REMARK H PARENT 5 4 62 10 62 11 71 21 9 27 53 46 31 57
REMARK Flexibility Score: inf
ROOT
ATOM      1  C   UNL A   1      32.435  29.145  24.063  1.00  0.00     0.228 C 
ATOM      2  O   UNL A   1      33.411  29.204  23.310  1.00  0.00    -0.275 OA
ATOM      3  N   UNL A   1      32.368  30.096  25.044  1.00  0.00    -0.356 N 
ATOM      4  H   UNL A   1      33.068  30.785  24.989  1.00  0.00     0.163 HD
ENDROOT
BRANCH   1   5
ATOM      5  C   UNL A   1      31.339  28.081  23.883  1.00  0.00     0.133 C 
ATOM      6  C   UNL A   1      30.391  28.549  22.754  1.00  0.00     0.024 C 
BRANCH   5   7
ATOM      7  C   UNL A   1      31.803  26.622  23.564  1.00  0.00     0.191 C 
ATOM      8  C   UNL A   1      31.689  26.198  22.102  1.00  0.00     0.076 C 
BRANCH   7   9
ATOM      9  N   UNL A   1      33.134  26.426  24.224  1.00  0.00    -0.343 N 
ATOM     10  H   UNL A   1      33.273  27.213  24.859  1.00  0.00     0.346 HD
ATOM     11  H   UNL A   1      33.790  26.354  23.447  1.00  0.00     0.346 HD
BRANCH   9  12
ATOM     12  C   UNL A   1      33.358  25.200  24.999  1.00  0.00     0.264 C 
BRANCH  12  13
ATOM     13  C   UNL A   1      34.725  24.475  24.788  1.00  0.00     0.049 C 
ATOM     14  C   UNL A   1      34.800  23.702  23.452  1.00  0.00     0.010 C 
ATOM     15  C   UNL A   1      35.252  23.597  25.951  1.00  0.00     0.023 C 
ATOM     16  C   UNL A   1      36.187  23.102  23.183  1.00  0.00     0.001 C 
ATOM     17  C   UNL A   1      36.716  23.221  25.652  1.00  0.00     0.006 C 
ATOM     18  C   UNL A   1      36.820  22.393  24.377  1.00  0.00     0.000 C 
BRANCH  15  19
ATOM     19  C   UNL A   1      34.457  22.323  26.331  1.00  0.00     0.160 C 
BRANCH  19  20
ATOM     20  O   UNL A   1      34.994  21.595  27.419  1.00  0.00    -0.396 OA
ATOM     21  H   UNL A   1      35.117  22.190  28.175  1.00  0.00     0.210 HD
ENDBRANCH  19  20
ENDBRANCH  15  19
ENDBRANCH  12  13
ENDBRANCH   9  12
ENDBRANCH   7   9
ENDBRANCH   5   7
ENDBRANCH   1   5
BRANCH   3  22
ATOM     22  C   UNL A   1      31.446  30.272  26.156  1.00  0.00     0.117 C 
BRANCH  22  23
ATOM     23  C   UNL A   1      31.305  31.741  26.550  1.00  0.00     0.042 C 
BRANCH  23  24
ATOM     24  C   UNL A   1      32.616  32.464  26.818  1.00  0.00     0.118 C 
BRANCH  24  25
ATOM     25  N   UNL A   1      32.434  33.713  27.543  1.00  0.00    -0.352 N 
ATOM     26  C   UNL A   1      33.173  34.306  28.539  1.00  0.00     0.251 C 
ATOM     27  H   UNL A   1      31.639  34.226  27.271  1.00  0.00     0.163 HD
ATOM     28  O   UNL A   1      32.706  35.311  29.085  1.00  0.00    -0.269 OA
BRANCH  26  29
ATOM     29  C   UNL A   1      34.484  33.780  29.004  1.00  0.00     0.039 A 
ATOM     30  C   UNL A   1      34.494  32.854  30.057  1.00  0.00     0.014 A 
ATOM     31  C   UNL A   1      35.707  34.211  28.484  1.00  0.00     0.014 A 
ATOM     32  C   UNL A   1      35.702  32.335  30.537  1.00  0.00     0.010 A 
ATOM     33  C   UNL A   1      36.902  33.608  28.884  1.00  0.00     0.010 A 
ATOM     34  C   UNL A   1      36.920  32.680  29.931  1.00  0.00    -0.014 A 
BRANCH  34  35
ATOM     35  C   UNL A   1      38.209  32.104  30.408  1.00  0.00     0.031 A 
ATOM     36  C   UNL A   1      38.734  30.811  29.836  1.00  0.00     0.074 A 
ATOM     37  C   UNL A   1      38.901  32.727  31.383  1.00  0.00     0.049 A 
ATOM     38  N   UNL A   1      39.835  30.163  30.129  1.00  0.00    -0.248 NA
ATOM     39  C   UNL A   1      37.903  30.141  28.822  1.00  0.00     0.031 C 
ATOM     40  C   UNL A   1      38.484  33.951  32.071  1.00  0.00     0.029 A 
ATOM     41  N   UNL A   1      40.108  32.417  31.962  1.00  0.00    -0.354 N 
ATOM     42  C   UNL A   1      39.816  29.009  29.354  1.00  0.00     0.074 A 
ATOM     43  C   UNL A   1      38.569  29.013  28.623  1.00  0.00     0.031 C 
ATOM     44  C   UNL A   1      39.439  34.312  32.944  1.00  0.00     0.029 A 
ATOM     45  C   UNL A   1      40.517  33.331  32.904  1.00  0.00     0.049 A 
ATOM     46  H   UNL A   1      40.629  31.617  31.727  1.00  0.00     0.167 HD
ATOM     47  C   UNL A   1      40.759  28.043  29.235  1.00  0.00     0.031 A 
ATOM     48  C   UNL A   1      41.640  33.382  33.646  1.00  0.00     0.031 A 
ATOM     49  C   UNL A   1      42.012  28.040  29.941  1.00  0.00     0.049 A 
ATOM     50  C   UNL A   1      42.684  32.316  33.477  1.00  0.00     0.074 A 
ATOM     51  C   UNL A   1      43.056  27.136  29.847  1.00  0.00     0.029 A 
ATOM     52  N   UNL A   1      42.393  28.995  30.871  1.00  0.00    -0.354 N 
ATOM     53  N   UNL A   1      42.675  31.268  32.689  1.00  0.00    -0.248 NA
ATOM     54  C   UNL A   1      43.901  32.449  34.291  1.00  0.00     0.031 C 
ATOM     55  C   UNL A   1      44.053  27.523  30.750  1.00  0.00     0.029 A 
ATOM     56  C   UNL A   1      43.649  28.693  31.370  1.00  0.00     0.049 A 
ATOM     57  H   UNL A   1      41.851  29.772  31.137  1.00  0.00     0.167 HD
ATOM     58  C   UNL A   1      43.889  30.627  32.899  1.00  0.00     0.074 A 
ATOM     59  C   UNL A   1      44.619  31.419  33.868  1.00  0.00     0.031 C 
ATOM     60  C   UNL A   1      44.356  29.483  32.343  1.00  0.00     0.031 A 
BRANCH  47  61
ATOM     61  C   UNL A   1      40.468  26.906  28.294  1.00  0.00    -0.014 A 
ATOM     62  C   UNL A   1      39.708  25.798  28.705  1.00  0.00     0.009 A 
ATOM     63  C   UNL A   1      40.934  26.951  26.970  1.00  0.00     0.009 A 
ATOM     64  C   UNL A   1      39.456  24.744  27.825  1.00  0.00     0.001 A 
ATOM     65  C   UNL A   1      40.655  25.910  26.083  1.00  0.00     0.001 A 
ATOM     66  C   UNL A   1      39.926  24.802  26.515  1.00  0.00     0.000 A 
ENDBRANCH  47  61
BRANCH  48  67
ATOM     67  C   UNL A   1      41.850  34.504  34.599  1.00  0.00    -0.014 A 
ATOM     68  C   UNL A   1      41.564  34.342  35.963  1.00  0.00     0.009 A 
ATOM     69  C   UNL A   1      42.336  35.742  34.150  1.00  0.00     0.009 A 
ATOM     70  C   UNL A   1      41.737  35.404  36.855  1.00  0.00     0.001 A 
ATOM     71  C   UNL A   1      42.535  36.792  35.048  1.00  0.00     0.001 A 
ATOM     72  C   UNL A   1      42.227  36.625  36.397  1.00  0.00     0.000 A 
ENDBRANCH  48  67
BRANCH  60  73
ATOM     73  C   UNL A   1      45.725  29.032  32.765  1.00  0.00    -0.014 A 
ATOM     74  C   UNL A   1      45.899  28.159  33.851  1.00  0.00     0.009 A 
ATOM     75  C   UNL A   1      46.854  29.471  32.056  1.00  0.00     0.009 A 
ATOM     76  C   UNL A   1      47.181  27.770  34.244  1.00  0.00     0.001 A 
ATOM     77  C   UNL A   1      48.132  29.058  32.434  1.00  0.00     0.001 A 
ATOM     78  C   UNL A   1      48.296  28.217  33.534  1.00  0.00     0.000 A 
ENDBRANCH  60  73
ENDBRANCH  34  35
ENDBRANCH  26  29
ENDBRANCH  24  25
ENDBRANCH  23  24
ENDBRANCH  22  23
ENDBRANCH   3  22
TORSDOF 16
ENDMDL
