MODEL 1
REMARK VINA RESULT:     -11.2      0.000      0.000
REMARK SMILES CC[NH2+][C@H](C)c1cccn1Cc1ccc(C(=O)NCCCNC(=O)c2ccc(-c3c4nc(c(-c5ccccc5)c5ccc([nH]5)c(-c5ccccc5)c5nc(c(-c6ccccc6)c6ccc3[nH]6)C=C5)C=C4)cc2)cc1
REMARK SMILES IDX 16 1 17 2 18 3 15 5 12 6 13 7 74 8 14 9 73 10 11 11 10 12
REMARK SMILES IDX 6 13 7 14 8 15 9 16 4 17 5 18 3 19 2 22 1 23 19 24 20 25
REMARK SMILES IDX 21 26 22 27 23 28 24 30 25 31 26 32 72 33 27 34 71 35 28 36
REMARK SMILES IDX 29 37 30 38 65 39 31 40 70 41 64 42 66 43 32 44 69 45 63 46
REMARK SMILES IDX 62 47 33 49 55 50 40 51 54 52 41 53 44 54 53 55 67 56 42 57
REMARK SMILES IDX 43 58 52 60 68 61 45 62 34 63 35 64 39 65 36 66 38 67 37 68
REMARK SMILES IDX 56 69 57 70 61 71 58 72 60 73 59 74 46 75 47 76 51 77 48 78
REMARK SMILES IDX 50 79 49 80
REMARK H PARENT 18 4 3 20 3 21 22 29 66 48 44 59
REMARK Flexibility Score: inf
ROOT
ATOM      1  C   UNL A   1      31.612  27.217  24.452  1.00  0.00     0.251 C 
ATOM      2  O   UNL A   1      30.475  26.972  24.055  1.00  0.00    -0.269 OA
ATOM      3  N   UNL A   1      32.046  28.520  24.438  1.00  0.00    -0.352 N 
ATOM      4  H   UNL A   1      31.414  29.158  24.032  1.00  0.00     0.163 HD
ENDROOT
BRANCH   1   5
ATOM      5  C   UNL A   1      32.455  26.112  24.981  1.00  0.00     0.039 A 
ATOM      6  C   UNL A   1      34.018  24.095  26.170  1.00  0.00    -0.028 A 
ATOM      7  C   UNL A   1      32.677  24.265  26.541  1.00  0.00     0.006 A 
ATOM      8  C   UNL A   1      34.539  24.887  25.144  1.00  0.00     0.006 A 
ATOM      9  C   UNL A   1      31.898  25.262  25.943  1.00  0.00     0.014 A 
ATOM     10  C   UNL A   1      33.760  25.874  24.549  1.00  0.00     0.014 A 
BRANCH   6  11
ATOM     11  C   UNL A   1      34.912  23.107  26.884  1.00  0.00     0.157 C 
BRANCH  11  12
ATOM     12  N   UNL A   1      35.474  22.122  25.962  1.00  0.00    -0.342 N 
ATOM     13  C   UNL A   1      34.910  20.960  25.460  1.00  0.00     0.076 A 
ATOM     14  C   UNL A   1      35.974  20.236  24.918  1.00  0.00     0.029 A 
ATOM     15  C   UNL A   1      37.102  21.073  24.843  1.00  0.00     0.020 A 
ATOM     16  C   UNL A   1      36.742  22.260  25.427  1.00  0.00     0.086 A 
BRANCH  13  17
ATOM     17  C   UNL A   1      33.458  20.522  25.470  1.00  0.00     0.227 C 
ATOM     18  C   UNL A   1      32.582  20.948  24.291  1.00  0.00     0.082 C 
BRANCH  17  19
ATOM     19  N   UNL A   1      33.374  19.053  25.622  1.00  0.00    -0.339 N 
ATOM     20  H   UNL A   1      34.323  18.684  25.691  1.00  0.00     0.346 HD
ATOM     21  H   UNL A   1      32.820  18.875  26.459  1.00  0.00     0.346 HD
BRANCH  19  22
ATOM     22  C   UNL A   1      32.696  18.372  24.514  1.00  0.00     0.257 C 
ATOM     23  C   UNL A   1      33.686  17.486  23.774  1.00  0.00     0.071 C 
ENDBRANCH  19  22
ENDBRANCH  17  19
ENDBRANCH  13  17
ENDBRANCH  11  12
ENDBRANCH   6  11
ENDBRANCH   1   5
BRANCH   3  24
ATOM     24  C   UNL A   1      33.281  29.118  24.921  1.00  0.00     0.118 C 
BRANCH  24  25
ATOM     25  C   UNL A   1      33.344  29.110  26.453  1.00  0.00     0.042 C 
BRANCH  25  26
ATOM     26  C   UNL A   1      34.771  29.054  26.978  1.00  0.00     0.118 C 
BRANCH  26  27
ATOM     27  N   UNL A   1      35.235  30.378  27.347  1.00  0.00    -0.352 N 
ATOM     28  C   UNL A   1      36.326  30.764  28.080  1.00  0.00     0.251 C 
ATOM     29  H   UNL A   1      34.676  31.118  27.018  1.00  0.00     0.163 HD
ATOM     30  O   UNL A   1      36.332  31.887  28.570  1.00  0.00    -0.269 OA
BRANCH  28  31
ATOM     31  C   UNL A   1      37.476  29.864  28.309  1.00  0.00     0.039 A 
ATOM     32  C   UNL A   1      38.429  29.769  27.286  1.00  0.00     0.014 A 
ATOM     33  C   UNL A   1      37.590  29.056  29.447  1.00  0.00     0.014 A 
ATOM     34  C   UNL A   1      39.518  28.918  27.425  1.00  0.00     0.010 A 
ATOM     35  C   UNL A   1      38.696  28.231  29.610  1.00  0.00     0.010 A 
ATOM     36  C   UNL A   1      39.665  28.177  28.604  1.00  0.00    -0.014 A 
BRANCH  36  37
ATOM     37  C   UNL A   1      40.955  27.509  28.860  1.00  0.00     0.031 A 
ATOM     38  C   UNL A   1      40.917  26.031  28.424  1.00  0.00     0.074 A 
ATOM     39  C   UNL A   1      41.943  28.262  29.435  1.00  0.00     0.049 A 
ATOM     40  N   UNL A   1      41.692  25.049  28.761  1.00  0.00    -0.248 NA
ATOM     41  C   UNL A   1      39.846  25.564  27.495  1.00  0.00     0.031 C 
ATOM     42  C   UNL A   1      41.831  29.711  29.726  1.00  0.00     0.029 A 
ATOM     43  N   UNL A   1      43.218  27.993  29.890  1.00  0.00    -0.354 N 
ATOM     44  C   UNL A   1      41.331  23.924  27.984  1.00  0.00     0.074 A 
ATOM     45  C   UNL A   1      40.137  24.278  27.283  1.00  0.00     0.031 C 
ATOM     46  C   UNL A   1      42.930  30.162  30.369  1.00  0.00     0.029 A 
ATOM     47  C   UNL A   1      43.866  29.071  30.551  1.00  0.00     0.049 A 
ATOM     48  H   UNL A   1      43.648  27.116  29.764  1.00  0.00     0.167 HD
ATOM     49  C   UNL A   1      42.121  22.816  27.875  1.00  0.00     0.031 A 
ATOM     50  C   UNL A   1      45.055  29.082  31.229  1.00  0.00     0.031 A 
ATOM     51  C   UNL A   1      43.220  22.914  28.770  1.00  0.00     0.049 A 
ATOM     52  C   UNL A   1      45.692  27.792  30.950  1.00  0.00     0.074 A 
ATOM     53  C   UNL A   1      43.302  22.856  30.136  1.00  0.00     0.029 A 
ATOM     54  N   UNL A   1      44.362  23.486  28.267  1.00  0.00    -0.354 N 
ATOM     55  N   UNL A   1      46.255  27.482  29.824  1.00  0.00    -0.248 NA
ATOM     56  C   UNL A   1      45.685  26.747  31.981  1.00  0.00     0.031 C 
ATOM     57  C   UNL A   1      44.250  23.855  30.436  1.00  0.00     0.029 A 
ATOM     58  C   UNL A   1      44.865  24.290  29.257  1.00  0.00     0.049 A 
ATOM     59  H   UNL A   1      44.745  23.347  27.371  1.00  0.00     0.167 HD
ATOM     60  C   UNL A   1      46.254  26.112  29.879  1.00  0.00     0.074 A 
ATOM     61  C   UNL A   1      46.247  25.761  31.285  1.00  0.00     0.031 C 
ATOM     62  C   UNL A   1      45.674  25.417  28.867  1.00  0.00     0.031 A 
BRANCH  49  63
ATOM     63  C   UNL A   1      42.169  21.719  26.850  1.00  0.00    -0.014 A 
ATOM     64  C   UNL A   1      41.119  20.766  26.873  1.00  0.00     0.009 A 
ATOM     65  C   UNL A   1      43.323  21.381  26.139  1.00  0.00     0.009 A 
ATOM     66  C   UNL A   1      41.273  19.485  26.344  1.00  0.00     0.001 A 
ATOM     67  C   UNL A   1      43.462  20.106  25.569  1.00  0.00     0.001 A 
ATOM     68  C   UNL A   1      42.458  19.148  25.708  1.00  0.00     0.000 A 
ENDBRANCH  49  63
BRANCH  50  69
ATOM     69  C   UNL A   1      45.831  29.980  32.159  1.00  0.00    -0.014 A 
ATOM     70  C   UNL A   1      45.314  30.689  33.244  1.00  0.00     0.009 A 
ATOM     71  C   UNL A   1      47.246  30.047  32.005  1.00  0.00     0.009 A 
ATOM     72  C   UNL A   1      46.172  31.332  34.165  1.00  0.00     0.001 A 
ATOM     73  C   UNL A   1      48.102  30.634  32.938  1.00  0.00     0.001 A 
ATOM     74  C   UNL A   1      47.560  31.269  34.036  1.00  0.00     0.000 A 
ENDBRANCH  50  69
BRANCH  62  75
ATOM     75  C   UNL A   1      45.578  26.165  27.541  1.00  0.00    -0.014 A 
ATOM     76  C   UNL A   1      44.337  26.662  27.107  1.00  0.00     0.009 A 
ATOM     77  C   UNL A   1      46.654  26.273  26.641  1.00  0.00     0.009 A 
ATOM     78  C   UNL A   1      44.169  27.205  25.825  1.00  0.00     0.001 A 
ATOM     79  C   UNL A   1      46.493  26.822  25.358  1.00  0.00     0.001 A 
ATOM     80  C   UNL A   1      45.246  27.281  24.947  1.00  0.00     0.000 A 
ENDBRANCH  62  75
ENDBRANCH  36  37
ENDBRANCH  28  31
ENDBRANCH  26  27
ENDBRANCH  25  26
ENDBRANCH  24  25
ENDBRANCH   3  24
TORSDOF 15
ENDMDL
MODEL 2
REMARK VINA RESULT:     -10.8      1.965      6.654
REMARK SMILES CC[NH2+][C@H](C)c1cccn1Cc1ccc(C(=O)NCCCNC(=O)c2ccc(-c3c4nc(c(-c5ccccc5)c5ccc([nH]5)c(-c5ccccc5)c5nc(c(-c6ccccc6)c6ccc3[nH]6)C=C5)C=C4)cc2)cc1
REMARK SMILES IDX 16 1 17 2 18 3 15 5 12 6 13 7 74 8 14 9 73 10 11 11 10 12
REMARK SMILES IDX 6 13 7 14 8 15 9 16 4 17 5 18 3 19 2 22 1 23 19 24 20 25
REMARK SMILES IDX 21 26 22 27 23 28 24 30 25 31 26 32 72 33 27 34 71 35 28 36
REMARK SMILES IDX 29 37 30 38 65 39 31 40 70 41 64 42 66 43 32 44 69 45 63 46
REMARK SMILES IDX 62 47 33 49 55 50 40 51 54 52 41 53 44 54 53 55 67 56 42 57
REMARK SMILES IDX 43 58 52 60 68 61 45 62 34 63 35 64 39 65 36 66 38 67 37 68
REMARK SMILES IDX 56 69 57 70 61 71 58 72 60 73 59 74 46 75 47 76 51 77 48 78
REMARK SMILES IDX 50 79 49 80
REMARK H PARENT 18 4 3 20 3 21 22 29 66 48 44 59
REMARK Flexibility Score: inf
ROOT
ATOM      1  C   UNL A   1      30.779  29.460  24.130  1.00  0.00     0.251 C 
ATOM      2  O   UNL A   1      29.790  30.128  23.835  1.00  0.00    -0.269 OA
ATOM      3  N   UNL A   1      31.805  30.072  24.808  1.00  0.00    -0.352 N 
ATOM      4  H   UNL A   1      31.688  31.040  24.942  1.00  0.00     0.163 HD
ENDROOT
BRANCH   1   5
ATOM      5  C   UNL A   1      30.808  28.011  23.795  1.00  0.00     0.039 A 
ATOM      6  C   UNL A   1      30.939  25.235  23.348  1.00  0.00    -0.028 A 
ATOM      7  C   UNL A   1      30.193  25.747  24.419  1.00  0.00     0.006 A 
ATOM      8  C   UNL A   1      31.547  26.129  22.462  1.00  0.00     0.006 A 
ATOM      9  C   UNL A   1      30.120  27.128  24.635  1.00  0.00     0.014 A 
ATOM     10  C   UNL A   1      31.468  27.500  22.679  1.00  0.00     0.014 A 
BRANCH   6  11
ATOM     11  C   UNL A   1      31.131  23.748  23.164  1.00  0.00     0.157 C 
BRANCH  11  12
ATOM     12  N   UNL A   1      32.501  23.337  23.467  1.00  0.00    -0.342 N 
ATOM     13  C   UNL A   1      33.034  22.840  24.645  1.00  0.00     0.076 A 
ATOM     14  C   UNL A   1      34.419  22.941  24.496  1.00  0.00     0.029 A 
ATOM     15  C   UNL A   1      34.712  23.225  23.150  1.00  0.00     0.020 A 
ATOM     16  C   UNL A   1      33.506  23.390  22.518  1.00  0.00     0.086 A 
BRANCH  13  17
ATOM     17  C   UNL A   1      32.314  22.292  25.862  1.00  0.00     0.227 C 
ATOM     18  C   UNL A   1      30.785  22.334  25.857  1.00  0.00     0.082 C 
BRANCH  17  19
ATOM     19  N   UNL A   1      32.753  20.905  26.128  1.00  0.00    -0.339 N 
ATOM     20  H   UNL A   1      33.752  20.920  26.337  1.00  0.00     0.346 HD
ATOM     21  H   UNL A   1      32.192  20.563  26.908  1.00  0.00     0.346 HD
BRANCH  19  22
ATOM     22  C   UNL A   1      32.532  19.980  25.011  1.00  0.00     0.257 C 
ATOM     23  C   UNL A   1      33.798  19.179  24.751  1.00  0.00     0.071 C 
ENDBRANCH  19  22
ENDBRANCH  17  19
ENDBRANCH  13  17
ENDBRANCH  11  12
ENDBRANCH   6  11
ENDBRANCH   1   5
BRANCH   3  24
ATOM     24  C   UNL A   1      33.035  29.529  25.363  1.00  0.00     0.118 C 
BRANCH  24  25
ATOM     25  C   UNL A   1      33.125  29.774  26.874  1.00  0.00     0.042 C 
BRANCH  25  26
ATOM     26  C   UNL A   1      34.518  29.513  27.427  1.00  0.00     0.118 C 
BRANCH  26  27
ATOM     27  N   UNL A   1      34.821  30.428  28.511  1.00  0.00    -0.352 N 
ATOM     28  C   UNL A   1      35.911  30.497  29.337  1.00  0.00     0.251 C 
ATOM     29  H   UNL A   1      34.130  31.109  28.681  1.00  0.00     0.163 HD
ATOM     30  O   UNL A   1      35.803  31.101  30.397  1.00  0.00    -0.269 OA
BRANCH  28  31
ATOM     31  C   UNL A   1      37.196  29.851  28.994  1.00  0.00     0.039 A 
ATOM     32  C   UNL A   1      37.826  29.106  30.001  1.00  0.00     0.014 A 
ATOM     33  C   UNL A   1      37.828  30.030  27.758  1.00  0.00     0.014 A 
ATOM     34  C   UNL A   1      39.051  28.499  29.754  1.00  0.00     0.010 A 
ATOM     35  C   UNL A   1      39.034  29.393  27.491  1.00  0.00     0.010 A 
ATOM     36  C   UNL A   1      39.634  28.617  28.487  1.00  0.00    -0.014 A 
BRANCH  36  37
ATOM     37  C   UNL A   1      40.772  27.740  28.150  1.00  0.00     0.031 A 
ATOM     38  C   UNL A   1      42.095  28.531  28.107  1.00  0.00     0.074 A 
ATOM     39  C   UNL A   1      40.494  26.420  27.920  1.00  0.00     0.049 A 
ATOM     40  N   UNL A   1      43.224  28.223  27.554  1.00  0.00    -0.248 NA
ATOM     41  C   UNL A   1      42.172  29.875  28.753  1.00  0.00     0.031 C 
ATOM     42  C   UNL A   1      39.155  25.805  28.079  1.00  0.00     0.029 A 
ATOM     43  N   UNL A   1      41.244  25.334  27.517  1.00  0.00    -0.354 N 
ATOM     44  C   UNL A   1      44.169  29.212  27.914  1.00  0.00     0.074 A 
ATOM     45  C   UNL A   1      43.443  30.245  28.585  1.00  0.00     0.031 C 
ATOM     46  C   UNL A   1      39.171  24.507  27.702  1.00  0.00     0.029 A 
ATOM     47  C   UNL A   1      40.507  24.143  27.276  1.00  0.00     0.049 A 
ATOM     48  H   UNL A   1      42.221  25.381  27.404  1.00  0.00     0.167 HD
ATOM     49  C   UNL A   1      45.514  29.047  27.746  1.00  0.00     0.031 A 
ATOM     50  C   UNL A   1      40.929  22.957  26.739  1.00  0.00     0.031 A 
ATOM     51  C   UNL A   1      45.769  27.851  27.022  1.00  0.00     0.049 A 
ATOM     52  C   UNL A   1      42.389  23.044  26.663  1.00  0.00     0.074 A 
ATOM     53  C   UNL A   1      45.548  27.502  25.717  1.00  0.00     0.029 A 
ATOM     54  N   UNL A   1      45.964  26.718  27.773  1.00  0.00    -0.354 N 
ATOM     55  N   UNL A   1      43.183  22.946  27.684  1.00  0.00    -0.248 NA
ATOM     56  C   UNL A   1      43.031  23.287  25.365  1.00  0.00     0.031 C 
ATOM     57  C   UNL A   1      45.106  26.167  25.820  1.00  0.00     0.029 A 
ATOM     58  C   UNL A   1      45.311  25.703  27.124  1.00  0.00     0.049 A 
ATOM     59  H   UNL A   1      46.472  26.649  28.613  1.00  0.00     0.167 HD
ATOM     60  C   UNL A   1      44.321  23.546  27.212  1.00  0.00     0.074 A 
ATOM     61  C   UNL A   1      44.294  23.396  25.771  1.00  0.00     0.031 C 
ATOM     62  C   UNL A   1      44.850  24.585  27.908  1.00  0.00     0.031 A 
BRANCH  49  63
ATOM     63  C   UNL A   1      46.692  29.724  28.386  1.00  0.00    -0.014 A 
ATOM     64  C   UNL A   1      47.767  30.090  27.537  1.00  0.00     0.009 A 
ATOM     65  C   UNL A   1      46.946  29.690  29.760  1.00  0.00     0.009 A 
ATOM     66  C   UNL A   1      49.063  30.265  28.021  1.00  0.00     0.001 A 
ATOM     67  C   UNL A   1      48.242  29.907  30.251  1.00  0.00     0.001 A 
ATOM     68  C   UNL A   1      49.305  30.151  29.381  1.00  0.00     0.000 A 
ENDBRANCH  49  63
BRANCH  50  69
ATOM     69  C   UNL A   1      40.344  21.676  26.199  1.00  0.00    -0.014 A 
ATOM     70  C   UNL A   1      40.946  20.418  26.228  1.00  0.00     0.009 A 
ATOM     71  C   UNL A   1      39.008  21.703  25.703  1.00  0.00     0.009 A 
ATOM     72  C   UNL A   1      40.217  19.258  25.879  1.00  0.00     0.001 A 
ATOM     73  C   UNL A   1      38.266  20.558  25.408  1.00  0.00     0.001 A 
ATOM     74  C   UNL A   1      38.873  19.323  25.512  1.00  0.00     0.000 A 
ENDBRANCH  50  69
BRANCH  62  75
ATOM     75  C   UNL A   1      44.475  24.630  29.387  1.00  0.00    -0.014 A 
ATOM     76  C   UNL A   1      44.287  25.869  30.023  1.00  0.00     0.009 A 
ATOM     77  C   UNL A   1      44.437  23.485  30.204  1.00  0.00     0.009 A 
ATOM     78  C   UNL A   1      44.109  25.965  31.410  1.00  0.00     0.001 A 
ATOM     79  C   UNL A   1      44.252  23.575  31.594  1.00  0.00     0.001 A 
ATOM     80  C   UNL A   1      44.095  24.817  32.198  1.00  0.00     0.000 A 
ENDBRANCH  62  75
ENDBRANCH  36  37
ENDBRANCH  28  31
ENDBRANCH  26  27
ENDBRANCH  25  26
ENDBRANCH  24  25
ENDBRANCH   3  24
TORSDOF 15
ENDMDL
MODEL 3
REMARK VINA RESULT:     -10.8      1.161      2.105
REMARK SMILES CC[NH2+][C@H](C)c1cccn1Cc1ccc(C(=O)NCCCNC(=O)c2ccc(-c3c4nc(c(-c5ccccc5)c5ccc([nH]5)c(-c5ccccc5)c5nc(c(-c6ccccc6)c6ccc3[nH]6)C=C5)C=C4)cc2)cc1
REMARK SMILES IDX 16 1 17 2 18 3 15 5 12 6 13 7 74 8 14 9 73 10 11 11 10 12
REMARK SMILES IDX 6 13 7 14 8 15 9 16 4 17 5 18 3 19 2 22 1 23 19 24 20 25
REMARK SMILES IDX 21 26 22 27 23 28 24 30 25 31 26 32 72 33 27 34 71 35 28 36
REMARK SMILES IDX 29 37 30 38 65 39 31 40 70 41 64 42 66 43 32 44 69 45 63 46
REMARK SMILES IDX 62 47 33 49 55 50 40 51 54 52 41 53 44 54 53 55 67 56 42 57
REMARK SMILES IDX 43 58 52 60 68 61 45 62 34 63 35 64 39 65 36 66 38 67 37 68
REMARK SMILES IDX 56 69 57 70 61 71 58 72 60 73 59 74 46 75 47 76 51 77 48 78
REMARK SMILES IDX 50 79 49 80
REMARK H PARENT 18 4 3 20 3 21 22 29 66 48 44 59
REMARK Flexibility Score: inf
ROOT
ATOM      1  C   UNL A   1      31.406  28.432  24.245  1.00  0.00     0.251 C 
ATOM      2  O   UNL A   1      30.714  29.243  23.632  1.00  0.00    -0.269 OA
ATOM      3  N   UNL A   1      31.686  28.676  25.567  1.00  0.00    -0.352 N 
ATOM      4  H   UNL A   1      31.359  29.541  25.903  1.00  0.00     0.163 HD
ENDROOT
BRANCH   1   5
ATOM      5  C   UNL A   1      31.865  27.197  23.556  1.00  0.00     0.039 A 
ATOM      6  C   UNL A   1      32.694  24.756  22.424  1.00  0.00    -0.028 A 
ATOM      7  C   UNL A   1      31.392  24.901  22.924  1.00  0.00     0.006 A 
ATOM      8  C   UNL A   1      33.542  25.866  22.422  1.00  0.00     0.006 A 
ATOM      9  C   UNL A   1      30.978  26.118  23.478  1.00  0.00     0.014 A 
ATOM     10  C   UNL A   1      33.125  27.074  22.970  1.00  0.00     0.014 A 
BRANCH   6  11
ATOM     11  C   UNL A   1      33.202  23.421  21.930  1.00  0.00     0.157 C 
BRANCH  11  12
ATOM     12  N   UNL A   1      33.120  22.395  22.968  1.00  0.00    -0.342 N 
ATOM     13  C   UNL A   1      33.852  22.260  24.137  1.00  0.00     0.076 A 
ATOM     14  C   UNL A   1      33.619  20.954  24.571  1.00  0.00     0.029 A 
ATOM     15  C   UNL A   1      32.548  20.414  23.836  1.00  0.00     0.020 A 
ATOM     16  C   UNL A   1      32.208  21.357  22.901  1.00  0.00     0.086 A 
BRANCH  13  17
ATOM     17  C   UNL A   1      34.731  23.280  24.834  1.00  0.00     0.227 C 
ATOM     18  C   UNL A   1      34.894  23.155  26.350  1.00  0.00     0.082 C 
BRANCH  17  19
ATOM     19  N   UNL A   1      36.073  23.302  24.210  1.00  0.00    -0.339 N 
ATOM     20  H   UNL A   1      36.155  22.489  23.599  1.00  0.00     0.346 HD
ATOM     21  H   UNL A   1      36.147  24.185  23.704  1.00  0.00     0.346 HD
BRANCH  19  22
ATOM     22  C   UNL A   1      37.182  23.270  25.169  1.00  0.00     0.257 C 
ATOM     23  C   UNL A   1      37.800  21.881  25.192  1.00  0.00     0.071 C 
ENDBRANCH  19  22
ENDBRANCH  17  19
ENDBRANCH  13  17
ENDBRANCH  11  12
ENDBRANCH   6  11
ENDBRANCH   1   5
BRANCH   3  24
ATOM     24  C   UNL A   1      32.385  27.869  26.556  1.00  0.00     0.118 C 
BRANCH  24  25
ATOM     25  C   UNL A   1      33.257  28.737  27.471  1.00  0.00     0.042 C 
BRANCH  25  26
ATOM     26  C   UNL A   1      34.655  28.956  26.911  1.00  0.00     0.118 C 
BRANCH  26  27
ATOM     27  N   UNL A   1      35.122  30.298  27.202  1.00  0.00    -0.352 N 
ATOM     28  C   UNL A   1      36.226  30.724  27.890  1.00  0.00     0.251 C 
ATOM     29  H   UNL A   1      34.553  31.018  26.847  1.00  0.00     0.163 HD
ATOM     30  O   UNL A   1      36.238  31.870  28.323  1.00  0.00    -0.269 OA
BRANCH  28  31
ATOM     31  C   UNL A   1      37.384  29.840  28.140  1.00  0.00     0.039 A 
ATOM     32  C   UNL A   1      38.355  29.757  27.133  1.00  0.00     0.014 A 
ATOM     33  C   UNL A   1      37.491  29.037  29.282  1.00  0.00     0.014 A 
ATOM     34  C   UNL A   1      39.453  28.920  27.293  1.00  0.00     0.010 A 
ATOM     35  C   UNL A   1      38.605  28.227  29.465  1.00  0.00     0.010 A 
ATOM     36  C   UNL A   1      39.591  28.184  28.475  1.00  0.00    -0.014 A 
BRANCH  36  37
ATOM     37  C   UNL A   1      40.886  27.534  28.754  1.00  0.00     0.031 A 
ATOM     38  C   UNL A   1      40.876  26.055  28.319  1.00  0.00     0.074 A 
ATOM     39  C   UNL A   1      41.853  28.301  29.345  1.00  0.00     0.049 A 
ATOM     40  N   UNL A   1      41.658  25.085  28.669  1.00  0.00    -0.248 NA
ATOM     41  C   UNL A   1      39.827  25.572  27.372  1.00  0.00     0.031 C 
ATOM     42  C   UNL A   1      41.716  29.749  29.632  1.00  0.00     0.029 A 
ATOM     43  N   UNL A   1      43.124  28.050  29.821  1.00  0.00    -0.354 N 
ATOM     44  C   UNL A   1      41.326  23.954  27.888  1.00  0.00     0.074 A 
ATOM     45  C   UNL A   1      40.139  24.291  27.166  1.00  0.00     0.031 C 
ATOM     46  C   UNL A   1      42.798  30.215  30.294  1.00  0.00     0.029 A 
ATOM     47  C   UNL A   1      43.746  29.137  30.492  1.00  0.00     0.049 A 
ATOM     48  H   UNL A   1      43.568  27.179  29.704  1.00  0.00     0.167 HD
ATOM     49  C   UNL A   1      42.133  22.857  27.794  1.00  0.00     0.031 A 
ATOM     50  C   UNL A   1      44.922  29.166  31.190  1.00  0.00     0.031 A 
ATOM     51  C   UNL A   1      43.215  22.971  28.707  1.00  0.00     0.049 A 
ATOM     52  C   UNL A   1      45.582  27.885  30.923  1.00  0.00     0.074 A 
ATOM     53  C   UNL A   1      43.275  22.915  30.074  1.00  0.00     0.029 A 
ATOM     54  N   UNL A   1      44.358  23.558  28.223  1.00  0.00    -0.354 N 
ATOM     55  N   UNL A   1      46.168  27.581  29.807  1.00  0.00    -0.248 NA
ATOM     56  C   UNL A   1      45.572  26.840  31.955  1.00  0.00     0.031 C 
ATOM     57  C   UNL A   1      44.203  23.928  30.389  1.00  0.00     0.029 A 
ATOM     58  C   UNL A   1      44.832  24.369  29.220  1.00  0.00     0.049 A 
ATOM     59  H   UNL A   1      44.758  23.424  27.333  1.00  0.00     0.167 HD
ATOM     60  C   UNL A   1      46.186  26.212  29.864  1.00  0.00     0.074 A 
ATOM     61  C   UNL A   1      46.159  25.861  31.270  1.00  0.00     0.031 C 
ATOM     62  C   UNL A   1      45.632  25.507  28.844  1.00  0.00     0.031 A 
BRANCH  49  63
ATOM     63  C   UNL A   1      42.213  21.760  26.770  1.00  0.00    -0.014 A 
ATOM     64  C   UNL A   1      41.122  20.858  26.703  1.00  0.00     0.009 A 
ATOM     65  C   UNL A   1      43.405  21.368  26.155  1.00  0.00     0.009 A 
ATOM     66  C   UNL A   1      41.258  19.571  26.182  1.00  0.00     0.001 A 
ATOM     67  C   UNL A   1      43.530  20.089  25.592  1.00  0.00     0.001 A 
ATOM     68  C   UNL A   1      42.475  19.179  25.644  1.00  0.00     0.000 A 
ENDBRANCH  49  63
BRANCH  50  69
ATOM     69  C   UNL A   1      45.670  30.075  32.132  1.00  0.00    -0.014 A 
ATOM     70  C   UNL A   1      46.315  31.265  31.794  1.00  0.00     0.009 A 
ATOM     71  C   UNL A   1      45.641  29.772  33.525  1.00  0.00     0.009 A 
ATOM     72  C   UNL A   1      46.803  32.136  32.795  1.00  0.00     0.001 A 
ATOM     73  C   UNL A   1      46.073  30.650  34.520  1.00  0.00     0.001 A 
ATOM     74  C   UNL A   1      46.646  31.850  34.151  1.00  0.00     0.000 A 
ENDBRANCH  50  69
BRANCH  62  75
ATOM     75  C   UNL A   1      45.549  26.253  27.514  1.00  0.00    -0.014 A 
ATOM     76  C   UNL A   1      44.307  26.729  27.057  1.00  0.00     0.009 A 
ATOM     77  C   UNL A   1      46.640  26.379  26.635  1.00  0.00     0.009 A 
ATOM     78  C   UNL A   1      44.154  27.268  25.772  1.00  0.00     0.001 A 
ATOM     79  C   UNL A   1      46.493  26.925  25.349  1.00  0.00     0.001 A 
ATOM     80  C   UNL A   1      45.246  27.362  24.915  1.00  0.00     0.000 A 
ENDBRANCH  62  75
ENDBRANCH  36  37
ENDBRANCH  28  31
ENDBRANCH  26  27
ENDBRANCH  25  26
ENDBRANCH  24  25
ENDBRANCH   3  24
TORSDOF 15
ENDMDL
