MODEL 1
REMARK VINA RESULT:     -10.3      0.000      0.000
REMARK SMILES CC(C)C[C@H](CNC(=O)N[C@@H](C)c1nccs1)C(=O)NCCCNC(=O)c1ccc(-c2c3nc(c(-c4ccccc4)c4ccc([nH]4)c(-c4ccccc4)c4nc(c(-c5ccccc5)c5ccc2[nH]5)C=C4)C=C3)cc1
REMARK SMILES IDX 21 1 20 2 18 3 19 4 5 6 4 7 2 8 1 9 3 10 6 11 7 12 8 13 9 15
REMARK SMILES IDX 10 16 11 18 12 19 13 20 14 21 17 22 15 23 16 24 22 25 23 26
REMARK SMILES IDX 24 27 25 28 26 30 27 31 28 32 74 33 29 34 73 35 30 36 31 37
REMARK SMILES IDX 32 38 67 39 33 40 72 41 66 42 68 43 34 44 71 45 65 46 64 47
REMARK SMILES IDX 35 49 57 50 42 51 56 52 43 53 46 54 55 55 69 56 44 57 45 58
REMARK SMILES IDX 54 60 70 61 47 62 36 63 37 64 41 65 38 66 40 67 39 68 58 69
REMARK SMILES IDX 59 70 63 71 60 72 62 73 61 74 48 75 49 76 53 77 50 78 52 79
REMARK SMILES IDX 51 80
REMARK H PARENT 20 5 7 14 10 17 24 29 68 48 46 59
REMARK Flexibility Score: inf
ROOT
ATOM      1  C   UNL A   1      33.536  27.013  25.032  1.00  0.00     0.117 C 
ENDROOT
BRANCH   1   2
ATOM      2  N   UNL A   1      33.570  26.800  23.598  1.00  0.00    -0.356 N 
ATOM      3  C   UNL A   1      33.599  25.642  22.896  1.00  0.00     0.224 C 
ATOM      4  O   UNL A   1      33.683  25.718  21.668  1.00  0.00    -0.275 OA
ATOM      5  H   UNL A   1      33.571  27.620  23.054  1.00  0.00     0.163 HD
BRANCH   3   6
ATOM      6  C   UNL A   1      33.591  24.291  23.592  1.00  0.00     0.098 C 
BRANCH   6   7
ATOM      7  C   UNL A   1      34.720  23.298  23.209  1.00  0.00     0.018 C 
BRANCH   7   8
ATOM      8  C   UNL A   1      36.051  23.356  24.012  1.00  0.00    -0.017 C 
ATOM      9  C   UNL A   1      35.937  23.984  25.400  1.00  0.00     0.007 C 
ATOM     10  C   UNL A   1      36.680  21.963  24.122  1.00  0.00     0.007 C 
ENDBRANCH   7   8
ENDBRANCH   6   7
BRANCH   6  11
ATOM     11  C   UNL A   1      32.124  23.784  23.630  1.00  0.00     0.131 C 
BRANCH  11  12
ATOM     12  N   UNL A   1      31.407  23.862  24.899  1.00  0.00    -0.337 N 
ATOM     13  C   UNL A   1      31.026  23.026  25.866  1.00  0.00     0.315 C 
ATOM     14  H   UNL A   1      31.128  24.786  25.096  1.00  0.00     0.165 HD
ATOM     15  O   UNL A   1      30.150  23.417  26.641  1.00  0.00    -0.249 OA
ATOM     16  N   UNL A   1      31.528  21.806  26.041  1.00  0.00    -0.329 N 
ATOM     17  H   UNL A   1      30.943  21.193  26.541  1.00  0.00     0.166 HD
BRANCH  16  18
ATOM     18  C   UNL A   1      32.788  21.225  25.619  1.00  0.00     0.140 C 
ATOM     19  C   UNL A   1      33.779  21.176  26.774  1.00  0.00     0.039 C 
BRANCH  18  20
ATOM     20  C   UNL A   1      32.584  19.895  24.944  1.00  0.00     0.115 A 
ATOM     21  N   UNL A   1      32.520  18.764  25.621  1.00  0.00    -0.247 NA
ATOM     22  S   UNL A   1      32.502  19.724  23.232  1.00  0.00    -0.125 S 
ATOM     23  C   UNL A   1      32.469  17.697  24.753  1.00  0.00     0.123 A 
ATOM     24  C   UNL A   1      32.475  18.020  23.415  1.00  0.00     0.087 A 
ENDBRANCH  18  20
ENDBRANCH  16  18
ENDBRANCH  11  12
ENDBRANCH   6  11
ENDBRANCH   3   6
ENDBRANCH   1   2
BRANCH   1  25
ATOM     25  C   UNL A   1      33.748  28.472  25.369  1.00  0.00     0.042 C 
BRANCH  25  26
ATOM     26  C   UNL A   1      33.942  28.688  26.854  1.00  0.00     0.118 C 
BRANCH  26  27
ATOM     27  N   UNL A   1      33.736  30.076  27.241  1.00  0.00    -0.352 N 
ATOM     28  C   UNL A   1      34.503  30.876  28.048  1.00  0.00     0.251 C 
ATOM     29  H   UNL A   1      32.930  30.502  26.869  1.00  0.00     0.163 HD
ATOM     30  O   UNL A   1      34.063  31.941  28.461  1.00  0.00    -0.269 OA
BRANCH  28  31
ATOM     31  C   UNL A   1      35.859  30.431  28.419  1.00  0.00     0.039 A 
ATOM     32  C   UNL A   1      36.055  29.791  29.642  1.00  0.00     0.014 A 
ATOM     33  C   UNL A   1      36.932  30.638  27.549  1.00  0.00     0.014 A 
ATOM     34  C   UNL A   1      37.326  29.317  29.966  1.00  0.00     0.010 A 
ATOM     35  C   UNL A   1      38.154  30.042  27.807  1.00  0.00     0.010 A 
ATOM     36  C   UNL A   1      38.376  29.414  29.037  1.00  0.00    -0.014 A 
BRANCH  36  37
ATOM     37  C   UNL A   1      39.734  28.918  29.355  1.00  0.00     0.031 A 
ATOM     38  C   UNL A   1      40.671  29.777  30.162  1.00  0.00     0.074 A 
ATOM     39  C   UNL A   1      40.133  27.721  28.887  1.00  0.00     0.049 A 
ATOM     40  N   UNL A   1      41.903  29.533  30.532  1.00  0.00    -0.248 NA
ATOM     41  C   UNL A   1      40.175  31.101  30.580  1.00  0.00     0.031 C 
ATOM     42  C   UNL A   1      39.332  26.824  28.050  1.00  0.00     0.029 A 
ATOM     43  N   UNL A   1      41.314  27.048  29.057  1.00  0.00    -0.354 N 
ATOM     44  C   UNL A   1      42.326  30.673  31.202  1.00  0.00     0.074 A 
ATOM     45  C   UNL A   1      41.254  31.637  31.127  1.00  0.00     0.031 C 
ATOM     46  C   UNL A   1      40.026  25.698  27.823  1.00  0.00     0.029 A 
ATOM     47  C   UNL A   1      41.333  25.812  28.460  1.00  0.00     0.049 A 
ATOM     48  H   UNL A   1      42.077  27.416  29.560  1.00  0.00     0.167 HD
ATOM     49  C   UNL A   1      43.492  30.889  31.855  1.00  0.00     0.031 A 
ATOM     50  C   UNL A   1      42.298  24.875  28.433  1.00  0.00     0.031 A 
ATOM     51  C   UNL A   1      44.549  29.919  31.943  1.00  0.00     0.049 A 
ATOM     52  C   UNL A   1      43.585  25.138  29.165  1.00  0.00     0.074 A 
ATOM     53  C   UNL A   1      45.749  30.011  32.623  1.00  0.00     0.029 A 
ATOM     54  N   UNL A   1      44.527  28.677  31.328  1.00  0.00    -0.354 N 
ATOM     55  N   UNL A   1      43.943  26.193  29.858  1.00  0.00    -0.248 NA
ATOM     56  C   UNL A   1      44.593  24.072  29.124  1.00  0.00     0.031 C 
ATOM     57  C   UNL A   1      46.480  28.846  32.373  1.00  0.00     0.029 A 
ATOM     58  C   UNL A   1      45.705  28.001  31.594  1.00  0.00     0.049 A 
ATOM     59  H   UNL A   1      43.785  28.328  30.783  1.00  0.00     0.167 HD
ATOM     60  C   UNL A   1      45.203  25.903  30.363  1.00  0.00     0.074 A 
ATOM     61  C   UNL A   1      45.536  24.568  29.913  1.00  0.00     0.031 C 
ATOM     62  C   UNL A   1      46.015  26.672  31.132  1.00  0.00     0.031 A 
BRANCH  49  63
ATOM     63  C   UNL A   1      43.676  32.227  32.519  1.00  0.00    -0.014 A 
ATOM     64  C   UNL A   1      43.288  32.442  33.851  1.00  0.00     0.009 A 
ATOM     65  C   UNL A   1      44.263  33.284  31.806  1.00  0.00     0.009 A 
ATOM     66  C   UNL A   1      43.445  33.698  34.442  1.00  0.00     0.001 A 
ATOM     67  C   UNL A   1      44.451  34.529  32.411  1.00  0.00     0.001 A 
ATOM     68  C   UNL A   1      44.032  34.738  33.724  1.00  0.00     0.000 A 
ENDBRANCH  49  63
BRANCH  50  69
ATOM     69  C   UNL A   1      42.075  23.591  27.718  1.00  0.00    -0.014 A 
ATOM     70  C   UNL A   1      41.460  22.509  28.365  1.00  0.00     0.009 A 
ATOM     71  C   UNL A   1      42.483  23.438  26.382  1.00  0.00     0.009 A 
ATOM     72  C   UNL A   1      41.290  21.290  27.705  1.00  0.00     0.001 A 
ATOM     73  C   UNL A   1      42.282  22.229  25.714  1.00  0.00     0.001 A 
ATOM     74  C   UNL A   1      41.697  21.153  26.379  1.00  0.00     0.000 A 
ENDBRANCH  50  69
BRANCH  62  75
ATOM     75  C   UNL A   1      47.319  26.063  31.567  1.00  0.00    -0.014 A 
ATOM     76  C   UNL A   1      47.461  25.452  32.823  1.00  0.00     0.009 A 
ATOM     77  C   UNL A   1      48.417  26.083  30.692  1.00  0.00     0.009 A 
ATOM     78  C   UNL A   1      48.691  24.918  33.211  1.00  0.00     0.001 A 
ATOM     79  C   UNL A   1      49.633  25.515  31.069  1.00  0.00     0.001 A 
ATOM     80  C   UNL A   1      49.774  24.946  32.332  1.00  0.00     0.000 A 
ENDBRANCH  62  75
ENDBRANCH  36  37
ENDBRANCH  28  31
ENDBRANCH  26  27
ENDBRANCH  25  26
ENDBRANCH   1  25
TORSDOF 16
ENDMDL
MODEL 2
REMARK VINA RESULT:     -10.3      0.943      6.029
REMARK SMILES CC(C)C[C@H](CNC(=O)N[C@@H](C)c1nccs1)C(=O)NCCCNC(=O)c1ccc(-c2c3nc(c(-c4ccccc4)c4ccc([nH]4)c(-c4ccccc4)c4nc(c(-c5ccccc5)c5ccc2[nH]5)C=C4)C=C3)cc1
REMARK SMILES IDX 21 1 20 2 18 3 19 4 5 6 4 7 2 8 1 9 3 10 6 11 7 12 8 13 9 15
REMARK SMILES IDX 10 16 11 18 12 19 13 20 14 21 17 22 15 23 16 24 22 25 23 26
REMARK SMILES IDX 24 27 25 28 26 30 27 31 28 32 74 33 29 34 73 35 30 36 31 37
REMARK SMILES IDX 32 38 67 39 33 40 72 41 66 42 68 43 34 44 71 45 65 46 64 47
REMARK SMILES IDX 35 49 57 50 42 51 56 52 43 53 46 54 55 55 69 56 44 57 45 58
REMARK SMILES IDX 54 60 70 61 47 62 36 63 37 64 41 65 38 66 40 67 39 68 58 69
REMARK SMILES IDX 59 70 63 71 60 72 62 73 61 74 48 75 49 76 53 77 50 78 52 79
REMARK SMILES IDX 51 80
REMARK H PARENT 20 5 7 14 10 17 24 29 68 48 46 59
REMARK Flexibility Score: inf
ROOT
ATOM      1  C   UNL A   1      33.527  26.943  25.323  1.00  0.00     0.117 C 
ENDROOT
BRANCH   1   2
ATOM      2  N   UNL A   1      33.625  26.806  23.883  1.00  0.00    -0.356 N 
ATOM      3  C   UNL A   1      33.728  25.687  23.125  1.00  0.00     0.224 C 
ATOM      4  O   UNL A   1      33.857  25.830  21.907  1.00  0.00    -0.275 OA
ATOM      5  H   UNL A   1      33.615  27.653  23.381  1.00  0.00     0.163 HD
BRANCH   3   6
ATOM      6  C   UNL A   1      33.745  24.303  23.752  1.00  0.00     0.098 C 
BRANCH   6   7
ATOM      7  C   UNL A   1      34.920  23.370  23.358  1.00  0.00     0.018 C 
BRANCH   7   8
ATOM      8  C   UNL A   1      36.230  23.448  24.192  1.00  0.00    -0.017 C 
ATOM      9  C   UNL A   1      36.063  24.020  25.598  1.00  0.00     0.007 C 
ATOM     10  C   UNL A   1      36.910  22.077  24.266  1.00  0.00     0.007 C 
ENDBRANCH   7   8
ENDBRANCH   6   7
BRANCH   6  11
ATOM     11  C   UNL A   1      32.296  23.746  23.716  1.00  0.00     0.131 C 
BRANCH  11  12
ATOM     12  N   UNL A   1      31.550  23.701  24.970  1.00  0.00    -0.337 N 
ATOM     13  C   UNL A   1      31.109  22.772  25.819  1.00  0.00     0.315 C 
ATOM     14  H   UNL A   1      31.304  24.606  25.271  1.00  0.00     0.165 HD
ATOM     15  O   UNL A   1      30.230  23.105  26.618  1.00  0.00    -0.249 OA
ATOM     16  N   UNL A   1      31.556  21.519  25.854  1.00  0.00    -0.329 N 
ATOM     17  H   UNL A   1      30.933  20.876  26.264  1.00  0.00     0.166 HD
BRANCH  16  18
ATOM     18  C   UNL A   1      32.801  20.938  25.391  1.00  0.00     0.140 C 
ATOM     19  C   UNL A   1      33.917  21.165  26.402  1.00  0.00     0.039 C 
BRANCH  18  20
ATOM     20  C   UNL A   1      32.626  19.494  25.003  1.00  0.00     0.115 A 
ATOM     21  N   UNL A   1      32.580  18.525  25.897  1.00  0.00    -0.247 NA
ATOM     22  S   UNL A   1      32.558  18.975  23.361  1.00  0.00    -0.125 S 
ATOM     23  C   UNL A   1      32.553  17.302  25.266  1.00  0.00     0.123 A 
ATOM     24  C   UNL A   1      32.562  17.345  23.890  1.00  0.00     0.087 A 
ENDBRANCH  18  20
ENDBRANCH  16  18
ENDBRANCH  11  12
ENDBRANCH   6  11
ENDBRANCH   3   6
ENDBRANCH   1   2
BRANCH   1  25
ATOM     25  C   UNL A   1      33.532  28.399  25.731  1.00  0.00     0.042 C 
BRANCH  25  26
ATOM     26  C   UNL A   1      33.653  28.568  27.229  1.00  0.00     0.118 C 
BRANCH  26  27
ATOM     27  N   UNL A   1      33.616  29.966  27.632  1.00  0.00    -0.352 N 
ATOM     28  C   UNL A   1      34.556  30.703  28.304  1.00  0.00     0.251 C 
ATOM     29  H   UNL A   1      32.796  30.453  27.386  1.00  0.00     0.163 HD
ATOM     30  O   UNL A   1      34.268  31.796  28.772  1.00  0.00    -0.269 OA
BRANCH  28  31
ATOM     31  C   UNL A   1      35.917  30.155  28.464  1.00  0.00     0.039 A 
ATOM     32  C   UNL A   1      36.799  30.197  27.385  1.00  0.00     0.014 A 
ATOM     33  C   UNL A   1      36.319  29.613  29.687  1.00  0.00     0.014 A 
ATOM     34  C   UNL A   1      38.104  29.735  27.555  1.00  0.00     0.010 A 
ATOM     35  C   UNL A   1      37.649  29.291  29.894  1.00  0.00     0.010 A 
ATOM     36  C   UNL A   1      38.545  29.306  28.819  1.00  0.00    -0.014 A 
BRANCH  36  37
ATOM     37  C   UNL A   1      39.924  28.812  29.026  1.00  0.00     0.031 A 
ATOM     38  C   UNL A   1      40.271  27.394  28.655  1.00  0.00     0.074 A 
ATOM     39  C   UNL A   1      40.845  29.621  29.581  1.00  0.00     0.049 A 
ATOM     40  N   UNL A   1      41.414  26.767  28.774  1.00  0.00    -0.248 NA
ATOM     41  C   UNL A   1      39.186  26.558  28.113  1.00  0.00     0.031 C 
ATOM     42  C   UNL A   1      40.611  30.995  30.031  1.00  0.00     0.029 A 
ATOM     43  N   UNL A   1      42.170  29.404  29.855  1.00  0.00    -0.354 N 
ATOM     44  C   UNL A   1      41.175  25.469  28.342  1.00  0.00     0.074 A 
ATOM     45  C   UNL A   1      39.769  25.373  28.029  1.00  0.00     0.031 C 
ATOM     46  C   UNL A   1      41.766  31.515  30.476  1.00  0.00     0.029 A 
ATOM     47  C   UNL A   1      42.808  30.499  30.384  1.00  0.00     0.049 A 
ATOM     48  H   UNL A   1      42.622  28.545  29.687  1.00  0.00     0.167 HD
ATOM     49  C   UNL A   1      42.055  24.452  28.185  1.00  0.00     0.031 A 
ATOM     50  C   UNL A   1      44.092  30.662  30.751  1.00  0.00     0.031 A 
ATOM     51  C   UNL A   1      43.457  24.558  28.479  1.00  0.00     0.049 A 
ATOM     52  C   UNL A   1      45.050  29.518  30.568  1.00  0.00     0.074 A 
ATOM     53  C   UNL A   1      44.448  23.609  28.307  1.00  0.00     0.029 A 
ATOM     54  N   UNL A   1      44.065  25.685  29.010  1.00  0.00    -0.354 N 
ATOM     55  N   UNL A   1      44.825  28.318  30.088  1.00  0.00    -0.248 NA
ATOM     56  C   UNL A   1      46.444  29.760  30.961  1.00  0.00     0.031 C 
ATOM     57  C   UNL A   1      45.648  24.143  28.787  1.00  0.00     0.029 A 
ATOM     58  C   UNL A   1      45.416  25.448  29.193  1.00  0.00     0.049 A 
ATOM     59  H   UNL A   1      43.604  26.528  29.224  1.00  0.00     0.167 HD
ATOM     60  C   UNL A   1      46.055  27.673  30.090  1.00  0.00     0.074 A 
ATOM     61  C   UNL A   1      47.022  28.623  30.600  1.00  0.00     0.031 C 
ATOM     62  C   UNL A   1      46.359  26.409  29.706  1.00  0.00     0.031 A 
BRANCH  49  63
ATOM     63  C   UNL A   1      41.516  23.143  27.673  1.00  0.00    -0.014 A 
ATOM     64  C   UNL A   1      41.735  21.941  28.366  1.00  0.00     0.009 A 
ATOM     65  C   UNL A   1      40.763  23.113  26.489  1.00  0.00     0.009 A 
ATOM     66  C   UNL A   1      41.249  20.733  27.863  1.00  0.00     0.001 A 
ATOM     67  C   UNL A   1      40.248  21.909  26.006  1.00  0.00     0.001 A 
ATOM     68  C   UNL A   1      40.500  20.719  26.687  1.00  0.00     0.000 A 
ENDBRANCH  49  63
BRANCH  50  69
ATOM     69  C   UNL A   1      44.554  31.965  31.298  1.00  0.00    -0.014 A 
ATOM     70  C   UNL A   1      44.432  32.251  32.666  1.00  0.00     0.009 A 
ATOM     71  C   UNL A   1      45.113  32.936  30.451  1.00  0.00     0.009 A 
ATOM     72  C   UNL A   1      44.826  33.491  33.171  1.00  0.00     0.001 A 
ATOM     73  C   UNL A   1      45.537  34.164  30.964  1.00  0.00     0.001 A 
ATOM     74  C   UNL A   1      45.382  34.445  32.320  1.00  0.00     0.000 A 
ENDBRANCH  50  69
BRANCH  62  75
ATOM     75  C   UNL A   1      47.805  26.003  29.781  1.00  0.00    -0.014 A 
ATOM     76  C   UNL A   1      48.609  25.931  28.633  1.00  0.00     0.009 A 
ATOM     77  C   UNL A   1      48.375  25.710  31.031  1.00  0.00     0.009 A 
ATOM     78  C   UNL A   1      49.941  25.525  28.730  1.00  0.00     0.001 A 
ATOM     79  C   UNL A   1      49.717  25.341  31.128  1.00  0.00     0.001 A 
ATOM     80  C   UNL A   1      50.494  25.235  29.978  1.00  0.00     0.000 A 
ENDBRANCH  62  75
ENDBRANCH  36  37
ENDBRANCH  28  31
ENDBRANCH  26  27
ENDBRANCH  25  26
ENDBRANCH   1  25
TORSDOF 16
ENDMDL
MODEL 3
REMARK VINA RESULT:     -10.3      2.388      7.269
REMARK SMILES CC(C)C[C@H](CNC(=O)N[C@@H](C)c1nccs1)C(=O)NCCCNC(=O)c1ccc(-c2c3nc(c(-c4ccccc4)c4ccc([nH]4)c(-c4ccccc4)c4nc(c(-c5ccccc5)c5ccc2[nH]5)C=C4)C=C3)cc1
REMARK SMILES IDX 21 1 20 2 18 3 19 4 5 6 4 7 2 8 1 9 3 10 6 11 7 12 8 13 9 15
REMARK SMILES IDX 10 16 11 18 12 19 13 20 14 21 17 22 15 23 16 24 22 25 23 26
REMARK SMILES IDX 24 27 25 28 26 30 27 31 28 32 74 33 29 34 73 35 30 36 31 37
REMARK SMILES IDX 32 38 67 39 33 40 72 41 66 42 68 43 34 44 71 45 65 46 64 47
REMARK SMILES IDX 35 49 57 50 42 51 56 52 43 53 46 54 55 55 69 56 44 57 45 58
REMARK SMILES IDX 54 60 70 61 47 62 36 63 37 64 41 65 38 66 40 67 39 68 58 69
REMARK SMILES IDX 59 70 63 71 60 72 62 73 61 74 48 75 49 76 53 77 50 78 52 79
REMARK SMILES IDX 51 80
REMARK H PARENT 20 5 7 14 10 17 24 29 68 48 46 59
REMARK Flexibility Score: inf
ROOT
ATOM      1  C   UNL A   1      35.899  20.581  25.237  1.00  0.00     0.117 C 
ENDROOT
BRANCH   1   2
ATOM      2  N   UNL A   1      34.677  19.802  25.188  1.00  0.00    -0.356 N 
ATOM      3  C   UNL A   1      33.396  20.211  25.023  1.00  0.00     0.224 C 
ATOM      4  O   UNL A   1      32.510  19.355  25.073  1.00  0.00    -0.275 OA
ATOM      5  H   UNL A   1      34.797  18.830  25.287  1.00  0.00     0.163 HD
BRANCH   3   6
ATOM      6  C   UNL A   1      33.049  21.680  24.844  1.00  0.00     0.098 C 
BRANCH   6   7
ATOM      7  C   UNL A   1      33.903  22.482  23.826  1.00  0.00     0.018 C 
BRANCH   7   8
ATOM      8  C   UNL A   1      34.346  23.922  24.215  1.00  0.00    -0.017 C 
ATOM      9  C   UNL A   1      35.796  24.044  24.678  1.00  0.00     0.007 C 
ATOM     10  C   UNL A   1      34.083  24.900  23.065  1.00  0.00     0.007 C 
ENDBRANCH   7   8
ENDBRANCH   6   7
BRANCH   6  11
ATOM     11  C   UNL A   1      32.792  22.283  26.250  1.00  0.00     0.131 C 
BRANCH  11  12
ATOM     12  N   UNL A   1      31.418  22.302  26.744  1.00  0.00    -0.337 N 
ATOM     13  C   UNL A   1      30.463  23.207  26.958  1.00  0.00     0.315 C 
ATOM     14  H   UNL A   1      31.113  21.398  26.987  1.00  0.00     0.165 HD
ATOM     15  O   UNL A   1      29.526  22.882  27.692  1.00  0.00    -0.249 OA
ATOM     16  N   UNL A   1      30.461  24.431  26.434  1.00  0.00    -0.329 N 
ATOM     17  H   UNL A   1      29.914  25.084  26.927  1.00  0.00     0.166 HD
BRANCH  16  18
ATOM     18  C   UNL A   1      31.127  24.966  25.263  1.00  0.00     0.140 C 
ATOM     19  C   UNL A   1      30.505  24.420  23.984  1.00  0.00     0.039 C 
BRANCH  18  20
ATOM     20  C   UNL A   1      31.194  26.470  25.304  1.00  0.00     0.115 A 
ATOM     21  N   UNL A   1      30.828  27.219  24.282  1.00  0.00    -0.247 NA
ATOM     22  S   UNL A   1      31.832  27.335  26.651  1.00  0.00    -0.125 S 
ATOM     23  C   UNL A   1      31.119  28.541  24.538  1.00  0.00     0.123 A 
ATOM     24  C   UNL A   1      31.692  28.794  25.764  1.00  0.00     0.087 A 
ENDBRANCH  18  20
ENDBRANCH  16  18
ENDBRANCH  11  12
ENDBRANCH   6  11
ENDBRANCH   3   6
ENDBRANCH   1   2
BRANCH   1  25
ATOM     25  C   UNL A   1      37.106  19.717  24.947  1.00  0.00     0.042 C 
BRANCH  25  26
ATOM     26  C   UNL A   1      38.395  20.380  25.378  1.00  0.00     0.118 C 
BRANCH  26  27
ATOM     27  N   UNL A   1      39.455  19.415  25.629  1.00  0.00    -0.352 N 
ATOM     28  C   UNL A   1      40.744  19.628  26.044  1.00  0.00     0.251 C 
ATOM     29  H   UNL A   1      39.211  18.473  25.479  1.00  0.00     0.163 HD
ATOM     30  O   UNL A   1      41.573  18.730  25.976  1.00  0.00    -0.269 OA
BRANCH  28  31
ATOM     31  C   UNL A   1      41.121  20.956  26.563  1.00  0.00     0.039 A 
ATOM     32  C   UNL A   1      41.056  21.195  27.936  1.00  0.00     0.014 A 
ATOM     33  C   UNL A   1      41.551  21.958  25.690  1.00  0.00     0.014 A 
ATOM     34  C   UNL A   1      41.470  22.430  28.431  1.00  0.00     0.010 A 
ATOM     35  C   UNL A   1      42.095  23.126  26.196  1.00  0.00     0.010 A 
ATOM     36  C   UNL A   1      42.019  23.393  27.568  1.00  0.00    -0.014 A 
BRANCH  36  37
ATOM     37  C   UNL A   1      42.468  24.711  28.069  1.00  0.00     0.031 A 
ATOM     38  C   UNL A   1      41.457  25.806  28.292  1.00  0.00     0.074 A 
ATOM     39  C   UNL A   1      43.777  24.933  28.282  1.00  0.00     0.049 A 
ATOM     40  N   UNL A   1      41.648  27.031  28.709  1.00  0.00    -0.248 NA
ATOM     41  C   UNL A   1      40.052  25.497  27.972  1.00  0.00     0.031 C 
ATOM     42  C   UNL A   1      44.854  23.967  28.049  1.00  0.00     0.029 A 
ATOM     43  N   UNL A   1      44.426  26.045  28.752  1.00  0.00    -0.354 N 
ATOM     44  C   UNL A   1      40.398  27.636  28.681  1.00  0.00     0.074 A 
ATOM     45  C   UNL A   1      39.469  26.673  28.138  1.00  0.00     0.031 C 
ATOM     46  C   UNL A   1      46.022  24.510  28.426  1.00  0.00     0.029 A 
ATOM     47  C   UNL A   1      45.783  25.874  28.883  1.00  0.00     0.049 A 
ATOM     48  H   UNL A   1      43.964  26.886  28.975  1.00  0.00     0.167 HD
ATOM     49  C   UNL A   1      40.044  28.872  29.101  1.00  0.00     0.031 A 
ATOM     50  C   UNL A   1      46.725  26.725  29.327  1.00  0.00     0.031 A 
ATOM     51  C   UNL A   1      40.969  29.821  29.658  1.00  0.00     0.049 A 
ATOM     52  C   UNL A   1      46.308  28.094  29.788  1.00  0.00     0.074 A 
ATOM     53  C   UNL A   1      40.711  31.080  30.166  1.00  0.00     0.029 A 
ATOM     54  N   UNL A   1      42.334  29.608  29.778  1.00  0.00    -0.354 N 
ATOM     55  N   UNL A   1      45.109  28.626  29.825  1.00  0.00    -0.248 NA
ATOM     56  C   UNL A   1      47.374  28.972  30.287  1.00  0.00     0.031 C 
ATOM     57  C   UNL A   1      41.929  31.654  30.542  1.00  0.00     0.029 A 
ATOM     58  C   UNL A   1      42.936  30.725  30.332  1.00  0.00     0.049 A 
ATOM     59  H   UNL A   1      42.804  28.786  29.510  1.00  0.00     0.167 HD
ATOM     60  C   UNL A   1      45.273  29.888  30.381  1.00  0.00     0.074 A 
ATOM     61  C   UNL A   1      46.682  30.030  30.683  1.00  0.00     0.031 C 
ATOM     62  C   UNL A   1      44.342  30.844  30.621  1.00  0.00     0.031 A 
BRANCH  49  63
ATOM     63  C   UNL A   1      38.596  29.261  28.970  1.00  0.00    -0.014 A 
ATOM     64  C   UNL A   1      37.702  29.129  30.045  1.00  0.00     0.009 A 
ATOM     65  C   UNL A   1      38.122  29.784  27.757  1.00  0.00     0.009 A 
ATOM     66  C   UNL A   1      36.357  29.471  29.896  1.00  0.00     0.001 A 
ATOM     67  C   UNL A   1      36.784  30.159  27.621  1.00  0.00     0.001 A 
ATOM     68  C   UNL A   1      35.900  29.993  28.687  1.00  0.00     0.000 A 
ENDBRANCH  49  63
BRANCH  50  69
ATOM     69  C   UNL A   1      48.148  26.299  29.387  1.00  0.00    -0.014 A 
ATOM     70  C   UNL A   1      48.669  25.707  30.547  1.00  0.00     0.009 A 
ATOM     71  C   UNL A   1      48.998  26.490  28.285  1.00  0.00     0.009 A 
ATOM     72  C   UNL A   1      50.017  25.346  30.617  1.00  0.00     0.001 A 
ATOM     73  C   UNL A   1      50.337  26.099  28.346  1.00  0.00     0.001 A 
ATOM     74  C   UNL A   1      50.848  25.539  29.515  1.00  0.00     0.000 A 
ENDBRANCH  50  69
BRANCH  62  75
ATOM     75  C   UNL A   1      44.818  32.108  31.283  1.00  0.00    -0.014 A 
ATOM     76  C   UNL A   1      44.860  32.235  32.680  1.00  0.00     0.009 A 
ATOM     77  C   UNL A   1      45.254  33.181  30.488  1.00  0.00     0.009 A 
ATOM     78  C   UNL A   1      45.282  33.430  33.266  1.00  0.00     0.001 A 
ATOM     79  C   UNL A   1      45.710  34.360  31.078  1.00  0.00     0.001 A 
ATOM     80  C   UNL A   1      45.710  34.489  32.465  1.00  0.00     0.000 A 
ENDBRANCH  62  75
ENDBRANCH  36  37
ENDBRANCH  28  31
ENDBRANCH  26  27
ENDBRANCH  25  26
ENDBRANCH   1  25
TORSDOF 16
ENDMDL
