MODEL 1
REMARK VINA RESULT:     -12.2      0.000      0.000
REMARK SMILES O=C(C[C@H]1C(=O)N[NH+]=C2c3ccc(F)cc3N=CN21)NCCCNC(=O)c1ccc(-c2c3nc(c(-c4ccccc4)c4ccc([nH]4)c(-c4ccccc4)c4nc(c(-c5ccccc5)c5ccc2[nH]5)C=C4)C=C3)cc1
REMARK SMILES IDX 22 1 21 2 20 3 1 4 2 5 3 7 4 8 5 9 19 10 6 11 7 12 9 13
REMARK SMILES IDX 18 14 8 15 10 17 17 18 11 20 16 21 12 22 15 23 13 24 14 25
REMARK SMILES IDX 23 26 24 27 25 28 26 30 27 31 28 32 74 33 29 34 73 35 30 36
REMARK SMILES IDX 31 37 32 38 67 39 33 40 72 41 66 42 68 43 34 44 71 45 65 46
REMARK SMILES IDX 64 47 35 49 57 50 42 51 56 52 43 53 46 54 55 55 69 56 44 57
REMARK SMILES IDX 45 58 54 60 70 61 47 62 36 63 37 64 41 65 38 66 40 67 39 68
REMARK SMILES IDX 58 69 59 70 63 71 60 72 62 73 61 74 48 75 49 76 53 77 50 78
REMARK SMILES IDX 52 79 51 80
REMARK H PARENT 20 6 7 16 8 19 24 29 68 48 46 59
REMARK Flexibility Score: inf
ROOT
ATOM      1  C   UNL A   1      33.185  29.599  25.777  1.00  0.00     0.042 C 
ENDROOT
BRANCH   1   2
ATOM      2  C   UNL A   1      31.779  29.113  25.442  1.00  0.00     0.117 C 
BRANCH   2   3
ATOM      3  N   UNL A   1      31.755  27.700  25.118  1.00  0.00    -0.356 N 
ATOM      4  O   UNL A   1      30.866  26.965  27.110  1.00  0.00    -0.275 OA
ATOM      5  C   UNL A   1      31.293  26.738  25.984  1.00  0.00     0.224 C 
ATOM      6  H   UNL A   1      32.085  27.415  24.235  1.00  0.00     0.163 HD
BRANCH   5   7
ATOM      7  C   UNL A   1      31.341  25.334  25.429  1.00  0.00     0.160 C 
BRANCH   7   8
ATOM      8  C   UNL A   1      31.763  24.363  26.535  1.00  0.00     0.284 C 
ATOM      9  C   UNL A   1      30.598  23.398  26.755  1.00  0.00     0.300 C 
ATOM     10  N   UNL A   1      33.001  23.661  26.151  1.00  0.00    -0.203 N 
ATOM     11  O   UNL A   1      29.530  23.758  27.252  1.00  0.00    -0.267 OA
ATOM     12  N   UNL A   1      30.732  22.125  26.276  1.00  0.00    -0.193 N 
ATOM     13  C   UNL A   1      32.940  22.320  25.809  1.00  0.00     0.309 C 
ATOM     14  C   UNL A   1      34.193  24.355  26.133  1.00  0.00     0.317 C 
ATOM     15  N   UNL A   1      31.877  21.573  25.816  1.00  0.00    -0.169 N 
ATOM     16  H   UNL A   1      29.924  21.562  26.264  1.00  0.00     0.216 HD
ATOM     17  C   UNL A   1      34.242  21.686  25.441  1.00  0.00     0.092 A 
ATOM     18  N   UNL A   1      35.351  23.874  25.812  1.00  0.00    -0.216 NA
ATOM     19  H   UNL A   1      31.905  20.641  25.500  1.00  0.00     0.340 HD
ATOM     20  C   UNL A   1      34.332  20.319  25.146  1.00  0.00     0.022 A 
ATOM     21  C   UNL A   1      35.390  22.502  25.481  1.00  0.00     0.085 A 
ATOM     22  C   UNL A   1      35.582  19.754  24.903  1.00  0.00     0.040 A 
ATOM     23  C   UNL A   1      36.631  21.919  25.221  1.00  0.00     0.068 A 
ATOM     24  C   UNL A   1      36.718  20.557  24.944  1.00  0.00     0.125 A 
ATOM     25  F   UNL A   1      37.918  20.003  24.729  1.00  0.00    -0.207 F 
ENDBRANCH   7   8
ENDBRANCH   5   7
ENDBRANCH   2   3
ENDBRANCH   1   2
BRANCH   1  26
ATOM     26  C   UNL A   1      33.617  29.384  27.224  1.00  0.00     0.118 C 
BRANCH  26  27
ATOM     27  N   UNL A   1      33.745  30.608  28.000  1.00  0.00    -0.352 N 
ATOM     28  C   UNL A   1      34.824  31.077  28.720  1.00  0.00     0.251 C 
ATOM     29  H   UNL A   1      32.948  31.184  28.013  1.00  0.00     0.163 HD
ATOM     30  O   UNL A   1      34.727  32.103  29.376  1.00  0.00    -0.269 OA
BRANCH  28  31
ATOM     31  C   UNL A   1      36.089  30.305  28.738  1.00  0.00     0.039 A 
ATOM     32  C   UNL A   1      36.500  29.616  29.879  1.00  0.00     0.014 A 
ATOM     33  C   UNL A   1      36.891  30.305  27.593  1.00  0.00     0.014 A 
ATOM     34  C   UNL A   1      37.784  29.082  29.935  1.00  0.00     0.010 A 
ATOM     35  C   UNL A   1      38.150  29.699  27.625  1.00  0.00     0.010 A 
ATOM     36  C   UNL A   1      38.631  29.136  28.816  1.00  0.00    -0.014 A 
BRANCH  36  37
ATOM     37  C   UNL A   1      40.024  28.627  28.925  1.00  0.00     0.031 A 
ATOM     38  C   UNL A   1      40.351  27.204  28.554  1.00  0.00     0.074 A 
ATOM     39  C   UNL A   1      41.010  29.466  29.297  1.00  0.00     0.049 A 
ATOM     40  N   UNL A   1      41.517  26.606  28.541  1.00  0.00    -0.248 NA
ATOM     41  C   UNL A   1      39.233  26.341  28.144  1.00  0.00     0.031 C 
ATOM     42  C   UNL A   1      40.827  30.872  29.659  1.00  0.00     0.029 A 
ATOM     43  N   UNL A   1      42.364  29.267  29.401  1.00  0.00    -0.354 N 
ATOM     44  C   UNL A   1      41.270  25.299  28.137  1.00  0.00     0.074 A 
ATOM     45  C   UNL A   1      39.842  25.180  27.943  1.00  0.00     0.031 C 
ATOM     46  C   UNL A   1      42.028  31.423  29.891  1.00  0.00     0.029 A 
ATOM     47  C   UNL A   1      43.059  30.399  29.751  1.00  0.00     0.049 A 
ATOM     48  H   UNL A   1      42.797  28.397  29.240  1.00  0.00     0.167 HD
ATOM     49  C   UNL A   1      42.153  24.294  27.932  1.00  0.00     0.031 A 
ATOM     50  C   UNL A   1      44.377  30.596  29.945  1.00  0.00     0.031 A 
ATOM     51  C   UNL A   1      43.576  24.413  28.112  1.00  0.00     0.049 A 
ATOM     52  C   UNL A   1      45.330  29.452  29.762  1.00  0.00     0.074 A 
ATOM     53  C   UNL A   1      44.549  23.449  27.907  1.00  0.00     0.029 A 
ATOM     54  N   UNL A   1      44.228  25.558  28.538  1.00  0.00    -0.354 N 
ATOM     55  N   UNL A   1      45.079  28.226  29.370  1.00  0.00    -0.248 NA
ATOM     56  C   UNL A   1      46.747  29.713  30.051  1.00  0.00     0.031 C 
ATOM     57  C   UNL A   1      45.785  23.995  28.261  1.00  0.00     0.029 A 
ATOM     58  C   UNL A   1      45.588  25.317  28.627  1.00  0.00     0.049 A 
ATOM     59  H   UNL A   1      43.790  26.415  28.745  1.00  0.00     0.167 HD
ATOM     60  C   UNL A   1      46.304  27.575  29.353  1.00  0.00     0.074 A 
ATOM     61  C   UNL A   1      47.303  28.543  29.756  1.00  0.00     0.031 C 
ATOM     62  C   UNL A   1      46.574  26.286  29.035  1.00  0.00     0.031 A 
BRANCH  49  63
ATOM     63  C   UNL A   1      41.617  22.959  27.494  1.00  0.00    -0.014 A 
ATOM     64  C   UNL A   1      41.547  21.901  28.415  1.00  0.00     0.009 A 
ATOM     65  C   UNL A   1      41.271  22.719  26.156  1.00  0.00     0.009 A 
ATOM     66  C   UNL A   1      41.154  20.626  28.002  1.00  0.00     0.001 A 
ATOM     67  C   UNL A   1      40.854  21.449  25.751  1.00  0.00     0.001 A 
ATOM     68  C   UNL A   1      40.805  20.402  26.671  1.00  0.00     0.000 A 
ENDBRANCH  49  63
BRANCH  50  69
ATOM     69  C   UNL A   1      44.861  31.949  30.327  1.00  0.00    -0.014 A 
ATOM     70  C   UNL A   1      44.932  32.324  31.679  1.00  0.00     0.009 A 
ATOM     71  C   UNL A   1      45.202  32.887  29.343  1.00  0.00     0.009 A 
ATOM     72  C   UNL A   1      45.307  33.621  32.035  1.00  0.00     0.001 A 
ATOM     73  C   UNL A   1      45.604  34.176  29.704  1.00  0.00     0.001 A 
ATOM     74  C   UNL A   1      45.646  34.544  31.049  1.00  0.00     0.000 A 
ENDBRANCH  50  69
BRANCH  62  75
ATOM     75  C   UNL A   1      48.004  25.831  29.096  1.00  0.00    -0.014 A 
ATOM     76  C   UNL A   1      48.615  25.618  30.342  1.00  0.00     0.009 A 
ATOM     77  C   UNL A   1      48.776  25.715  27.930  1.00  0.00     0.009 A 
ATOM     78  C   UNL A   1      49.974  25.314  30.422  1.00  0.00     0.001 A 
ATOM     79  C   UNL A   1      50.130  25.385  28.011  1.00  0.00     0.001 A 
ATOM     80  C   UNL A   1      50.729  25.194  29.256  1.00  0.00     0.000 A 
ENDBRANCH  62  75
ENDBRANCH  36  37
ENDBRANCH  28  31
ENDBRANCH  26  27
ENDBRANCH   1  26
TORSDOF 11
ENDMDL
MODEL 2
REMARK VINA RESULT:     -12.1      2.509      7.715
REMARK SMILES O=C(C[C@H]1C(=O)N[NH+]=C2c3ccc(F)cc3N=CN21)NCCCNC(=O)c1ccc(-c2c3nc(c(-c4ccccc4)c4ccc([nH]4)c(-c4ccccc4)c4nc(c(-c5ccccc5)c5ccc2[nH]5)C=C4)C=C3)cc1
REMARK SMILES IDX 22 1 21 2 20 3 1 4 2 5 3 7 4 8 5 9 19 10 6 11 7 12 9 13
REMARK SMILES IDX 18 14 8 15 10 17 17 18 11 20 16 21 12 22 15 23 13 24 14 25
REMARK SMILES IDX 23 26 24 27 25 28 26 30 27 31 28 32 74 33 29 34 73 35 30 36
REMARK SMILES IDX 31 37 32 38 67 39 33 40 72 41 66 42 68 43 34 44 71 45 65 46
REMARK SMILES IDX 64 47 35 49 57 50 42 51 56 52 43 53 46 54 55 55 69 56 44 57
REMARK SMILES IDX 45 58 54 60 70 61 47 62 36 63 37 64 41 65 38 66 40 67 39 68
REMARK SMILES IDX 58 69 59 70 63 71 60 72 62 73 61 74 48 75 49 76 53 77 50 78
REMARK SMILES IDX 52 79 51 80
REMARK H PARENT 20 6 7 16 8 19 24 29 68 48 46 59
REMARK Flexibility Score: inf
ROOT
ATOM      1  C   UNL A   1      37.439  20.864  24.632  1.00  0.00     0.042 C 
ENDROOT
BRANCH   1   2
ATOM      2  C   UNL A   1      36.142  20.160  25.014  1.00  0.00     0.117 C 
BRANCH   2   3
ATOM      3  N   UNL A   1      35.246  21.031  25.748  1.00  0.00    -0.356 N 
ATOM      4  O   UNL A   1      33.502  20.978  24.246  1.00  0.00    -0.275 OA
ATOM      5  C   UNL A   1      33.990  21.366  25.301  1.00  0.00     0.224 C 
ATOM      6  H   UNL A   1      35.550  21.401  26.608  1.00  0.00     0.163 HD
BRANCH   5   7
ATOM      7  C   UNL A   1      33.222  22.269  26.238  1.00  0.00     0.160 C 
BRANCH   7   8
ATOM      8  C   UNL A   1      32.279  23.161  25.427  1.00  0.00     0.284 C 
ATOM      9  C   UNL A   1      30.859  22.876  25.914  1.00  0.00     0.300 C 
ATOM     10  N   UNL A   1      32.650  24.578  25.594  1.00  0.00    -0.203 N 
ATOM     11  O   UNL A   1      30.293  21.803  25.700  1.00  0.00    -0.267 OA
ATOM     12  N   UNL A   1      30.261  23.816  26.705  1.00  0.00    -0.193 N 
ATOM     13  C   UNL A   1      31.834  25.407  26.346  1.00  0.00     0.309 C 
ATOM     14  C   UNL A   1      33.805  25.049  25.004  1.00  0.00     0.317 C 
ATOM     15  N   UNL A   1      30.718  25.070  26.921  1.00  0.00    -0.169 N 
ATOM     16  H   UNL A   1      29.424  23.558  27.155  1.00  0.00     0.216 HD
ATOM     17  C   UNL A   1      32.280  26.828  26.457  1.00  0.00     0.092 A 
ATOM     18  N   UNL A   1      34.256  26.260  25.070  1.00  0.00    -0.216 NA
ATOM     19  H   UNL A   1      30.225  25.703  27.491  1.00  0.00     0.340 HD
ATOM     20  C   UNL A   1      31.508  27.787  27.127  1.00  0.00     0.022 A 
ATOM     21  C   UNL A   1      33.469  27.184  25.790  1.00  0.00     0.085 A 
ATOM     22  C   UNL A   1      31.917  29.118  27.121  1.00  0.00     0.040 A 
ATOM     23  C   UNL A   1      33.869  28.521  25.809  1.00  0.00     0.068 A 
ATOM     24  C   UNL A   1      33.090  29.473  26.462  1.00  0.00     0.125 A 
ATOM     25  F   UNL A   1      33.466  30.758  26.443  1.00  0.00    -0.207 F 
ENDBRANCH   7   8
ENDBRANCH   5   7
ENDBRANCH   2   3
ENDBRANCH   1   2
BRANCH   1  26
ATOM     26  C   UNL A   1      38.510  20.881  25.718  1.00  0.00     0.118 C 
BRANCH  26  27
ATOM     27  N   UNL A   1      39.499  19.819  25.602  1.00  0.00    -0.352 N 
ATOM     28  C   UNL A   1      40.832  19.824  25.956  1.00  0.00     0.251 C 
ATOM     29  H   UNL A   1      39.168  18.976  25.216  1.00  0.00     0.163 HD
ATOM     30  O   UNL A   1      41.535  18.854  25.719  1.00  0.00    -0.269 OA
BRANCH  28  31
ATOM     31  C   UNL A   1      41.424  21.031  26.580  1.00  0.00     0.039 A 
ATOM     32  C   UNL A   1      41.417  21.207  27.964  1.00  0.00     0.014 A 
ATOM     33  C   UNL A   1      41.964  22.019  25.751  1.00  0.00     0.014 A 
ATOM     34  C   UNL A   1      41.783  22.437  28.502  1.00  0.00     0.010 A 
ATOM     35  C   UNL A   1      42.405  23.225  26.301  1.00  0.00     0.010 A 
ATOM     36  C   UNL A   1      42.261  23.467  27.676  1.00  0.00    -0.014 A 
BRANCH  36  37
ATOM     37  C   UNL A   1      42.573  24.795  28.265  1.00  0.00     0.031 A 
ATOM     38  C   UNL A   1      43.991  25.166  28.614  1.00  0.00     0.074 A 
ATOM     39  C   UNL A   1      41.587  25.698  28.428  1.00  0.00     0.049 A 
ATOM     40  N   UNL A   1      44.452  26.297  29.088  1.00  0.00    -0.248 NA
ATOM     41  C   UNL A   1      45.026  24.142  28.401  1.00  0.00     0.031 C 
ATOM     42  C   UNL A   1      40.177  25.470  28.108  1.00  0.00     0.029 A 
ATOM     43  N   UNL A   1      41.624  26.996  28.872  1.00  0.00    -0.354 N 
ATOM     44  C   UNL A   1      45.822  26.115  29.244  1.00  0.00     0.074 A 
ATOM     45  C   UNL A   1      46.116  24.757  28.842  1.00  0.00     0.031 C 
ATOM     46  C   UNL A   1      39.494  26.607  28.312  1.00  0.00     0.029 A 
ATOM     47  C   UNL A   1      40.403  27.624  28.832  1.00  0.00     0.049 A 
ATOM     48  H   UNL A   1      42.446  27.436  29.189  1.00  0.00     0.167 HD
ATOM     49  C   UNL A   1      46.751  27.001  29.670  1.00  0.00     0.031 A 
ATOM     50  C   UNL A   1      40.046  28.876  29.178  1.00  0.00     0.031 A 
ATOM     51  C   UNL A   1      46.465  28.357  30.058  1.00  0.00     0.049 A 
ATOM     52  C   UNL A   1      41.088  29.824  29.697  1.00  0.00     0.074 A 
ATOM     53  C   UNL A   1      47.350  29.332  30.483  1.00  0.00     0.029 A 
ATOM     54  N   UNL A   1      45.202  28.927  30.070  1.00  0.00    -0.354 N 
ATOM     55  N   UNL A   1      42.379  29.636  29.827  1.00  0.00    -0.248 NA
ATOM     56  C   UNL A   1      40.626  31.154  30.119  1.00  0.00     0.031 C 
ATOM     57  C   UNL A   1      46.618  30.477  30.805  1.00  0.00     0.029 A 
ATOM     58  C   UNL A   1      45.283  30.234  30.521  1.00  0.00     0.049 A 
ATOM     59  H   UNL A   1      44.373  28.472  29.799  1.00  0.00     0.167 HD
ATOM     60  C   UNL A   1      42.885  30.825  30.334  1.00  0.00     0.074 A 
ATOM     61  C   UNL A   1      41.767  31.736  30.471  1.00  0.00     0.031 C 
ATOM     62  C   UNL A   1      44.165  31.130  30.659  1.00  0.00     0.031 A 
BRANCH  49  63
ATOM     63  C   UNL A   1      48.181  26.543  29.750  1.00  0.00    -0.014 A 
ATOM     64  C   UNL A   1      49.018  26.673  28.630  1.00  0.00     0.009 A 
ATOM     65  C   UNL A   1      48.674  25.899  30.895  1.00  0.00     0.009 A 
ATOM     66  C   UNL A   1      50.316  26.156  28.650  1.00  0.00     0.001 A 
ATOM     67  C   UNL A   1      49.980  25.405  30.922  1.00  0.00     0.001 A 
ATOM     68  C   UNL A   1      50.796  25.526  29.796  1.00  0.00     0.000 A 
ENDBRANCH  49  63
BRANCH  50  69
ATOM     69  C   UNL A   1      38.628  29.295  29.030  1.00  0.00    -0.014 A 
ATOM     70  C   UNL A   1      37.739  29.194  30.114  1.00  0.00     0.009 A 
ATOM     71  C   UNL A   1      38.144  29.746  27.794  1.00  0.00     0.009 A 
ATOM     72  C   UNL A   1      36.388  29.509  29.953  1.00  0.00     0.001 A 
ATOM     73  C   UNL A   1      36.797  30.088  27.645  1.00  0.00     0.001 A 
ATOM     74  C   UNL A   1      35.919  29.959  28.721  1.00  0.00     0.000 A 
ENDBRANCH  50  69
BRANCH  62  75
ATOM     75  C   UNL A   1      44.445  32.507  31.191  1.00  0.00    -0.014 A 
ATOM     76  C   UNL A   1      44.814  33.534  30.308  1.00  0.00     0.009 A 
ATOM     77  C   UNL A   1      44.448  32.761  32.571  1.00  0.00     0.009 A 
ATOM     78  C   UNL A   1      45.195  34.785  30.796  1.00  0.00     0.001 A 
ATOM     79  C   UNL A   1      44.805  34.021  33.055  1.00  0.00     0.001 A 
ATOM     80  C   UNL A   1      45.187  35.028  32.168  1.00  0.00     0.000 A 
ENDBRANCH  62  75
ENDBRANCH  36  37
ENDBRANCH  28  31
ENDBRANCH  26  27
ENDBRANCH   1  26
TORSDOF 11
ENDMDL
MODEL 3
REMARK VINA RESULT:     -12.0      2.484      7.458
REMARK SMILES O=C(C[C@H]1C(=O)N[NH+]=C2c3ccc(F)cc3N=CN21)NCCCNC(=O)c1ccc(-c2c3nc(c(-c4ccccc4)c4ccc([nH]4)c(-c4ccccc4)c4nc(c(-c5ccccc5)c5ccc2[nH]5)C=C4)C=C3)cc1
REMARK SMILES IDX 22 1 21 2 20 3 1 4 2 5 3 7 4 8 5 9 19 10 6 11 7 12 9 13
REMARK SMILES IDX 18 14 8 15 10 17 17 18 11 20 16 21 12 22 15 23 13 24 14 25
REMARK SMILES IDX 23 26 24 27 25 28 26 30 27 31 28 32 74 33 29 34 73 35 30 36
REMARK SMILES IDX 31 37 32 38 67 39 33 40 72 41 66 42 68 43 34 44 71 45 65 46
REMARK SMILES IDX 64 47 35 49 57 50 42 51 56 52 43 53 46 54 55 55 69 56 44 57
REMARK SMILES IDX 45 58 54 60 70 61 47 62 36 63 37 64 41 65 38 66 40 67 39 68
REMARK SMILES IDX 58 69 59 70 63 71 60 72 62 73 61 74 48 75 49 76 53 77 50 78
REMARK SMILES IDX 52 79 51 80
REMARK H PARENT 20 6 7 16 8 19 24 29 68 48 46 59
REMARK Flexibility Score: inf
ROOT
ATOM      1  C   UNL A   1      37.391  21.083  24.620  1.00  0.00     0.042 C 
ENDROOT
BRANCH   1   2
ATOM      2  C   UNL A   1      36.067  20.440  25.019  1.00  0.00     0.117 C 
BRANCH   2   3
ATOM      3  N   UNL A   1      35.197  21.371  25.710  1.00  0.00    -0.356 N 
ATOM      4  O   UNL A   1      33.256  20.149  25.511  1.00  0.00    -0.275 OA
ATOM      5  C   UNL A   1      33.855  21.144  25.903  1.00  0.00     0.224 C 
ATOM      6  H   UNL A   1      35.585  22.206  26.059  1.00  0.00     0.163 HD
BRANCH   5   7
ATOM      7  C   UNL A   1      33.148  22.238  26.667  1.00  0.00     0.160 C 
BRANCH   7   8
ATOM      8  C   UNL A   1      32.338  23.099  25.694  1.00  0.00     0.284 C 
ATOM      9  C   UNL A   1      30.861  22.860  26.003  1.00  0.00     0.300 C 
ATOM     10  N   UNL A   1      32.715  24.517  25.835  1.00  0.00    -0.203 N 
ATOM     11  O   UNL A   1      30.305  21.785  25.772  1.00  0.00    -0.267 OA
ATOM     12  N   UNL A   1      30.184  23.850  26.658  1.00  0.00    -0.193 N 
ATOM     13  C   UNL A   1      31.824  25.396  26.429  1.00  0.00     0.309 C 
ATOM     14  C   UNL A   1      33.946  24.938  25.380  1.00  0.00     0.317 C 
ATOM     15  N   UNL A   1      30.636  25.107  26.868  1.00  0.00    -0.169 N 
ATOM     16  H   UNL A   1      29.290  23.629  27.007  1.00  0.00     0.216 HD
ATOM     17  C   UNL A   1      32.282  26.815  26.524  1.00  0.00     0.092 A 
ATOM     18  N   UNL A   1      34.411  26.145  25.442  1.00  0.00    -0.216 NA
ATOM     19  H   UNL A   1      30.086  25.777  27.334  1.00  0.00     0.340 HD
ATOM     20  C   UNL A   1      31.450  27.820  27.036  1.00  0.00     0.022 A 
ATOM     21  C   UNL A   1      33.556  27.118  26.003  1.00  0.00     0.085 A 
ATOM     22  C   UNL A   1      31.884  29.143  27.016  1.00  0.00     0.040 A 
ATOM     23  C   UNL A   1      33.979  28.448  26.005  1.00  0.00     0.068 A 
ATOM     24  C   UNL A   1      33.141  29.445  26.500  1.00  0.00     0.125 A 
ATOM     25  F   UNL A   1      33.544  30.722  26.465  1.00  0.00    -0.207 F 
ENDBRANCH   7   8
ENDBRANCH   5   7
ENDBRANCH   2   3
ENDBRANCH   1   2
BRANCH   1  26
ATOM     26  C   UNL A   1      38.458  21.096  25.709  1.00  0.00     0.118 C 
BRANCH  26  27
ATOM     27  N   UNL A   1      39.383  19.972  25.657  1.00  0.00    -0.352 N 
ATOM     28  C   UNL A   1      40.714  19.919  26.011  1.00  0.00     0.251 C 
ATOM     29  H   UNL A   1      39.002  19.130  25.320  1.00  0.00     0.163 HD
ATOM     30  O   UNL A   1      41.359  18.896  25.832  1.00  0.00    -0.269 OA
BRANCH  28  31
ATOM     31  C   UNL A   1      41.378  21.123  26.565  1.00  0.00     0.039 A 
ATOM     32  C   UNL A   1      41.379  21.382  27.936  1.00  0.00     0.014 A 
ATOM     33  C   UNL A   1      41.978  22.024  25.681  1.00  0.00     0.014 A 
ATOM     34  C   UNL A   1      41.819  22.618  28.402  1.00  0.00     0.010 A 
ATOM     35  C   UNL A   1      42.491  23.233  26.160  1.00  0.00     0.010 A 
ATOM     36  C   UNL A   1      42.361  23.565  27.517  1.00  0.00    -0.014 A 
BRANCH  36  37
ATOM     37  C   UNL A   1      42.752  24.905  28.028  1.00  0.00     0.031 A 
ATOM     38  C   UNL A   1      41.712  25.970  28.263  1.00  0.00     0.074 A 
ATOM     39  C   UNL A   1      44.040  25.145  28.344  1.00  0.00     0.049 A 
ATOM     40  N   UNL A   1      41.867  27.176  28.750  1.00  0.00    -0.248 NA
ATOM     41  C   UNL A   1      40.322  25.643  27.911  1.00  0.00     0.031 C 
ATOM     42  C   UNL A   1      45.137  24.190  28.184  1.00  0.00     0.029 A 
ATOM     43  N   UNL A   1      44.636  26.253  28.893  1.00  0.00    -0.354 N 
ATOM     44  C   UNL A   1      40.603  27.753  28.749  1.00  0.00     0.074 A 
ATOM     45  C   UNL A   1      39.695  26.778  28.186  1.00  0.00     0.031 C 
ATOM     46  C   UNL A   1      46.261  24.732  28.677  1.00  0.00     0.029 A 
ATOM     47  C   UNL A   1      45.979  26.090  29.132  1.00  0.00     0.049 A 
ATOM     48  H   UNL A   1      44.149  27.084  29.095  1.00  0.00     0.167 HD
ATOM     49  C   UNL A   1      40.229  28.977  29.189  1.00  0.00     0.031 A 
ATOM     50  C   UNL A   1      46.887  26.936  29.655  1.00  0.00     0.031 A 
ATOM     51  C   UNL A   1      41.127  29.944  29.762  1.00  0.00     0.049 A 
ATOM     52  C   UNL A   1      46.457  28.307  30.087  1.00  0.00     0.074 A 
ATOM     53  C   UNL A   1      40.830  31.203  30.254  1.00  0.00     0.029 A 
ATOM     54  N   UNL A   1      42.492  29.763  29.918  1.00  0.00    -0.354 N 
ATOM     55  N   UNL A   1      45.255  28.830  30.087  1.00  0.00    -0.248 NA
ATOM     56  C   UNL A   1      47.506  29.207  30.588  1.00  0.00     0.031 C 
ATOM     57  C   UNL A   1      42.023  31.806  30.659  1.00  0.00     0.029 A 
ATOM     58  C   UNL A   1      43.054  30.899  30.476  1.00  0.00     0.049 A 
ATOM     59  H   UNL A   1      42.986  28.950  29.671  1.00  0.00     0.167 HD
ATOM     60  C   UNL A   1      45.400  30.113  30.598  1.00  0.00     0.074 A 
ATOM     61  C   UNL A   1      46.802  30.284  30.915  1.00  0.00     0.031 C 
ATOM     62  C   UNL A   1      44.452  31.063  30.783  1.00  0.00     0.031 A 
BRANCH  49  63
ATOM     63  C   UNL A   1      38.780  29.360  29.068  1.00  0.00    -0.014 A 
ATOM     64  C   UNL A   1      37.910  29.142  30.149  1.00  0.00     0.009 A 
ATOM     65  C   UNL A   1      38.256  29.847  27.861  1.00  0.00     0.009 A 
ATOM     66  C   UNL A   1      36.542  29.391  30.019  1.00  0.00     0.001 A 
ATOM     67  C   UNL A   1      36.891  30.119  27.742  1.00  0.00     0.001 A 
ATOM     68  C   UNL A   1      36.034  29.882  28.818  1.00  0.00     0.000 A 
ENDBRANCH  49  63
BRANCH  50  69
ATOM     69  C   UNL A   1      48.297  26.489  29.800  1.00  0.00    -0.014 A 
ATOM     70  C   UNL A   1      48.721  25.835  30.969  1.00  0.00     0.009 A 
ATOM     71  C   UNL A   1      49.237  26.760  28.795  1.00  0.00     0.009 A 
ATOM     72  C   UNL A   1      50.062  25.488  31.141  1.00  0.00     0.001 A 
ATOM     73  C   UNL A   1      50.573  26.385  28.959  1.00  0.00     0.001 A 
ATOM     74  C   UNL A   1      50.986  25.760  30.135  1.00  0.00     0.000 A 
ENDBRANCH  50  69
BRANCH  62  75
ATOM     75  C   UNL A   1      44.881  32.381  31.362  1.00  0.00    -0.014 A 
ATOM     76  C   UNL A   1      44.850  32.575  32.752  1.00  0.00     0.009 A 
ATOM     77  C   UNL A   1      45.213  33.461  30.530  1.00  0.00     0.009 A 
ATOM     78  C   UNL A   1      45.129  33.828  33.298  1.00  0.00     0.001 A 
ATOM     79  C   UNL A   1      45.517  34.707  31.081  1.00  0.00     0.001 A 
ATOM     80  C   UNL A   1      45.465  34.892  32.463  1.00  0.00     0.000 A 
ENDBRANCH  62  75
ENDBRANCH  36  37
ENDBRANCH  28  31
ENDBRANCH  26  27
ENDBRANCH   1  26
TORSDOF 11
ENDMDL
