MODEL 1
REMARK VINA RESULT:     -11.8      0.000      0.000
REMARK SMILES Cc1oc2ccc(NS(=O)(=O)c3ccc(C(C)C)cc3)cc2c1C(=O)NCCCNC(=O)c1ccc(-c2c3nc(c(-c4ccccc4)c4ccc([nH]4)c(-c4ccccc4)c4nc(c(-c5ccccc5)c5ccc2[nH]5)C=C4)C=C3)cc1
REMARK SMILES IDX 27 1 26 2 24 3 25 4 23 6 1 7 2 8 3 9 4 10 22 11 5 12 21 13
REMARK SMILES IDX 6 14 7 15 8 16 9 18 10 19 11 20 12 21 13 22 20 23 14 24
REMARK SMILES IDX 19 25 15 26 16 27 17 28 18 29 28 30 29 31 30 32 31 33 32 35
REMARK SMILES IDX 33 36 34 37 80 38 35 39 79 40 36 41 37 42 38 43 73 44 39 45
REMARK SMILES IDX 78 46 72 47 74 48 40 49 77 50 71 51 70 52 41 54 63 55 48 56
REMARK SMILES IDX 62 57 49 58 52 59 61 60 75 61 50 62 51 63 60 65 76 66 53 67
REMARK SMILES IDX 42 68 43 69 47 70 44 71 46 72 45 73 64 74 65 75 69 76 66 77
REMARK SMILES IDX 68 78 67 79 54 80 55 81 59 82 56 83 58 84 57 85
REMARK H PARENT 26 5 8 17 30 34 74 53 52 64
REMARK Flexibility Score: inf
ROOT
ATOM      1  C   UNL A   1      37.801  23.621  26.148  1.00  0.00     0.118 C 
ENDROOT
BRANCH   1   2
ATOM      2  N   UNL A   1      37.599  23.645  24.712  1.00  0.00    -0.352 N 
ATOM      3  C   UNL A   1      36.802  22.886  23.887  1.00  0.00     0.255 C 
ATOM      4  O   UNL A   1      36.802  23.192  22.695  1.00  0.00    -0.269 OA
ATOM      5  H   UNL A   1      38.131  24.329  24.242  1.00  0.00     0.163 HD
BRANCH   3   6
ATOM      6  C   UNL A   1      36.069  21.724  24.368  1.00  0.00     0.088 A 
ATOM      7  C   UNL A   1      37.842  19.810  24.868  1.00  0.00     0.088 C 
ATOM      8  C   UNL A   1      36.518  20.455  24.713  1.00  0.00     0.114 A 
ATOM      9  O   UNL A   1      35.464  19.639  25.007  1.00  0.00    -0.461 OA
ATOM     10  C   UNL A   1      34.339  20.398  24.980  1.00  0.00     0.135 A 
ATOM     11  C   UNL A   1      34.664  21.712  24.686  1.00  0.00     0.035 A 
ATOM     12  C   UNL A   1      33.046  19.949  25.238  1.00  0.00     0.050 A 
ATOM     13  C   UNL A   1      33.632  22.672  24.746  1.00  0.00     0.039 A 
ATOM     14  C   UNL A   1      32.025  20.914  25.211  1.00  0.00     0.030 A 
ATOM     15  C   UNL A   1      32.310  22.264  24.979  1.00  0.00     0.050 A 
BRANCH  15  16
ATOM     16  N   UNL A   1      31.269  23.248  25.095  1.00  0.00    -0.280 N 
ATOM     17  H   UNL A   1      30.682  23.424  24.324  1.00  0.00     0.180 HD
BRANCH  16  18
ATOM     18  S   UNL A   1      31.028  24.115  26.545  1.00  0.00     0.261 S 
ATOM     19  O   UNL A   1      29.609  24.322  26.691  1.00  0.00    -0.201 OA
ATOM     20  O   UNL A   1      31.765  23.377  27.559  1.00  0.00    -0.201 OA
BRANCH  18  21
ATOM     21  C   UNL A   1      31.798  25.700  26.358  1.00  0.00     0.087 A 
ATOM     22  C   UNL A   1      31.049  26.873  26.455  1.00  0.00     0.022 A 
ATOM     23  C   UNL A   1      33.171  25.759  26.106  1.00  0.00     0.022 A 
ATOM     24  C   UNL A   1      31.702  28.110  26.427  1.00  0.00     0.005 A 
ATOM     25  C   UNL A   1      33.821  26.993  26.130  1.00  0.00     0.005 A 
ATOM     26  C   UNL A   1      33.101  28.181  26.338  1.00  0.00    -0.045 A 
BRANCH  26  27
ATOM     27  C   UNL A   1      33.868  29.484  26.499  1.00  0.00     0.013 C 
ATOM     28  C   UNL A   1      32.980  30.584  27.078  1.00  0.00     0.012 C 
ATOM     29  C   UNL A   1      35.161  29.351  27.312  1.00  0.00     0.012 C 
ENDBRANCH  26  27
ENDBRANCH  18  21
ENDBRANCH  16  18
ENDBRANCH  15  16
ENDBRANCH   3   6
ENDBRANCH   1   2
BRANCH   1  30
ATOM     30  C   UNL A   1      39.255  23.633  26.608  1.00  0.00     0.042 C 
BRANCH  30  31
ATOM     31  C   UNL A   1      39.923  22.280  26.808  1.00  0.00     0.118 C 
BRANCH  31  32
ATOM     32  N   UNL A   1      41.063  22.034  25.938  1.00  0.00    -0.352 N 
ATOM     33  C   UNL A   1      42.174  22.773  25.613  1.00  0.00     0.251 C 
ATOM     34  H   UNL A   1      41.030  21.159  25.489  1.00  0.00     0.163 HD
ATOM     35  O   UNL A   1      42.945  22.319  24.767  1.00  0.00    -0.269 OA
BRANCH  33  36
ATOM     36  C   UNL A   1      42.459  24.109  26.196  1.00  0.00     0.039 A 
ATOM     37  C   UNL A   1      42.362  25.229  25.359  1.00  0.00     0.014 A 
ATOM     38  C   UNL A   1      42.868  24.291  27.517  1.00  0.00     0.014 A 
ATOM     39  C   UNL A   1      42.584  26.516  25.863  1.00  0.00     0.010 A 
ATOM     40  C   UNL A   1      42.991  25.578  28.045  1.00  0.00     0.010 A 
ATOM     41  C   UNL A   1      42.849  26.707  27.227  1.00  0.00    -0.014 A 
BRANCH  41  42
ATOM     42  C   UNL A   1      42.974  28.070  27.815  1.00  0.00     0.031 A 
ATOM     43  C   UNL A   1      44.319  28.740  27.922  1.00  0.00     0.074 A 
ATOM     44  C   UNL A   1      41.886  28.679  28.329  1.00  0.00     0.049 A 
ATOM     45  N   UNL A   1      44.633  29.876  28.494  1.00  0.00    -0.248 NA
ATOM     46  C   UNL A   1      45.466  28.028  27.337  1.00  0.00     0.031 C 
ATOM     47  C   UNL A   1      40.527  28.133  28.333  1.00  0.00     0.029 A 
ATOM     48  N   UNL A   1      41.754  29.892  28.960  1.00  0.00    -0.354 N 
ATOM     49  C   UNL A   1      46.012  29.997  28.367  1.00  0.00     0.074 A 
ATOM     50  C   UNL A   1      46.479  28.800  27.701  1.00  0.00     0.031 C 
ATOM     51  C   UNL A   1      39.697  29.017  28.907  1.00  0.00     0.029 A 
ATOM     52  C   UNL A   1      40.468  30.172  29.356  1.00  0.00     0.049 A 
ATOM     53  H   UNL A   1      42.510  30.503  29.116  1.00  0.00     0.167 HD
ATOM     54  C   UNL A   1      46.818  31.016  28.751  1.00  0.00     0.031 A 
ATOM     55  C   UNL A   1      39.962  31.232  30.013  1.00  0.00     0.031 A 
ATOM     56  C   UNL A   1      46.357  32.223  29.386  1.00  0.00     0.049 A 
ATOM     57  C   UNL A   1      40.874  32.352  30.425  1.00  0.00     0.074 A 
ATOM     58  C   UNL A   1      47.091  33.339  29.748  1.00  0.00     0.029 A 
ATOM     59  N   UNL A   1      45.044  32.470  29.750  1.00  0.00    -0.354 N 
ATOM     60  N   UNL A   1      42.166  32.474  30.242  1.00  0.00    -0.248 NA
ATOM     61  C   UNL A   1      40.255  33.486  31.127  1.00  0.00     0.031 C 
ATOM     62  C   UNL A   1      46.228  34.245  30.374  1.00  0.00     0.029 A 
ATOM     63  C   UNL A   1      44.949  33.714  30.353  1.00  0.00     0.049 A 
ATOM     64  H   UNL A   1      44.290  31.854  29.604  1.00  0.00     0.167 HD
ATOM     65  C   UNL A   1      42.510  33.707  30.780  1.00  0.00     0.074 A 
ATOM     66  C   UNL A   1      41.288  34.302  31.283  1.00  0.00     0.031 C 
ATOM     67  C   UNL A   1      43.729  34.295  30.850  1.00  0.00     0.031 A 
BRANCH  54  68
ATOM     68  C   UNL A   1      48.293  30.867  28.497  1.00  0.00    -0.014 A 
ATOM     69  C   UNL A   1      48.876  31.314  27.300  1.00  0.00     0.009 A 
ATOM     70  C   UNL A   1      49.118  30.305  29.484  1.00  0.00     0.009 A 
ATOM     71  C   UNL A   1      50.247  31.162  27.081  1.00  0.00     0.001 A 
ATOM     72  C   UNL A   1      50.492  30.183  29.275  1.00  0.00     0.001 A 
ATOM     73  C   UNL A   1      51.055  30.601  28.070  1.00  0.00     0.000 A 
ENDBRANCH  54  68
BRANCH  55  74
ATOM     74  C   UNL A   1      38.507  31.297  30.310  1.00  0.00    -0.014 A 
ATOM     75  C   UNL A   1      37.626  31.903  29.401  1.00  0.00     0.009 A 
ATOM     76  C   UNL A   1      37.992  30.758  31.498  1.00  0.00     0.009 A 
ATOM     77  C   UNL A   1      36.261  31.990  29.689  1.00  0.00     0.001 A 
ATOM     78  C   UNL A   1      36.624  30.822  31.771  1.00  0.00     0.001 A 
ATOM     79  C   UNL A   1      35.762  31.445  30.871  1.00  0.00     0.000 A 
ENDBRANCH  55  74
BRANCH  67  80
ATOM     80  C   UNL A   1      43.798  35.666  31.460  1.00  0.00    -0.014 A 
ATOM     81  C   UNL A   1      43.872  35.843  32.850  1.00  0.00     0.009 A 
ATOM     82  C   UNL A   1      43.831  36.795  30.626  1.00  0.00     0.009 A 
ATOM     83  C   UNL A   1      43.945  37.127  33.395  1.00  0.00     0.001 A 
ATOM     84  C   UNL A   1      43.931  38.076  31.172  1.00  0.00     0.001 A 
ATOM     85  C   UNL A   1      43.979  38.240  32.556  1.00  0.00     0.000 A 
ENDBRANCH  67  80
ENDBRANCH  41  42
ENDBRANCH  33  36
ENDBRANCH  31  32
ENDBRANCH  30  31
ENDBRANCH   1  30
TORSDOF 14
ENDMDL
MODEL 2
REMARK VINA RESULT:     -11.8      3.371      8.693
REMARK SMILES Cc1oc2ccc(NS(=O)(=O)c3ccc(C(C)C)cc3)cc2c1C(=O)NCCCNC(=O)c1ccc(-c2c3nc(c(-c4ccccc4)c4ccc([nH]4)c(-c4ccccc4)c4nc(c(-c5ccccc5)c5ccc2[nH]5)C=C4)C=C3)cc1
REMARK SMILES IDX 27 1 26 2 24 3 25 4 23 6 1 7 2 8 3 9 4 10 22 11 5 12 21 13
REMARK SMILES IDX 6 14 7 15 8 16 9 18 10 19 11 20 12 21 13 22 20 23 14 24
REMARK SMILES IDX 19 25 15 26 16 27 17 28 18 29 28 30 29 31 30 32 31 33 32 35
REMARK SMILES IDX 33 36 34 37 80 38 35 39 79 40 36 41 37 42 38 43 73 44 39 45
REMARK SMILES IDX 78 46 72 47 74 48 40 49 77 50 71 51 70 52 41 54 63 55 48 56
REMARK SMILES IDX 62 57 49 58 52 59 61 60 75 61 50 62 51 63 60 65 76 66 53 67
REMARK SMILES IDX 42 68 43 69 47 70 44 71 46 72 45 73 64 74 65 75 69 76 66 77
REMARK SMILES IDX 68 78 67 79 54 80 55 81 59 82 56 83 58 84 57 85
REMARK H PARENT 26 5 8 17 30 34 74 53 52 64
REMARK Flexibility Score: inf
ROOT
ATOM      1  C   UNL A   1      31.740  30.252  26.390  1.00  0.00     0.118 C 
ENDROOT
BRANCH   1   2
ATOM      2  N   UNL A   1      32.573  30.065  25.218  1.00  0.00    -0.352 N 
ATOM      3  C   UNL A   1      32.485  29.185  24.165  1.00  0.00     0.255 C 
ATOM      4  O   UNL A   1      33.324  29.315  23.273  1.00  0.00    -0.269 OA
ATOM      5  H   UNL A   1      33.341  30.680  25.168  1.00  0.00     0.163 HD
BRANCH   3   6
ATOM      6  C   UNL A   1      31.518  28.097  24.138  1.00  0.00     0.088 A 
ATOM      7  C   UNL A   1      29.342  28.988  22.904  1.00  0.00     0.088 C 
ATOM      8  C   UNL A   1      30.214  28.062  23.660  1.00  0.00     0.114 A 
ATOM      9  O   UNL A   1      29.635  26.858  23.943  1.00  0.00    -0.461 OA
ATOM     10  C   UNL A   1      30.590  26.062  24.488  1.00  0.00     0.135 A 
ATOM     11  C   UNL A   1      31.794  26.743  24.544  1.00  0.00     0.035 A 
ATOM     12  C   UNL A   1      30.413  24.745  24.905  1.00  0.00     0.050 A 
ATOM     13  C   UNL A   1      32.935  26.023  24.961  1.00  0.00     0.039 A 
ATOM     14  C   UNL A   1      31.549  24.079  25.393  1.00  0.00     0.030 A 
ATOM     15  C   UNL A   1      32.801  24.702  25.413  1.00  0.00     0.050 A 
BRANCH  15  16
ATOM     16  N   UNL A   1      33.970  23.953  25.785  1.00  0.00    -0.280 N 
ATOM     17  H   UNL A   1      34.252  23.934  26.728  1.00  0.00     0.180 HD
BRANCH  16  18
ATOM     18  S   UNL A   1      34.878  23.093  24.623  1.00  0.00     0.261 S 
ATOM     19  O   UNL A   1      34.602  23.687  23.339  1.00  0.00    -0.201 OA
ATOM     20  O   UNL A   1      36.237  23.071  25.140  1.00  0.00    -0.201 OA
BRANCH  18  21
ATOM     21  C   UNL A   1      34.279  21.426  24.598  1.00  0.00     0.087 A 
ATOM     22  C   UNL A   1      32.961  21.147  24.236  1.00  0.00     0.022 A 
ATOM     23  C   UNL A   1      35.147  20.390  24.953  1.00  0.00     0.022 A 
ATOM     24  C   UNL A   1      32.550  19.816  24.106  1.00  0.00     0.005 A 
ATOM     25  C   UNL A   1      34.747  19.066  24.771  1.00  0.00     0.005 A 
ATOM     26  C   UNL A   1      33.459  18.763  24.300  1.00  0.00    -0.045 A 
BRANCH  26  27
ATOM     27  C   UNL A   1      33.117  17.316  23.982  1.00  0.00     0.013 C 
ATOM     28  C   UNL A   1      34.160  16.688  23.060  1.00  0.00     0.012 C 
ATOM     29  C   UNL A   1      32.894  16.440  25.220  1.00  0.00     0.012 C 
ENDBRANCH  26  27
ENDBRANCH  18  21
ENDBRANCH  16  18
ENDBRANCH  15  16
ENDBRANCH   3   6
ENDBRANCH   1   2
BRANCH   1  30
ATOM     30  C   UNL A   1      31.475  31.702  26.784  1.00  0.00     0.042 C 
BRANCH  30  31
ATOM     31  C   UNL A   1      32.676  32.637  26.811  1.00  0.00     0.118 C 
BRANCH  31  32
ATOM     32  N   UNL A   1      32.479  33.852  27.585  1.00  0.00    -0.352 N 
ATOM     33  C   UNL A   1      33.209  34.465  28.575  1.00  0.00     0.251 C 
ATOM     34  H   UNL A   1      31.653  34.333  27.353  1.00  0.00     0.163 HD
ATOM     35  O   UNL A   1      32.735  35.470  29.105  1.00  0.00    -0.269 OA
BRANCH  33  36
ATOM     36  C   UNL A   1      34.510  33.944  29.063  1.00  0.00     0.039 A 
ATOM     37  C   UNL A   1      34.504  33.090  30.175  1.00  0.00     0.014 A 
ATOM     38  C   UNL A   1      35.734  34.307  28.503  1.00  0.00     0.014 A 
ATOM     39  C   UNL A   1      35.697  32.540  30.658  1.00  0.00     0.010 A 
ATOM     40  C   UNL A   1      36.912  33.682  28.919  1.00  0.00     0.010 A 
ATOM     41  C   UNL A   1      36.910  32.790  29.999  1.00  0.00    -0.014 A 
BRANCH  41  42
ATOM     42  C   UNL A   1      38.177  32.127  30.417  1.00  0.00     0.031 A 
ATOM     43  C   UNL A   1      39.109  32.797  31.393  1.00  0.00     0.074 A 
ATOM     44  C   UNL A   1      38.534  30.952  29.858  1.00  0.00     0.049 A 
ATOM     45  N   UNL A   1      40.298  32.420  31.793  1.00  0.00    -0.248 NA
ATOM     46  C   UNL A   1      38.660  34.073  31.972  1.00  0.00     0.031 C 
ATOM     47  C   UNL A   1      37.750  30.208  28.869  1.00  0.00     0.029 A 
ATOM     48  N   UNL A   1      39.657  30.182  30.035  1.00  0.00    -0.354 N 
ATOM     49  C   UNL A   1      40.750  33.423  32.640  1.00  0.00     0.074 A 
ATOM     50  C   UNL A   1      39.726  34.446  32.664  1.00  0.00     0.031 C 
ATOM     51  C   UNL A   1      38.400  29.078  28.552  1.00  0.00     0.029 A 
ATOM     52  C   UNL A   1      39.667  29.037  29.275  1.00  0.00     0.049 A 
ATOM     53  H   UNL A   1      40.387  30.427  30.648  1.00  0.00     0.167 HD
ATOM     54  C   UNL A   1      41.903  33.486  33.350  1.00  0.00     0.031 A 
ATOM     55  C   UNL A   1      40.591  28.065  29.162  1.00  0.00     0.031 A 
ATOM     56  C   UNL A   1      42.911  32.459  33.355  1.00  0.00     0.049 A 
ATOM     57  C   UNL A   1      41.859  28.154  29.962  1.00  0.00     0.074 A 
ATOM     58  C   UNL A   1      44.079  32.403  34.097  1.00  0.00     0.029 A 
ATOM     59  N   UNL A   1      42.870  31.309  32.584  1.00  0.00    -0.354 N 
ATOM     60  N   UNL A   1      42.241  29.083  30.804  1.00  0.00    -0.248 NA
ATOM     61  C   UNL A   1      42.821  27.052  29.803  1.00  0.00     0.031 C 
ATOM     62  C   UNL A   1      44.768  31.239  33.739  1.00  0.00     0.029 A 
ATOM     63  C   UNL A   1      44.003  30.546  32.816  1.00  0.00     0.049 A 
ATOM     64  H   UNL A   1      42.145  31.070  31.963  1.00  0.00     0.167 HD
ATOM     65  C   UNL A   1      43.472  28.666  31.295  1.00  0.00     0.074 A 
ATOM     66  C   UNL A   1      43.765  27.394  30.668  1.00  0.00     0.031 C 
ATOM     67  C   UNL A   1      44.285  29.282  32.186  1.00  0.00     0.031 A 
BRANCH  54  68
ATOM     68  C   UNL A   1      42.138  34.716  34.183  1.00  0.00    -0.014 A 
ATOM     69  C   UNL A   1      41.740  34.773  35.529  1.00  0.00     0.009 A 
ATOM     70  C   UNL A   1      42.801  35.820  33.625  1.00  0.00     0.009 A 
ATOM     71  C   UNL A   1      41.963  35.926  36.284  1.00  0.00     0.001 A 
ATOM     72  C   UNL A   1      43.050  36.960  34.392  1.00  0.00     0.001 A 
ATOM     73  C   UNL A   1      42.623  37.016  35.717  1.00  0.00     0.000 A 
ENDBRANCH  54  68
BRANCH  55  74
ATOM     74  C   UNL A   1      40.345  26.906  28.264  1.00  0.00    -0.014 A 
ATOM     75  C   UNL A   1      39.639  25.787  28.731  1.00  0.00     0.009 A 
ATOM     76  C   UNL A   1      40.815  26.911  26.942  1.00  0.00     0.009 A 
ATOM     77  C   UNL A   1      39.429  24.685  27.898  1.00  0.00     0.001 A 
ATOM     78  C   UNL A   1      40.580  25.818  26.104  1.00  0.00     0.001 A 
ATOM     79  C   UNL A   1      39.895  24.704  26.585  1.00  0.00     0.000 A 
ENDBRANCH  55  74
BRANCH  67  80
ATOM     80  C   UNL A   1      45.553  28.574  32.566  1.00  0.00    -0.014 A 
ATOM     81  C   UNL A   1      46.756  28.814  31.883  1.00  0.00     0.009 A 
ATOM     82  C   UNL A   1      45.551  27.681  33.649  1.00  0.00     0.009 A 
ATOM     83  C   UNL A   1      47.926  28.150  32.259  1.00  0.00     0.001 A 
ATOM     84  C   UNL A   1      46.728  27.039  34.040  1.00  0.00     0.001 A 
ATOM     85  C   UNL A   1      47.911  27.268  33.340  1.00  0.00     0.000 A 
ENDBRANCH  67  80
ENDBRANCH  41  42
ENDBRANCH  33  36
ENDBRANCH  31  32
ENDBRANCH  30  31
ENDBRANCH   1  30
TORSDOF 14
ENDMDL
MODEL 3
REMARK VINA RESULT:     -11.8      2.900      8.191
REMARK SMILES Cc1oc2ccc(NS(=O)(=O)c3ccc(C(C)C)cc3)cc2c1C(=O)NCCCNC(=O)c1ccc(-c2c3nc(c(-c4ccccc4)c4ccc([nH]4)c(-c4ccccc4)c4nc(c(-c5ccccc5)c5ccc2[nH]5)C=C4)C=C3)cc1
REMARK SMILES IDX 27 1 26 2 24 3 25 4 23 6 1 7 2 8 3 9 4 10 22 11 5 12 21 13
REMARK SMILES IDX 6 14 7 15 8 16 9 18 10 19 11 20 12 21 13 22 20 23 14 24
REMARK SMILES IDX 19 25 15 26 16 27 17 28 18 29 28 30 29 31 30 32 31 33 32 35
REMARK SMILES IDX 33 36 34 37 80 38 35 39 79 40 36 41 37 42 38 43 73 44 39 45
REMARK SMILES IDX 78 46 72 47 74 48 40 49 77 50 71 51 70 52 41 54 63 55 48 56
REMARK SMILES IDX 62 57 49 58 52 59 61 60 75 61 50 62 51 63 60 65 76 66 53 67
REMARK SMILES IDX 42 68 43 69 47 70 44 71 46 72 45 73 64 74 65 75 69 76 66 77
REMARK SMILES IDX 68 78 67 79 54 80 55 81 59 82 56 83 58 84 57 85
REMARK H PARENT 26 5 8 17 30 34 74 53 52 64
REMARK Flexibility Score: inf
ROOT
ATOM      1  C   UNL A   1      34.179  28.189  24.991  1.00  0.00     0.118 C 
ENDROOT
BRANCH   1   2
ATOM      2  N   UNL A   1      33.688  27.717  23.711  1.00  0.00    -0.352 N 
ATOM      3  C   UNL A   1      32.803  26.717  23.382  1.00  0.00     0.255 C 
ATOM      4  O   UNL A   1      32.535  26.595  22.187  1.00  0.00    -0.269 OA
ATOM      5  H   UNL A   1      34.055  28.202  22.936  1.00  0.00     0.163 HD
BRANCH   3   6
ATOM      6  C   UNL A   1      32.280  25.785  24.372  1.00  0.00     0.088 A 
ATOM      7  C   UNL A   1      29.630  25.854  24.213  1.00  0.00     0.088 C 
ATOM      8  C   UNL A   1      30.970  25.491  24.728  1.00  0.00     0.114 A 
ATOM      9  O   UNL A   1      30.944  24.633  25.789  1.00  0.00    -0.461 OA
ATOM     10  C   UNL A   1      32.225  24.265  26.048  1.00  0.00     0.135 A 
ATOM     11  C   UNL A   1      33.081  24.871  25.144  1.00  0.00     0.035 A 
ATOM     12  C   UNL A   1      32.634  23.386  27.048  1.00  0.00     0.050 A 
ATOM     13  C   UNL A   1      34.442  24.498  25.179  1.00  0.00     0.039 A 
ATOM     14  C   UNL A   1      34.007  23.096  27.112  1.00  0.00     0.030 A 
ATOM     15  C   UNL A   1      34.905  23.635  26.183  1.00  0.00     0.050 A 
BRANCH  15  16
ATOM     16  N   UNL A   1      36.279  23.212  26.185  1.00  0.00    -0.280 N 
ATOM     17  H   UNL A   1      36.869  23.492  26.923  1.00  0.00     0.180 HD
BRANCH  16  18
ATOM     18  S   UNL A   1      36.906  22.235  24.935  1.00  0.00     0.261 S 
ATOM     19  O   UNL A   1      36.693  22.938  23.694  1.00  0.00    -0.201 OA
ATOM     20  O   UNL A   1      38.256  21.894  25.357  1.00  0.00    -0.201 OA
BRANCH  18  21
ATOM     21  C   UNL A   1      35.956  20.741  24.891  1.00  0.00     0.087 A 
ATOM     22  C   UNL A   1      34.567  20.782  24.769  1.00  0.00     0.022 A 
ATOM     23  C   UNL A   1      36.619  19.515  24.987  1.00  0.00     0.022 A 
ATOM     24  C   UNL A   1      33.855  19.589  24.612  1.00  0.00     0.005 A 
ATOM     25  C   UNL A   1      35.909  18.332  24.779  1.00  0.00     0.005 A 
ATOM     26  C   UNL A   1      34.525  18.357  24.542  1.00  0.00    -0.045 A 
BRANCH  26  27
ATOM     27  C   UNL A   1      33.820  17.059  24.180  1.00  0.00     0.013 C 
ATOM     28  C   UNL A   1      34.175  16.610  22.764  1.00  0.00     0.012 C 
ATOM     29  C   UNL A   1      34.053  15.922  25.181  1.00  0.00     0.012 C 
ENDBRANCH  26  27
ENDBRANCH  18  21
ENDBRANCH  16  18
ENDBRANCH  15  16
ENDBRANCH   3   6
ENDBRANCH   1   2
BRANCH   1  30
ATOM     30  C   UNL A   1      33.242  29.120  25.752  1.00  0.00     0.042 C 
BRANCH  30  31
ATOM     31  C   UNL A   1      33.347  29.110  27.271  1.00  0.00     0.118 C 
BRANCH  31  32
ATOM     32  N   UNL A   1      33.499  30.424  27.875  1.00  0.00    -0.352 N 
ATOM     33  C   UNL A   1      34.539  31.049  28.520  1.00  0.00     0.251 C 
ATOM     34  H   UNL A   1      32.689  30.980  27.809  1.00  0.00     0.163 HD
ATOM     35  O   UNL A   1      34.336  32.164  29.000  1.00  0.00    -0.269 OA
BRANCH  33  36
ATOM     36  C   UNL A   1      35.872  30.422  28.704  1.00  0.00     0.039 A 
ATOM     37  C   UNL A   1      36.761  30.432  27.620  1.00  0.00     0.014 A 
ATOM     38  C   UNL A   1      36.255  29.779  29.881  1.00  0.00     0.014 A 
ATOM     39  C   UNL A   1      38.044  29.886  27.747  1.00  0.00     0.010 A 
ATOM     40  C   UNL A   1      37.566  29.326  30.041  1.00  0.00     0.010 A 
ATOM     41  C   UNL A   1      38.479  29.375  28.979  1.00  0.00    -0.014 A 
BRANCH  41  42
ATOM     42  C   UNL A   1      39.875  28.896  29.178  1.00  0.00     0.031 A 
ATOM     43  C   UNL A   1      40.929  29.813  29.741  1.00  0.00     0.074 A 
ATOM     44  C   UNL A   1      40.220  27.655  28.777  1.00  0.00     0.049 A 
ATOM     45  N   UNL A   1      42.214  29.603  29.889  1.00  0.00    -0.248 NA
ATOM     46  C   UNL A   1      40.489  31.151  30.165  1.00  0.00     0.031 C 
ATOM     47  C   UNL A   1      39.314  26.672  28.178  1.00  0.00     0.029 A 
ATOM     48  N   UNL A   1      41.432  27.011  28.805  1.00  0.00    -0.354 N 
ATOM     49  C   UNL A   1      42.737  30.789  30.390  1.00  0.00     0.074 A 
ATOM     50  C   UNL A   1      41.639  31.728  30.481  1.00  0.00     0.031 C 
ATOM     51  C   UNL A   1      39.994  25.543  27.924  1.00  0.00     0.029 A 
ATOM     52  C   UNL A   1      41.392  25.735  28.297  1.00  0.00     0.049 A 
ATOM     53  H   UNL A   1      42.255  27.424  29.155  1.00  0.00     0.167 HD
ATOM     54  C   UNL A   1      44.010  31.071  30.759  1.00  0.00     0.031 A 
ATOM     55  C   UNL A   1      42.367  24.820  28.137  1.00  0.00     0.031 A 
ATOM     56  C   UNL A   1      45.100  30.133  30.701  1.00  0.00     0.049 A 
ATOM     57  C   UNL A   1      43.770  25.154  28.558  1.00  0.00     0.074 A 
ATOM     58  C   UNL A   1      46.409  30.308  31.118  1.00  0.00     0.029 A 
ATOM     59  N   UNL A   1      45.008  28.847  30.196  1.00  0.00    -0.354 N 
ATOM     60  N   UNL A   1      44.232  26.262  29.084  1.00  0.00    -0.248 NA
ATOM     61  C   UNL A   1      44.784  24.107  28.369  1.00  0.00     0.031 C 
ATOM     62  C   UNL A   1      47.121  29.140  30.823  1.00  0.00     0.029 A 
ATOM     63  C   UNL A   1      46.243  28.222  30.271  1.00  0.00     0.049 A 
ATOM     64  H   UNL A   1      44.189  28.438  29.836  1.00  0.00     0.167 HD
ATOM     65  C   UNL A   1      45.583  26.035  29.316  1.00  0.00     0.074 A 
ATOM     66  C   UNL A   1      45.862  24.680  28.886  1.00  0.00     0.031 C 
ATOM     67  C   UNL A   1      46.509  26.875  29.840  1.00  0.00     0.031 A 
BRANCH  54  68
ATOM     68  C   UNL A   1      44.295  32.461  31.259  1.00  0.00    -0.014 A 
ATOM     69  C   UNL A   1      44.708  33.480  30.385  1.00  0.00     0.009 A 
ATOM     70  C   UNL A   1      44.113  32.765  32.617  1.00  0.00     0.009 A 
ATOM     71  C   UNL A   1      44.972  34.763  30.869  1.00  0.00     0.001 A 
ATOM     72  C   UNL A   1      44.348  34.056  33.092  1.00  0.00     0.001 A 
ATOM     73  C   UNL A   1      44.787  35.051  32.221  1.00  0.00     0.000 A 
ENDBRANCH  54  68
BRANCH  55  74
ATOM     74  C   UNL A   1      42.048  23.486  27.565  1.00  0.00    -0.014 A 
ATOM     75  C   UNL A   1      41.523  22.473  28.383  1.00  0.00     0.009 A 
ATOM     76  C   UNL A   1      42.269  23.216  26.206  1.00  0.00     0.009 A 
ATOM     77  C   UNL A   1      41.247  21.209  27.854  1.00  0.00     0.001 A 
ATOM     78  C   UNL A   1      41.967  21.960  25.676  1.00  0.00     0.001 A 
ATOM     79  C   UNL A   1      41.465  20.956  26.501  1.00  0.00     0.000 A 
ENDBRANCH  55  74
BRANCH  67  80
ATOM     80  C   UNL A   1      47.902  26.342  30.011  1.00  0.00    -0.014 A 
ATOM     81  C   UNL A   1      48.852  26.438  28.982  1.00  0.00     0.009 A 
ATOM     82  C   UNL A   1      48.281  25.771  31.236  1.00  0.00     0.009 A 
ATOM     83  C   UNL A   1      50.145  25.945  29.166  1.00  0.00     0.001 A 
ATOM     84  C   UNL A   1      49.582  25.302  31.427  1.00  0.00     0.001 A 
ATOM     85  C   UNL A   1      50.510  25.382  30.390  1.00  0.00     0.000 A 
ENDBRANCH  67  80
ENDBRANCH  41  42
ENDBRANCH  33  36
ENDBRANCH  31  32
ENDBRANCH  30  31
ENDBRANCH   1  30
TORSDOF 14
ENDMDL
