MODEL 1
REMARK VINA RESULT:     -11.8      0.000      0.000
REMARK SMILES Cc1cc2c(cc1C)/C(=C/C(=O)NCCCNC(=O)c1ccc(-c3c4nc(c(-c5ccccc5)c5ccc([nH]5)c(-c5ccccc5)c5nc(c(-c6ccccc6)c6ccc3[nH]6)C=C5)C=C4)cc1)CO2
REMARK SMILES IDX 16 1 15 2 14 3 13 4 11 5 12 6 10 8 1 9 2 10 3 11 7 12 4 13
REMARK SMILES IDX 6 14 8 15 5 16 69 17 9 18 68 19 17 20 18 21 19 23 20 24
REMARK SMILES IDX 21 25 67 26 22 27 66 28 23 29 24 30 25 31 60 32 26 33 65 34
REMARK SMILES IDX 59 35 61 36 27 37 64 38 58 39 57 40 28 42 50 43 35 44 49 45
REMARK SMILES IDX 36 46 39 47 48 48 62 49 37 50 38 51 47 53 63 54 40 55 29 56
REMARK SMILES IDX 30 57 34 58 31 59 33 60 32 61 51 62 52 63 56 64 53 65 55 66
REMARK SMILES IDX 54 67 41 68 42 69 46 70 43 71 45 72 44 73
REMARK H PARENT 13 7 17 22 61 41 39 52
REMARK Flexibility Score: inf
ROOT
ATOM      1  C   UNL A   1      38.523  20.796  25.552  1.00  0.00     0.118 C 
ENDROOT
BRANCH   1   2
ATOM      2  C   UNL A   1      37.239  20.333  24.881  1.00  0.00     0.042 C 
BRANCH   2   3
ATOM      3  C   UNL A   1      36.114  21.351  25.021  1.00  0.00     0.118 C 
BRANCH   3   4
ATOM      4  N   UNL A   1      35.165  20.959  26.051  1.00  0.00    -0.352 N 
ATOM      5  C   UNL A   1      34.438  21.788  26.852  1.00  0.00     0.244 C 
ATOM      6  O   UNL A   1      33.759  21.360  27.783  1.00  0.00    -0.270 OA
ATOM      7  H   UNL A   1      35.034  19.993  26.184  1.00  0.00     0.163 HD
BRANCH   5   8
ATOM      8  C   UNL A   1      34.519  23.226  26.549  1.00  0.00     0.079 C 
ATOM      9  C   UNL A   1      31.824  29.313  25.872  1.00  0.00     0.045 C 
ATOM     10  C   UNL A   1      32.278  27.881  25.822  1.00  0.00    -0.044 A 
ATOM     11  C   UNL A   1      31.530  26.911  26.504  1.00  0.00     0.050 A 
ATOM     12  C   UNL A   1      33.423  27.488  25.077  1.00  0.00    -0.047 A 
ATOM     13  C   UNL A   1      31.981  25.612  26.486  1.00  0.00     0.127 A 
ATOM     14  C   UNL A   1      33.944  26.189  25.224  1.00  0.00     0.016 A 
ATOM     15  C   UNL A   1      33.966  28.362  23.976  1.00  0.00     0.044 C 
ATOM     16  C   UNL A   1      33.222  25.277  25.971  1.00  0.00     0.024 A 
ATOM     17  O   UNL A   1      31.242  24.538  26.926  1.00  0.00    -0.488 OA
ATOM     18  C   UNL A   1      33.387  23.873  26.248  1.00  0.00     0.006 C 
ATOM     19  C   UNL A   1      31.969  23.404  26.382  1.00  0.00     0.266 C 
ENDBRANCH   5   8
ENDBRANCH   3   4
ENDBRANCH   2   3
ENDBRANCH   1   2
BRANCH   1  20
ATOM     20  N   UNL A   1      39.517  19.729  25.622  1.00  0.00    -0.352 N 
ATOM     21  C   UNL A   1      40.847  19.780  25.959  1.00  0.00     0.251 C 
ATOM     22  H   UNL A   1      39.180  18.832  25.394  1.00  0.00     0.163 HD
ATOM     23  O   UNL A   1      41.575  18.819  25.730  1.00  0.00    -0.269 OA
BRANCH  21  24
ATOM     24  C   UNL A   1      41.405  21.005  26.568  1.00  0.00     0.039 A 
ATOM     25  C   UNL A   1      41.357  21.188  27.950  1.00  0.00     0.014 A 
ATOM     26  C   UNL A   1      41.965  21.988  25.749  1.00  0.00     0.014 A 
ATOM     27  C   UNL A   1      41.665  22.429  28.487  1.00  0.00     0.010 A 
ATOM     28  C   UNL A   1      42.385  23.197  26.308  1.00  0.00     0.010 A 
ATOM     29  C   UNL A   1      42.180  23.450  27.674  1.00  0.00    -0.014 A 
BRANCH  29  30
ATOM     30  C   UNL A   1      42.488  24.771  28.278  1.00  0.00     0.031 A 
ATOM     31  C   UNL A   1      43.900  25.142  28.641  1.00  0.00     0.074 A 
ATOM     32  C   UNL A   1      41.495  25.669  28.428  1.00  0.00     0.049 A 
ATOM     33  N   UNL A   1      44.351  26.264  29.145  1.00  0.00    -0.248 NA
ATOM     34  C   UNL A   1      44.942  24.129  28.411  1.00  0.00     0.031 C 
ATOM     35  C   UNL A   1      40.092  25.434  28.083  1.00  0.00     0.029 A 
ATOM     36  N   UNL A   1      41.516  26.966  28.872  1.00  0.00    -0.354 N 
ATOM     37  C   UNL A   1      45.719  26.085  29.304  1.00  0.00     0.074 A 
ATOM     38  C   UNL A   1      46.021  24.737  28.883  1.00  0.00     0.031 C 
ATOM     39  C   UNL A   1      39.401  26.568  28.259  1.00  0.00     0.029 A 
ATOM     40  C   UNL A   1      40.292  27.585  28.808  1.00  0.00     0.049 A 
ATOM     41  H   UNL A   1      42.330  27.411  29.202  1.00  0.00     0.167 HD
ATOM     42  C   UNL A   1      46.641  26.973  29.749  1.00  0.00     0.031 A 
ATOM     43  C   UNL A   1      39.913  28.827  29.164  1.00  0.00     0.031 A 
ATOM     44  C   UNL A   1      46.332  28.315  30.169  1.00  0.00     0.049 A 
ATOM     45  C   UNL A   1      40.938  29.772  29.716  1.00  0.00     0.074 A 
ATOM     46  C   UNL A   1      47.196  29.286  30.642  1.00  0.00     0.029 A 
ATOM     47  N   UNL A   1      45.063  28.875  30.164  1.00  0.00    -0.354 N 
ATOM     48  N   UNL A   1      42.226  29.581  29.876  1.00  0.00    -0.248 NA
ATOM     49  C   UNL A   1      40.466  31.096  30.138  1.00  0.00     0.031 C 
ATOM     50  C   UNL A   1      46.442  30.412  30.983  1.00  0.00     0.029 A 
ATOM     51  C   UNL A   1      45.118  30.170  30.650  1.00  0.00     0.049 A 
ATOM     52  H   UNL A   1      44.245  28.418  29.860  1.00  0.00     0.167 HD
ATOM     53  C   UNL A   1      42.721  30.763  30.411  1.00  0.00     0.074 A 
ATOM     54  C   UNL A   1      41.597  31.671  30.528  1.00  0.00     0.031 C 
ATOM     55  C   UNL A   1      43.992  31.062  30.774  1.00  0.00     0.031 A 
BRANCH  42  56
ATOM     56  C   UNL A   1      48.075  26.518  29.821  1.00  0.00    -0.014 A 
ATOM     57  C   UNL A   1      48.916  26.680  28.708  1.00  0.00     0.009 A 
ATOM     58  C   UNL A   1      48.578  25.869  30.959  1.00  0.00     0.009 A 
ATOM     59  C   UNL A   1      50.227  26.198  28.730  1.00  0.00     0.001 A 
ATOM     60  C   UNL A   1      49.900  25.416  30.991  1.00  0.00     0.001 A 
ATOM     61  C   UNL A   1      50.720  25.574  29.874  1.00  0.00     0.000 A 
ENDBRANCH  42  56
BRANCH  43  62
ATOM     62  C   UNL A   1      38.489  29.217  28.991  1.00  0.00    -0.014 A 
ATOM     63  C   UNL A   1      38.045  29.757  27.771  1.00  0.00     0.009 A 
ATOM     64  C   UNL A   1      37.597  29.158  30.070  1.00  0.00     0.009 A 
ATOM     65  C   UNL A   1      36.756  30.275  27.651  1.00  0.00     0.001 A 
ATOM     66  C   UNL A   1      36.296  29.649  29.937  1.00  0.00     0.001 A 
ATOM     67  C   UNL A   1      35.881  30.221  28.734  1.00  0.00     0.000 A 
ENDBRANCH  43  62
BRANCH  55  68
ATOM     68  C   UNL A   1      44.259  32.431  31.335  1.00  0.00    -0.014 A 
ATOM     69  C   UNL A   1      44.657  33.469  30.478  1.00  0.00     0.009 A 
ATOM     70  C   UNL A   1      44.230  32.663  32.718  1.00  0.00     0.009 A 
ATOM     71  C   UNL A   1      45.045  34.706  30.995  1.00  0.00     0.001 A 
ATOM     72  C   UNL A   1      44.587  33.912  33.230  1.00  0.00     0.001 A 
ATOM     73  C   UNL A   1      45.006  34.927  32.370  1.00  0.00     0.000 A 
ENDBRANCH  55  68
ENDBRANCH  29  30
ENDBRANCH  21  24
ENDBRANCH   1  20
TORSDOF 10
ENDMDL
MODEL 2
REMARK VINA RESULT:     -11.7      0.218      6.158
REMARK SMILES Cc1cc2c(cc1C)/C(=C/C(=O)NCCCNC(=O)c1ccc(-c3c4nc(c(-c5ccccc5)c5ccc([nH]5)c(-c5ccccc5)c5nc(c(-c6ccccc6)c6ccc3[nH]6)C=C5)C=C4)cc1)CO2
REMARK SMILES IDX 16 1 15 2 14 3 13 4 11 5 12 6 10 8 1 9 2 10 3 11 7 12 4 13
REMARK SMILES IDX 6 14 8 15 5 16 69 17 9 18 68 19 17 20 18 21 19 23 20 24
REMARK SMILES IDX 21 25 67 26 22 27 66 28 23 29 24 30 25 31 60 32 26 33 65 34
REMARK SMILES IDX 59 35 61 36 27 37 64 38 58 39 57 40 28 42 50 43 35 44 49 45
REMARK SMILES IDX 36 46 39 47 48 48 62 49 37 50 38 51 47 53 63 54 40 55 29 56
REMARK SMILES IDX 30 57 34 58 31 59 33 60 32 61 51 62 52 63 56 64 53 65 55 66
REMARK SMILES IDX 54 67 41 68 42 69 46 70 43 71 45 72 44 73
REMARK H PARENT 13 7 17 22 61 41 39 52
REMARK Flexibility Score: inf
ROOT
ATOM      1  C   UNL A   1      38.514  20.856  25.640  1.00  0.00     0.118 C 
ENDROOT
BRANCH   1   2
ATOM      2  C   UNL A   1      37.378  20.514  24.687  1.00  0.00     0.042 C 
BRANCH   2   3
ATOM      3  C   UNL A   1      36.186  21.449  24.850  1.00  0.00     0.118 C 
BRANCH   3   4
ATOM      4  N   UNL A   1      35.333  21.039  25.954  1.00  0.00    -0.352 N 
ATOM      5  C   UNL A   1      34.652  21.853  26.810  1.00  0.00     0.244 C 
ATOM      6  O   UNL A   1      34.062  21.412  27.793  1.00  0.00    -0.270 OA
ATOM      7  H   UNL A   1      35.237  20.070  26.100  1.00  0.00     0.163 HD
BRANCH   5   8
ATOM      8  C   UNL A   1      34.673  23.291  26.497  1.00  0.00     0.079 C 
ATOM      9  C   UNL A   1      31.767  29.295  25.968  1.00  0.00     0.045 C 
ATOM     10  C   UNL A   1      32.258  27.876  25.894  1.00  0.00    -0.044 A 
ATOM     11  C   UNL A   1      31.582  26.889  26.625  1.00  0.00     0.050 A 
ATOM     12  C   UNL A   1      33.366  27.512  25.082  1.00  0.00    -0.047 A 
ATOM     13  C   UNL A   1      32.068  25.603  26.583  1.00  0.00     0.127 A 
ATOM     14  C   UNL A   1      33.933  26.230  25.201  1.00  0.00     0.016 A 
ATOM     15  C   UNL A   1      33.815  28.396  23.947  1.00  0.00     0.044 C 
ATOM     16  C   UNL A   1      33.285  25.302  25.994  1.00  0.00     0.024 A 
ATOM     17  O   UNL A   1      31.389  24.510  27.071  1.00  0.00    -0.488 OA
ATOM     18  C   UNL A   1      33.506  23.904  26.265  1.00  0.00     0.006 C 
ATOM     19  C   UNL A   1      32.114  23.396  26.487  1.00  0.00     0.266 C 
ENDBRANCH   5   8
ENDBRANCH   3   4
ENDBRANCH   2   3
ENDBRANCH   1   2
BRANCH   1  20
ATOM     20  N   UNL A   1      39.493  19.778  25.730  1.00  0.00    -0.352 N 
ATOM     21  C   UNL A   1      40.832  19.821  26.035  1.00  0.00     0.251 C 
ATOM     22  H   UNL A   1      39.138  18.878  25.545  1.00  0.00     0.163 HD
ATOM     23  O   UNL A   1      41.540  18.840  25.828  1.00  0.00    -0.269 OA
BRANCH  21  24
ATOM     24  C   UNL A   1      41.421  21.060  26.582  1.00  0.00     0.039 A 
ATOM     25  C   UNL A   1      41.355  21.326  27.949  1.00  0.00     0.014 A 
ATOM     26  C   UNL A   1      42.030  21.973  25.718  1.00  0.00     0.014 A 
ATOM     27  C   UNL A   1      41.697  22.585  28.419  1.00  0.00     0.010 A 
ATOM     28  C   UNL A   1      42.482  23.198  26.214  1.00  0.00     0.010 A 
ATOM     29  C   UNL A   1      42.263  23.538  27.558  1.00  0.00    -0.014 A 
BRANCH  29  30
ATOM     30  C   UNL A   1      42.606  24.882  28.090  1.00  0.00     0.031 A 
ATOM     31  C   UNL A   1      41.542  25.927  28.284  1.00  0.00     0.074 A 
ATOM     32  C   UNL A   1      43.873  25.130  28.472  1.00  0.00     0.049 A 
ATOM     33  N   UNL A   1      41.659  27.138  28.768  1.00  0.00    -0.248 NA
ATOM     34  C   UNL A   1      40.170  25.573  27.885  1.00  0.00     0.031 C 
ATOM     35  C   UNL A   1      44.984  24.183  28.362  1.00  0.00     0.029 A 
ATOM     36  N   UNL A   1      44.433  26.234  29.063  1.00  0.00    -0.354 N 
ATOM     37  C   UNL A   1      40.386  27.692  28.718  1.00  0.00     0.074 A 
ATOM     38  C   UNL A   1      39.518  26.703  28.120  1.00  0.00     0.031 C 
ATOM     39  C   UNL A   1      46.073  24.717  28.931  1.00  0.00     0.029 A 
ATOM     40  C   UNL A   1      45.761  26.073  29.370  1.00  0.00     0.049 A 
ATOM     41  H   UNL A   1      43.931  27.061  29.249  1.00  0.00     0.167 HD
ATOM     42  C   UNL A   1      39.976  28.910  29.146  1.00  0.00     0.031 A 
ATOM     43  C   UNL A   1      46.645  26.921  29.930  1.00  0.00     0.031 A 
ATOM     44  C   UNL A   1      40.847  29.891  29.740  1.00  0.00     0.049 A 
ATOM     45  C   UNL A   1      46.185  28.289  30.336  1.00  0.00     0.074 A 
ATOM     46  C   UNL A   1      40.528  31.157  30.197  1.00  0.00     0.029 A 
ATOM     47  N   UNL A   1      42.205  29.717  29.958  1.00  0.00    -0.354 N 
ATOM     48  N   UNL A   1      44.981  28.804  30.266  1.00  0.00    -0.248 NA
ATOM     49  C   UNL A   1      47.198  29.195  30.893  1.00  0.00     0.031 C 
ATOM     50  C   UNL A   1      41.704  31.772  30.636  1.00  0.00     0.029 A 
ATOM     51  C   UNL A   1      42.742  30.861  30.522  1.00  0.00     0.049 A 
ATOM     52  H   UNL A   1      42.712  28.900  29.745  1.00  0.00     0.167 HD
ATOM     53  C   UNL A   1      45.087  30.091  30.776  1.00  0.00     0.074 A 
ATOM     54  C   UNL A   1      46.470  30.270  31.171  1.00  0.00     0.031 C 
ATOM     55  C   UNL A   1      44.124  31.035  30.900  1.00  0.00     0.031 A 
BRANCH  42  56
ATOM     56  C   UNL A   1      38.522  29.262  28.975  1.00  0.00    -0.014 A 
ATOM     57  C   UNL A   1      38.057  29.731  27.737  1.00  0.00     0.009 A 
ATOM     58  C   UNL A   1      37.624  29.195  30.053  1.00  0.00     0.009 A 
ATOM     59  C   UNL A   1      36.728  30.132  27.580  1.00  0.00     0.001 A 
ATOM     60  C   UNL A   1      36.287  29.566  29.885  1.00  0.00     0.001 A 
ATOM     61  C   UNL A   1      35.842  30.041  28.652  1.00  0.00     0.000 A 
ENDBRANCH  42  56
BRANCH  43  62
ATOM     62  C   UNL A   1      48.046  26.465  30.128  1.00  0.00    -0.014 A 
ATOM     63  C   UNL A   1      48.972  26.538  29.073  1.00  0.00     0.009 A 
ATOM     64  C   UNL A   1      48.433  25.854  31.328  1.00  0.00     0.009 A 
ATOM     65  C   UNL A   1      50.238  25.965  29.197  1.00  0.00     0.001 A 
ATOM     66  C   UNL A   1      49.713  25.309  31.461  1.00  0.00     0.001 A 
ATOM     67  C   UNL A   1      50.608  25.350  30.392  1.00  0.00     0.000 A 
ENDBRANCH  43  62
BRANCH  55  68
ATOM     68  C   UNL A   1      44.512  32.362  31.490  1.00  0.00    -0.014 A 
ATOM     69  C   UNL A   1      44.378  32.575  32.872  1.00  0.00     0.009 A 
ATOM     70  C   UNL A   1      44.897  33.433  30.671  1.00  0.00     0.009 A 
ATOM     71  C   UNL A   1      44.599  33.840  33.419  1.00  0.00     0.001 A 
ATOM     72  C   UNL A   1      45.148  34.689  31.225  1.00  0.00     0.001 A 
ATOM     73  C   UNL A   1      44.987  34.894  32.596  1.00  0.00     0.000 A 
ENDBRANCH  55  68
ENDBRANCH  29  30
ENDBRANCH  21  24
ENDBRANCH   1  20
TORSDOF 10
ENDMDL
MODEL 3
REMARK VINA RESULT:     -11.6      3.462      8.710
REMARK SMILES Cc1cc2c(cc1C)/C(=C/C(=O)NCCCNC(=O)c1ccc(-c3c4nc(c(-c5ccccc5)c5ccc([nH]5)c(-c5ccccc5)c5nc(c(-c6ccccc6)c6ccc3[nH]6)C=C5)C=C4)cc1)CO2
REMARK SMILES IDX 16 1 15 2 14 3 13 4 11 5 12 6 10 8 1 9 2 10 3 11 7 12 4 13
REMARK SMILES IDX 6 14 8 15 5 16 69 17 9 18 68 19 17 20 18 21 19 23 20 24
REMARK SMILES IDX 21 25 67 26 22 27 66 28 23 29 24 30 25 31 60 32 26 33 65 34
REMARK SMILES IDX 59 35 61 36 27 37 64 38 58 39 57 40 28 42 50 43 35 44 49 45
REMARK SMILES IDX 36 46 39 47 48 48 62 49 37 50 38 51 47 53 63 54 40 55 29 56
REMARK SMILES IDX 30 57 34 58 31 59 33 60 32 61 51 62 52 63 56 64 53 65 55 66
REMARK SMILES IDX 54 67 41 68 42 69 46 70 43 71 45 72 44 73
REMARK H PARENT 13 7 17 22 61 41 39 52
REMARK Flexibility Score: inf
ROOT
ATOM      1  C   UNL A   1      32.733  31.448  27.029  1.00  0.00     0.118 C 
ENDROOT
BRANCH   1   2
ATOM      2  C   UNL A   1      31.634  30.778  26.218  1.00  0.00     0.042 C 
BRANCH   2   3
ATOM      3  C   UNL A   1      32.073  29.432  25.653  1.00  0.00     0.118 C 
BRANCH   3   4
ATOM      4  N   UNL A   1      32.510  29.550  24.272  1.00  0.00    -0.352 N 
ATOM      5  C   UNL A   1      33.436  28.777  23.637  1.00  0.00     0.244 C 
ATOM      6  O   UNL A   1      33.832  29.039  22.503  1.00  0.00    -0.270 OA
ATOM      7  H   UNL A   1      32.092  30.264  23.737  1.00  0.00     0.163 HD
BRANCH   5   8
ATOM      8  C   UNL A   1      33.944  27.618  24.388  1.00  0.00     0.079 C 
ATOM      9  C   UNL A   1      35.667  21.173  24.910  1.00  0.00     0.045 C 
ATOM     10  C   UNL A   1      35.038  22.530  24.757  1.00  0.00    -0.044 A 
ATOM     11  C   UNL A   1      34.871  23.055  23.468  1.00  0.00     0.050 A 
ATOM     12  C   UNL A   1      34.584  23.272  25.882  1.00  0.00    -0.047 A 
ATOM     13  C   UNL A   1      34.335  24.316  23.345  1.00  0.00     0.127 A 
ATOM     14  C   UNL A   1      34.202  24.618  25.727  1.00  0.00     0.016 A 
ATOM     15  C   UNL A   1      34.302  22.589  27.195  1.00  0.00     0.044 C 
ATOM     16  C   UNL A   1      34.125  25.130  24.446  1.00  0.00     0.024 A 
ATOM     17  O   UNL A   1      33.922  24.861  22.151  1.00  0.00    -0.488 OA
ATOM     18  C   UNL A   1      33.687  26.394  23.910  1.00  0.00     0.006 C 
ATOM     19  C   UNL A   1      33.129  26.001  22.576  1.00  0.00     0.266 C 
ENDBRANCH   5   8
ENDBRANCH   3   4
ENDBRANCH   2   3
ENDBRANCH   1   2
BRANCH   1  20
ATOM     20  N   UNL A   1      32.444  32.857  27.278  1.00  0.00    -0.352 N 
ATOM     21  C   UNL A   1      33.088  33.763  28.085  1.00  0.00     0.251 C 
ATOM     22  H   UNL A   1      31.666  33.214  26.792  1.00  0.00     0.163 HD
ATOM     23  O   UNL A   1      32.555  34.838  28.348  1.00  0.00    -0.269 OA
BRANCH  21  24
ATOM     24  C   UNL A   1      34.408  33.430  28.657  1.00  0.00     0.039 A 
ATOM     25  C   UNL A   1      35.577  33.766  27.976  1.00  0.00     0.014 A 
ATOM     26  C   UNL A   1      34.477  32.757  29.881  1.00  0.00     0.014 A 
ATOM     27  C   UNL A   1      36.790  33.247  28.399  1.00  0.00     0.010 A 
ATOM     28  C   UNL A   1      35.717  32.335  30.367  1.00  0.00     0.010 A 
ATOM     29  C   UNL A   1      36.876  32.523  29.599  1.00  0.00    -0.014 A 
BRANCH  29  30
ATOM     30  C   UNL A   1      38.189  31.970  30.018  1.00  0.00     0.031 A 
ATOM     31  C   UNL A   1      39.015  32.658  31.070  1.00  0.00     0.074 A 
ATOM     32  C   UNL A   1      38.601  30.797  29.499  1.00  0.00     0.049 A 
ATOM     33  N   UNL A   1      40.166  32.295  31.579  1.00  0.00    -0.248 NA
ATOM     34  C   UNL A   1      38.485  33.914  31.626  1.00  0.00     0.031 C 
ATOM     35  C   UNL A   1      37.870  30.022  28.494  1.00  0.00     0.029 A 
ATOM     36  N   UNL A   1      39.708  30.034  29.768  1.00  0.00    -0.354 N 
ATOM     37  C   UNL A   1      40.502  33.281  32.498  1.00  0.00     0.074 A 
ATOM     38  C   UNL A   1      39.457  34.277  32.451  1.00  0.00     0.031 C 
ATOM     39  C   UNL A   1      38.510  28.863  28.284  1.00  0.00     0.029 A 
ATOM     40  C   UNL A   1      39.737  28.850  29.074  1.00  0.00     0.049 A 
ATOM     41  H   UNL A   1      40.414  30.309  30.398  1.00  0.00     0.167 HD
ATOM     42  C   UNL A   1      41.579  33.341  33.318  1.00  0.00     0.031 A 
ATOM     43  C   UNL A   1      40.652  27.862  29.055  1.00  0.00     0.031 A 
ATOM     44  C   UNL A   1      42.618  32.345  33.358  1.00  0.00     0.049 A 
ATOM     45  C   UNL A   1      41.870  27.980  29.921  1.00  0.00     0.074 A 
ATOM     46  C   UNL A   1      43.754  32.321  34.148  1.00  0.00     0.029 A 
ATOM     47  N   UNL A   1      42.649  31.198  32.577  1.00  0.00    -0.354 N 
ATOM     48  N   UNL A   1      42.181  28.927  30.774  1.00  0.00    -0.248 NA
ATOM     49  C   UNL A   1      42.863  26.902  29.827  1.00  0.00     0.031 C 
ATOM     50  C   UNL A   1      44.502  31.192  33.802  1.00  0.00     0.029 A 
ATOM     51  C   UNL A   1      43.795  30.473  32.851  1.00  0.00     0.049 A 
ATOM     52  H   UNL A   1      41.956  30.939  31.926  1.00  0.00     0.167 HD
ATOM     53  C   UNL A   1      43.402  28.558  31.322  1.00  0.00     0.074 A 
ATOM     54  C   UNL A   1      43.762  27.290  30.722  1.00  0.00     0.031 C 
ATOM     55  C   UNL A   1      44.152  29.217  32.238  1.00  0.00     0.031 A 
BRANCH  42  56
ATOM     56  C   UNL A   1      41.701  34.532  34.231  1.00  0.00    -0.014 A 
ATOM     57  C   UNL A   1      41.105  34.502  35.502  1.00  0.00     0.009 A 
ATOM     58  C   UNL A   1      42.344  35.708  33.814  1.00  0.00     0.009 A 
ATOM     59  C   UNL A   1      41.144  35.624  36.333  1.00  0.00     0.001 A 
ATOM     60  C   UNL A   1      42.410  36.818  34.661  1.00  0.00     0.001 A 
ATOM     61  C   UNL A   1      41.804  36.778  35.915  1.00  0.00     0.000 A 
ENDBRANCH  42  56
BRANCH  43  62
ATOM     62  C   UNL A   1      40.415  26.686  28.177  1.00  0.00    -0.014 A 
ATOM     63  C   UNL A   1      40.910  26.673  26.860  1.00  0.00     0.009 A 
ATOM     64  C   UNL A   1      39.604  25.627  28.606  1.00  0.00     0.009 A 
ATOM     65  C   UNL A   1      40.557  25.651  25.979  1.00  0.00     0.001 A 
ATOM     66  C   UNL A   1      39.278  24.588  27.730  1.00  0.00     0.001 A 
ATOM     67  C   UNL A   1      39.741  24.609  26.414  1.00  0.00     0.000 A 
ENDBRANCH  43  62
BRANCH  55  68
ATOM     68  C   UNL A   1      45.450  28.590  32.665  1.00  0.00    -0.014 A 
ATOM     69  C   UNL A   1      45.484  27.765  33.801  1.00  0.00     0.009 A 
ATOM     70  C   UNL A   1      46.653  28.905  32.017  1.00  0.00     0.009 A 
ATOM     71  C   UNL A   1      46.699  27.287  34.295  1.00  0.00     0.001 A 
ATOM     72  C   UNL A   1      47.864  28.400  32.495  1.00  0.00     0.001 A 
ATOM     73  C   UNL A   1      47.887  27.603  33.639  1.00  0.00     0.000 A 
ENDBRANCH  55  68
ENDBRANCH  29  30
ENDBRANCH  21  24
ENDBRANCH   1  20
TORSDOF 10
ENDMDL
