MODEL 1
REMARK VINA RESULT:     -11.1      0.000      0.000
REMARK SMILES C[C@H](C(=O)NCCCNC(=O)c1ccc(-c2c3nc(c(-c4ccccc4)c4ccc([nH]4)c(-c4ccccc4)c4nc(c(-c5ccccc5)c5ccc2[nH]5)C=C4)C=C3)cc1)c1cccc(C(=O)c2ccccc2)c1
REMARK SMILES IDX 6 1 5 2 3 3 4 4 2 6 1 7 60 8 61 9 73 10 62 11 64 12 63 13
REMARK SMILES IDX 65 14 66 15 67 16 68 17 72 18 69 19 71 20 70 21 7 22 8 23
REMARK SMILES IDX 9 24 10 25 11 27 12 28 13 29 59 30 14 31 58 32 15 33 16 34
REMARK SMILES IDX 17 35 52 36 18 37 57 38 51 39 53 40 19 41 56 42 50 43 49 44
REMARK SMILES IDX 20 46 42 47 27 48 41 49 28 50 31 51 40 52 54 53 29 54 30 55
REMARK SMILES IDX 39 57 55 58 32 59 21 60 22 61 26 62 23 63 25 64 24 65 43 66
REMARK SMILES IDX 44 67 48 68 45 69 47 70 46 71 33 72 34 73 38 74 35 75 37 76
REMARK SMILES IDX 36 77
REMARK H PARENT 5 5 9 26 53 45 31 56
REMARK Flexibility Score: inf
ROOT
ATOM      1  C   UNL A   1      32.373  26.907  26.573  1.00  0.00     0.117 C 
ENDROOT
BRANCH   1   2
ATOM      2  N   UNL A   1      31.207  26.092  26.861  1.00  0.00    -0.356 N 
ATOM      3  C   UNL A   1      30.398  25.304  26.113  1.00  0.00     0.227 C 
ATOM      4  O   UNL A   1      29.493  24.739  26.746  1.00  0.00    -0.274 OA
ATOM      5  H   UNL A   1      30.946  26.119  27.810  1.00  0.00     0.163 HD
BRANCH   3   6
ATOM      6  C   UNL A   1      30.436  25.145  24.591  1.00  0.00     0.105 C 
ATOM      7  C   UNL A   1      30.022  26.452  23.908  1.00  0.00     0.023 C 
BRANCH   6   8
ATOM      8  C   UNL A   1      31.623  24.438  23.955  1.00  0.00    -0.035 A 
ATOM      9  C   UNL A   1      32.010  24.812  22.656  1.00  0.00     0.004 A 
ATOM     10  C   UNL A   1      32.407  23.483  24.632  1.00  0.00     0.016 A 
ATOM     11  C   UNL A   1      33.144  24.264  22.056  1.00  0.00     0.001 A 
ATOM     12  C   UNL A   1      33.533  22.903  24.019  1.00  0.00     0.023 A 
ATOM     13  C   UNL A   1      33.901  23.311  22.733  1.00  0.00     0.012 A 
BRANCH  12  14
ATOM     14  C   UNL A   1      34.395  21.894  24.704  1.00  0.00     0.193 C 
ATOM     15  O   UNL A   1      33.974  20.769  24.956  1.00  0.00    -0.289 OA
BRANCH  14  16
ATOM     16  C   UNL A   1      35.781  22.220  25.082  1.00  0.00     0.022 A 
ATOM     17  C   UNL A   1      36.070  23.483  25.603  1.00  0.00     0.012 A 
ATOM     18  C   UNL A   1      36.788  21.269  24.931  1.00  0.00     0.012 A 
ATOM     19  C   UNL A   1      37.363  23.773  26.042  1.00  0.00     0.001 A 
ATOM     20  C   UNL A   1      38.068  21.564  25.392  1.00  0.00     0.001 A 
ATOM     21  C   UNL A   1      38.357  22.803  25.957  1.00  0.00     0.000 A 
ENDBRANCH  14  16
ENDBRANCH  12  14
ENDBRANCH   6   8
ENDBRANCH   3   6
ENDBRANCH   1   2
BRANCH   1  22
ATOM     22  C   UNL A   1      32.289  28.284  27.224  1.00  0.00     0.042 C 
BRANCH  22  23
ATOM     23  C   UNL A   1      33.386  29.280  26.826  1.00  0.00     0.118 C 
BRANCH  23  24
ATOM     24  N   UNL A   1      33.498  30.462  27.672  1.00  0.00    -0.352 N 
ATOM     25  C   UNL A   1      34.506  31.031  28.422  1.00  0.00     0.251 C 
ATOM     26  H   UNL A   1      32.658  30.972  27.720  1.00  0.00     0.163 HD
ATOM     27  O   UNL A   1      34.258  32.091  28.982  1.00  0.00    -0.269 OA
BRANCH  25  28
ATOM     28  C   UNL A   1      35.839  30.405  28.649  1.00  0.00     0.039 A 
ATOM     29  C   UNL A   1      36.796  30.539  27.625  1.00  0.00     0.014 A 
ATOM     30  C   UNL A   1      36.199  29.708  29.800  1.00  0.00     0.014 A 
ATOM     31  C   UNL A   1      38.101  30.046  27.779  1.00  0.00     0.010 A 
ATOM     32  C   UNL A   1      37.523  29.281  29.985  1.00  0.00     0.010 A 
ATOM     33  C   UNL A   1      38.492  29.437  28.977  1.00  0.00    -0.014 A 
BRANCH  33  34
ATOM     34  C   UNL A   1      39.872  28.895  29.173  1.00  0.00     0.031 A 
ATOM     35  C   UNL A   1      40.950  29.782  29.747  1.00  0.00     0.074 A 
ATOM     36  C   UNL A   1      40.197  27.638  28.806  1.00  0.00     0.049 A 
ATOM     37  N   UNL A   1      42.235  29.554  29.872  1.00  0.00    -0.248 NA
ATOM     38  C   UNL A   1      40.527  31.106  30.228  1.00  0.00     0.031 C 
ATOM     39  C   UNL A   1      39.281  26.641  28.254  1.00  0.00     0.029 A 
ATOM     40  N   UNL A   1      41.412  26.989  28.832  1.00  0.00    -0.354 N 
ATOM     41  C   UNL A   1      42.774  30.714  30.413  1.00  0.00     0.074 A 
ATOM     42  C   UNL A   1      41.686  31.658  30.555  1.00  0.00     0.031 C 
ATOM     43  C   UNL A   1      39.964  25.513  27.987  1.00  0.00     0.029 A 
ATOM     44  C   UNL A   1      41.370  25.711  28.325  1.00  0.00     0.049 A 
ATOM     45  H   UNL A   1      42.234  27.402  29.181  1.00  0.00     0.167 HD
ATOM     46  C   UNL A   1      44.051  30.976  30.784  1.00  0.00     0.031 A 
ATOM     47  C   UNL A   1      42.348  24.802  28.143  1.00  0.00     0.031 A 
ATOM     48  C   UNL A   1      45.142  30.044  30.697  1.00  0.00     0.049 A 
ATOM     49  C   UNL A   1      43.766  25.124  28.536  1.00  0.00     0.074 A 
ATOM     50  C   UNL A   1      46.456  30.218  31.100  1.00  0.00     0.029 A 
ATOM     51  N   UNL A   1      45.048  28.762  30.186  1.00  0.00    -0.354 N 
ATOM     52  N   UNL A   1      44.248  26.218  29.071  1.00  0.00    -0.248 NA
ATOM     53  C   UNL A   1      44.772  24.074  28.308  1.00  0.00     0.031 C 
ATOM     54  C   UNL A   1      47.166  29.050  30.800  1.00  0.00     0.029 A 
ATOM     55  C   UNL A   1      46.282  28.138  30.249  1.00  0.00     0.049 A 
ATOM     56  H   UNL A   1      44.225  28.353  29.830  1.00  0.00     0.167 HD
ATOM     57  C   UNL A   1      45.602  25.973  29.276  1.00  0.00     0.074 A 
ATOM     58  C   UNL A   1      45.864  24.629  28.815  1.00  0.00     0.031 C 
ATOM     59  C   UNL A   1      46.541  26.796  29.803  1.00  0.00     0.031 A 
BRANCH  46  60
ATOM     60  C   UNL A   1      44.340  32.347  31.326  1.00  0.00    -0.014 A 
ATOM     61  C   UNL A   1      44.258  32.614  32.701  1.00  0.00     0.009 A 
ATOM     62  C   UNL A   1      44.733  33.372  30.453  1.00  0.00     0.009 A 
ATOM     63  C   UNL A   1      44.529  33.893  33.188  1.00  0.00     0.001 A 
ATOM     64  C   UNL A   1      45.029  34.644  30.946  1.00  0.00     0.001 A 
ATOM     65  C   UNL A   1      44.918  34.905  32.311  1.00  0.00     0.000 A 
ENDBRANCH  46  60
BRANCH  47  66
ATOM     66  C   UNL A   1      42.039  23.474  27.551  1.00  0.00    -0.014 A 
ATOM     67  C   UNL A   1      41.530  22.440  28.353  1.00  0.00     0.009 A 
ATOM     68  C   UNL A   1      42.311  23.214  26.200  1.00  0.00     0.009 A 
ATOM     69  C   UNL A   1      41.332  21.164  27.822  1.00  0.00     0.001 A 
ATOM     70  C   UNL A   1      42.088  21.943  25.665  1.00  0.00     0.001 A 
ATOM     71  C   UNL A   1      41.611  20.917  26.478  1.00  0.00     0.000 A 
ENDBRANCH  47  66
BRANCH  59  72
ATOM     72  C   UNL A   1      47.933  26.253  29.957  1.00  0.00    -0.014 A 
ATOM     73  C   UNL A   1      48.389  25.753  31.186  1.00  0.00     0.009 A 
ATOM     74  C   UNL A   1      48.786  26.202  28.843  1.00  0.00     0.009 A 
ATOM     75  C   UNL A   1      49.682  25.236  31.302  1.00  0.00     0.001 A 
ATOM     76  C   UNL A   1      50.069  25.663  28.956  1.00  0.00     0.001 A 
ATOM     77  C   UNL A   1      50.519  25.187  30.186  1.00  0.00     0.000 A 
ENDBRANCH  59  72
ENDBRANCH  33  34
ENDBRANCH  25  28
ENDBRANCH  23  24
ENDBRANCH  22  23
ENDBRANCH   1  22
TORSDOF 13
ENDMDL
MODEL 2
REMARK VINA RESULT:     -11.0      2.107      7.539
REMARK SMILES C[C@H](C(=O)NCCCNC(=O)c1ccc(-c2c3nc(c(-c4ccccc4)c4ccc([nH]4)c(-c4ccccc4)c4nc(c(-c5ccccc5)c5ccc2[nH]5)C=C4)C=C3)cc1)c1cccc(C(=O)c2ccccc2)c1
REMARK SMILES IDX 6 1 5 2 3 3 4 4 2 6 1 7 60 8 61 9 73 10 62 11 64 12 63 13
REMARK SMILES IDX 65 14 66 15 67 16 68 17 72 18 69 19 71 20 70 21 7 22 8 23
REMARK SMILES IDX 9 24 10 25 11 27 12 28 13 29 59 30 14 31 58 32 15 33 16 34
REMARK SMILES IDX 17 35 52 36 18 37 57 38 51 39 53 40 19 41 56 42 50 43 49 44
REMARK SMILES IDX 20 46 42 47 27 48 41 49 28 50 31 51 40 52 54 53 29 54 30 55
REMARK SMILES IDX 39 57 55 58 32 59 21 60 22 61 26 62 23 63 25 64 24 65 43 66
REMARK SMILES IDX 44 67 48 68 45 69 47 70 46 71 33 72 34 73 38 74 35 75 37 76
REMARK SMILES IDX 36 77
REMARK H PARENT 5 5 9 26 53 45 31 56
REMARK Flexibility Score: inf
ROOT
ATOM      1  C   UNL A   1      37.606  22.093  25.283  1.00  0.00     0.117 C 
ENDROOT
BRANCH   1   2
ATOM      2  N   UNL A   1      36.479  21.957  26.188  1.00  0.00    -0.356 N 
ATOM      3  C   UNL A   1      35.194  21.552  26.042  1.00  0.00     0.227 C 
ATOM      4  O   UNL A   1      34.527  21.556  27.088  1.00  0.00    -0.274 OA
ATOM      5  H   UNL A   1      36.696  22.218  27.112  1.00  0.00     0.163 HD
BRANCH   3   6
ATOM      6  C   UNL A   1      34.492  21.210  24.726  1.00  0.00     0.105 C 
ATOM      7  C   UNL A   1      33.903  19.799  24.787  1.00  0.00     0.023 C 
BRANCH   6   8
ATOM      8  C   UNL A   1      33.592  22.253  24.080  1.00  0.00    -0.035 A 
ATOM      9  C   UNL A   1      32.243  21.926  23.852  1.00  0.00     0.004 A 
ATOM     10  C   UNL A   1      34.019  23.559  23.774  1.00  0.00     0.016 A 
ATOM     11  C   UNL A   1      31.349  22.870  23.346  1.00  0.00     0.001 A 
ATOM     12  C   UNL A   1      33.129  24.506  23.234  1.00  0.00     0.023 A 
ATOM     13  C   UNL A   1      31.790  24.154  23.036  1.00  0.00     0.012 A 
BRANCH  12  14
ATOM     14  C   UNL A   1      33.539  25.904  22.902  1.00  0.00     0.193 C 
ATOM     15  O   UNL A   1      33.899  26.205  21.768  1.00  0.00    -0.289 OA
BRANCH  14  16
ATOM     16  C   UNL A   1      33.508  26.961  23.927  1.00  0.00     0.022 A 
ATOM     17  C   UNL A   1      33.726  26.624  25.265  1.00  0.00     0.012 A 
ATOM     18  C   UNL A   1      33.275  28.284  23.559  1.00  0.00     0.012 A 
ATOM     19  C   UNL A   1      33.783  27.629  26.233  1.00  0.00     0.001 A 
ATOM     20  C   UNL A   1      33.354  29.278  24.531  1.00  0.00     0.001 A 
ATOM     21  C   UNL A   1      33.619  28.960  25.860  1.00  0.00     0.000 A 
ENDBRANCH  14  16
ENDBRANCH  12  14
ENDBRANCH   6   8
ENDBRANCH   3   6
ENDBRANCH   1   2
BRANCH   1  22
ATOM     22  C   UNL A   1      38.096  20.743  24.767  1.00  0.00     0.042 C 
BRANCH  22  23
ATOM     23  C   UNL A   1      38.504  19.725  25.840  1.00  0.00     0.118 C 
BRANCH  23  24
ATOM     24  N   UNL A   1      39.836  19.152  25.688  1.00  0.00    -0.352 N 
ATOM     25  C   UNL A   1      41.115  19.567  25.992  1.00  0.00     0.251 C 
ATOM     26  H   UNL A   1      39.817  18.261  25.271  1.00  0.00     0.163 HD
ATOM     27  O   UNL A   1      42.027  18.781  25.769  1.00  0.00    -0.269 OA
BRANCH  25  28
ATOM     28  C   UNL A   1      41.458  20.926  26.500  1.00  0.00     0.039 A 
ATOM     29  C   UNL A   1      41.399  21.126  27.892  1.00  0.00     0.014 A 
ATOM     30  C   UNL A   1      41.837  21.998  25.694  1.00  0.00     0.014 A 
ATOM     31  C   UNL A   1      41.775  22.349  28.467  1.00  0.00     0.010 A 
ATOM     32  C   UNL A   1      42.284  23.196  26.274  1.00  0.00     0.010 A 
ATOM     33  C   UNL A   1      42.253  23.393  27.667  1.00  0.00    -0.014 A 
BRANCH  33  34
ATOM     34  C   UNL A   1      42.657  24.711  28.246  1.00  0.00     0.031 A 
ATOM     35  C   UNL A   1      41.619  25.788  28.451  1.00  0.00     0.074 A 
ATOM     36  C   UNL A   1      43.941  24.986  28.552  1.00  0.00     0.049 A 
ATOM     37  N   UNL A   1      41.778  27.039  28.809  1.00  0.00    -0.248 NA
ATOM     38  C   UNL A   1      40.219  25.410  28.202  1.00  0.00     0.031 C 
ATOM     39  C   UNL A   1      45.069  24.061  28.436  1.00  0.00     0.029 A 
ATOM     40  N   UNL A   1      44.518  26.149  29.014  1.00  0.00    -0.354 N 
ATOM     41  C   UNL A   1      40.508  27.601  28.797  1.00  0.00     0.074 A 
ATOM     42  C   UNL A   1      39.595  26.568  28.357  1.00  0.00     0.031 C 
ATOM     43  C   UNL A   1      46.197  24.690  28.808  1.00  0.00     0.029 A 
ATOM     44  C   UNL A   1      45.882  26.070  29.167  1.00  0.00     0.049 A 
ATOM     45  H   UNL A   1      44.000  26.961  29.217  1.00  0.00     0.167 HD
ATOM     46  C   UNL A   1      40.120  28.853  29.140  1.00  0.00     0.031 A 
ATOM     47  C   UNL A   1      46.783  27.000  29.543  1.00  0.00     0.031 A 
ATOM     48  C   UNL A   1      40.997  29.885  29.623  1.00  0.00     0.049 A 
ATOM     49  C   UNL A   1      46.333  28.394  29.893  1.00  0.00     0.074 A 
ATOM     50  C   UNL A   1      40.672  31.165  30.039  1.00  0.00     0.029 A 
ATOM     51  N   UNL A   1      42.366  29.754  29.768  1.00  0.00    -0.354 N 
ATOM     52  N   UNL A   1      45.123  28.896  29.900  1.00  0.00    -0.248 NA
ATOM     53  C   UNL A   1      47.380  29.347  30.298  1.00  0.00     0.031 C 
ATOM     54  C   UNL A   1      41.851  31.822  30.404  1.00  0.00     0.029 A 
ATOM     55  C   UNL A   1      42.903  30.935  30.252  1.00  0.00     0.049 A 
ATOM     56  H   UNL A   1      42.883  28.943  29.557  1.00  0.00     0.167 HD
ATOM     57  C   UNL A   1      45.261  30.206  30.344  1.00  0.00     0.074 A 
ATOM     58  C   UNL A   1      46.666  30.422  30.602  1.00  0.00     0.031 C 
ATOM     59  C   UNL A   1      44.300  31.145  30.522  1.00  0.00     0.031 A 
BRANCH  46  60
ATOM     60  C   UNL A   1      38.660  29.180  29.002  1.00  0.00    -0.014 A 
ATOM     61  C   UNL A   1      37.796  29.115  30.105  1.00  0.00     0.009 A 
ATOM     62  C   UNL A   1      38.154  29.593  27.760  1.00  0.00     0.009 A 
ATOM     63  C   UNL A   1      36.443  29.421  29.959  1.00  0.00     0.001 A 
ATOM     64  C   UNL A   1      36.805  29.924  27.623  1.00  0.00     0.001 A 
ATOM     65  C   UNL A   1      35.949  29.829  28.720  1.00  0.00     0.000 A 
ENDBRANCH  46  60
BRANCH  47  66
ATOM     66  C   UNL A   1      48.228  26.660  29.615  1.00  0.00    -0.014 A 
ATOM     67  C   UNL A   1      49.063  26.868  28.506  1.00  0.00     0.009 A 
ATOM     68  C   UNL A   1      48.765  26.068  30.768  1.00  0.00     0.009 A 
ATOM     69  C   UNL A   1      50.398  26.459  28.538  1.00  0.00     0.001 A 
ATOM     70  C   UNL A   1      50.107  25.683  30.806  1.00  0.00     0.001 A 
ATOM     71  C   UNL A   1      50.918  25.867  29.688  1.00  0.00     0.000 A 
ENDBRANCH  47  66
BRANCH  59  72
ATOM     72  C   UNL A   1      44.724  32.479  31.066  1.00  0.00    -0.014 A 
ATOM     73  C   UNL A   1      45.075  33.537  30.214  1.00  0.00     0.009 A 
ATOM     74  C   UNL A   1      44.730  32.694  32.455  1.00  0.00     0.009 A 
ATOM     75  C   UNL A   1      45.448  34.776  30.742  1.00  0.00     0.001 A 
ATOM     76  C   UNL A   1      45.081  33.939  32.978  1.00  0.00     0.001 A 
ATOM     77  C   UNL A   1      45.446  34.977  32.123  1.00  0.00     0.000 A 
ENDBRANCH  59  72
ENDBRANCH  33  34
ENDBRANCH  25  28
ENDBRANCH  23  24
ENDBRANCH  22  23
ENDBRANCH   1  22
TORSDOF 13
ENDMDL
MODEL 3
REMARK VINA RESULT:     -11.0      2.462      7.822
REMARK SMILES C[C@H](C(=O)NCCCNC(=O)c1ccc(-c2c3nc(c(-c4ccccc4)c4ccc([nH]4)c(-c4ccccc4)c4nc(c(-c5ccccc5)c5ccc2[nH]5)C=C4)C=C3)cc1)c1cccc(C(=O)c2ccccc2)c1
REMARK SMILES IDX 6 1 5 2 3 3 4 4 2 6 1 7 60 8 61 9 73 10 62 11 64 12 63 13
REMARK SMILES IDX 65 14 66 15 67 16 68 17 72 18 69 19 71 20 70 21 7 22 8 23
REMARK SMILES IDX 9 24 10 25 11 27 12 28 13 29 59 30 14 31 58 32 15 33 16 34
REMARK SMILES IDX 17 35 52 36 18 37 57 38 51 39 53 40 19 41 56 42 50 43 49 44
REMARK SMILES IDX 20 46 42 47 27 48 41 49 28 50 31 51 40 52 54 53 29 54 30 55
REMARK SMILES IDX 39 57 55 58 32 59 21 60 22 61 26 62 23 63 25 64 24 65 43 66
REMARK SMILES IDX 44 67 48 68 45 69 47 70 46 71 33 72 34 73 38 74 35 75 37 76
REMARK SMILES IDX 36 77
REMARK H PARENT 5 5 9 26 53 45 31 56
REMARK Flexibility Score: inf
ROOT
ATOM      1  C   UNL A   1      35.279  21.550  25.956  1.00  0.00     0.117 C 
ENDROOT
BRANCH   1   2
ATOM      2  N   UNL A   1      33.849  21.299  25.926  1.00  0.00    -0.356 N 
ATOM      3  C   UNL A   1      32.867  21.542  25.024  1.00  0.00     0.227 C 
ATOM      4  O   UNL A   1      31.741  21.147  25.364  1.00  0.00    -0.274 OA
ATOM      5  H   UNL A   1      33.520  20.855  26.741  1.00  0.00     0.163 HD
BRANCH   3   6
ATOM      6  C   UNL A   1      33.004  22.331  23.720  1.00  0.00     0.105 C 
ATOM      7  C   UNL A   1      32.152  21.694  22.619  1.00  0.00     0.023 C 
BRANCH   6   8
ATOM      8  C   UNL A   1      32.951  23.851  23.772  1.00  0.00    -0.035 A 
ATOM      9  C   UNL A   1      33.274  24.574  22.610  1.00  0.00     0.004 A 
ATOM     10  C   UNL A   1      32.516  24.571  24.902  1.00  0.00     0.016 A 
ATOM     11  C   UNL A   1      33.157  25.963  22.570  1.00  0.00     0.001 A 
ATOM     12  C   UNL A   1      32.428  25.975  24.878  1.00  0.00     0.023 A 
ATOM     13  C   UNL A   1      32.738  26.662  23.700  1.00  0.00     0.012 A 
BRANCH  12  14
ATOM     14  C   UNL A   1      31.964  26.776  26.050  1.00  0.00     0.193 C 
ATOM     15  O   UNL A   1      31.045  26.382  26.761  1.00  0.00    -0.289 OA
BRANCH  14  16
ATOM     16  C   UNL A   1      32.609  28.055  26.392  1.00  0.00     0.022 A 
ATOM     17  C   UNL A   1      31.822  29.198  26.549  1.00  0.00     0.012 A 
ATOM     18  C   UNL A   1      33.990  28.116  26.566  1.00  0.00     0.012 A 
ATOM     19  C   UNL A   1      32.414  30.396  26.954  1.00  0.00     0.001 A 
ATOM     20  C   UNL A   1      34.563  29.312  26.990  1.00  0.00     0.001 A 
ATOM     21  C   UNL A   1      33.783  30.446  27.197  1.00  0.00     0.000 A 
ENDBRANCH  14  16
ENDBRANCH  12  14
ENDBRANCH   6   8
ENDBRANCH   3   6
ENDBRANCH   1   2
BRANCH   1  22
ATOM     22  C   UNL A   1      35.600  23.039  26.042  1.00  0.00     0.042 C 
BRANCH  22  23
ATOM     23  C   UNL A   1      36.790  23.516  25.198  1.00  0.00     0.118 C 
BRANCH  23  24
ATOM     24  N   UNL A   1      38.022  22.755  25.362  1.00  0.00    -0.352 N 
ATOM     25  C   UNL A   1      39.187  22.930  26.078  1.00  0.00     0.251 C 
ATOM     26  H   UNL A   1      38.023  21.922  24.838  1.00  0.00     0.163 HD
ATOM     27  O   UNL A   1      40.019  22.034  26.024  1.00  0.00    -0.269 OA
BRANCH  25  28
ATOM     28  C   UNL A   1      39.523  24.163  26.846  1.00  0.00     0.039 A 
ATOM     29  C   UNL A   1      40.258  25.159  26.175  1.00  0.00     0.014 A 
ATOM     30  C   UNL A   1      39.153  24.394  28.169  1.00  0.00     0.014 A 
ATOM     31  C   UNL A   1      40.556  26.383  26.792  1.00  0.00     0.010 A 
ATOM     32  C   UNL A   1      39.386  25.646  28.761  1.00  0.00     0.010 A 
ATOM     33  C   UNL A   1      40.097  26.656  28.086  1.00  0.00    -0.014 A 
BRANCH  33  34
ATOM     34  C   UNL A   1      40.401  27.947  28.776  1.00  0.00     0.031 A 
ATOM     35  C   UNL A   1      41.727  28.129  29.473  1.00  0.00     0.074 A 
ATOM     36  C   UNL A   1      39.499  28.948  28.834  1.00  0.00     0.049 A 
ATOM     37  N   UNL A   1      42.136  29.110  30.242  1.00  0.00    -0.248 NA
ATOM     38  C   UNL A   1      42.718  27.054  29.296  1.00  0.00     0.031 C 
ATOM     39  C   UNL A   1      38.180  28.953  28.203  1.00  0.00     0.029 A 
ATOM     40  N   UNL A   1      39.559  30.165  29.478  1.00  0.00    -0.354 N 
ATOM     41  C   UNL A   1      43.412  28.756  30.661  1.00  0.00     0.074 A 
ATOM     42  C   UNL A   1      43.694  27.453  30.098  1.00  0.00     0.031 C 
ATOM     43  C   UNL A   1      37.553  30.106  28.496  1.00  0.00     0.029 A 
ATOM     44  C   UNL A   1      38.414  30.916  29.353  1.00  0.00     0.049 A 
ATOM     45  H   UNL A   1      40.349  30.468  29.981  1.00  0.00     0.167 HD
ATOM     46  C   UNL A   1      44.288  29.451  31.427  1.00  0.00     0.031 A 
ATOM     47  C   UNL A   1      38.084  32.114  29.875  1.00  0.00     0.031 A 
ATOM     48  C   UNL A   1      44.053  30.764  31.962  1.00  0.00     0.049 A 
ATOM     49  C   UNL A   1      39.062  32.858  30.746  1.00  0.00     0.074 A 
ATOM     50  C   UNL A   1      44.912  31.556  32.706  1.00  0.00     0.029 A 
ATOM     51  N   UNL A   1      42.883  31.485  31.802  1.00  0.00    -0.354 N 
ATOM     52  N   UNL A   1      40.274  32.516  31.109  1.00  0.00    -0.248 NA
ATOM     53  C   UNL A   1      38.625  34.162  31.271  1.00  0.00     0.031 C 
ATOM     54  C   UNL A   1      44.248  32.745  33.026  1.00  0.00     0.029 A 
ATOM     55  C   UNL A   1      42.991  32.707  32.445  1.00  0.00     0.049 A 
ATOM     56  H   UNL A   1      42.091  31.176  31.305  1.00  0.00     0.167 HD
ATOM     57  C   UNL A   1      40.753  33.576  31.870  1.00  0.00     0.074 A 
ATOM     58  C   UNL A   1      39.709  34.574  31.913  1.00  0.00     0.031 C 
ATOM     59  C   UNL A   1      41.957  33.706  32.477  1.00  0.00     0.031 A 
BRANCH  46  60
ATOM     60  C   UNL A   1      45.602  28.792  31.736  1.00  0.00    -0.014 A 
ATOM     61  C   UNL A   1      46.726  29.002  30.923  1.00  0.00     0.009 A 
ATOM     62  C   UNL A   1      45.723  27.979  32.873  1.00  0.00     0.009 A 
ATOM     63  C   UNL A   1      47.939  28.381  31.224  1.00  0.00     0.001 A 
ATOM     64  C   UNL A   1      46.944  27.380  33.186  1.00  0.00     0.001 A 
ATOM     65  C   UNL A   1      48.048  27.575  32.356  1.00  0.00     0.000 A 
ENDBRANCH  46  60
BRANCH  47  66
ATOM     66  C   UNL A   1      36.753  32.715  29.596  1.00  0.00    -0.014 A 
ATOM     67  C   UNL A   1      35.681  32.507  30.479  1.00  0.00     0.009 A 
ATOM     68  C   UNL A   1      36.531  33.441  28.417  1.00  0.00     0.009 A 
ATOM     69  C   UNL A   1      34.407  32.987  30.170  1.00  0.00     0.001 A 
ATOM     70  C   UNL A   1      35.260  33.941  28.124  1.00  0.00     0.001 A 
ATOM     71  C   UNL A   1      34.197  33.703  28.994  1.00  0.00     0.000 A 
ENDBRANCH  47  66
BRANCH  59  72
ATOM     72  C   UNL A   1      42.236  34.991  33.202  1.00  0.00    -0.014 A 
ATOM     73  C   UNL A   1      43.025  35.998  32.625  1.00  0.00     0.009 A 
ATOM     74  C   UNL A   1      41.662  35.216  34.464  1.00  0.00     0.009 A 
ATOM     75  C   UNL A   1      43.256  37.194  33.310  1.00  0.00     0.001 A 
ATOM     76  C   UNL A   1      41.875  36.421  35.135  1.00  0.00     0.001 A 
ATOM     77  C   UNL A   1      42.677  37.406  34.562  1.00  0.00     0.000 A 
ENDBRANCH  59  72
ENDBRANCH  33  34
ENDBRANCH  25  28
ENDBRANCH  23  24
ENDBRANCH  22  23
ENDBRANCH   1  22
TORSDOF 13
ENDMDL
