MODEL 1
REMARK VINA RESULT:     -11.7      0.000      0.000
REMARK SMILES O=C(NCCCNC(=O)c1ccc(-c2c3nc(c(-c4ccccc4)c4ccc([nH]4)c(-c4ccccc4)c4nc(c(-c5ccccc5)c5ccc2[nH]5)C=C4)C=C3)cc1)C1=Cc2c(Cl)ccc(Cl)c2O[C@@H]1C(F)(F)F
REMARK SMILES IDX 5 1 4 2 3 3 1 4 2 5 58 7 59 8 69 9 60 10 68 11 61 12 67 13
REMARK SMILES IDX 62 14 63 15 65 16 64 17 66 18 70 19 71 20 72 21 73 22 6 23
REMARK SMILES IDX 7 24 8 25 9 27 10 28 11 29 57 30 12 31 56 32 13 33 14 34
REMARK SMILES IDX 15 35 50 36 16 37 55 38 49 39 51 40 17 41 54 42 48 43 47 44
REMARK SMILES IDX 18 46 40 47 25 48 39 49 26 50 29 51 38 52 52 53 27 54 28 55
REMARK SMILES IDX 37 57 53 58 30 59 19 60 20 61 24 62 21 63 23 64 22 65 41 66
REMARK SMILES IDX 42 67 46 68 43 69 45 70 44 71 31 72 32 73 36 74 33 75 35 76
REMARK SMILES IDX 34 77
REMARK H PARENT 3 6 7 26 51 45 29 56
REMARK Flexibility Score: inf
ROOT
ATOM      1  C   UNL A   1      31.849  28.045  27.196  1.00  0.00     0.042 C 
ENDROOT
BRANCH   1   2
ATOM      2  C   UNL A   1      31.792  26.802  26.318  1.00  0.00     0.118 C 
BRANCH   2   3
ATOM      3  N   UNL A   1      31.474  25.588  27.064  1.00  0.00    -0.352 N 
ATOM      4  O   UNL A   1      31.650  23.430  27.702  1.00  0.00    -0.270 OA
ATOM      5  C   UNL A   1      31.789  24.272  26.825  1.00  0.00     0.251 C 
ATOM      6  H   UNL A   1      30.943  25.738  27.880  1.00  0.00     0.163 HD
BRANCH   5   7
ATOM      7  C   UNL A   1      32.428  23.945  25.533  1.00  0.00     0.067 C 
ATOM      8  C   UNL A   1      33.735  24.139  25.312  1.00  0.00     0.027 C 
ATOM      9  C   UNL A   1      31.636  23.095  24.597  1.00  0.00     0.314 C 
ATOM     10  C   UNL A   1      34.428  22.871  24.974  1.00  0.00     0.037 A 
ATOM     11  O   UNL A   1      32.293  21.838  24.330  1.00  0.00    -0.474 OA
ATOM     12  C   UNL A   1      35.773  22.649  25.344  1.00  0.00     0.052 A 
ATOM     13  C   UNL A   1      33.646  21.754  24.587  1.00  0.00     0.148 A 
ATOM     14  Cl  UNL A   1      36.802  23.921  25.912  1.00  0.00    -0.084 Cl
ATOM     15  C   UNL A   1      36.301  21.352  25.382  1.00  0.00     0.023 A 
ATOM     16  C   UNL A   1      34.190  20.459  24.628  1.00  0.00     0.083 A 
ATOM     17  C   UNL A   1      35.505  20.258  25.043  1.00  0.00     0.026 A 
ATOM     18  Cl  UNL A   1      33.211  19.069  24.319  1.00  0.00    -0.080 Cl
BRANCH   9  19
ATOM     19  C   UNL A   1      31.356  23.865  23.291  1.00  0.00     0.429 C 
ATOM     20  F   UNL A   1      30.131  23.564  22.797  1.00  0.00    -0.167 F 
ATOM     21  F   UNL A   1      31.387  25.205  23.475  1.00  0.00    -0.167 F 
ATOM     22  F   UNL A   1      32.259  23.575  22.322  1.00  0.00    -0.167 F 
ENDBRANCH   9  19
ENDBRANCH   5   7
ENDBRANCH   2   3
ENDBRANCH   1   2
BRANCH   1  23
ATOM     23  C   UNL A   1      33.254  28.622  27.291  1.00  0.00     0.118 C 
BRANCH  23  24
ATOM     24  N   UNL A   1      33.300  30.044  27.609  1.00  0.00    -0.352 N 
ATOM     25  C   UNL A   1      34.332  30.817  28.109  1.00  0.00     0.251 C 
ATOM     26  H   UNL A   1      32.461  30.532  27.442  1.00  0.00     0.163 HD
ATOM     27  O   UNL A   1      34.137  31.985  28.370  1.00  0.00    -0.269 OA
BRANCH  25  28
ATOM     28  C   UNL A   1      35.661  30.207  28.372  1.00  0.00     0.039 A 
ATOM     29  C   UNL A   1      36.625  30.225  27.358  1.00  0.00     0.014 A 
ATOM     30  C   UNL A   1      35.973  29.644  29.607  1.00  0.00     0.014 A 
ATOM     31  C   UNL A   1      37.915  29.749  27.618  1.00  0.00     0.010 A 
ATOM     32  C   UNL A   1      37.287  29.317  29.909  1.00  0.00     0.010 A 
ATOM     33  C   UNL A   1      38.268  29.331  28.911  1.00  0.00    -0.014 A 
BRANCH  33  34
ATOM     34  C   UNL A   1      39.635  28.851  29.236  1.00  0.00     0.031 A 
ATOM     35  C   UNL A   1      40.575  29.739  30.013  1.00  0.00     0.074 A 
ATOM     36  C   UNL A   1      40.057  27.657  28.773  1.00  0.00     0.049 A 
ATOM     37  N   UNL A   1      41.827  29.535  30.339  1.00  0.00    -0.248 NA
ATOM     38  C   UNL A   1      40.058  31.052  30.436  1.00  0.00     0.031 C 
ATOM     39  C   UNL A   1      39.275  26.737  27.945  1.00  0.00     0.029 A 
ATOM     40  N   UNL A   1      41.257  27.013  28.940  1.00  0.00    -0.354 N 
ATOM     41  C   UNL A   1      42.248  30.706  30.960  1.00  0.00     0.074 A 
ATOM     42  C   UNL A   1      41.149  31.639  30.897  1.00  0.00     0.031 C 
ATOM     43  C   UNL A   1      39.994  25.626  27.720  1.00  0.00     0.029 A 
ATOM     44  C   UNL A   1      41.298  25.769  28.356  1.00  0.00     0.049 A 
ATOM     45  H   UNL A   1      42.015  27.404  29.430  1.00  0.00     0.167 HD
ATOM     46  C   UNL A   1      43.428  30.971  31.566  1.00  0.00     0.031 A 
ATOM     47  C   UNL A   1      42.276  24.845  28.349  1.00  0.00     0.031 A 
ATOM     48  C   UNL A   1      44.500  30.021  31.675  1.00  0.00     0.049 A 
ATOM     49  C   UNL A   1      43.555  25.133  29.084  1.00  0.00     0.074 A 
ATOM     50  C   UNL A   1      45.709  30.153  32.335  1.00  0.00     0.029 A 
ATOM     51  N   UNL A   1      44.482  28.754  31.116  1.00  0.00    -0.354 N 
ATOM     52  N   UNL A   1      43.909  26.216  29.734  1.00  0.00    -0.248 NA
ATOM     53  C   UNL A   1      44.559  24.061  29.104  1.00  0.00     0.031 C 
ATOM     54  C   UNL A   1      46.438  28.975  32.141  1.00  0.00     0.029 A 
ATOM     55  C   UNL A   1      45.662  28.092  31.406  1.00  0.00     0.049 A 
ATOM     56  H   UNL A   1      43.740  28.378  30.588  1.00  0.00     0.167 HD
ATOM     57  C   UNL A   1      45.163  25.945  30.265  1.00  0.00     0.074 A 
ATOM     58  C   UNL A   1      45.496  24.588  29.878  1.00  0.00     0.031 C 
ATOM     59  C   UNL A   1      45.969  26.744  31.007  1.00  0.00     0.031 A 
BRANCH  46  60
ATOM     60  C   UNL A   1      43.603  32.342  32.165  1.00  0.00    -0.014 A 
ATOM     61  C   UNL A   1      44.143  33.403  31.417  1.00  0.00     0.009 A 
ATOM     62  C   UNL A   1      43.229  32.575  33.497  1.00  0.00     0.009 A 
ATOM     63  C   UNL A   1      44.352  34.651  32.007  1.00  0.00     0.001 A 
ATOM     64  C   UNL A   1      43.406  33.835  34.072  1.00  0.00     0.001 A 
ATOM     65  C   UNL A   1      43.981  34.867  33.332  1.00  0.00     0.000 A 
ENDBRANCH  46  60
BRANCH  47  66
ATOM     66  C   UNL A   1      42.061  23.538  27.673  1.00  0.00    -0.014 A 
ATOM     67  C   UNL A   1      42.508  23.338  26.357  1.00  0.00     0.009 A 
ATOM     68  C   UNL A   1      41.415  22.483  28.335  1.00  0.00     0.009 A 
ATOM     69  C   UNL A   1      42.286  22.121  25.709  1.00  0.00     0.001 A 
ATOM     70  C   UNL A   1      41.220  21.258  27.695  1.00  0.00     0.001 A 
ATOM     71  C   UNL A   1      41.646  21.081  26.380  1.00  0.00     0.000 A 
ENDBRANCH  47  66
BRANCH  59  72
ATOM     72  C   UNL A   1      47.267  26.151  31.478  1.00  0.00    -0.014 A 
ATOM     73  C   UNL A   1      48.412  26.162  30.667  1.00  0.00     0.009 A 
ATOM     74  C   UNL A   1      47.346  25.591  32.762  1.00  0.00     0.009 A 
ATOM     75  C   UNL A   1      49.599  25.581  31.117  1.00  0.00     0.001 A 
ATOM     76  C   UNL A   1      48.542  25.040  33.221  1.00  0.00     0.001 A 
ATOM     77  C   UNL A   1      49.663  25.023  32.393  1.00  0.00     0.000 A 
ENDBRANCH  59  72
ENDBRANCH  33  34
ENDBRANCH  25  28
ENDBRANCH  23  24
ENDBRANCH   1  23
TORSDOF 11
ENDMDL
MODEL 2
REMARK VINA RESULT:     -11.7      4.838      7.612
REMARK SMILES O=C(NCCCNC(=O)c1ccc(-c2c3nc(c(-c4ccccc4)c4ccc([nH]4)c(-c4ccccc4)c4nc(c(-c5ccccc5)c5ccc2[nH]5)C=C4)C=C3)cc1)C1=Cc2c(Cl)ccc(Cl)c2O[C@@H]1C(F)(F)F
REMARK SMILES IDX 5 1 4 2 3 3 1 4 2 5 58 7 59 8 69 9 60 10 68 11 61 12 67 13
REMARK SMILES IDX 62 14 63 15 65 16 64 17 66 18 70 19 71 20 72 21 73 22 6 23
REMARK SMILES IDX 7 24 8 25 9 27 10 28 11 29 57 30 12 31 56 32 13 33 14 34
REMARK SMILES IDX 15 35 50 36 16 37 55 38 49 39 51 40 17 41 54 42 48 43 47 44
REMARK SMILES IDX 18 46 40 47 25 48 39 49 26 50 29 51 38 52 52 53 27 54 28 55
REMARK SMILES IDX 37 57 53 58 30 59 19 60 20 61 24 62 21 63 23 64 22 65 41 66
REMARK SMILES IDX 42 67 46 68 43 69 45 70 44 71 31 72 32 73 36 74 33 75 35 76
REMARK SMILES IDX 34 77
REMARK H PARENT 3 6 7 26 51 45 29 56
REMARK Flexibility Score: inf
ROOT
ATOM      1  C   UNL A   1      33.792  33.944  29.006  1.00  0.00     0.042 C 
ENDROOT
BRANCH   1   2
ATOM      2  C   UNL A   1      34.495  34.149  30.342  1.00  0.00     0.118 C 
BRANCH   2   3
ATOM      3  N   UNL A   1      35.947  34.245  30.216  1.00  0.00    -0.352 N 
ATOM      4  O   UNL A   1      38.111  33.801  30.679  1.00  0.00    -0.270 OA
ATOM      5  C   UNL A   1      36.955  33.873  31.073  1.00  0.00     0.251 C 
ATOM      6  H   UNL A   1      36.258  34.644  29.370  1.00  0.00     0.163 HD
BRANCH   5   7
ATOM      7  C   UNL A   1      36.571  33.434  32.430  1.00  0.00     0.067 C 
ATOM      8  C   UNL A   1      36.554  32.142  32.787  1.00  0.00     0.027 C 
ATOM      9  C   UNL A   1      36.514  34.492  33.481  1.00  0.00     0.314 C 
ATOM     10  C   UNL A   1      37.480  31.873  33.914  1.00  0.00     0.037 A 
ATOM     11  O   UNL A   1      37.466  34.249  34.537  1.00  0.00    -0.474 OA
ATOM     12  C   UNL A   1      38.147  30.632  34.036  1.00  0.00     0.052 A 
ATOM     13  C   UNL A   1      37.960  32.968  34.674  1.00  0.00     0.148 A 
ATOM     14  Cl  UNL A   1      37.705  29.244  33.098  1.00  0.00    -0.084 Cl
ATOM     15  C   UNL A   1      39.286  30.507  34.842  1.00  0.00     0.023 A 
ATOM     16  C   UNL A   1      39.103  32.827  35.479  1.00  0.00     0.083 A 
ATOM     17  C   UNL A   1      39.774  31.607  35.547  1.00  0.00     0.026 A 
ATOM     18  Cl  UNL A   1      39.801  34.187  36.286  1.00  0.00    -0.080 Cl
BRANCH   9  19
ATOM     19  C   UNL A   1      35.082  34.608  34.039  1.00  0.00     0.429 C 
ATOM     20  F   UNL A   1      34.278  33.644  33.529  1.00  0.00    -0.167 F 
ATOM     21  F   UNL A   1      35.048  34.477  35.385  1.00  0.00    -0.167 F 
ATOM     22  F   UNL A   1      34.511  35.801  33.741  1.00  0.00    -0.167 F 
ENDBRANCH   9  19
ENDBRANCH   5   7
ENDBRANCH   2   3
ENDBRANCH   1   2
BRANCH   1  23
ATOM     23  C   UNL A   1      34.581  33.040  28.072  1.00  0.00     0.118 C 
BRANCH  23  24
ATOM     24  N   UNL A   1      33.879  31.826  27.674  1.00  0.00    -0.352 N 
ATOM     25  C   UNL A   1      34.305  30.510  27.654  1.00  0.00     0.251 C 
ATOM     26  H   UNL A   1      32.952  31.965  27.371  1.00  0.00     0.163 HD
ATOM     27  O   UNL A   1      33.573  29.647  27.216  1.00  0.00    -0.269 OA
BRANCH  25  28
ATOM     28  C   UNL A   1      35.672  30.161  28.119  1.00  0.00     0.039 A 
ATOM     29  C   UNL A   1      35.840  29.688  29.425  1.00  0.00     0.014 A 
ATOM     30  C   UNL A   1      36.778  30.272  27.281  1.00  0.00     0.014 A 
ATOM     31  C   UNL A   1      37.102  29.258  29.850  1.00  0.00     0.010 A 
ATOM     32  C   UNL A   1      37.989  29.704  27.650  1.00  0.00     0.010 A 
ATOM     33  C   UNL A   1      38.178  29.221  28.950  1.00  0.00    -0.014 A 
BRANCH  33  34
ATOM     34  C   UNL A   1      39.524  28.740  29.352  1.00  0.00     0.031 A 
ATOM     35  C   UNL A   1      40.392  29.600  30.237  1.00  0.00     0.074 A 
ATOM     36  C   UNL A   1      39.996  27.575  28.868  1.00  0.00     0.049 A 
ATOM     37  N   UNL A   1      41.619  29.395  30.645  1.00  0.00    -0.248 NA
ATOM     38  C   UNL A   1      39.827  30.886  30.681  1.00  0.00     0.031 C 
ATOM     39  C   UNL A   1      39.289  26.686  27.941  1.00  0.00     0.029 A 
ATOM     40  N   UNL A   1      41.189  26.936  29.093  1.00  0.00    -0.354 N 
ATOM     41  C   UNL A   1      41.976  30.539  31.350  1.00  0.00     0.074 A 
ATOM     42  C   UNL A   1      40.872  31.463  31.248  1.00  0.00     0.031 C 
ATOM     43  C   UNL A   1      40.039  25.594  27.720  1.00  0.00     0.029 A 
ATOM     44  C   UNL A   1      41.290  25.721  28.457  1.00  0.00     0.049 A 
ATOM     45  H   UNL A   1      41.903  27.311  29.656  1.00  0.00     0.167 HD
ATOM     46  C   UNL A   1      43.105  30.788  32.053  1.00  0.00     0.031 A 
ATOM     47  C   UNL A   1      42.279  24.808  28.480  1.00  0.00     0.031 A 
ATOM     48  C   UNL A   1      44.179  29.845  32.198  1.00  0.00     0.049 A 
ATOM     49  C   UNL A   1      43.496  25.075  29.320  1.00  0.00     0.074 A 
ATOM     50  C   UNL A   1      45.334  29.957  32.951  1.00  0.00     0.029 A 
ATOM     51  N   UNL A   1      44.220  28.605  31.581  1.00  0.00    -0.354 N 
ATOM     52  N   UNL A   1      43.785  26.129  30.044  1.00  0.00    -0.248 NA
ATOM     53  C   UNL A   1      44.510  24.013  29.365  1.00  0.00     0.031 C 
ATOM     54  C   UNL A   1      46.092  28.798  32.758  1.00  0.00     0.029 A 
ATOM     55  C   UNL A   1      45.384  27.943  31.927  1.00  0.00     0.049 A 
ATOM     56  H   UNL A   1      43.524  28.247  30.983  1.00  0.00     0.167 HD
ATOM     57  C   UNL A   1      45.001  25.846  30.654  1.00  0.00     0.074 A 
ATOM     58  C   UNL A   1      45.380  24.513  30.230  1.00  0.00     0.031 C 
ATOM     59  C   UNL A   1      45.739  26.618  31.491  1.00  0.00     0.031 A 
BRANCH  46  60
ATOM     60  C   UNL A   1      43.216  32.130  32.726  1.00  0.00    -0.014 A 
ATOM     61  C   UNL A   1      42.871  32.302  34.078  1.00  0.00     0.009 A 
ATOM     62  C   UNL A   1      43.668  33.242  31.998  1.00  0.00     0.009 A 
ATOM     63  C   UNL A   1      42.925  33.566  34.669  1.00  0.00     0.001 A 
ATOM     64  C   UNL A   1      43.754  34.497  32.602  1.00  0.00     0.001 A 
ATOM     65  C   UNL A   1      43.369  34.662  33.932  1.00  0.00     0.000 A 
ENDBRANCH  46  60
BRANCH  47  66
ATOM     66  C   UNL A   1      42.133  23.532  27.730  1.00  0.00    -0.014 A 
ATOM     67  C   UNL A   1      41.454  22.445  28.305  1.00  0.00     0.009 A 
ATOM     68  C   UNL A   1      42.664  23.392  26.440  1.00  0.00     0.009 A 
ATOM     69  C   UNL A   1      41.336  21.237  27.615  1.00  0.00     0.001 A 
ATOM     70  C   UNL A   1      42.519  22.192  25.741  1.00  0.00     0.001 A 
ATOM     71  C   UNL A   1      41.865  21.113  26.332  1.00  0.00     0.000 A 
ENDBRANCH  47  66
BRANCH  59  72
ATOM     72  C   UNL A   1      47.006  26.018  32.028  1.00  0.00    -0.014 A 
ATOM     73  C   UNL A   1      48.222  26.135  31.337  1.00  0.00     0.009 A 
ATOM     74  C   UNL A   1      46.983  25.340  33.257  1.00  0.00     0.009 A 
ATOM     75  C   UNL A   1      49.380  25.545  31.845  1.00  0.00     0.001 A 
ATOM     76  C   UNL A   1      48.149  24.779  33.777  1.00  0.00     0.001 A 
ATOM     77  C   UNL A   1      49.343  24.870  33.064  1.00  0.00     0.000 A 
ENDBRANCH  59  72
ENDBRANCH  33  34
ENDBRANCH  25  28
ENDBRANCH  23  24
ENDBRANCH   1  23
TORSDOF 11
ENDMDL
MODEL 3
REMARK VINA RESULT:     -11.4      1.589      6.266
REMARK SMILES O=C(NCCCNC(=O)c1ccc(-c2c3nc(c(-c4ccccc4)c4ccc([nH]4)c(-c4ccccc4)c4nc(c(-c5ccccc5)c5ccc2[nH]5)C=C4)C=C3)cc1)C1=Cc2c(Cl)ccc(Cl)c2O[C@@H]1C(F)(F)F
REMARK SMILES IDX 5 1 4 2 3 3 1 4 2 5 58 7 59 8 69 9 60 10 68 11 61 12 67 13
REMARK SMILES IDX 62 14 63 15 65 16 64 17 66 18 70 19 71 20 72 21 73 22 6 23
REMARK SMILES IDX 7 24 8 25 9 27 10 28 11 29 57 30 12 31 56 32 13 33 14 34
REMARK SMILES IDX 15 35 50 36 16 37 55 38 49 39 51 40 17 41 54 42 48 43 47 44
REMARK SMILES IDX 18 46 40 47 25 48 39 49 26 50 29 51 38 52 52 53 27 54 28 55
REMARK SMILES IDX 37 57 53 58 30 59 19 60 20 61 24 62 21 63 23 64 22 65 41 66
REMARK SMILES IDX 42 67 46 68 43 69 45 70 44 71 31 72 32 73 36 74 33 75 35 76
REMARK SMILES IDX 34 77
REMARK H PARENT 3 6 7 26 51 45 29 56
REMARK Flexibility Score: inf
ROOT
ATOM      1  C   UNL A   1      33.799  28.781  25.730  1.00  0.00     0.042 C 
ENDROOT
BRANCH   1   2
ATOM      2  C   UNL A   1      32.636  28.061  25.061  1.00  0.00     0.118 C 
BRANCH   2   3
ATOM      3  N   UNL A   1      32.060  27.008  25.893  1.00  0.00    -0.352 N 
ATOM      4  O   UNL A   1      31.882  24.966  26.838  1.00  0.00    -0.270 OA
ATOM      5  C   UNL A   1      32.263  25.648  25.897  1.00  0.00     0.251 C 
ATOM      6  H   UNL A   1      31.417  27.326  26.567  1.00  0.00     0.163 HD
BRANCH   5   7
ATOM      7  C   UNL A   1      33.074  25.074  24.803  1.00  0.00     0.067 C 
ATOM      8  C   UNL A   1      34.387  24.838  24.933  1.00  0.00     0.027 C 
ATOM      9  C   UNL A   1      32.322  24.469  23.666  1.00  0.00     0.314 C 
ATOM     10  C   UNL A   1      34.706  23.401  24.742  1.00  0.00     0.037 A 
ATOM     11  O   UNL A   1      32.594  23.058  23.534  1.00  0.00    -0.474 OA
ATOM     12  C   UNL A   1      35.772  22.788  25.439  1.00  0.00     0.052 A 
ATOM     13  C   UNL A   1      33.739  22.568  24.129  1.00  0.00     0.148 A 
ATOM     14  Cl  UNL A   1      36.968  23.701  26.297  1.00  0.00    -0.084 Cl
ATOM     15  C   UNL A   1      35.836  21.395  25.567  1.00  0.00     0.023 A 
ATOM     16  C   UNL A   1      33.818  21.171  24.265  1.00  0.00     0.083 A 
ATOM     17  C   UNL A   1      34.850  20.589  24.998  1.00  0.00     0.026 A 
ATOM     18  Cl  UNL A   1      32.564  20.143  23.666  1.00  0.00    -0.080 Cl
BRANCH   9  19
ATOM     19  C   UNL A   1      32.642  25.221  22.359  1.00  0.00     0.429 C 
ATOM     20  F   UNL A   1      33.737  26.006  22.501  1.00  0.00    -0.167 F 
ATOM     21  F   UNL A   1      32.896  24.375  21.334  1.00  0.00    -0.167 F 
ATOM     22  F   UNL A   1      31.623  26.026  21.968  1.00  0.00    -0.167 F 
ENDBRANCH   9  19
ENDBRANCH   5   7
ENDBRANCH   2   3
ENDBRANCH   1   2
BRANCH   1  23
ATOM     23  C   UNL A   1      33.752  28.671  27.246  1.00  0.00     0.118 C 
BRANCH  23  24
ATOM     24  N   UNL A   1      33.778  29.952  27.943  1.00  0.00    -0.352 N 
ATOM     25  C   UNL A   1      34.822  30.610  28.569  1.00  0.00     0.251 C 
ATOM     26  H   UNL A   1      32.915  30.423  27.974  1.00  0.00     0.163 HD
ATOM     27  O   UNL A   1      34.611  31.650  29.157  1.00  0.00    -0.269 OA
BRANCH  25  28
ATOM     28  C   UNL A   1      36.186  30.019  28.564  1.00  0.00     0.039 A 
ATOM     29  C   UNL A   1      36.980  30.164  27.422  1.00  0.00     0.014 A 
ATOM     30  C   UNL A   1      36.695  29.352  29.675  1.00  0.00     0.014 A 
ATOM     31  C   UNL A   1      38.302  29.707  27.433  1.00  0.00     0.010 A 
ATOM     32  C   UNL A   1      38.045  29.039  29.739  1.00  0.00     0.010 A 
ATOM     33  C   UNL A   1      38.859  29.180  28.609  1.00  0.00    -0.014 A 
BRANCH  33  34
ATOM     34  C   UNL A   1      40.267  28.714  28.671  1.00  0.00     0.031 A 
ATOM     35  C   UNL A   1      40.601  27.289  28.307  1.00  0.00     0.074 A 
ATOM     36  C   UNL A   1      41.231  29.541  29.124  1.00  0.00     0.049 A 
ATOM     37  N   UNL A   1      41.753  26.668  28.359  1.00  0.00    -0.248 NA
ATOM     38  C   UNL A   1      39.484  26.431  27.874  1.00  0.00     0.031 C 
ATOM     39  C   UNL A   1      41.029  30.917  29.582  1.00  0.00     0.029 A 
ATOM     40  N   UNL A   1      42.580  29.338  29.270  1.00  0.00    -0.354 N 
ATOM     41  C   UNL A   1      41.484  25.349  28.011  1.00  0.00     0.074 A 
ATOM     42  C   UNL A   1      40.057  25.240  27.826  1.00  0.00     0.031 C 
ATOM     43  C   UNL A   1      42.217  31.452  29.907  1.00  0.00     0.029 A 
ATOM     44  C   UNL A   1      43.257  30.448  29.715  1.00  0.00     0.049 A 
ATOM     45  H   UNL A   1      43.021  28.481  29.073  1.00  0.00     0.167 HD
ATOM     46  C   UNL A   1      42.349  24.326  27.822  1.00  0.00     0.031 A 
ATOM     47  C   UNL A   1      44.572  30.636  29.931  1.00  0.00     0.031 A 
ATOM     48  C   UNL A   1      43.774  24.451  27.954  1.00  0.00     0.049 A 
ATOM     49  C   UNL A   1      45.523  29.506  29.652  1.00  0.00     0.074 A 
ATOM     50  C   UNL A   1      44.752  23.504  27.709  1.00  0.00     0.029 A 
ATOM     51  N   UNL A   1      44.424  25.606  28.356  1.00  0.00    -0.354 N 
ATOM     52  N   UNL A   1      45.261  28.286  29.248  1.00  0.00    -0.248 NA
ATOM     53  C   UNL A   1      46.953  29.789  29.835  1.00  0.00     0.031 C 
ATOM     54  C   UNL A   1      45.993  24.077  28.001  1.00  0.00     0.029 A 
ATOM     55  C   UNL A   1      45.791  25.397  28.377  1.00  0.00     0.049 A 
ATOM     56  H   UNL A   1      43.979  26.452  28.594  1.00  0.00     0.167 HD
ATOM     57  C   UNL A   1      46.495  27.664  29.100  1.00  0.00     0.074 A 
ATOM     58  C   UNL A   1      47.502  28.650  29.438  1.00  0.00     0.031 C 
ATOM     59  C   UNL A   1      46.772  26.393  28.718  1.00  0.00     0.031 A 
BRANCH  46  60
ATOM     60  C   UNL A   1      41.765  22.991  27.439  1.00  0.00    -0.014 A 
ATOM     61  C   UNL A   1      41.645  21.950  28.376  1.00  0.00     0.009 A 
ATOM     62  C   UNL A   1      41.333  22.769  26.123  1.00  0.00     0.009 A 
ATOM     63  C   UNL A   1      41.156  20.701  27.989  1.00  0.00     0.001 A 
ATOM     64  C   UNL A   1      40.811  21.530  25.748  1.00  0.00     0.001 A 
ATOM     65  C   UNL A   1      40.736  20.493  26.676  1.00  0.00     0.000 A 
ENDBRANCH  46  60
BRANCH  47  66
ATOM     66  C   UNL A   1      45.072  31.962  30.381  1.00  0.00    -0.014 A 
ATOM     67  C   UNL A   1      45.184  32.251  31.750  1.00  0.00     0.009 A 
ATOM     68  C   UNL A   1      45.443  32.944  29.450  1.00  0.00     0.009 A 
ATOM     69  C   UNL A   1      45.629  33.504  32.178  1.00  0.00     0.001 A 
ATOM     70  C   UNL A   1      45.915  34.186  29.881  1.00  0.00     0.001 A 
ATOM     71  C   UNL A   1      45.998  34.468  31.243  1.00  0.00     0.000 A 
ENDBRANCH  47  66
BRANCH  59  72
ATOM     72  C   UNL A   1      48.222  26.017  28.611  1.00  0.00    -0.014 A 
ATOM     73  C   UNL A   1      48.948  25.578  29.729  1.00  0.00     0.009 A 
ATOM     74  C   UNL A   1      48.863  26.085  27.364  1.00  0.00     0.009 A 
ATOM     75  C   UNL A   1      50.302  25.260  29.608  1.00  0.00     0.001 A 
ATOM     76  C   UNL A   1      50.208  25.736  27.241  1.00  0.00     0.001 A 
ATOM     77  C   UNL A   1      50.929  25.337  28.364  1.00  0.00     0.000 A 
ENDBRANCH  59  72
ENDBRANCH  33  34
ENDBRANCH  25  28
ENDBRANCH  23  24
ENDBRANCH   1  23
TORSDOF 11
ENDMDL
