MODEL 1
REMARK VINA RESULT:     -10.5      0.000      0.000
REMARK SMILES C[C@@H](Oc1cncc(C(=O)NCCCNC(=O)c2ccc(-c3c4nc(c(-c5ccccc5)c5ccc([nH]5)c(-c5ccccc5)c5nc(c(-c6ccccc6)c6ccc3[nH]6)C=C5)C=C4)cc2)n1)C(F)(F)F
REMARK SMILES IDX 12 1 11 2 9 3 10 4 8 6 4 7 5 8 66 9 6 10 7 11 3 12 2 13 1 14
REMARK SMILES IDX 67 15 68 16 69 17 70 18 13 19 14 20 15 21 16 22 17 24 18 25
REMARK SMILES IDX 19 26 65 27 20 28 64 29 21 30 22 31 23 32 58 33 24 34 63 35
REMARK SMILES IDX 57 36 59 37 25 38 62 39 56 40 55 41 26 43 48 44 33 45 47 46
REMARK SMILES IDX 34 47 37 48 46 49 60 50 35 51 36 52 45 54 61 55 38 56 27 57
REMARK SMILES IDX 28 58 32 59 29 60 31 61 30 62 49 63 50 64 54 65 51 66 53 67
REMARK SMILES IDX 52 68 39 69 40 70 44 71 41 72 43 73 42 74
REMARK H PARENT 11 5 15 23 59 42 37 53
REMARK Flexibility Score: inf
ROOT
ATOM      1  C   UNL A   1      33.188  26.509  25.894  1.00  0.00     0.118 C 
ENDROOT
BRANCH   1   2
ATOM      2  N   UNL A   1      33.371  26.107  24.510  1.00  0.00    -0.351 N 
ATOM      3  C   UNL A   1      32.564  26.229  23.406  1.00  0.00     0.271 C 
ATOM      4  O   UNL A   1      32.981  25.746  22.351  1.00  0.00    -0.267 OA
ATOM      5  H   UNL A   1      34.231  25.663  24.332  1.00  0.00     0.163 HD
BRANCH   3   6
ATOM      6  C   UNL A   1      31.256  26.947  23.406  1.00  0.00     0.150 A 
ATOM      7  C   UNL A   1      29.908  28.724  22.897  1.00  0.00     0.233 A 
ATOM      8  C   UNL A   1      28.786  27.972  23.223  1.00  0.00     0.179 A 
ATOM      9  N   UNL A   1      31.165  28.238  22.983  1.00  0.00    -0.205 NA
ATOM     10  N   UNL A   1      28.869  26.715  23.711  1.00  0.00    -0.257 NA
ATOM     11  C   UNL A   1      30.130  26.217  23.784  1.00  0.00     0.145 A 
BRANCH   7  12
ATOM     12  O   UNL A   1      29.765  29.939  22.281  1.00  0.00    -0.464 OA
BRANCH  12  13
ATOM     13  C   UNL A   1      28.403  30.414  22.306  1.00  0.00     0.277 C 
ATOM     14  C   UNL A   1      28.065  31.037  20.949  1.00  0.00     0.063 C 
BRANCH  13  15
ATOM     15  C   UNL A   1      28.265  31.476  23.401  1.00  0.00     0.425 C 
ATOM     16  F   UNL A   1      27.199  31.211  24.195  1.00  0.00    -0.167 F 
ATOM     17  F   UNL A   1      29.355  31.512  24.200  1.00  0.00    -0.167 F 
ATOM     18  F   UNL A   1      28.084  32.712  22.886  1.00  0.00    -0.167 F 
ENDBRANCH  13  15
ENDBRANCH  12  13
ENDBRANCH   7  12
ENDBRANCH   3   6
ENDBRANCH   1   2
BRANCH   1  19
ATOM     19  C   UNL A   1      33.642  27.950  26.115  1.00  0.00     0.042 C 
BRANCH  19  20
ATOM     20  C   UNL A   1      33.333  28.488  27.514  1.00  0.00     0.118 C 
BRANCH  20  21
ATOM     21  N   UNL A   1      33.398  29.941  27.582  1.00  0.00    -0.352 N 
ATOM     22  C   UNL A   1      34.398  30.774  28.009  1.00  0.00     0.251 C 
ATOM     23  H   UNL A   1      32.587  30.403  27.267  1.00  0.00     0.163 HD
ATOM     24  O   UNL A   1      34.156  31.972  28.157  1.00  0.00    -0.269 OA
BRANCH  22  25
ATOM     25  C   UNL A   1      35.757  30.268  28.297  1.00  0.00     0.039 A 
ATOM     26  C   UNL A   1      36.022  29.766  29.575  1.00  0.00     0.014 A 
ATOM     27  C   UNL A   1      36.791  30.360  27.360  1.00  0.00     0.014 A 
ATOM     28  C   UNL A   1      37.306  29.328  29.904  1.00  0.00     0.010 A 
ATOM     29  C   UNL A   1      38.057  29.862  27.666  1.00  0.00     0.010 A 
ATOM     30  C   UNL A   1      38.333  29.359  28.946  1.00  0.00    -0.014 A 
BRANCH  30  31
ATOM     31  C   UNL A   1      39.698  28.887  29.288  1.00  0.00     0.031 A 
ATOM     32  C   UNL A   1      40.628  29.753  30.090  1.00  0.00     0.074 A 
ATOM     33  C   UNL A   1      40.116  27.685  28.845  1.00  0.00     0.049 A 
ATOM     34  N   UNL A   1      41.851  29.503  30.491  1.00  0.00    -0.248 NA
ATOM     35  C   UNL A   1      40.132  31.085  30.472  1.00  0.00     0.031 C 
ATOM     36  C   UNL A   1      39.333  26.769  28.013  1.00  0.00     0.029 A 
ATOM     37  N   UNL A   1      41.307  27.030  29.034  1.00  0.00    -0.354 N 
ATOM     38  C   UNL A   1      42.273  30.651  31.151  1.00  0.00     0.074 A 
ATOM     39  C   UNL A   1      41.196  31.611  31.060  1.00  0.00     0.031 C 
ATOM     40  C   UNL A   1      40.053  25.657  27.790  1.00  0.00     0.029 A 
ATOM     41  C   UNL A   1      41.353  25.794  28.439  1.00  0.00     0.049 A 
ATOM     42  H   UNL A   1      42.056  27.410  29.548  1.00  0.00     0.167 HD
ATOM     43  C   UNL A   1      43.446  30.880  31.791  1.00  0.00     0.031 A 
ATOM     44  C   UNL A   1      42.329  24.867  28.426  1.00  0.00     0.031 A 
ATOM     45  C   UNL A   1      44.513  29.921  31.900  1.00  0.00     0.049 A 
ATOM     46  C   UNL A   1      43.603  25.127  29.176  1.00  0.00     0.074 A 
ATOM     47  C   UNL A   1      45.712  30.036  32.583  1.00  0.00     0.029 A 
ATOM     48  N   UNL A   1      44.508  28.668  31.310  1.00  0.00    -0.354 N 
ATOM     49  N   UNL A   1      43.958  26.187  29.860  1.00  0.00    -0.248 NA
ATOM     50  C   UNL A   1      44.604  24.050  29.169  1.00  0.00     0.031 C 
ATOM     51  C   UNL A   1      46.449  28.865  32.373  1.00  0.00     0.029 A 
ATOM     52  C   UNL A   1      45.689  28.004  31.598  1.00  0.00     0.049 A 
ATOM     53  H   UNL A   1      43.773  28.302  30.765  1.00  0.00     0.167 HD
ATOM     54  C   UNL A   1      45.210  25.897  30.385  1.00  0.00     0.074 A 
ATOM     55  C   UNL A   1      45.545  24.555  29.954  1.00  0.00     0.031 C 
ATOM     56  C   UNL A   1      46.011  26.673  31.156  1.00  0.00     0.031 A 
BRANCH  43  57
ATOM     57  C   UNL A   1      43.634  32.235  32.416  1.00  0.00    -0.014 A 
ATOM     58  C   UNL A   1      43.240  32.488  33.739  1.00  0.00     0.009 A 
ATOM     59  C   UNL A   1      44.226  33.270  31.674  1.00  0.00     0.009 A 
ATOM     60  C   UNL A   1      43.396  33.760  34.293  1.00  0.00     0.001 A 
ATOM     61  C   UNL A   1      44.406  34.532  32.241  1.00  0.00     0.001 A 
ATOM     62  C   UNL A   1      43.981  34.780  33.545  1.00  0.00     0.000 A 
ENDBRANCH  43  57
BRANCH  44  63
ATOM     63  C   UNL A   1      42.118  23.585  27.706  1.00  0.00    -0.014 A 
ATOM     64  C   UNL A   1      42.558  23.433  26.383  1.00  0.00     0.009 A 
ATOM     65  C   UNL A   1      41.487  22.506  28.344  1.00  0.00     0.009 A 
ATOM     66  C   UNL A   1      42.350  22.232  25.703  1.00  0.00     0.001 A 
ATOM     67  C   UNL A   1      41.303  21.297  27.669  1.00  0.00     0.001 A 
ATOM     68  C   UNL A   1      41.728  21.164  26.347  1.00  0.00     0.000 A 
ENDBRANCH  44  63
BRANCH  56  69
ATOM     69  C   UNL A   1      47.315  26.073  31.601  1.00  0.00    -0.014 A 
ATOM     70  C   UNL A   1      47.441  25.455  32.855  1.00  0.00     0.009 A 
ATOM     71  C   UNL A   1      48.426  26.114  30.746  1.00  0.00     0.009 A 
ATOM     72  C   UNL A   1      48.668  24.924  33.259  1.00  0.00     0.001 A 
ATOM     73  C   UNL A   1      49.645  25.561  31.143  1.00  0.00     0.001 A 
ATOM     74  C   UNL A   1      49.767  24.976  32.403  1.00  0.00     0.000 A 
ENDBRANCH  56  69
ENDBRANCH  30  31
ENDBRANCH  22  25
ENDBRANCH  20  21
ENDBRANCH  19  20
ENDBRANCH   1  19
TORSDOF 13
ENDMDL
MODEL 2
REMARK VINA RESULT:     -10.3      5.800     10.702
REMARK SMILES C[C@@H](Oc1cncc(C(=O)NCCCNC(=O)c2ccc(-c3c4nc(c(-c5ccccc5)c5ccc([nH]5)c(-c5ccccc5)c5nc(c(-c6ccccc6)c6ccc3[nH]6)C=C5)C=C4)cc2)n1)C(F)(F)F
REMARK SMILES IDX 12 1 11 2 9 3 10 4 8 6 4 7 5 8 66 9 6 10 7 11 3 12 2 13 1 14
REMARK SMILES IDX 67 15 68 16 69 17 70 18 13 19 14 20 15 21 16 22 17 24 18 25
REMARK SMILES IDX 19 26 65 27 20 28 64 29 21 30 22 31 23 32 58 33 24 34 63 35
REMARK SMILES IDX 57 36 59 37 25 38 62 39 56 40 55 41 26 43 48 44 33 45 47 46
REMARK SMILES IDX 34 47 37 48 46 49 60 50 35 51 36 52 45 54 61 55 38 56 27 57
REMARK SMILES IDX 28 58 32 59 29 60 31 61 30 62 49 63 50 64 54 65 51 66 53 67
REMARK SMILES IDX 52 68 39 69 40 70 44 71 41 72 43 73 42 74
REMARK H PARENT 11 5 15 23 59 42 37 53
REMARK Flexibility Score: inf
ROOT
ATOM      1  C   UNL A   1      41.709  19.862  25.902  1.00  0.00     0.118 C 
ENDROOT
BRANCH   1   2
ATOM      2  N   UNL A   1      42.800  18.913  25.774  1.00  0.00    -0.351 N 
ATOM      3  C   UNL A   1      44.087  19.053  25.315  1.00  0.00     0.271 C 
ATOM      4  O   UNL A   1      44.786  18.038  25.289  1.00  0.00    -0.267 OA
ATOM      5  H   UNL A   1      42.577  18.001  26.069  1.00  0.00     0.163 HD
BRANCH   3   6
ATOM      6  C   UNL A   1      44.688  20.355  24.903  1.00  0.00     0.150 A 
ATOM      7  C   UNL A   1      44.606  22.613  24.544  1.00  0.00     0.233 A 
ATOM      8  C   UNL A   1      45.990  22.647  24.419  1.00  0.00     0.179 A 
ATOM      9  N   UNL A   1      43.922  21.474  24.783  1.00  0.00    -0.205 NA
ATOM     10  N   UNL A   1      46.752  21.533  24.465  1.00  0.00    -0.257 NA
ATOM     11  C   UNL A   1      46.070  20.388  24.721  1.00  0.00     0.145 A 
BRANCH   7  12
ATOM     12  O   UNL A   1      43.895  23.781  24.625  1.00  0.00    -0.464 OA
BRANCH  12  13
ATOM     13  C   UNL A   1      44.305  24.603  25.737  1.00  0.00     0.277 C 
ATOM     14  C   UNL A   1      43.499  24.206  26.977  1.00  0.00     0.063 C 
BRANCH  13  15
ATOM     15  C   UNL A   1      44.030  26.071  25.400  1.00  0.00     0.425 C 
ATOM     16  F   UNL A   1      43.811  26.790  26.528  1.00  0.00    -0.167 F 
ATOM     17  F   UNL A   1      45.076  26.641  24.763  1.00  0.00    -0.167 F 
ATOM     18  F   UNL A   1      42.937  26.213  24.617  1.00  0.00    -0.167 F 
ENDBRANCH  13  15
ENDBRANCH  12  13
ENDBRANCH   7  12
ENDBRANCH   3   6
ENDBRANCH   1   2
BRANCH   1  19
ATOM     19  C   UNL A   1      41.920  20.790  27.096  1.00  0.00     0.042 C 
BRANCH  19  20
ATOM     20  C   UNL A   1      40.631  21.432  27.616  1.00  0.00     0.118 C 
BRANCH  20  21
ATOM     21  N   UNL A   1      39.698  21.759  26.548  1.00  0.00    -0.352 N 
ATOM     22  C   UNL A   1      39.025  22.918  26.269  1.00  0.00     0.251 C 
ATOM     23  H   UNL A   1      39.520  21.021  25.919  1.00  0.00     0.163 HD
ATOM     24  O   UNL A   1      38.134  22.904  25.419  1.00  0.00    -0.269 OA
BRANCH  22  25
ATOM     25  C   UNL A   1      39.342  24.184  26.965  1.00  0.00     0.039 A 
ATOM     26  C   UNL A   1      40.083  25.152  26.278  1.00  0.00     0.014 A 
ATOM     27  C   UNL A   1      38.996  24.396  28.303  1.00  0.00     0.014 A 
ATOM     28  C   UNL A   1      40.448  26.338  26.917  1.00  0.00     0.010 A 
ATOM     29  C   UNL A   1      39.304  25.609  28.921  1.00  0.00     0.010 A 
ATOM     30  C   UNL A   1      40.049  26.584  28.240  1.00  0.00    -0.014 A 
BRANCH  30  31
ATOM     31  C   UNL A   1      40.427  27.847  28.921  1.00  0.00     0.031 A 
ATOM     32  C   UNL A   1      41.792  28.009  29.530  1.00  0.00     0.074 A 
ATOM     33  C   UNL A   1      39.526  28.844  29.022  1.00  0.00     0.049 A 
ATOM     34  N   UNL A   1      42.301  29.042  30.154  1.00  0.00    -0.248 NA
ATOM     35  C   UNL A   1      42.696  26.851  29.451  1.00  0.00     0.031 C 
ATOM     36  C   UNL A   1      38.151  28.796  28.522  1.00  0.00     0.029 A 
ATOM     37  N   UNL A   1      39.636  30.092  29.583  1.00  0.00    -0.354 N 
ATOM     38  C   UNL A   1      43.572  28.651  30.558  1.00  0.00     0.074 A 
ATOM     39  C   UNL A   1      43.740  27.274  30.148  1.00  0.00     0.031 C 
ATOM     40  C   UNL A   1      37.554  29.974  28.770  1.00  0.00     0.029 A 
ATOM     41  C   UNL A   1      38.495  30.846  29.467  1.00  0.00     0.049 A 
ATOM     42  H   UNL A   1      40.454  30.415  30.024  1.00  0.00     0.167 HD
ATOM     43  C   UNL A   1      44.522  29.376  31.198  1.00  0.00     0.031 A 
ATOM     44  C   UNL A   1      38.235  32.104  29.869  1.00  0.00     0.031 A 
ATOM     45  C   UNL A   1      44.365  30.751  31.592  1.00  0.00     0.049 A 
ATOM     46  C   UNL A   1      39.316  32.902  30.540  1.00  0.00     0.074 A 
ATOM     47  C   UNL A   1      45.293  31.590  32.187  1.00  0.00     0.029 A 
ATOM     48  N   UNL A   1      43.205  31.489  31.430  1.00  0.00    -0.354 N 
ATOM     49  N   UNL A   1      40.539  32.543  30.847  1.00  0.00    -0.248 NA
ATOM     50  C   UNL A   1      38.985  34.288  30.900  1.00  0.00     0.031 C 
ATOM     51  C   UNL A   1      44.678  32.826  32.419  1.00  0.00     0.029 A 
ATOM     52  C   UNL A   1      43.385  32.769  31.927  1.00  0.00     0.049 A 
ATOM     53  H   UNL A   1      42.373  31.153  31.022  1.00  0.00     0.167 HD
ATOM     54  C   UNL A   1      41.131  33.663  31.413  1.00  0.00     0.074 A 
ATOM     55  C   UNL A   1      40.139  34.719  31.391  1.00  0.00     0.031 C 
ATOM     56  C   UNL A   1      42.386  33.805  31.906  1.00  0.00     0.031 A 
BRANCH  43  57
ATOM     57  C   UNL A   1      45.816  28.680  31.520  1.00  0.00    -0.014 A 
ATOM     58  C   UNL A   1      45.994  27.998  32.734  1.00  0.00     0.009 A 
ATOM     59  C   UNL A   1      46.867  28.695  30.590  1.00  0.00     0.009 A 
ATOM     60  C   UNL A   1      47.212  27.383  33.029  1.00  0.00     0.001 A 
ATOM     61  C   UNL A   1      48.074  28.055  30.875  1.00  0.00     0.001 A 
ATOM     62  C   UNL A   1      48.249  27.409  32.098  1.00  0.00     0.000 A 
ENDBRANCH  43  57
BRANCH  44  63
ATOM     63  C   UNL A   1      36.901  32.701  29.608  1.00  0.00    -0.014 A 
ATOM     64  C   UNL A   1      36.626  33.313  28.377  1.00  0.00     0.009 A 
ATOM     65  C   UNL A   1      35.894  32.651  30.584  1.00  0.00     0.009 A 
ATOM     66  C   UNL A   1      35.375  33.884  28.134  1.00  0.00     0.001 A 
ATOM     67  C   UNL A   1      34.636  33.199  30.330  1.00  0.00     0.001 A 
ATOM     68  C   UNL A   1      34.380  33.822  29.109  1.00  0.00     0.000 A 
ENDBRANCH  44  63
BRANCH  56  69
ATOM     69  C   UNL A   1      42.758  35.161  32.436  1.00  0.00    -0.014 A 
ATOM     70  C   UNL A   1      42.405  35.557  33.735  1.00  0.00     0.009 A 
ATOM     71  C   UNL A   1      43.487  36.047  31.628  1.00  0.00     0.009 A 
ATOM     72  C   UNL A   1      42.741  36.830  34.200  1.00  0.00     0.001 A 
ATOM     73  C   UNL A   1      43.843  37.310  32.105  1.00  0.00     0.001 A 
ATOM     74  C   UNL A   1      43.460  37.704  33.386  1.00  0.00     0.000 A 
ENDBRANCH  56  69
ENDBRANCH  30  31
ENDBRANCH  22  25
ENDBRANCH  20  21
ENDBRANCH  19  20
ENDBRANCH   1  19
TORSDOF 13
ENDMDL
MODEL 3
REMARK VINA RESULT:     -10.3      5.105      8.994
REMARK SMILES C[C@@H](Oc1cncc(C(=O)NCCCNC(=O)c2ccc(-c3c4nc(c(-c5ccccc5)c5ccc([nH]5)c(-c5ccccc5)c5nc(c(-c6ccccc6)c6ccc3[nH]6)C=C5)C=C4)cc2)n1)C(F)(F)F
REMARK SMILES IDX 12 1 11 2 9 3 10 4 8 6 4 7 5 8 66 9 6 10 7 11 3 12 2 13 1 14
REMARK SMILES IDX 67 15 68 16 69 17 70 18 13 19 14 20 15 21 16 22 17 24 18 25
REMARK SMILES IDX 19 26 65 27 20 28 64 29 21 30 22 31 23 32 58 33 24 34 63 35
REMARK SMILES IDX 57 36 59 37 25 38 62 39 56 40 55 41 26 43 48 44 33 45 47 46
REMARK SMILES IDX 34 47 37 48 46 49 60 50 35 51 36 52 45 54 61 55 38 56 27 57
REMARK SMILES IDX 28 58 32 59 29 60 31 61 30 62 49 63 50 64 54 65 51 66 53 67
REMARK SMILES IDX 52 68 39 69 40 70 44 71 41 72 43 73 42 74
REMARK H PARENT 11 5 15 23 59 42 37 53
REMARK Flexibility Score: inf
ROOT
ATOM      1  C   UNL A   1      34.801  22.520  26.766  1.00  0.00     0.118 C 
ENDROOT
BRANCH   1   2
ATOM      2  N   UNL A   1      33.378  22.743  26.958  1.00  0.00    -0.351 N 
ATOM      3  C   UNL A   1      32.284  22.363  26.221  1.00  0.00     0.271 C 
ATOM      4  O   UNL A   1      31.181  22.741  26.622  1.00  0.00    -0.267 OA
ATOM      5  H   UNL A   1      33.159  23.262  27.765  1.00  0.00     0.163 HD
BRANCH   3   6
ATOM      6  C   UNL A   1      32.355  21.491  25.013  1.00  0.00     0.150 A 
ATOM      7  C   UNL A   1      32.395  19.456  23.968  1.00  0.00     0.233 A 
ATOM      8  C   UNL A   1      32.192  20.077  22.742  1.00  0.00     0.179 A 
ATOM      9  N   UNL A   1      32.486  20.141  25.128  1.00  0.00    -0.205 NA
ATOM     10  N   UNL A   1      32.132  21.419  22.607  1.00  0.00    -0.257 NA
ATOM     11  C   UNL A   1      32.207  22.111  23.772  1.00  0.00     0.145 A 
BRANCH   7  12
ATOM     12  O   UNL A   1      32.313  18.092  24.070  1.00  0.00    -0.464 OA
BRANCH  12  13
ATOM     13  C   UNL A   1      33.603  17.474  24.259  1.00  0.00     0.277 C 
ATOM     14  C   UNL A   1      34.080  16.892  22.925  1.00  0.00     0.063 C 
BRANCH  13  15
ATOM     15  C   UNL A   1      33.468  16.346  25.287  1.00  0.00     0.425 C 
ATOM     16  F   UNL A   1      32.940  15.237  24.716  1.00  0.00    -0.167 F 
ATOM     17  F   UNL A   1      34.668  15.995  25.801  1.00  0.00    -0.167 F 
ATOM     18  F   UNL A   1      32.661  16.693  26.313  1.00  0.00    -0.167 F 
ENDBRANCH  13  15
ENDBRANCH  12  13
ENDBRANCH   7  12
ENDBRANCH   3   6
ENDBRANCH   1   2
BRANCH   1  19
ATOM     19  C   UNL A   1      35.514  23.811  26.370  1.00  0.00     0.042 C 
BRANCH  19  20
ATOM     20  C   UNL A   1      36.548  23.631  25.257  1.00  0.00     0.118 C 
BRANCH  20  21
ATOM     21  N   UNL A   1      37.537  22.610  25.572  1.00  0.00    -0.352 N 
ATOM     22  C   UNL A   1      38.787  22.713  26.120  1.00  0.00     0.251 C 
ATOM     23  H   UNL A   1      37.260  21.690  25.354  1.00  0.00     0.163 HD
ATOM     24  O   UNL A   1      39.526  21.727  26.116  1.00  0.00    -0.269 OA
BRANCH  22  25
ATOM     25  C   UNL A   1      39.272  23.978  26.714  1.00  0.00     0.039 A 
ATOM     26  C   UNL A   1      38.928  24.263  28.040  1.00  0.00     0.014 A 
ATOM     27  C   UNL A   1      39.982  24.919  25.963  1.00  0.00     0.014 A 
ATOM     28  C   UNL A   1      39.321  25.470  28.621  1.00  0.00     0.010 A 
ATOM     29  C   UNL A   1      40.431  26.096  26.564  1.00  0.00     0.010 A 
ATOM     30  C   UNL A   1      40.089  26.392  27.892  1.00  0.00    -0.014 A 
BRANCH  30  31
ATOM     31  C   UNL A   1      40.516  27.673  28.508  1.00  0.00     0.031 A 
ATOM     32  C   UNL A   1      41.939  27.870  28.954  1.00  0.00     0.074 A 
ATOM     33  C   UNL A   1      39.612  28.654  28.697  1.00  0.00     0.049 A 
ATOM     34  N   UNL A   1      42.494  28.923  29.501  1.00  0.00    -0.248 NA
ATOM     35  C   UNL A   1      42.851  26.728  28.788  1.00  0.00     0.031 C 
ATOM     36  C   UNL A   1      38.191  28.572  28.358  1.00  0.00     0.029 A 
ATOM     37  N   UNL A   1      39.759  29.912  29.223  1.00  0.00    -0.354 N 
ATOM     38  C   UNL A   1      43.811  28.563  29.763  1.00  0.00     0.074 A 
ATOM     39  C   UNL A   1      43.959  27.183  29.355  1.00  0.00     0.031 C 
ATOM     40  C   UNL A   1      37.602  29.742  28.656  1.00  0.00     0.029 A 
ATOM     41  C   UNL A   1      38.597  30.643  29.229  1.00  0.00     0.049 A 
ATOM     42  H   UNL A   1      40.616  30.258  29.563  1.00  0.00     0.167 HD
ATOM     43  C   UNL A   1      44.811  29.316  30.280  1.00  0.00     0.031 A 
ATOM     44  C   UNL A   1      38.360  31.903  29.640  1.00  0.00     0.031 A 
ATOM     45  C   UNL A   1      44.673  30.694  30.670  1.00  0.00     0.049 A 
ATOM     46  C   UNL A   1      39.493  32.731  30.171  1.00  0.00     0.074 A 
ATOM     47  C   UNL A   1      45.644  31.560  31.143  1.00  0.00     0.029 A 
ATOM     48  N   UNL A   1      43.486  31.407  30.631  1.00  0.00    -0.354 N 
ATOM     49  N   UNL A   1      40.750  32.400  30.342  1.00  0.00    -0.248 NA
ATOM     50  C   UNL A   1      39.177  34.117  30.548  1.00  0.00     0.031 C 
ATOM     51  C   UNL A   1      45.035  32.787  31.427  1.00  0.00     0.029 A 
ATOM     52  C   UNL A   1      43.695  32.698  31.086  1.00  0.00     0.049 A 
ATOM     53  H   UNL A   1      42.621  31.049  30.325  1.00  0.00     0.167 HD
ATOM     54  C   UNL A   1      41.380  33.541  30.820  1.00  0.00     0.074 A 
ATOM     55  C   UNL A   1      40.370  34.577  30.898  1.00  0.00     0.031 C 
ATOM     56  C   UNL A   1      42.679  33.715  31.165  1.00  0.00     0.031 A 
BRANCH  43  57
ATOM     57  C   UNL A   1      46.148  28.650  30.461  1.00  0.00    -0.014 A 
ATOM     58  C   UNL A   1      47.113  28.664  29.442  1.00  0.00     0.009 A 
ATOM     59  C   UNL A   1      46.452  28.014  31.675  1.00  0.00     0.009 A 
ATOM     60  C   UNL A   1      48.337  28.016  29.617  1.00  0.00     0.001 A 
ATOM     61  C   UNL A   1      47.688  27.391  31.857  1.00  0.00     0.001 A 
ATOM     62  C   UNL A   1      48.625  27.384  30.825  1.00  0.00     0.000 A 
ENDBRANCH  43  57
BRANCH  44  63
ATOM     63  C   UNL A   1      36.992  32.470  29.524  1.00  0.00    -0.014 A 
ATOM     64  C   UNL A   1      36.618  33.194  28.384  1.00  0.00     0.009 A 
ATOM     65  C   UNL A   1      36.053  32.279  30.550  1.00  0.00     0.009 A 
ATOM     66  C   UNL A   1      35.336  33.736  28.279  1.00  0.00     0.001 A 
ATOM     67  C   UNL A   1      34.763  32.800  30.431  1.00  0.00     0.001 A 
ATOM     68  C   UNL A   1      34.408  33.535  29.300  1.00  0.00     0.000 A 
ENDBRANCH  44  63
BRANCH  56  69
ATOM     69  C   UNL A   1      43.081  35.086  31.631  1.00  0.00    -0.014 A 
ATOM     70  C   UNL A   1      43.577  36.043  30.733  1.00  0.00     0.009 A 
ATOM     71  C   UNL A   1      42.947  35.426  32.985  1.00  0.00     0.009 A 
ATOM     72  C   UNL A   1      43.967  37.304  31.191  1.00  0.00     0.001 A 
ATOM     73  C   UNL A   1      43.314  36.695  33.436  1.00  0.00     0.001 A 
ATOM     74  C   UNL A   1      43.834  37.629  32.541  1.00  0.00     0.000 A 
ENDBRANCH  56  69
ENDBRANCH  30  31
ENDBRANCH  22  25
ENDBRANCH  20  21
ENDBRANCH  19  20
ENDBRANCH   1  19
TORSDOF 13
ENDMDL
