MODEL 1
REMARK VINA RESULT:     -11.7      0.000      0.000
REMARK SMILES COC(=O)c1cc(F)cc(-c2ccccc2C(=O)NCCCNC(=O)c2ccc(-c3c4nc(c(-c5ccccc5)c5ccc([nH]5)c(-c5ccccc5)c5nc(c(-c6ccccc6)c6ccc3[nH]6)C=C5)C=C4)cc2)c1
REMARK SMILES IDX 20 1 19 2 17 3 18 4 16 6 11 7 12 8 13 9 15 10 14 11 10 12
REMARK SMILES IDX 5 13 6 14 74 15 7 16 8 17 9 18 3 19 4 20 2 21 1 22 21 23
REMARK SMILES IDX 22 24 23 25 24 26 25 28 26 29 27 30 73 31 28 32 72 33 29 34
REMARK SMILES IDX 30 35 31 36 66 37 32 38 71 39 65 40 67 41 33 42 70 43 64 44
REMARK SMILES IDX 63 45 34 47 56 48 41 49 55 50 42 51 45 52 54 53 68 54 43 55
REMARK SMILES IDX 44 56 53 58 69 59 46 60 35 61 36 62 40 63 37 64 39 65 38 66
REMARK SMILES IDX 57 67 58 68 62 69 59 70 61 71 60 72 47 73 48 74 52 75 49 76
REMARK SMILES IDX 51 77 50 78
REMARK H PARENT 19 5 23 27 67 46 45 57
REMARK Flexibility Score: inf
ROOT
ATOM      1  C   UNL A   1      36.975  22.474  24.321  1.00  0.00     0.118 C 
ENDROOT
BRANCH   1   2
ATOM      2  N   UNL A   1      35.924  22.582  23.343  1.00  0.00    -0.352 N 
ATOM      3  C   UNL A   1      34.614  22.950  23.309  1.00  0.00     0.251 C 
ATOM      4  O   UNL A   1      34.304  23.441  22.212  1.00  0.00    -0.269 OA
ATOM      5  H   UNL A   1      36.242  22.315  22.450  1.00  0.00     0.163 HD
BRANCH   3   6
ATOM      6  C   UNL A   1      33.506  22.744  24.311  1.00  0.00     0.047 A 
ATOM      7  C   UNL A   1      32.728  21.622  24.676  1.00  0.00    -0.005 A 
ATOM      8  C   UNL A   1      31.764  21.776  25.716  1.00  0.00     0.009 A 
ATOM      9  C   UNL A   1      31.544  22.981  26.377  1.00  0.00     0.001 A 
ATOM     10  C   UNL A   1      33.238  23.961  25.006  1.00  0.00     0.014 A 
ATOM     11  C   UNL A   1      32.284  24.085  26.016  1.00  0.00     0.001 A 
BRANCH   7  12
ATOM     12  C   UNL A   1      32.790  20.268  24.121  1.00  0.00    -0.014 A 
ATOM     13  C   UNL A   1      33.254  17.898  24.319  1.00  0.00     0.063 A 
ATOM     14  C   UNL A   1      32.895  17.682  22.987  1.00  0.00     0.055 A 
ATOM     15  C   UNL A   1      33.149  19.166  24.909  1.00  0.00     0.024 A 
ATOM     16  C   UNL A   1      32.434  18.756  22.245  1.00  0.00     0.124 A 
ATOM     17  F   UNL A   1      32.085  18.575  20.964  1.00  0.00    -0.207 F 
ATOM     18  C   UNL A   1      32.386  20.035  22.791  1.00  0.00     0.048 A 
BRANCH  13  19
ATOM     19  C   UNL A   1      33.922  16.832  25.079  1.00  0.00     0.337 C 
ATOM     20  O   UNL A   1      35.071  16.468  24.916  1.00  0.00    -0.246 OA
BRANCH  19  21
ATOM     21  O   UNL A   1      32.971  16.284  25.871  1.00  0.00    -0.465 OA
ATOM     22  C   UNL A   1      32.621  14.939  25.543  1.00  0.00     0.282 C 
ENDBRANCH  19  21
ENDBRANCH  13  19
ENDBRANCH   7  12
ENDBRANCH   3   6
ENDBRANCH   1   2
BRANCH   1  23
ATOM     23  C   UNL A   1      37.397  21.051  24.621  1.00  0.00     0.042 C 
BRANCH  23  24
ATOM     24  C   UNL A   1      38.439  20.970  25.733  1.00  0.00     0.118 C 
BRANCH  24  25
ATOM     25  N   UNL A   1      39.481  19.968  25.557  1.00  0.00    -0.352 N 
ATOM     26  C   UNL A   1      40.787  19.960  25.987  1.00  0.00     0.251 C 
ATOM     27  H   UNL A   1      39.207  19.170  25.049  1.00  0.00     0.163 HD
ATOM     28  O   UNL A   1      41.488  18.970  25.786  1.00  0.00    -0.269 OA
BRANCH  26  29
ATOM     29  C   UNL A   1      41.404  21.143  26.618  1.00  0.00     0.039 A 
ATOM     30  C   UNL A   1      41.874  22.151  25.766  1.00  0.00     0.014 A 
ATOM     31  C   UNL A   1      41.514  21.295  27.999  1.00  0.00     0.014 A 
ATOM     32  C   UNL A   1      42.361  23.341  26.297  1.00  0.00     0.010 A 
ATOM     33  C   UNL A   1      41.899  22.520  28.528  1.00  0.00     0.010 A 
ATOM     34  C   UNL A   1      42.319  23.552  27.679  1.00  0.00    -0.014 A 
BRANCH  34  35
ATOM     35  C   UNL A   1      42.704  24.854  28.263  1.00  0.00     0.031 A 
ATOM     36  C   UNL A   1      41.654  25.896  28.506  1.00  0.00     0.074 A 
ATOM     37  C   UNL A   1      44.008  25.105  28.490  1.00  0.00     0.049 A 
ATOM     38  N   UNL A   1      41.796  27.136  28.893  1.00  0.00    -0.248 NA
ATOM     39  C   UNL A   1      40.259  25.504  28.239  1.00  0.00     0.031 C 
ATOM     40  C   UNL A   1      45.109  24.168  28.235  1.00  0.00     0.029 A 
ATOM     41  N   UNL A   1      44.631  26.219  28.982  1.00  0.00    -0.354 N 
ATOM     42  C   UNL A   1      40.520  27.683  28.867  1.00  0.00     0.074 A 
ATOM     43  C   UNL A   1      39.622  26.653  28.394  1.00  0.00     0.031 C 
ATOM     44  C   UNL A   1      46.264  24.734  28.615  1.00  0.00     0.029 A 
ATOM     45  C   UNL A   1      45.993  26.082  29.093  1.00  0.00     0.049 A 
ATOM     46  H   UNL A   1      44.149  27.040  29.234  1.00  0.00     0.167 HD
ATOM     47  C   UNL A   1      40.134  28.932  29.219  1.00  0.00     0.031 A 
ATOM     48  C   UNL A   1      46.918  26.957  29.530  1.00  0.00     0.031 A 
ATOM     49  C   UNL A   1      41.041  29.927  29.722  1.00  0.00     0.049 A 
ATOM     50  C   UNL A   1      46.455  28.311  29.981  1.00  0.00     0.074 A 
ATOM     51  C   UNL A   1      40.767  31.209  30.158  1.00  0.00     0.029 A 
ATOM     52  N   UNL A   1      42.408  29.733  29.869  1.00  0.00    -0.354 N 
ATOM     53  N   UNL A   1      45.240  28.807  29.982  1.00  0.00    -0.248 NA
ATOM     54  C   UNL A   1      47.484  29.224  30.495  1.00  0.00     0.031 C 
ATOM     55  C   UNL A   1      41.975  31.801  30.547  1.00  0.00     0.029 A 
ATOM     56  C   UNL A   1      42.993  30.873  30.388  1.00  0.00     0.049 A 
ATOM     57  H   UNL A   1      42.890  28.906  29.638  1.00  0.00     0.167 HD
ATOM     58  C   UNL A   1      45.353  30.085  30.506  1.00  0.00     0.074 A 
ATOM     59  C   UNL A   1      46.754  30.277  30.835  1.00  0.00     0.031 C 
ATOM     60  C   UNL A   1      44.392  31.021  30.696  1.00  0.00     0.031 A 
BRANCH  47  61
ATOM     61  C   UNL A   1      38.680  29.275  29.051  1.00  0.00    -0.014 A 
ATOM     62  C   UNL A   1      38.164  29.691  27.813  1.00  0.00     0.009 A 
ATOM     63  C   UNL A   1      37.814  29.201  30.153  1.00  0.00     0.009 A 
ATOM     64  C   UNL A   1      36.826  30.071  27.693  1.00  0.00     0.001 A 
ATOM     65  C   UNL A   1      36.468  29.553  30.024  1.00  0.00     0.001 A 
ATOM     66  C   UNL A   1      35.979  29.999  28.797  1.00  0.00     0.000 A 
ENDBRANCH  47  61
BRANCH  48  67
ATOM     67  C   UNL A   1      48.348  26.560  29.587  1.00  0.00    -0.014 A 
ATOM     68  C   UNL A   1      48.850  25.873  30.703  1.00  0.00     0.009 A 
ATOM     69  C   UNL A   1      49.212  26.829  28.514  1.00  0.00     0.009 A 
ATOM     70  C   UNL A   1      50.190  25.480  30.750  1.00  0.00     0.001 A 
ATOM     71  C   UNL A   1      50.545  26.411  28.552  1.00  0.00     0.001 A 
ATOM     72  C   UNL A   1      51.035  25.743  29.673  1.00  0.00     0.000 A 
ENDBRANCH  48  67
BRANCH  60  73
ATOM     73  C   UNL A   1      44.834  32.322  31.296  1.00  0.00    -0.014 A 
ATOM     74  C   UNL A   1      44.833  32.510  32.686  1.00  0.00     0.009 A 
ATOM     75  C   UNL A   1      45.284  33.355  30.461  1.00  0.00     0.009 A 
ATOM     76  C   UNL A   1      45.251  33.725  33.229  1.00  0.00     0.001 A 
ATOM     77  C   UNL A   1      45.723  34.560  31.008  1.00  0.00     0.001 A 
ATOM     78  C   UNL A   1      45.699  34.747  32.391  1.00  0.00     0.000 A 
ENDBRANCH  60  73
ENDBRANCH  34  35
ENDBRANCH  26  29
ENDBRANCH  24  25
ENDBRANCH  23  24
ENDBRANCH   1  23
TORSDOF 13
ENDMDL
MODEL 2
REMARK VINA RESULT:     -11.7      4.985      9.711
REMARK SMILES COC(=O)c1cc(F)cc(-c2ccccc2C(=O)NCCCNC(=O)c2ccc(-c3c4nc(c(-c5ccccc5)c5ccc([nH]5)c(-c5ccccc5)c5nc(c(-c6ccccc6)c6ccc3[nH]6)C=C5)C=C4)cc2)c1
REMARK SMILES IDX 20 1 19 2 17 3 18 4 16 6 11 7 12 8 13 9 15 10 14 11 10 12
REMARK SMILES IDX 5 13 6 14 74 15 7 16 8 17 9 18 3 19 4 20 2 21 1 22 21 23
REMARK SMILES IDX 22 24 23 25 24 26 25 28 26 29 27 30 73 31 28 32 72 33 29 34
REMARK SMILES IDX 30 35 31 36 66 37 32 38 71 39 65 40 67 41 33 42 70 43 64 44
REMARK SMILES IDX 63 45 34 47 56 48 41 49 55 50 42 51 45 52 54 53 68 54 43 55
REMARK SMILES IDX 44 56 53 58 69 59 46 60 35 61 36 62 40 63 37 64 39 65 38 66
REMARK SMILES IDX 57 67 58 68 62 69 59 70 61 71 60 72 47 73 48 74 52 75 49 76
REMARK SMILES IDX 51 77 50 78
REMARK H PARENT 19 5 23 27 67 46 45 57
REMARK Flexibility Score: inf
ROOT
ATOM      1  C   UNL A   1      32.271  29.014  27.185  1.00  0.00     0.118 C 
ENDROOT
BRANCH   1   2
ATOM      2  N   UNL A   1      31.331  27.953  26.932  1.00  0.00    -0.352 N 
ATOM      3  C   UNL A   1      31.171  26.943  26.033  1.00  0.00     0.251 C 
ATOM      4  O   UNL A   1      30.589  25.969  26.538  1.00  0.00    -0.269 OA
ATOM      5  H   UNL A   1      30.601  27.960  27.594  1.00  0.00     0.163 HD
BRANCH   3   6
ATOM      6  C   UNL A   1      31.463  26.883  24.555  1.00  0.00     0.047 A 
ATOM      7  C   UNL A   1      30.834  27.443  23.421  1.00  0.00    -0.005 A 
ATOM      8  C   UNL A   1      31.414  27.205  22.139  1.00  0.00     0.009 A 
ATOM      9  C   UNL A   1      32.559  26.437  21.953  1.00  0.00     0.001 A 
ATOM     10  C   UNL A   1      32.627  26.093  24.316  1.00  0.00     0.014 A 
ATOM     11  C   UNL A   1      33.168  25.871  23.050  1.00  0.00     0.001 A 
BRANCH   7  12
ATOM     12  C   UNL A   1      29.632  28.279  23.382  1.00  0.00    -0.014 A 
ATOM     13  C   UNL A   1      28.529  30.425  23.156  1.00  0.00     0.063 A 
ATOM     14  C   UNL A   1      27.274  29.835  23.326  1.00  0.00     0.055 A 
ATOM     15  C   UNL A   1      29.700  29.655  23.123  1.00  0.00     0.024 A 
ATOM     16  C   UNL A   1      27.204  28.460  23.471  1.00  0.00     0.124 A 
ATOM     17  F   UNL A   1      26.013  27.871  23.637  1.00  0.00    -0.207 F 
ATOM     18  C   UNL A   1      28.360  27.686  23.507  1.00  0.00     0.048 A 
BRANCH  13  19
ATOM     19  C   UNL A   1      28.660  31.888  23.190  1.00  0.00     0.337 C 
ATOM     20  O   UNL A   1      29.404  32.510  23.924  1.00  0.00    -0.246 OA
BRANCH  19  21
ATOM     21  O   UNL A   1      27.713  32.368  22.350  1.00  0.00    -0.465 OA
ATOM     22  C   UNL A   1      28.110  32.442  20.981  1.00  0.00     0.282 C 
ENDBRANCH  19  21
ENDBRANCH  13  19
ENDBRANCH   7  12
ENDBRANCH   3   6
ENDBRANCH   1   2
BRANCH   1  23
ATOM     23  C   UNL A   1      31.766  30.391  26.808  1.00  0.00     0.042 C 
BRANCH  23  24
ATOM     24  C   UNL A   1      32.848  31.461  26.910  1.00  0.00     0.118 C 
BRANCH  24  25
ATOM     25  N   UNL A   1      32.415  32.757  27.414  1.00  0.00    -0.352 N 
ATOM     26  C   UNL A   1      33.100  33.699  28.146  1.00  0.00     0.251 C 
ATOM     27  H   UNL A   1      31.486  32.997  27.196  1.00  0.00     0.163 HD
ATOM     28  O   UNL A   1      32.561  34.771  28.414  1.00  0.00    -0.269 OA
BRANCH  26  29
ATOM     29  C   UNL A   1      34.444  33.431  28.694  1.00  0.00     0.039 A 
ATOM     30  C   UNL A   1      34.514  32.697  29.886  1.00  0.00     0.014 A 
ATOM     31  C   UNL A   1      35.616  33.855  28.070  1.00  0.00     0.014 A 
ATOM     32  C   UNL A   1      35.749  32.311  30.395  1.00  0.00     0.010 A 
ATOM     33  C   UNL A   1      36.842  33.381  28.517  1.00  0.00     0.010 A 
ATOM     34  C   UNL A   1      36.916  32.601  29.678  1.00  0.00    -0.014 A 
BRANCH  34  35
ATOM     35  C   UNL A   1      38.229  32.091  30.122  1.00  0.00     0.031 A 
ATOM     36  C   UNL A   1      38.751  30.802  29.562  1.00  0.00     0.074 A 
ATOM     37  C   UNL A   1      38.895  32.759  31.084  1.00  0.00     0.049 A 
ATOM     38  N   UNL A   1      39.813  30.124  29.905  1.00  0.00    -0.248 NA
ATOM     39  C   UNL A   1      37.948  30.169  28.501  1.00  0.00     0.031 C 
ATOM     40  C   UNL A   1      38.441  33.997  31.727  1.00  0.00     0.029 A 
ATOM     41  N   UNL A   1      40.092  32.493  31.692  1.00  0.00    -0.354 N 
ATOM     42  C   UNL A   1      39.778  28.964  29.141  1.00  0.00     0.074 A 
ATOM     43  C   UNL A   1      38.574  29.014  28.342  1.00  0.00     0.031 C 
ATOM     44  C   UNL A   1      39.369  34.404  32.606  1.00  0.00     0.029 A 
ATOM     45  C   UNL A   1      40.456  33.435  32.623  1.00  0.00     0.049 A 
ATOM     46  H   UNL A   1      40.640  31.702  31.482  1.00  0.00     0.167 HD
ATOM     47  C   UNL A   1      40.680  27.956  29.103  1.00  0.00     0.031 A 
ATOM     48  C   UNL A   1      41.549  33.501  33.405  1.00  0.00     0.031 A 
ATOM     49  C   UNL A   1      41.890  27.947  29.879  1.00  0.00     0.049 A 
ATOM     50  C   UNL A   1      42.568  32.405  33.293  1.00  0.00     0.074 A 
ATOM     51  C   UNL A   1      42.905  27.010  29.892  1.00  0.00     0.029 A 
ATOM     52  N   UNL A   1      42.249  28.946  30.773  1.00  0.00    -0.354 N 
ATOM     53  N   UNL A   1      42.540  31.329  32.542  1.00  0.00    -0.248 NA
ATOM     54  C   UNL A   1      43.770  32.532  34.126  1.00  0.00     0.031 C 
ATOM     55  C   UNL A   1      43.870  27.431  30.816  1.00  0.00     0.029 A 
ATOM     56  C   UNL A   1      43.471  28.648  31.347  1.00  0.00     0.049 A 
ATOM     57  H   UNL A   1      41.713  29.748  30.970  1.00  0.00     0.167 HD
ATOM     58  C   UNL A   1      43.722  30.654  32.802  1.00  0.00     0.074 A 
ATOM     59  C   UNL A   1      44.456  31.458  33.762  1.00  0.00     0.031 C 
ATOM     60  C   UNL A   1      44.164  29.475  32.302  1.00  0.00     0.031 A 
BRANCH  47  61
ATOM     61  C   UNL A   1      40.370  26.789  28.206  1.00  0.00    -0.014 A 
ATOM     62  C   UNL A   1      40.852  26.731  26.888  1.00  0.00     0.009 A 
ATOM     63  C   UNL A   1      39.567  25.739  28.678  1.00  0.00     0.009 A 
ATOM     64  C   UNL A   1      40.498  25.672  26.049  1.00  0.00     0.001 A 
ATOM     65  C   UNL A   1      39.238  24.667  27.846  1.00  0.00     0.001 A 
ATOM     66  C   UNL A   1      39.693  24.641  26.529  1.00  0.00     0.000 A 
ENDBRANCH  47  61
BRANCH  48  67
ATOM     67  C   UNL A   1      41.737  34.653  34.325  1.00  0.00    -0.014 A 
ATOM     68  C   UNL A   1      41.283  34.583  35.651  1.00  0.00     0.009 A 
ATOM     69  C   UNL A   1      42.403  35.812  33.898  1.00  0.00     0.009 A 
ATOM     70  C   UNL A   1      41.476  35.656  36.524  1.00  0.00     0.001 A 
ATOM     71  C   UNL A   1      42.619  36.873  34.781  1.00  0.00     0.001 A 
ATOM     72  C   UNL A   1      42.150  36.797  36.091  1.00  0.00     0.000 A 
ENDBRANCH  48  67
BRANCH  60  73
ATOM     73  C   UNL A   1      45.504  29.005  32.779  1.00  0.00    -0.014 A 
ATOM     74  C   UNL A   1      46.682  29.419  32.139  1.00  0.00     0.009 A 
ATOM     75  C   UNL A   1      45.587  28.166  33.900  1.00  0.00     0.009 A 
ATOM     76  C   UNL A   1      47.922  28.975  32.600  1.00  0.00     0.001 A 
ATOM     77  C   UNL A   1      46.829  27.743  34.371  1.00  0.00     0.001 A 
ATOM     78  C   UNL A   1      47.995  28.142  33.716  1.00  0.00     0.000 A 
ENDBRANCH  60  73
ENDBRANCH  34  35
ENDBRANCH  26  29
ENDBRANCH  24  25
ENDBRANCH  23  24
ENDBRANCH   1  23
TORSDOF 13
ENDMDL
MODEL 3
REMARK VINA RESULT:     -11.7      0.966      6.058
REMARK SMILES COC(=O)c1cc(F)cc(-c2ccccc2C(=O)NCCCNC(=O)c2ccc(-c3c4nc(c(-c5ccccc5)c5ccc([nH]5)c(-c5ccccc5)c5nc(c(-c6ccccc6)c6ccc3[nH]6)C=C5)C=C4)cc2)c1
REMARK SMILES IDX 20 1 19 2 17 3 18 4 16 6 11 7 12 8 13 9 15 10 14 11 10 12
REMARK SMILES IDX 5 13 6 14 74 15 7 16 8 17 9 18 3 19 4 20 2 21 1 22 21 23
REMARK SMILES IDX 22 24 23 25 24 26 25 28 26 29 27 30 73 31 28 32 72 33 29 34
REMARK SMILES IDX 30 35 31 36 66 37 32 38 71 39 65 40 67 41 33 42 70 43 64 44
REMARK SMILES IDX 63 45 34 47 56 48 41 49 55 50 42 51 45 52 54 53 68 54 43 55
REMARK SMILES IDX 44 56 53 58 69 59 46 60 35 61 36 62 40 63 37 64 39 65 38 66
REMARK SMILES IDX 57 67 58 68 62 69 59 70 61 71 60 72 47 73 48 74 52 75 49 76
REMARK SMILES IDX 51 77 50 78
REMARK H PARENT 19 5 23 27 67 46 45 57
REMARK Flexibility Score: inf
ROOT
ATOM      1  C   UNL A   1      36.554  21.382  24.849  1.00  0.00     0.118 C 
ENDROOT
BRANCH   1   2
ATOM      2  N   UNL A   1      35.864  21.697  26.073  1.00  0.00    -0.352 N 
ATOM      3  C   UNL A   1      34.579  21.748  26.520  1.00  0.00     0.251 C 
ATOM      4  O   UNL A   1      34.505  21.487  27.732  1.00  0.00    -0.269 OA
ATOM      5  H   UNL A   1      36.498  21.943  26.785  1.00  0.00     0.163 HD
BRANCH   3   6
ATOM      6  C   UNL A   1      33.311  22.178  25.828  1.00  0.00     0.047 A 
ATOM      7  C   UNL A   1      32.459  21.551  24.891  1.00  0.00    -0.005 A 
ATOM      8  C   UNL A   1      31.293  22.252  24.461  1.00  0.00     0.009 A 
ATOM      9  C   UNL A   1      30.962  23.527  24.910  1.00  0.00     0.001 A 
ATOM     10  C   UNL A   1      32.940  23.490  26.251  1.00  0.00     0.014 A 
ATOM     11  C   UNL A   1      31.796  24.154  25.808  1.00  0.00     0.001 A 
BRANCH   7  12
ATOM     12  C   UNL A   1      32.608  20.223  24.290  1.00  0.00    -0.014 A 
ATOM     13  C   UNL A   1      33.143  17.864  24.428  1.00  0.00     0.063 A 
ATOM     14  C   UNL A   1      32.884  17.691  23.066  1.00  0.00     0.055 A 
ATOM     15  C   UNL A   1      32.952  19.102  25.057  1.00  0.00     0.024 A 
ATOM     16  C   UNL A   1      32.437  18.779  22.336  1.00  0.00     0.124 A 
ATOM     17  F   UNL A   1      32.184  18.639  21.028  1.00  0.00    -0.207 F 
ATOM     18  C   UNL A   1      32.305  20.032  22.927  1.00  0.00     0.048 A 
BRANCH  13  19
ATOM     19  C   UNL A   1      33.795  16.791  25.191  1.00  0.00     0.337 C 
ATOM     20  O   UNL A   1      34.956  16.449  25.071  1.00  0.00    -0.246 OA
BRANCH  19  21
ATOM     21  O   UNL A   1      32.820  16.209  25.927  1.00  0.00    -0.465 OA
ATOM     22  C   UNL A   1      32.488  14.876  25.535  1.00  0.00     0.282 C 
ENDBRANCH  19  21
ENDBRANCH  13  19
ENDBRANCH   7  12
ENDBRANCH   3   6
ENDBRANCH   1   2
BRANCH   1  23
ATOM     23  C   UNL A   1      37.503  20.207  24.959  1.00  0.00     0.042 C 
BRANCH  23  24
ATOM     24  C   UNL A   1      38.744  20.530  25.785  1.00  0.00     0.118 C 
BRANCH  24  25
ATOM     25  N   UNL A   1      39.860  19.604  25.645  1.00  0.00    -0.352 N 
ATOM     26  C   UNL A   1      41.165  19.717  26.063  1.00  0.00     0.251 C 
ATOM     27  H   UNL A   1      39.646  18.765  25.178  1.00  0.00     0.163 HD
ATOM     28  O   UNL A   1      41.939  18.776  25.902  1.00  0.00    -0.269 OA
BRANCH  26  29
ATOM     29  C   UNL A   1      41.692  20.973  26.632  1.00  0.00     0.039 A 
ATOM     30  C   UNL A   1      42.117  21.956  25.729  1.00  0.00     0.014 A 
ATOM     31  C   UNL A   1      41.761  21.214  28.003  1.00  0.00     0.014 A 
ATOM     32  C   UNL A   1      42.517  23.204  26.194  1.00  0.00     0.010 A 
ATOM     33  C   UNL A   1      42.057  22.491  28.463  1.00  0.00     0.010 A 
ATOM     34  C   UNL A   1      42.430  23.495  27.561  1.00  0.00    -0.014 A 
BRANCH  34  35
ATOM     35  C   UNL A   1      42.720  24.851  28.070  1.00  0.00     0.031 A 
ATOM     36  C   UNL A   1      44.123  25.212  28.458  1.00  0.00     0.074 A 
ATOM     37  C   UNL A   1      41.699  25.711  28.250  1.00  0.00     0.049 A 
ATOM     38  N   UNL A   1      44.566  26.297  29.036  1.00  0.00    -0.248 NA
ATOM     39  C   UNL A   1      45.162  24.199  28.199  1.00  0.00     0.031 C 
ATOM     40  C   UNL A   1      40.291  25.430  27.948  1.00  0.00     0.029 A 
ATOM     41  N   UNL A   1      41.684  26.992  28.730  1.00  0.00    -0.354 N 
ATOM     42  C   UNL A   1      45.920  26.077  29.254  1.00  0.00     0.074 A 
ATOM     43  C   UNL A   1      46.219  24.744  28.779  1.00  0.00     0.031 C 
ATOM     44  C   UNL A   1      39.558  26.523  28.210  1.00  0.00     0.029 A 
ATOM     45  C   UNL A   1      40.433  27.560  28.740  1.00  0.00     0.049 A 
ATOM     46  H   UNL A   1      42.493  27.463  29.038  1.00  0.00     0.167 HD
ATOM     47  C   UNL A   1      46.832  26.920  29.792  1.00  0.00     0.031 A 
ATOM     48  C   UNL A   1      40.041  28.784  29.138  1.00  0.00     0.031 A 
ATOM     49  C   UNL A   1      46.517  28.255  30.222  1.00  0.00     0.049 A 
ATOM     50  C   UNL A   1      41.084  29.725  29.666  1.00  0.00     0.074 A 
ATOM     51  C   UNL A   1      47.360  29.222  30.737  1.00  0.00     0.029 A 
ATOM     52  N   UNL A   1      45.247  28.813  30.167  1.00  0.00    -0.354 N 
ATOM     53  N   UNL A   1      42.369  29.517  29.837  1.00  0.00    -0.248 NA
ATOM     54  C   UNL A   1      40.630  31.067  30.048  1.00  0.00     0.031 C 
ATOM     55  C   UNL A   1      46.593  30.359  31.017  1.00  0.00     0.029 A 
ATOM     56  C   UNL A   1      45.281  30.111  30.640  1.00  0.00     0.049 A 
ATOM     57  H   UNL A   1      44.441  28.352  29.840  1.00  0.00     0.167 HD
ATOM     58  C   UNL A   1      42.881  30.703  30.337  1.00  0.00     0.074 A 
ATOM     59  C   UNL A   1      41.770  31.635  30.416  1.00  0.00     0.031 C 
ATOM     60  C   UNL A   1      44.150  31.001  30.705  1.00  0.00     0.031 A 
BRANCH  47  61
ATOM     61  C   UNL A   1      48.235  26.404  29.951  1.00  0.00    -0.014 A 
ATOM     62  C   UNL A   1      48.647  25.752  31.125  1.00  0.00     0.009 A 
ATOM     63  C   UNL A   1      49.168  26.589  28.919  1.00  0.00     0.009 A 
ATOM     64  C   UNL A   1      49.972  25.341  31.281  1.00  0.00     0.001 A 
ATOM     65  C   UNL A   1      50.486  26.150  29.066  1.00  0.00     0.001 A 
ATOM     66  C   UNL A   1      50.890  25.538  30.251  1.00  0.00     0.000 A 
ENDBRANCH  47  61
BRANCH  48  67
ATOM     67  C   UNL A   1      38.615  29.183  29.020  1.00  0.00    -0.014 A 
ATOM     68  C   UNL A   1      37.760  29.096  30.130  1.00  0.00     0.009 A 
ATOM     69  C   UNL A   1      38.107  29.689  27.813  1.00  0.00     0.009 A 
ATOM     70  C   UNL A   1      36.423  29.490  30.028  1.00  0.00     0.001 A 
ATOM     71  C   UNL A   1      36.778  30.108  27.722  1.00  0.00     0.001 A 
ATOM     72  C   UNL A   1      35.935  30.002  28.827  1.00  0.00     0.000 A 
ENDBRANCH  48  67
BRANCH  60  73
ATOM     73  C   UNL A   1      44.394  32.392  31.209  1.00  0.00    -0.014 A 
ATOM     74  C   UNL A   1      44.290  32.691  32.575  1.00  0.00     0.009 A 
ATOM     75  C   UNL A   1      44.762  33.402  30.307  1.00  0.00     0.009 A 
ATOM     76  C   UNL A   1      44.524  33.990  33.027  1.00  0.00     0.001 A 
ATOM     77  C   UNL A   1      45.017  34.693  30.765  1.00  0.00     0.001 A 
ATOM     78  C   UNL A   1      44.891  34.988  32.123  1.00  0.00     0.000 A 
ENDBRANCH  60  73
ENDBRANCH  34  35
ENDBRANCH  26  29
ENDBRANCH  24  25
ENDBRANCH  23  24
ENDBRANCH   1  23
TORSDOF 13
ENDMDL
