MODEL 1
REMARK VINA RESULT:     -10.7      0.000      0.000
REMARK SMILES CCCCCCNC(=O)Oc1cccc(-c2ccc([C@@H](C)C(=O)NCCCNC(=O)c3ccc(-c4c5nc(c(-c6ccccc6)c6ccc([nH]6)c(-c6ccccc6)c6nc(c(-c7ccccc7)c7ccc4[nH]7)C=C6)C=C5)cc3)cc2[N+](=O)[O-])c1
REMARK SMILES IDX 16 1 17 2 18 3 19 4 79 5 80 6 15 7 11 8 12 9 84 10 13 11
REMARK SMILES IDX 14 12 10 13 8 14 7 15 9 17 6 18 5 19 4 20 3 21 2 22 1 23
REMARK SMILES IDX 81 24 82 25 83 26 20 27 21 28 22 29 23 30 24 31 25 33 26 34
REMARK SMILES IDX 27 35 28 36 29 37 30 39 31 40 32 41 78 42 33 43 77 44 34 45
REMARK SMILES IDX 35 46 36 47 71 48 37 49 76 50 70 51 72 52 38 53 75 54 69 55
REMARK SMILES IDX 68 56 39 58 61 59 46 60 60 61 47 62 50 63 59 64 73 65 48 66
REMARK SMILES IDX 49 67 58 69 74 70 51 71 40 72 41 73 45 74 42 75 44 76 43 77
REMARK SMILES IDX 62 78 63 79 67 80 64 81 66 82 65 83 52 84 53 85 57 86 54 87
REMARK SMILES IDX 56 88 55 89
REMARK H PARENT 7 16 24 32 28 38 72 57 50 68
REMARK Flexibility Score: inf
ROOT
ATOM      1  C   UNL A   1      34.330  29.434  26.563  1.00  0.00     0.060 A 
ATOM      2  C   UNL A   1      35.668  29.578  26.971  1.00  0.00     0.016 A 
ATOM      3  C   UNL A   1      36.098  30.664  27.743  1.00  0.00     0.005 A 
ATOM      4  C   UNL A   1      35.234  31.709  28.070  1.00  0.00    -0.029 A 
ATOM      5  C   UNL A   1      33.883  31.565  27.721  1.00  0.00     0.090 A 
ATOM      6  C   UNL A   1      33.440  30.425  27.017  1.00  0.00     0.277 A 
ENDROOT
BRANCH   1   7
ATOM      7  C   UNL A   1      33.975  28.301  25.677  1.00  0.00    -0.008 A 
ATOM      8  C   UNL A   1      33.354  25.978  25.331  1.00  0.00     0.133 A 
ATOM      9  C   UNL A   1      33.262  26.172  23.956  1.00  0.00     0.047 A 
ATOM     10  C   UNL A   1      33.695  27.023  26.191  1.00  0.00     0.056 A 
ATOM     11  C   UNL A   1      33.507  27.436  23.432  1.00  0.00     0.004 A 
ATOM     12  C   UNL A   1      33.870  28.485  24.283  1.00  0.00     0.009 A 
BRANCH   8  13
ATOM     13  O   UNL A   1      33.241  24.652  25.784  1.00  0.00    -0.410 OA
BRANCH  13  14
ATOM     14  C   UNL A   1      32.050  24.215  26.342  1.00  0.00     0.412 C 
ATOM     15  N   UNL A   1      31.629  23.020  25.825  1.00  0.00    -0.321 N 
ATOM     16  H   UNL A   1      30.768  22.673  26.153  1.00  0.00     0.167 HD
ATOM     17  O   UNL A   1      31.400  24.803  27.198  1.00  0.00    -0.224 OA
BRANCH  15  18
ATOM     18  C   UNL A   1      32.323  22.211  24.840  1.00  0.00     0.119 C 
BRANCH  18  19
ATOM     19  C   UNL A   1      32.043  20.719  25.021  1.00  0.00     0.021 C 
BRANCH  19  20
ATOM     20  C   UNL A   1      32.573  19.822  23.896  1.00  0.00     0.002 C 
BRANCH  20  21
ATOM     21  C   UNL A   1      33.343  18.578  24.353  1.00  0.00    -0.000 C 
BRANCH  21  22
ATOM     22  C   UNL A   1      33.767  17.619  23.238  1.00  0.00    -0.003 C 
ATOM     23  C   UNL A   1      34.027  16.203  23.728  1.00  0.00     0.004 C 
ENDBRANCH  21  22
ENDBRANCH  20  21
ENDBRANCH  19  20
ENDBRANCH  18  19
ENDBRANCH  15  18
ENDBRANCH  13  14
ENDBRANCH   8  13
ENDBRANCH   1   7
BRANCH   6  24
ATOM     24  N   UNL A   1      31.997  30.282  26.845  1.00  0.00     0.063 N 
ATOM     25  O   UNL A   1      31.426  29.427  27.539  1.00  0.00    -0.258 OA
ATOM     26  O   UNL A   1      31.447  30.981  25.984  1.00  0.00    -0.258 OA
ENDBRANCH   6  24
BRANCH   4  27
ATOM     27  C   UNL A   1      35.709  32.981  28.757  1.00  0.00     0.105 C 
ATOM     28  C   UNL A   1      37.151  33.386  28.458  1.00  0.00     0.023 C 
BRANCH  27  29
ATOM     29  C   UNL A   1      34.688  34.130  28.701  1.00  0.00     0.227 C 
ATOM     30  O   UNL A   1      34.216  34.476  27.611  1.00  0.00    -0.274 OA
ATOM     31  N   UNL A   1      34.248  34.823  29.785  1.00  0.00    -0.356 N 
ATOM     32  H   UNL A   1      33.539  35.475  29.577  1.00  0.00     0.163 HD
BRANCH  31  33
ATOM     33  C   UNL A   1      34.618  34.788  31.186  1.00  0.00     0.117 C 
BRANCH  33  34
ATOM     34  C   UNL A   1      33.971  33.617  31.923  1.00  0.00     0.042 C 
BRANCH  34  35
ATOM     35  C   UNL A   1      34.938  32.496  32.281  1.00  0.00     0.118 C 
BRANCH  35  36
ATOM     36  N   UNL A   1      35.563  32.705  33.579  1.00  0.00    -0.352 N 
ATOM     37  C   UNL A   1      36.795  32.326  34.053  1.00  0.00     0.251 C 
ATOM     38  H   UNL A   1      35.010  33.201  34.226  1.00  0.00     0.163 HD
ATOM     39  O   UNL A   1      37.023  32.420  35.256  1.00  0.00    -0.269 OA
BRANCH  37  40
ATOM     40  C   UNL A   1      37.845  31.797  33.150  1.00  0.00     0.039 A 
ATOM     41  C   UNL A   1      37.932  32.313  31.852  1.00  0.00     0.014 A 
ATOM     42  C   UNL A   1      38.695  30.760  33.536  1.00  0.00     0.014 A 
ATOM     43  C   UNL A   1      38.899  31.828  30.966  1.00  0.00     0.010 A 
ATOM     44  C   UNL A   1      39.712  30.333  32.683  1.00  0.00     0.010 A 
ATOM     45  C   UNL A   1      39.816  30.851  31.384  1.00  0.00    -0.014 A 
BRANCH  45  46
ATOM     46  C   UNL A   1      40.875  30.347  30.474  1.00  0.00     0.031 A 
ATOM     47  C   UNL A   1      42.094  31.183  30.190  1.00  0.00     0.074 A 
ATOM     48  C   UNL A   1      40.715  29.162  29.852  1.00  0.00     0.049 A 
ATOM     49  N   UNL A   1      43.090  30.945  29.374  1.00  0.00    -0.248 NA
ATOM     50  C   UNL A   1      42.196  32.469  30.900  1.00  0.00     0.031 C 
ATOM     51  C   UNL A   1      39.564  28.271  30.007  1.00  0.00     0.029 A 
ATOM     52  N   UNL A   1      41.522  28.509  28.953  1.00  0.00    -0.354 N 
ATOM     53  C   UNL A   1      43.918  32.058  29.452  1.00  0.00     0.074 A 
ATOM     54  C   UNL A   1      43.290  32.990  30.363  1.00  0.00     0.031 C 
ATOM     55  C   UNL A   1      39.749  27.179  29.249  1.00  0.00     0.029 A 
ATOM     56  C   UNL A   1      41.009  27.310  28.524  1.00  0.00     0.049 A 
ATOM     57  H   UNL A   1      42.386  28.866  28.646  1.00  0.00     0.167 HD
ATOM     58  C   UNL A   1      45.103  32.281  28.833  1.00  0.00     0.031 A 
ATOM     59  C   UNL A   1      41.492  26.417  27.640  1.00  0.00     0.031 A 
ATOM     60  C   UNL A   1      45.739  31.349  27.942  1.00  0.00     0.049 A 
ATOM     61  C   UNL A   1      42.811  26.686  26.969  1.00  0.00     0.074 A 
ATOM     62  C   UNL A   1      46.969  31.456  27.317  1.00  0.00     0.029 A 
ATOM     63  N   UNL A   1      45.193  30.137  27.549  1.00  0.00    -0.354 N 
ATOM     64  N   UNL A   1      43.612  27.714  27.105  1.00  0.00    -0.248 NA
ATOM     65  C   UNL A   1      43.293  25.665  26.028  1.00  0.00     0.031 C 
ATOM     66  C   UNL A   1      47.149  30.327  26.510  1.00  0.00     0.029 A 
ATOM     67  C   UNL A   1      46.053  29.495  26.673  1.00  0.00     0.049 A 
ATOM     68  H   UNL A   1      44.324  29.784  27.847  1.00  0.00     0.167 HD
ATOM     69  C   UNL A   1      44.705  27.451  26.290  1.00  0.00     0.074 A 
ATOM     70  C   UNL A   1      44.471  26.161  25.675  1.00  0.00     0.031 C 
ATOM     71  C   UNL A   1      45.805  28.212  26.070  1.00  0.00     0.031 A 
BRANCH  58  72
ATOM     72  C   UNL A   1      45.787  33.593  29.099  1.00  0.00    -0.014 A 
ATOM     73  C   UNL A   1      45.497  34.734  28.333  1.00  0.00     0.009 A 
ATOM     74  C   UNL A   1      46.707  33.700  30.154  1.00  0.00     0.009 A 
ATOM     75  C   UNL A   1      46.143  35.945  28.595  1.00  0.00     0.001 A 
ATOM     76  C   UNL A   1      47.330  34.918  30.430  1.00  0.00     0.001 A 
ATOM     77  C   UNL A   1      47.055  36.037  29.644  1.00  0.00     0.000 A 
ENDBRANCH  58  72
BRANCH  59  78
ATOM     78  C   UNL A   1      40.734  25.173  27.347  1.00  0.00    -0.014 A 
ATOM     79  C   UNL A   1      39.609  25.208  26.509  1.00  0.00     0.009 A 
ATOM     80  C   UNL A   1      41.129  23.948  27.904  1.00  0.00     0.009 A 
ATOM     81  C   UNL A   1      38.880  24.044  26.256  1.00  0.00     0.001 A 
ATOM     82  C   UNL A   1      40.413  22.781  27.628  1.00  0.00     0.001 A 
ATOM     83  C   UNL A   1      39.285  22.832  26.811  1.00  0.00     0.000 A 
ENDBRANCH  59  78
BRANCH  71  84
ATOM     84  C   UNL A   1      46.854  27.651  25.154  1.00  0.00    -0.014 A 
ATOM     85  C   UNL A   1      47.827  26.755  25.623  1.00  0.00     0.009 A 
ATOM     86  C   UNL A   1      46.844  27.994  23.793  1.00  0.00     0.009 A 
ATOM     87  C   UNL A   1      48.788  26.238  24.751  1.00  0.00     0.001 A 
ATOM     88  C   UNL A   1      47.788  27.455  22.919  1.00  0.00     0.001 A 
ATOM     89  C   UNL A   1      48.765  26.585  23.401  1.00  0.00     0.000 A 
ENDBRANCH  71  84
ENDBRANCH  45  46
ENDBRANCH  37  40
ENDBRANCH  35  36
ENDBRANCH  34  35
ENDBRANCH  33  34
ENDBRANCH  31  33
ENDBRANCH  27  29
ENDBRANCH   4  27
TORSDOF 20
ENDMDL
MODEL 2
REMARK VINA RESULT:     -10.7      4.406      9.045
REMARK SMILES CCCCCCNC(=O)Oc1cccc(-c2ccc([C@@H](C)C(=O)NCCCNC(=O)c3ccc(-c4c5nc(c(-c6ccccc6)c6ccc([nH]6)c(-c6ccccc6)c6nc(c(-c7ccccc7)c7ccc4[nH]7)C=C6)C=C5)cc3)cc2[N+](=O)[O-])c1
REMARK SMILES IDX 16 1 17 2 18 3 19 4 79 5 80 6 15 7 11 8 12 9 84 10 13 11
REMARK SMILES IDX 14 12 10 13 8 14 7 15 9 17 6 18 5 19 4 20 3 21 2 22 1 23
REMARK SMILES IDX 81 24 82 25 83 26 20 27 21 28 22 29 23 30 24 31 25 33 26 34
REMARK SMILES IDX 27 35 28 36 29 37 30 39 31 40 32 41 78 42 33 43 77 44 34 45
REMARK SMILES IDX 35 46 36 47 71 48 37 49 76 50 70 51 72 52 38 53 75 54 69 55
REMARK SMILES IDX 68 56 39 58 61 59 46 60 60 61 47 62 50 63 59 64 73 65 48 66
REMARK SMILES IDX 49 67 58 69 74 70 51 71 40 72 41 73 45 74 42 75 44 76 43 77
REMARK SMILES IDX 62 78 63 79 67 80 64 81 66 82 65 83 52 84 53 85 57 86 54 87
REMARK SMILES IDX 56 88 55 89
REMARK H PARENT 7 16 24 32 28 38 72 57 50 68
REMARK Flexibility Score: inf
ROOT
ATOM      1  C   UNL A   1      38.643  22.247  25.927  1.00  0.00     0.060 A 
ATOM      2  C   UNL A   1      37.775  21.493  25.115  1.00  0.00     0.016 A 
ATOM      3  C   UNL A   1      36.551  22.001  24.662  1.00  0.00     0.005 A 
ATOM      4  C   UNL A   1      36.088  23.252  25.072  1.00  0.00    -0.029 A 
ATOM      5  C   UNL A   1      36.956  24.044  25.838  1.00  0.00     0.090 A 
ATOM      6  C   UNL A   1      38.225  23.559  26.219  1.00  0.00     0.277 A 
ENDROOT
BRANCH   1   7
ATOM      7  C   UNL A   1      39.878  21.606  26.433  1.00  0.00    -0.008 A 
ATOM      8  C   UNL A   1      41.679  19.987  26.228  1.00  0.00     0.133 A 
ATOM      9  C   UNL A   1      42.259  20.433  27.412  1.00  0.00     0.047 A 
ATOM     10  C   UNL A   1      40.510  20.565  25.730  1.00  0.00     0.056 A 
ATOM     11  C   UNL A   1      41.664  21.480  28.106  1.00  0.00     0.004 A 
ATOM     12  C   UNL A   1      40.482  22.051  27.627  1.00  0.00     0.009 A 
BRANCH   8  13
ATOM     13  O   UNL A   1      42.239  18.834  25.653  1.00  0.00    -0.410 OA
BRANCH  13  14
ATOM     14  C   UNL A   1      43.320  18.216  26.263  1.00  0.00     0.412 C 
ATOM     15  N   UNL A   1      44.519  18.588  25.720  1.00  0.00    -0.321 N 
ATOM     16  H   UNL A   1      45.324  18.155  26.086  1.00  0.00     0.167 HD
ATOM     17  O   UNL A   1      43.259  17.409  27.183  1.00  0.00    -0.224 OA
BRANCH  15  18
ATOM     18  C   UNL A   1      44.726  19.557  24.660  1.00  0.00     0.119 C 
BRANCH  18  19
ATOM     19  C   UNL A   1      46.077  20.261  24.780  1.00  0.00     0.021 C 
BRANCH  19  20
ATOM     20  C   UNL A   1      46.037  21.617  25.493  1.00  0.00     0.002 C 
BRANCH  20  21
ATOM     21  C   UNL A   1      45.890  22.839  24.579  1.00  0.00    -0.000 C 
BRANCH  21  22
ATOM     22  C   UNL A   1      44.579  22.918  23.792  1.00  0.00    -0.003 C 
ATOM     23  C   UNL A   1      43.348  23.007  24.681  1.00  0.00     0.004 C 
ENDBRANCH  21  22
ENDBRANCH  20  21
ENDBRANCH  19  20
ENDBRANCH  18  19
ENDBRANCH  15  18
ENDBRANCH  13  14
ENDBRANCH   8  13
ENDBRANCH   1   7
BRANCH   6  24
ATOM     24  N   UNL A   1      39.122  24.511  26.868  1.00  0.00     0.063 N 
ATOM     25  O   UNL A   1      38.912  24.763  28.063  1.00  0.00    -0.258 OA
ATOM     26  O   UNL A   1      39.997  25.044  26.172  1.00  0.00    -0.258 OA
ENDBRANCH   6  24
BRANCH   4  27
ATOM     27  C   UNL A   1      34.692  23.759  24.738  1.00  0.00     0.105 C 
ATOM     28  C   UNL A   1      33.896  22.889  23.769  1.00  0.00     0.023 C 
BRANCH  27  29
ATOM     29  C   UNL A   1      33.906  24.250  25.965  1.00  0.00     0.227 C 
ATOM     30  O   UNL A   1      33.623  23.454  26.869  1.00  0.00    -0.274 OA
ATOM     31  N   UNL A   1      33.478  25.528  26.146  1.00  0.00    -0.356 N 
ATOM     32  H   UNL A   1      33.055  25.685  27.021  1.00  0.00     0.163 HD
BRANCH  31  33
ATOM     33  C   UNL A   1      33.526  26.705  25.300  1.00  0.00     0.117 C 
BRANCH  33  34
ATOM     34  C   UNL A   1      33.205  27.982  26.074  1.00  0.00     0.042 C 
BRANCH  34  35
ATOM     35  C   UNL A   1      34.400  28.904  26.276  1.00  0.00     0.118 C 
BRANCH  35  36
ATOM     36  N   UNL A   1      33.995  30.279  26.534  1.00  0.00    -0.352 N 
ATOM     37  C   UNL A   1      34.389  31.162  27.508  1.00  0.00     0.251 C 
ATOM     38  H   UNL A   1      33.326  30.635  25.905  1.00  0.00     0.163 HD
ATOM     39  O   UNL A   1      33.749  32.199  27.665  1.00  0.00    -0.269 OA
BRANCH  37  40
ATOM     40  C   UNL A   1      35.558  30.888  28.378  1.00  0.00     0.039 A 
ATOM     41  C   UNL A   1      35.541  29.739  29.178  1.00  0.00     0.014 A 
ATOM     42  C   UNL A   1      36.633  31.773  28.470  1.00  0.00     0.014 A 
ATOM     43  C   UNL A   1      36.617  29.456  30.024  1.00  0.00     0.010 A 
ATOM     44  C   UNL A   1      37.742  31.450  29.249  1.00  0.00     0.010 A 
ATOM     45  C   UNL A   1      37.741  30.296  30.047  1.00  0.00    -0.014 A 
BRANCH  45  46
ATOM     46  C   UNL A   1      38.913  29.996  30.908  1.00  0.00     0.031 A 
ATOM     47  C   UNL A   1      39.052  30.653  32.255  1.00  0.00     0.074 A 
ATOM     48  C   UNL A   1      39.886  29.182  30.455  1.00  0.00     0.049 A 
ATOM     49  N   UNL A   1      40.035  30.571  33.118  1.00  0.00    -0.248 NA
ATOM     50  C   UNL A   1      37.954  31.536  32.680  1.00  0.00     0.031 C 
ATOM     51  C   UNL A   1      39.894  28.513  29.152  1.00  0.00     0.029 A 
ATOM     52  N   UNL A   1      41.064  28.786  31.038  1.00  0.00    -0.354 N 
ATOM     53  C   UNL A   1      39.685  31.410  34.169  1.00  0.00     0.074 A 
ATOM     54  C   UNL A   1      38.422  32.022  33.820  1.00  0.00     0.031 C 
ATOM     55  C   UNL A   1      41.010  27.773  29.046  1.00  0.00     0.029 A 
ATOM     56  C   UNL A   1      41.813  27.947  30.251  1.00  0.00     0.049 A 
ATOM     57  H   UNL A   1      41.344  29.077  31.936  1.00  0.00     0.167 HD
ATOM     58  C   UNL A   1      40.348  31.640  35.329  1.00  0.00     0.031 A 
ATOM     59  C   UNL A   1      43.016  27.385  30.470  1.00  0.00     0.031 A 
ATOM     60  C   UNL A   1      41.594  31.018  35.687  1.00  0.00     0.049 A 
ATOM     61  C   UNL A   1      43.730  27.653  31.766  1.00  0.00     0.074 A 
ATOM     62  C   UNL A   1      42.310  31.137  36.866  1.00  0.00     0.029 A 
ATOM     63  N   UNL A   1      42.310  30.159  34.868  1.00  0.00    -0.354 N 
ATOM     64  N   UNL A   1      43.354  28.397  32.777  1.00  0.00    -0.248 NA
ATOM     65  C   UNL A   1      45.031  26.995  31.952  1.00  0.00     0.031 C 
ATOM     66  C   UNL A   1      43.482  30.384  36.742  1.00  0.00     0.029 A 
ATOM     67  C   UNL A   1      43.470  29.756  35.507  1.00  0.00     0.049 A 
ATOM     68  H   UNL A   1      42.035  29.876  33.966  1.00  0.00     0.167 HD
ATOM     69  C   UNL A   1      44.357  28.276  33.729  1.00  0.00     0.074 A 
ATOM     70  C   UNL A   1      45.350  27.375  33.181  1.00  0.00     0.031 C 
ATOM     71  C   UNL A   1      44.447  28.860  34.949  1.00  0.00     0.031 A 
BRANCH  58  72
ATOM     72  C   UNL A   1      39.733  32.614  36.296  1.00  0.00    -0.014 A 
ATOM     73  C   UNL A   1      38.774  32.202  37.234  1.00  0.00     0.009 A 
ATOM     74  C   UNL A   1      40.146  33.956  36.292  1.00  0.00     0.009 A 
ATOM     75  C   UNL A   1      38.214  33.121  38.124  1.00  0.00     0.001 A 
ATOM     76  C   UNL A   1      39.605  34.866  37.201  1.00  0.00     0.001 A 
ATOM     77  C   UNL A   1      38.632  34.450  38.109  1.00  0.00     0.000 A 
ENDBRANCH  58  72
BRANCH  59  78
ATOM     78  C   UNL A   1      43.620  26.496  29.443  1.00  0.00    -0.014 A 
ATOM     79  C   UNL A   1      44.475  27.021  28.463  1.00  0.00     0.009 A 
ATOM     80  C   UNL A   1      43.344  25.120  29.438  1.00  0.00     0.009 A 
ATOM     81  C   UNL A   1      45.021  26.190  27.482  1.00  0.00     0.001 A 
ATOM     82  C   UNL A   1      43.912  24.288  28.472  1.00  0.00     0.001 A 
ATOM     83  C   UNL A   1      44.743  24.825  27.489  1.00  0.00     0.000 A 
ENDBRANCH  59  78
BRANCH  71  84
ATOM     84  C   UNL A   1      45.644  28.513  35.788  1.00  0.00    -0.014 A 
ATOM     85  C   UNL A   1      46.799  29.310  35.773  1.00  0.00     0.009 A 
ATOM     86  C   UNL A   1      45.598  27.395  36.635  1.00  0.00     0.009 A 
ATOM     87  C   UNL A   1      47.897  28.975  36.568  1.00  0.00     0.001 A 
ATOM     88  C   UNL A   1      46.687  27.078  37.448  1.00  0.00     0.001 A 
ATOM     89  C   UNL A   1      47.837  27.863  37.408  1.00  0.00     0.000 A 
ENDBRANCH  71  84
ENDBRANCH  45  46
ENDBRANCH  37  40
ENDBRANCH  35  36
ENDBRANCH  34  35
ENDBRANCH  33  34
ENDBRANCH  31  33
ENDBRANCH  27  29
ENDBRANCH   4  27
TORSDOF 20
ENDMDL
MODEL 3
REMARK VINA RESULT:     -10.6      3.830      9.527
REMARK SMILES CCCCCCNC(=O)Oc1cccc(-c2ccc([C@@H](C)C(=O)NCCCNC(=O)c3ccc(-c4c5nc(c(-c6ccccc6)c6ccc([nH]6)c(-c6ccccc6)c6nc(c(-c7ccccc7)c7ccc4[nH]7)C=C6)C=C5)cc3)cc2[N+](=O)[O-])c1
REMARK SMILES IDX 16 1 17 2 18 3 19 4 79 5 80 6 15 7 11 8 12 9 84 10 13 11
REMARK SMILES IDX 14 12 10 13 8 14 7 15 9 17 6 18 5 19 4 20 3 21 2 22 1 23
REMARK SMILES IDX 81 24 82 25 83 26 20 27 21 28 22 29 23 30 24 31 25 33 26 34
REMARK SMILES IDX 27 35 28 36 29 37 30 39 31 40 32 41 78 42 33 43 77 44 34 45
REMARK SMILES IDX 35 46 36 47 71 48 37 49 76 50 70 51 72 52 38 53 75 54 69 55
REMARK SMILES IDX 68 56 39 58 61 59 46 60 60 61 47 62 50 63 59 64 73 65 48 66
REMARK SMILES IDX 49 67 58 69 74 70 51 71 40 72 41 73 45 74 42 75 44 76 43 77
REMARK SMILES IDX 62 78 63 79 67 80 64 81 66 82 65 83 52 84 53 85 57 86 54 87
REMARK SMILES IDX 56 88 55 89
REMARK H PARENT 7 16 24 32 28 38 72 57 50 68
REMARK Flexibility Score: inf
ROOT
ATOM      1  C   UNL A   1      38.503  22.238  25.873  1.00  0.00     0.060 A 
ATOM      2  C   UNL A   1      37.637  21.438  25.106  1.00  0.00     0.016 A 
ATOM      3  C   UNL A   1      36.403  21.911  24.641  1.00  0.00     0.005 A 
ATOM      4  C   UNL A   1      35.930  23.175  24.997  1.00  0.00    -0.029 A 
ATOM      5  C   UNL A   1      36.796  24.011  25.717  1.00  0.00     0.090 A 
ATOM      6  C   UNL A   1      38.074  23.557  26.108  1.00  0.00     0.277 A 
ENDROOT
BRANCH   1   7
ATOM      7  C   UNL A   1      39.751  21.634  26.396  1.00  0.00    -0.008 A 
ATOM      8  C   UNL A   1      41.542  19.997  26.274  1.00  0.00     0.133 A 
ATOM      9  C   UNL A   1      42.154  20.533  27.403  1.00  0.00     0.047 A 
ATOM     10  C   UNL A   1      40.361  20.538  25.762  1.00  0.00     0.056 A 
ATOM     11  C   UNL A   1      41.580  21.635  28.027  1.00  0.00     0.004 A 
ATOM     12  C   UNL A   1      40.386  22.171  27.534  1.00  0.00     0.009 A 
BRANCH   8  13
ATOM     13  O   UNL A   1      42.085  18.799  25.778  1.00  0.00    -0.410 OA
BRANCH  13  14
ATOM     14  C   UNL A   1      43.240  18.282  26.343  1.00  0.00     0.412 C 
ATOM     15  N   UNL A   1      44.357  18.545  25.598  1.00  0.00    -0.321 N 
ATOM     16  H   UNL A   1      45.207  18.172  25.926  1.00  0.00     0.167 HD
ATOM     17  O   UNL A   1      43.305  17.642  27.385  1.00  0.00    -0.224 OA
BRANCH  15  18
ATOM     18  C   UNL A   1      44.417  19.319  24.372  1.00  0.00     0.119 C 
BRANCH  18  19
ATOM     19  C   UNL A   1      44.577  20.815  24.644  1.00  0.00     0.021 C 
BRANCH  19  20
ATOM     20  C   UNL A   1      45.906  21.215  25.295  1.00  0.00     0.002 C 
BRANCH  20  21
ATOM     21  C   UNL A   1      45.846  22.437  26.218  1.00  0.00    -0.000 C 
BRANCH  21  22
ATOM     22  C   UNL A   1      46.416  23.732  25.634  1.00  0.00    -0.003 C 
ATOM     23  C   UNL A   1      46.913  23.579  24.204  1.00  0.00     0.004 C 
ENDBRANCH  21  22
ENDBRANCH  20  21
ENDBRANCH  19  20
ENDBRANCH  18  19
ENDBRANCH  15  18
ENDBRANCH  13  14
ENDBRANCH   8  13
ENDBRANCH   1   7
BRANCH   6  24
ATOM     24  N   UNL A   1      38.966  24.548  26.704  1.00  0.00     0.063 N 
ATOM     25  O   UNL A   1      38.833  24.775  27.915  1.00  0.00    -0.258 OA
ATOM     26  O   UNL A   1      39.757  25.135  25.954  1.00  0.00    -0.258 OA
ENDBRANCH   6  24
BRANCH   4  27
ATOM     27  C   UNL A   1      34.526  23.651  24.654  1.00  0.00     0.105 C 
ATOM     28  C   UNL A   1      33.757  22.766  23.676  1.00  0.00     0.023 C 
BRANCH  27  29
ATOM     29  C   UNL A   1      33.719  24.119  25.877  1.00  0.00     0.227 C 
ATOM     30  O   UNL A   1      33.650  23.396  26.879  1.00  0.00    -0.274 OA
ATOM     31  N   UNL A   1      33.048  25.300  25.951  1.00  0.00    -0.356 N 
ATOM     32  H   UNL A   1      32.647  25.473  26.834  1.00  0.00     0.163 HD
BRANCH  31  33
ATOM     33  C   UNL A   1      32.810  26.353  24.984  1.00  0.00     0.117 C 
BRANCH  33  34
ATOM     34  C   UNL A   1      32.394  27.663  25.651  1.00  0.00     0.042 C 
BRANCH  34  35
ATOM     35  C   UNL A   1      33.245  28.861  25.254  1.00  0.00     0.118 C 
BRANCH  35  36
ATOM     36  N   UNL A   1      32.676  30.118  25.721  1.00  0.00    -0.352 N 
ATOM     37  C   UNL A   1      33.024  30.923  26.777  1.00  0.00     0.251 C 
ATOM     38  H   UNL A   1      31.914  30.445  25.190  1.00  0.00     0.163 HD
ATOM     39  O   UNL A   1      32.261  31.826  27.112  1.00  0.00    -0.269 OA
BRANCH  37  40
ATOM     40  C   UNL A   1      34.288  30.720  27.524  1.00  0.00     0.039 A 
ATOM     41  C   UNL A   1      35.142  31.815  27.702  1.00  0.00     0.014 A 
ATOM     42  C   UNL A   1      34.676  29.463  27.990  1.00  0.00     0.014 A 
ATOM     43  C   UNL A   1      36.351  31.659  28.387  1.00  0.00     0.010 A 
ATOM     44  C   UNL A   1      35.840  29.323  28.743  1.00  0.00     0.010 A 
ATOM     45  C   UNL A   1      36.698  30.416  28.938  1.00  0.00    -0.014 A 
BRANCH  45  46
ATOM     46  C   UNL A   1      37.959  30.234  29.701  1.00  0.00     0.031 A 
ATOM     47  C   UNL A   1      39.094  29.438  29.115  1.00  0.00     0.074 A 
ATOM     48  C   UNL A   1      38.062  30.730  30.950  1.00  0.00     0.049 A 
ATOM     49  N   UNL A   1      40.242  29.112  29.654  1.00  0.00    -0.248 NA
ATOM     50  C   UNL A   1      38.905  28.920  27.750  1.00  0.00     0.031 C 
ATOM     51  C   UNL A   1      37.022  31.485  31.651  1.00  0.00     0.029 A 
ATOM     52  N   UNL A   1      39.092  30.664  31.855  1.00  0.00    -0.354 N 
ATOM     53  C   UNL A   1      40.896  28.332  28.709  1.00  0.00     0.074 A 
ATOM     54  C   UNL A   1      40.004  28.199  27.579  1.00  0.00     0.031 C 
ATOM     55  C   UNL A   1      37.476  31.831  32.867  1.00  0.00     0.029 A 
ATOM     56  C   UNL A   1      38.819  31.289  33.046  1.00  0.00     0.049 A 
ATOM     57  H   UNL A   1      39.946  30.211  31.667  1.00  0.00     0.167 HD
ATOM     58  C   UNL A   1      42.136  27.787  28.768  1.00  0.00     0.031 A 
ATOM     59  C   UNL A   1      39.561  31.407  34.163  1.00  0.00     0.031 A 
ATOM     60  C   UNL A   1      43.033  27.934  29.882  1.00  0.00     0.049 A 
ATOM     61  C   UNL A   1      40.934  30.795  34.203  1.00  0.00     0.074 A 
ATOM     62  C   UNL A   1      44.332  27.474  30.010  1.00  0.00     0.029 A 
ATOM     63  N   UNL A   1      42.723  28.591  31.062  1.00  0.00    -0.354 N 
ATOM     64  N   UNL A   1      41.563  30.118  33.274  1.00  0.00    -0.248 NA
ATOM     65  C   UNL A   1      41.701  30.975  35.443  1.00  0.00     0.031 C 
ATOM     66  C   UNL A   1      44.793  27.815  31.285  1.00  0.00     0.029 A 
ATOM     67  C   UNL A   1      43.799  28.532  31.932  1.00  0.00     0.049 A 
ATOM     68  H   UNL A   1      41.865  29.035  31.255  1.00  0.00     0.167 HD
ATOM     69  C   UNL A   1      42.809  29.813  33.808  1.00  0.00     0.074 A 
ATOM     70  C   UNL A   1      42.852  30.393  35.133  1.00  0.00     0.031 C 
ATOM     71  C   UNL A   1      43.826  29.114  33.247  1.00  0.00     0.031 A 
BRANCH  58  72
ATOM     72  C   UNL A   1      42.591  26.973  27.588  1.00  0.00    -0.014 A 
ATOM     73  C   UNL A   1      43.078  27.589  26.424  1.00  0.00     0.009 A 
ATOM     74  C   UNL A   1      42.568  25.572  27.656  1.00  0.00     0.009 A 
ATOM     75  C   UNL A   1      43.496  26.817  25.337  1.00  0.00     0.001 A 
ATOM     76  C   UNL A   1      43.013  24.803  26.579  1.00  0.00     0.001 A 
ATOM     77  C   UNL A   1      43.466  25.426  25.417  1.00  0.00     0.000 A 
ENDBRANCH  58  72
BRANCH  59  78
ATOM     78  C   UNL A   1      39.029  32.150  35.335  1.00  0.00    -0.014 A 
ATOM     79  C   UNL A   1      39.200  33.539  35.433  1.00  0.00     0.009 A 
ATOM     80  C   UNL A   1      38.349  31.474  36.360  1.00  0.00     0.009 A 
ATOM     81  C   UNL A   1      38.723  34.232  36.548  1.00  0.00     0.001 A 
ATOM     82  C   UNL A   1      37.851  32.175  37.461  1.00  0.00     0.001 A 
ATOM     83  C   UNL A   1      38.046  33.551  37.558  1.00  0.00     0.000 A 
ENDBRANCH  59  78
BRANCH  71  84
ATOM     84  C   UNL A   1      45.084  28.971  34.054  1.00  0.00    -0.014 A 
ATOM     85  C   UNL A   1      45.284  27.870  34.902  1.00  0.00     0.009 A 
ATOM     86  C   UNL A   1      46.101  29.931  33.933  1.00  0.00     0.009 A 
ATOM     87  C   UNL A   1      46.466  27.751  35.636  1.00  0.00     0.001 A 
ATOM     88  C   UNL A   1      47.292  29.795  34.647  1.00  0.00     0.001 A 
ATOM     89  C   UNL A   1      47.470  28.711  35.504  1.00  0.00     0.000 A 
ENDBRANCH  71  84
ENDBRANCH  45  46
ENDBRANCH  37  40
ENDBRANCH  35  36
ENDBRANCH  34  35
ENDBRANCH  33  34
ENDBRANCH  31  33
ENDBRANCH  27  29
ENDBRANCH   4  27
TORSDOF 20
ENDMDL
