MODEL 1
REMARK VINA RESULT:      -9.9      0.000      0.000
REMARK SMILES CCCN(CC)S(=O)(=O)c1ccc(C(=O)NCCCNC(=O)c2ccc(-c3c4nc(c(-c5ccccc5)c5ccc([nH]5)c(-c5ccccc5)c5nc(c(-c6ccccc6)c6ccc3[nH]6)C=C5)C=C4)cc2)o1
REMARK SMILES IDX 17 1 16 2 14 3 15 4 13 6 10 7 11 8 71 9 12 10 7 11 8 12 9 13
REMARK SMILES IDX 4 14 3 15 2 16 1 17 5 18 6 19 18 20 19 21 20 22 21 23 22 25
REMARK SMILES IDX 23 26 24 27 70 28 25 29 69 30 26 31 27 32 28 33 63 34 29 35
REMARK SMILES IDX 68 36 62 37 64 38 30 39 67 40 61 41 60 42 31 44 53 45 38 46
REMARK SMILES IDX 52 47 39 48 42 49 51 50 65 51 40 52 41 53 50 55 66 56 43 57
REMARK SMILES IDX 32 58 33 59 37 60 34 61 36 62 35 63 54 64 55 65 59 66 56 67
REMARK SMILES IDX 58 68 57 69 44 70 45 71 49 72 46 73 48 74 47 75
REMARK H PARENT 16 5 20 24 64 43 42 54
REMARK Flexibility Score: inf
ROOT
ATOM      1  C   UNL A   1      36.071  20.389  24.827  1.00  0.00     0.118 C 
ENDROOT
BRANCH   1   2
ATOM      2  N   UNL A   1      35.046  19.414  25.149  1.00  0.00    -0.349 N 
ATOM      3  C   UNL A   1      33.679  19.469  24.986  1.00  0.00     0.287 C 
ATOM      4  O   UNL A   1      33.069  18.413  25.169  1.00  0.00    -0.266 OA
ATOM      5  H   UNL A   1      35.382  18.579  25.548  1.00  0.00     0.163 HD
BRANCH   3   6
ATOM      6  C   UNL A   1      33.015  20.707  24.614  1.00  0.00     0.193 A 
ATOM      7  C   UNL A   1      32.318  22.795  25.042  1.00  0.00     0.234 A 
ATOM      8  C   UNL A   1      31.970  22.488  23.734  1.00  0.00     0.065 A 
ATOM      9  O   UNL A   1      32.957  21.695  25.568  1.00  0.00    -0.438 OA
ATOM     10  C   UNL A   1      32.422  21.180  23.461  1.00  0.00     0.058 A 
BRANCH   7  11
ATOM     11  S   UNL A   1      32.017  24.314  25.953  1.00  0.00     0.276 S 
ATOM     12  O   UNL A   1      31.806  23.885  27.318  1.00  0.00    -0.204 OA
ATOM     13  O   UNL A   1      30.935  24.917  25.199  1.00  0.00    -0.204 OA
BRANCH  11  14
ATOM     14  N   UNL A   1      33.354  25.376  25.911  1.00  0.00    -0.195 NA
BRANCH  14  15
ATOM     15  C   UNL A   1      34.543  24.858  25.157  1.00  0.00     0.102 C 
BRANCH  15  16
ATOM     16  C   UNL A   1      35.502  24.036  26.021  1.00  0.00     0.013 C 
ATOM     17  C   UNL A   1      36.891  23.859  25.412  1.00  0.00     0.005 C 
ENDBRANCH  15  16
ENDBRANCH  14  15
BRANCH  14  18
ATOM     18  C   UNL A   1      33.085  26.811  25.590  1.00  0.00     0.099 C 
ATOM     19  C   UNL A   1      33.485  27.782  26.688  1.00  0.00     0.022 C 
ENDBRANCH  14  18
ENDBRANCH  11  14
ENDBRANCH   7  11
ENDBRANCH   3   6
ENDBRANCH   1   2
BRANCH   1  20
ATOM     20  C   UNL A   1      37.452  19.754  24.670  1.00  0.00     0.042 C 
BRANCH  20  21
ATOM     21  C   UNL A   1      38.462  20.199  25.726  1.00  0.00     0.118 C 
BRANCH  21  22
ATOM     22  N   UNL A   1      39.640  19.343  25.754  1.00  0.00    -0.352 N 
ATOM     23  C   UNL A   1      40.949  19.639  26.037  1.00  0.00     0.251 C 
ATOM     24  H   UNL A   1      39.469  18.400  25.533  1.00  0.00     0.163 HD
ATOM     25  O   UNL A   1      41.816  18.802  25.801  1.00  0.00    -0.269 OA
BRANCH  23  26
ATOM     26  C   UNL A   1      41.338  20.945  26.617  1.00  0.00     0.039 A 
ATOM     27  C   UNL A   1      41.803  21.946  25.755  1.00  0.00     0.014 A 
ATOM     28  C   UNL A   1      41.325  21.169  27.997  1.00  0.00     0.014 A 
ATOM     29  C   UNL A   1      42.211  23.179  26.270  1.00  0.00     0.010 A 
ATOM     30  C   UNL A   1      41.681  22.418  28.505  1.00  0.00     0.010 A 
ATOM     31  C   UNL A   1      42.133  23.432  27.647  1.00  0.00    -0.014 A 
BRANCH  31  32
ATOM     32  C   UNL A   1      42.536  24.745  28.211  1.00  0.00     0.031 A 
ATOM     33  C   UNL A   1      41.513  25.827  28.418  1.00  0.00     0.074 A 
ATOM     34  C   UNL A   1      43.833  24.984  28.489  1.00  0.00     0.049 A 
ATOM     35  N   UNL A   1      41.686  27.064  28.811  1.00  0.00    -0.248 NA
ATOM     36  C   UNL A   1      40.112  25.479  28.127  1.00  0.00     0.031 C 
ATOM     37  C   UNL A   1      44.928  24.028  28.316  1.00  0.00     0.029 A 
ATOM     38  N   UNL A   1      44.449  26.113  28.967  1.00  0.00    -0.354 N 
ATOM     39  C   UNL A   1      40.424  27.645  28.798  1.00  0.00     0.074 A 
ATOM     40  C   UNL A   1      39.499  26.637  28.327  1.00  0.00     0.031 C 
ATOM     41  C   UNL A   1      46.080  24.606  28.695  1.00  0.00     0.029 A 
ATOM     42  C   UNL A   1      45.810  25.981  29.104  1.00  0.00     0.049 A 
ATOM     43  H   UNL A   1      43.963  26.939  29.191  1.00  0.00     0.167 HD
ATOM     44  C   UNL A   1      40.064  28.900  29.158  1.00  0.00     0.031 A 
ATOM     45  C   UNL A   1      46.737  26.871  29.504  1.00  0.00     0.031 A 
ATOM     46  C   UNL A   1      40.976  29.901  29.643  1.00  0.00     0.049 A 
ATOM     47  C   UNL A   1      46.311  28.257  29.894  1.00  0.00     0.074 A 
ATOM     48  C   UNL A   1      40.700  31.193  30.057  1.00  0.00     0.029 A 
ATOM     49  N   UNL A   1      42.342  29.718  29.786  1.00  0.00    -0.354 N 
ATOM     50  N   UNL A   1      45.109  28.780  29.902  1.00  0.00    -0.248 NA
ATOM     51  C   UNL A   1      47.371  29.174  30.340  1.00  0.00     0.031 C 
ATOM     52  C   UNL A   1      41.903  31.801  30.428  1.00  0.00     0.029 A 
ATOM     53  C   UNL A   1      42.922  30.874  30.277  1.00  0.00     0.049 A 
ATOM     54  H   UNL A   1      42.827  28.889  29.570  1.00  0.00     0.167 HD
ATOM     55  C   UNL A   1      45.264  30.076  30.377  1.00  0.00     0.074 A 
ATOM     56  C   UNL A   1      46.673  30.256  30.658  1.00  0.00     0.031 C 
ATOM     57  C   UNL A   1      44.323  31.032  30.561  1.00  0.00     0.031 A 
BRANCH  44  58
ATOM     58  C   UNL A   1      38.612  29.263  29.043  1.00  0.00    -0.014 A 
ATOM     59  C   UNL A   1      37.763  29.203  30.159  1.00  0.00     0.009 A 
ATOM     60  C   UNL A   1      38.096  29.713  27.817  1.00  0.00     0.009 A 
ATOM     61  C   UNL A   1      36.419  29.562  30.044  1.00  0.00     0.001 A 
ATOM     62  C   UNL A   1      36.757  30.092  27.710  1.00  0.00     0.001 A 
ATOM     63  C   UNL A   1      35.918  30.009  28.821  1.00  0.00     0.000 A 
ENDBRANCH  44  58
BRANCH  45  64
ATOM     64  C   UNL A   1      48.169  26.481  29.564  1.00  0.00    -0.014 A 
ATOM     65  C   UNL A   1      49.007  26.688  28.458  1.00  0.00     0.009 A 
ATOM     66  C   UNL A   1      48.697  25.882  30.717  1.00  0.00     0.009 A 
ATOM     67  C   UNL A   1      50.341  26.276  28.496  1.00  0.00     0.001 A 
ATOM     68  C   UNL A   1      50.038  25.494  30.760  1.00  0.00     0.001 A 
ATOM     69  C   UNL A   1      50.856  25.682  29.647  1.00  0.00     0.000 A 
ENDBRANCH  45  64
BRANCH  57  70
ATOM     70  C   UNL A   1      44.784  32.342  31.129  1.00  0.00    -0.014 A 
ATOM     71  C   UNL A   1      45.194  33.391  30.292  1.00  0.00     0.009 A 
ATOM     72  C   UNL A   1      44.774  32.539  32.518  1.00  0.00     0.009 A 
ATOM     73  C   UNL A   1      45.615  34.604  30.840  1.00  0.00     0.001 A 
ATOM     74  C   UNL A   1      45.175  33.760  33.060  1.00  0.00     0.001 A 
ATOM     75  C   UNL A   1      45.602  34.788  32.222  1.00  0.00     0.000 A 
ENDBRANCH  57  70
ENDBRANCH  31  32
ENDBRANCH  23  26
ENDBRANCH  21  22
ENDBRANCH  20  21
ENDBRANCH   1  20
TORSDOF 15
ENDMDL
MODEL 2
REMARK VINA RESULT:      -9.9      2.152      7.448
REMARK SMILES CCCN(CC)S(=O)(=O)c1ccc(C(=O)NCCCNC(=O)c2ccc(-c3c4nc(c(-c5ccccc5)c5ccc([nH]5)c(-c5ccccc5)c5nc(c(-c6ccccc6)c6ccc3[nH]6)C=C5)C=C4)cc2)o1
REMARK SMILES IDX 17 1 16 2 14 3 15 4 13 6 10 7 11 8 71 9 12 10 7 11 8 12 9 13
REMARK SMILES IDX 4 14 3 15 2 16 1 17 5 18 6 19 18 20 19 21 20 22 21 23 22 25
REMARK SMILES IDX 23 26 24 27 70 28 25 29 69 30 26 31 27 32 28 33 63 34 29 35
REMARK SMILES IDX 68 36 62 37 64 38 30 39 67 40 61 41 60 42 31 44 53 45 38 46
REMARK SMILES IDX 52 47 39 48 42 49 51 50 65 51 40 52 41 53 50 55 66 56 43 57
REMARK SMILES IDX 32 58 33 59 37 60 34 61 36 62 35 63 54 64 55 65 59 66 56 67
REMARK SMILES IDX 58 68 57 69 44 70 45 71 49 72 46 73 48 74 47 75
REMARK H PARENT 16 5 20 24 64 43 42 54
REMARK Flexibility Score: inf
ROOT
ATOM      1  C   UNL A   1      31.713  28.291  25.411  1.00  0.00     0.118 C 
ENDROOT
BRANCH   1   2
ATOM      2  N   UNL A   1      31.358  28.616  24.042  1.00  0.00    -0.349 N 
ATOM      3  C   UNL A   1      30.874  27.815  23.031  1.00  0.00     0.287 C 
ATOM      4  O   UNL A   1      30.474  28.400  22.021  1.00  0.00    -0.266 OA
ATOM      5  H   UNL A   1      31.483  29.562  23.797  1.00  0.00     0.163 HD
BRANCH   3   6
ATOM      6  C   UNL A   1      30.840  26.369  23.167  1.00  0.00     0.193 A 
ATOM      7  C   UNL A   1      31.777  24.337  23.028  1.00  0.00     0.234 A 
ATOM      8  C   UNL A   1      30.489  24.180  23.520  1.00  0.00     0.065 A 
ATOM      9  O   UNL A   1      31.978  25.682  22.816  1.00  0.00    -0.438 OA
ATOM     10  C   UNL A   1      29.906  25.460  23.622  1.00  0.00     0.058 A 
BRANCH   7  11
ATOM     11  S   UNL A   1      33.008  23.072  22.691  1.00  0.00     0.276 S 
ATOM     12  O   UNL A   1      33.683  23.528  21.496  1.00  0.00    -0.204 OA
ATOM     13  O   UNL A   1      32.209  21.862  22.665  1.00  0.00    -0.204 OA
BRANCH  11  14
ATOM     14  N   UNL A   1      34.155  22.926  23.949  1.00  0.00    -0.195 NA
BRANCH  14  15
ATOM     15  C   UNL A   1      35.469  23.597  23.678  1.00  0.00     0.102 C 
BRANCH  15  16
ATOM     16  C   UNL A   1      36.622  22.614  23.459  1.00  0.00     0.013 C 
ATOM     17  C   UNL A   1      37.418  22.298  24.723  1.00  0.00     0.005 C 
ENDBRANCH  15  16
ENDBRANCH  14  15
BRANCH  14  18
ATOM     18  C   UNL A   1      33.685  23.184  25.344  1.00  0.00     0.099 C 
ATOM     19  C   UNL A   1      34.021  24.569  25.871  1.00  0.00     0.022 C 
ENDBRANCH  14  18
ENDBRANCH  11  14
ENDBRANCH   7  11
ENDBRANCH   3   6
ENDBRANCH   1   2
BRANCH   1  20
ATOM     20  C   UNL A   1      33.224  28.306  25.642  1.00  0.00     0.042 C 
BRANCH  20  21
ATOM     21  C   UNL A   1      33.625  28.485  27.105  1.00  0.00     0.118 C 
BRANCH  21  22
ATOM     22  N   UNL A   1      33.587  29.880  27.518  1.00  0.00    -0.352 N 
ATOM     23  C   UNL A   1      34.520  30.639  28.178  1.00  0.00     0.251 C 
ATOM     24  H   UNL A   1      32.757  30.356  27.287  1.00  0.00     0.163 HD
ATOM     25  O   UNL A   1      34.197  31.743  28.609  1.00  0.00    -0.269 OA
BRANCH  23  26
ATOM     26  C   UNL A   1      35.904  30.154  28.385  1.00  0.00     0.039 A 
ATOM     27  C   UNL A   1      36.253  29.649  29.643  1.00  0.00     0.014 A 
ATOM     28  C   UNL A   1      36.876  30.263  27.387  1.00  0.00     0.014 A 
ATOM     29  C   UNL A   1      37.559  29.214  29.886  1.00  0.00     0.010 A 
ATOM     30  C   UNL A   1      38.165  29.778  27.612  1.00  0.00     0.010 A 
ATOM     31  C   UNL A   1      38.520  29.256  28.865  1.00  0.00    -0.014 A 
BRANCH  31  32
ATOM     32  C   UNL A   1      39.905  28.773  29.094  1.00  0.00     0.031 A 
ATOM     33  C   UNL A   1      40.938  29.690  29.688  1.00  0.00     0.074 A 
ATOM     34  C   UNL A   1      40.249  27.526  28.719  1.00  0.00     0.049 A 
ATOM     35  N   UNL A   1      42.216  29.481  29.879  1.00  0.00    -0.248 NA
ATOM     36  C   UNL A   1      40.479  31.025  30.106  1.00  0.00     0.031 C 
ATOM     37  C   UNL A   1      39.348  26.543  28.113  1.00  0.00     0.029 A 
ATOM     38  N   UNL A   1      41.455  26.876  28.784  1.00  0.00    -0.354 N 
ATOM     39  C   UNL A   1      42.716  30.659  30.421  1.00  0.00     0.074 A 
ATOM     40  C   UNL A   1      41.611  31.590  30.498  1.00  0.00     0.031 C 
ATOM     41  C   UNL A   1      40.031  25.411  27.875  1.00  0.00     0.029 A 
ATOM     42  C   UNL A   1      41.421  25.599  28.277  1.00  0.00     0.049 A 
ATOM     43  H   UNL A   1      42.269  27.285  29.158  1.00  0.00     0.167 HD
ATOM     44  C   UNL A   1      43.977  30.937  30.829  1.00  0.00     0.031 A 
ATOM     45  C   UNL A   1      42.401  24.686  28.143  1.00  0.00     0.031 A 
ATOM     46  C   UNL A   1      45.075  30.010  30.770  1.00  0.00     0.049 A 
ATOM     47  C   UNL A   1      43.792  25.023  28.602  1.00  0.00     0.074 A 
ATOM     48  C   UNL A   1      46.383  30.193  31.186  1.00  0.00     0.029 A 
ATOM     49  N   UNL A   1      44.990  28.721  30.270  1.00  0.00    -0.354 N 
ATOM     50  N   UNL A   1      44.238  26.132  29.138  1.00  0.00    -0.248 NA
ATOM     51  C   UNL A   1      44.811  23.975  28.445  1.00  0.00     0.031 C 
ATOM     52  C   UNL A   1      47.097  29.022  30.914  1.00  0.00     0.029 A 
ATOM     53  C   UNL A   1      46.224  28.099  30.362  1.00  0.00     0.049 A 
ATOM     54  H   UNL A   1      44.175  28.309  29.904  1.00  0.00     0.167 HD
ATOM     55  C   UNL A   1      45.582  25.907  29.405  1.00  0.00     0.074 A 
ATOM     56  C   UNL A   1      45.875  24.553  28.984  1.00  0.00     0.031 C 
ATOM     57  C   UNL A   1      46.494  26.749  29.948  1.00  0.00     0.031 A 
BRANCH  44  58
ATOM     58  C   UNL A   1      44.237  32.308  31.384  1.00  0.00    -0.014 A 
ATOM     59  C   UNL A   1      44.617  33.365  30.543  1.00  0.00     0.009 A 
ATOM     60  C   UNL A   1      44.056  32.557  32.753  1.00  0.00     0.009 A 
ATOM     61  C   UNL A   1      44.837  34.640  31.068  1.00  0.00     0.001 A 
ATOM     62  C   UNL A   1      44.256  33.837  33.271  1.00  0.00     0.001 A 
ATOM     63  C   UNL A   1      44.652  34.876  32.429  1.00  0.00     0.000 A 
ENDBRANCH  44  58
BRANCH  45  64
ATOM     64  C   UNL A   1      42.107  23.357  27.551  1.00  0.00    -0.014 A 
ATOM     65  C   UNL A   1      41.489  22.359  28.320  1.00  0.00     0.009 A 
ATOM     66  C   UNL A   1      42.459  23.074  26.223  1.00  0.00     0.009 A 
ATOM     67  C   UNL A   1      41.258  21.092  27.779  1.00  0.00     0.001 A 
ATOM     68  C   UNL A   1      42.203  21.814  25.678  1.00  0.00     0.001 A 
ATOM     69  C   UNL A   1      41.612  20.822  26.458  1.00  0.00     0.000 A 
ENDBRANCH  45  64
BRANCH  57  70
ATOM     70  C   UNL A   1      47.880  26.213  30.155  1.00  0.00    -0.014 A 
ATOM     71  C   UNL A   1      48.302  25.759  31.414  1.00  0.00     0.009 A 
ATOM     72  C   UNL A   1      48.761  26.129  29.066  1.00  0.00     0.009 A 
ATOM     73  C   UNL A   1      49.594  25.259  31.584  1.00  0.00     0.001 A 
ATOM     74  C   UNL A   1      50.044  25.609  29.236  1.00  0.00     0.001 A 
ATOM     75  C   UNL A   1      50.462  25.182  30.495  1.00  0.00     0.000 A 
ENDBRANCH  57  70
ENDBRANCH  31  32
ENDBRANCH  23  26
ENDBRANCH  21  22
ENDBRANCH  20  21
ENDBRANCH   1  20
TORSDOF 15
ENDMDL
MODEL 3
REMARK VINA RESULT:      -9.8      3.759      9.033
REMARK SMILES CCCN(CC)S(=O)(=O)c1ccc(C(=O)NCCCNC(=O)c2ccc(-c3c4nc(c(-c5ccccc5)c5ccc([nH]5)c(-c5ccccc5)c5nc(c(-c6ccccc6)c6ccc3[nH]6)C=C5)C=C4)cc2)o1
REMARK SMILES IDX 17 1 16 2 14 3 15 4 13 6 10 7 11 8 71 9 12 10 7 11 8 12 9 13
REMARK SMILES IDX 4 14 3 15 2 16 1 17 5 18 6 19 18 20 19 21 20 22 21 23 22 25
REMARK SMILES IDX 23 26 24 27 70 28 25 29 69 30 26 31 27 32 28 33 63 34 29 35
REMARK SMILES IDX 68 36 62 37 64 38 30 39 67 40 61 41 60 42 31 44 53 45 38 46
REMARK SMILES IDX 52 47 39 48 42 49 51 50 65 51 40 52 41 53 50 55 66 56 43 57
REMARK SMILES IDX 32 58 33 59 37 60 34 61 36 62 35 63 54 64 55 65 59 66 56 67
REMARK SMILES IDX 58 68 57 69 44 70 45 71 49 72 46 73 48 74 47 75
REMARK H PARENT 16 5 20 24 64 43 42 54
REMARK Flexibility Score: inf
ROOT
ATOM      1  C   UNL A   1      42.038  20.140  27.915  1.00  0.00     0.118 C 
ENDROOT
BRANCH   1   2
ATOM      2  N   UNL A   1      41.904  18.998  27.029  1.00  0.00    -0.349 N 
ATOM      3  C   UNL A   1      42.724  18.554  26.014  1.00  0.00     0.287 C 
ATOM      4  O   UNL A   1      42.460  17.441  25.554  1.00  0.00    -0.266 OA
ATOM      5  H   UNL A   1      41.097  18.454  27.177  1.00  0.00     0.163 HD
BRANCH   3   6
ATOM      6  C   UNL A   1      43.831  19.363  25.533  1.00  0.00     0.193 A 
ATOM      7  C   UNL A   1      44.771  21.325  24.992  1.00  0.00     0.234 A 
ATOM      8  C   UNL A   1      45.720  20.329  24.802  1.00  0.00     0.065 A 
ATOM      9  O   UNL A   1      43.620  20.718  25.439  1.00  0.00    -0.438 OA
ATOM     10  C   UNL A   1      45.133  19.098  25.157  1.00  0.00     0.058 A 
BRANCH   7  11
ATOM     11  S   UNL A   1      44.934  23.092  24.717  1.00  0.00     0.276 S 
ATOM     12  O   UNL A   1      43.618  23.520  24.297  1.00  0.00    -0.204 OA
ATOM     13  O   UNL A   1      46.054  23.161  23.798  1.00  0.00    -0.204 OA
BRANCH  11  14
ATOM     14  N   UNL A   1      45.358  23.938  26.139  1.00  0.00    -0.195 NA
BRANCH  14  15
ATOM     15  C   UNL A   1      45.125  23.180  27.412  1.00  0.00     0.102 C 
BRANCH  15  16
ATOM     16  C   UNL A   1      43.881  23.639  28.176  1.00  0.00     0.013 C 
ATOM     17  C   UNL A   1      43.751  23.035  29.572  1.00  0.00     0.005 C 
ENDBRANCH  15  16
ENDBRANCH  14  15
BRANCH  14  18
ATOM     18  C   UNL A   1      46.676  24.644  26.155  1.00  0.00     0.099 C 
ATOM     19  C   UNL A   1      47.351  24.677  27.516  1.00  0.00     0.022 C 
ENDBRANCH  14  18
ENDBRANCH  11  14
ENDBRANCH   7  11
ENDBRANCH   3   6
ENDBRANCH   1   2
BRANCH   1  20
ATOM     20  C   UNL A   1      40.920  21.163  27.723  1.00  0.00     0.042 C 
BRANCH  20  21
ATOM     21  C   UNL A   1      41.051  21.992  26.447  1.00  0.00     0.118 C 
BRANCH  21  22
ATOM     22  N   UNL A   1      39.760  22.247  25.823  1.00  0.00    -0.352 N 
ATOM     23  C   UNL A   1      38.872  23.276  26.003  1.00  0.00     0.251 C 
ATOM     24  H   UNL A   1      39.479  21.570  25.166  1.00  0.00     0.163 HD
ATOM     25  O   UNL A   1      37.745  23.185  25.522  1.00  0.00    -0.269 OA
BRANCH  23  26
ATOM     26  C   UNL A   1      39.240  24.489  26.768  1.00  0.00     0.039 A 
ATOM     27  C   UNL A   1      39.996  25.478  26.127  1.00  0.00     0.014 A 
ATOM     28  C   UNL A   1      38.919  24.630  28.121  1.00  0.00     0.014 A 
ATOM     29  C   UNL A   1      40.391  26.622  26.827  1.00  0.00     0.010 A 
ATOM     30  C   UNL A   1      39.266  25.796  28.804  1.00  0.00     0.010 A 
ATOM     31  C   UNL A   1      40.011  26.799  28.166  1.00  0.00    -0.014 A 
BRANCH  31  32
ATOM     32  C   UNL A   1      40.397  28.019  28.919  1.00  0.00     0.031 A 
ATOM     33  C   UNL A   1      41.751  28.114  29.564  1.00  0.00     0.074 A 
ATOM     34  C   UNL A   1      39.509  29.021  29.067  1.00  0.00     0.049 A 
ATOM     35  N   UNL A   1      42.235  29.055  30.335  1.00  0.00    -0.248 NA
ATOM     36  C   UNL A   1      42.679  26.996  29.327  1.00  0.00     0.031 C 
ATOM     37  C   UNL A   1      38.156  29.046  28.509  1.00  0.00     0.029 A 
ATOM     38  N   UNL A   1      39.612  30.211  29.743  1.00  0.00    -0.354 N 
ATOM     39  C   UNL A   1      43.512  28.636  30.689  1.00  0.00     0.074 A 
ATOM     40  C   UNL A   1      43.716  27.341  30.075  1.00  0.00     0.031 C 
ATOM     41  C   UNL A   1      37.560  30.200  28.855  1.00  0.00     0.029 A 
ATOM     42  C   UNL A   1      38.474  30.977  29.685  1.00  0.00     0.049 A 
ATOM     43  H   UNL A   1      40.425  30.489  30.225  1.00  0.00     0.167 HD
ATOM     44  C   UNL A   1      44.436  29.275  31.444  1.00  0.00     0.031 A 
ATOM     45  C   UNL A   1      38.194  32.169  30.246  1.00  0.00     0.031 A 
ATOM     46  C   UNL A   1      44.244  30.569  32.042  1.00  0.00     0.049 A 
ATOM     47  C   UNL A   1      39.237  32.854  31.083  1.00  0.00     0.074 A 
ATOM     48  C   UNL A   1      45.134  31.309  32.803  1.00  0.00     0.029 A 
ATOM     49  N   UNL A   1      43.084  31.319  31.940  1.00  0.00    -0.354 N 
ATOM     50  N   UNL A   1      40.448  32.455  31.382  1.00  0.00    -0.248 NA
ATOM     51  C   UNL A   1      38.873  34.161  31.651  1.00  0.00     0.031 C 
ATOM     52  C   UNL A   1      44.503  32.498  33.182  1.00  0.00     0.029 A 
ATOM     53  C   UNL A   1      43.233  32.512  32.627  1.00  0.00     0.049 A 
ATOM     54  H   UNL A   1      42.275  31.046  31.451  1.00  0.00     0.167 HD
ATOM     55  C   UNL A   1      41.001  33.471  32.151  1.00  0.00     0.074 A 
ATOM     56  C   UNL A   1      39.998  34.510  32.261  1.00  0.00     0.031 C 
ATOM     57  C   UNL A   1      42.229  33.537  32.718  1.00  0.00     0.031 A 
BRANCH  44  58
ATOM     58  C   UNL A   1      45.748  28.581  31.665  1.00  0.00    -0.014 A 
ATOM     59  C   UNL A   1      46.828  28.784  30.792  1.00  0.00     0.009 A 
ATOM     60  C   UNL A   1      45.923  27.751  32.783  1.00  0.00     0.009 A 
ATOM     61  C   UNL A   1      48.050  28.149  31.019  1.00  0.00     0.001 A 
ATOM     62  C   UNL A   1      47.153  27.134  33.020  1.00  0.00     0.001 A 
ATOM     63  C   UNL A   1      48.212  27.328  32.135  1.00  0.00     0.000 A 
ENDBRANCH  44  58
BRANCH  45  64
ATOM     64  C   UNL A   1      36.867  32.800  30.034  1.00  0.00    -0.014 A 
ATOM     65  C   UNL A   1      36.653  33.651  28.940  1.00  0.00     0.009 A 
ATOM     66  C   UNL A   1      35.816  32.569  30.935  1.00  0.00     0.009 A 
ATOM     67  C   UNL A   1      35.420  34.284  28.768  1.00  0.00     0.001 A 
ATOM     68  C   UNL A   1      34.576  33.185  30.746  1.00  0.00     0.001 A 
ATOM     69  C   UNL A   1      34.382  34.049  29.669  1.00  0.00     0.000 A 
ENDBRANCH  45  64
BRANCH  57  70
ATOM     70  C   UNL A   1      42.567  34.790  33.471  1.00  0.00    -0.014 A 
ATOM     71  C   UNL A   1      43.154  35.888  32.824  1.00  0.00     0.009 A 
ATOM     72  C   UNL A   1      42.261  34.883  34.837  1.00  0.00     0.009 A 
ATOM     73  C   UNL A   1      43.456  37.047  33.542  1.00  0.00     0.001 A 
ATOM     74  C   UNL A   1      42.546  36.050  35.545  1.00  0.00     0.001 A 
ATOM     75  C   UNL A   1      43.149  37.127  34.900  1.00  0.00     0.000 A 
ENDBRANCH  57  70
ENDBRANCH  31  32
ENDBRANCH  23  26
ENDBRANCH  21  22
ENDBRANCH  20  21
ENDBRANCH   1  20
TORSDOF 15
ENDMDL
