MODEL 1
REMARK VINA RESULT:     -11.6      0.000      0.000
REMARK SMILES C[C@H]1[C@H](C(=O)NCCCNC(=O)c2ccc(-c3c4nc(c(-c5ccccc5)c5ccc([nH]5)c(-c5ccccc5)c5nc(c(-c6ccccc6)c6ccc3[nH]6)C=C5)C=C4)cc2)CC[N@@H+]1Cc1ccc(C(F)(F)F)cc1
REMARK SMILES IDX 7 1 6 2 4 3 5 4 3 6 1 7 2 8 63 9 61 10 62 11 64 13 65 14
REMARK SMILES IDX 66 15 74 16 67 17 73 18 68 19 69 20 70 21 71 22 72 23 8 24
REMARK SMILES IDX 9 25 10 26 11 27 12 29 13 30 14 31 60 32 15 33 59 34 16 35
REMARK SMILES IDX 17 36 18 37 53 38 19 39 58 40 52 41 54 42 20 43 57 44 51 45
REMARK SMILES IDX 50 46 21 48 43 49 28 50 42 51 29 52 32 53 41 54 55 55 30 56
REMARK SMILES IDX 31 57 40 59 56 60 33 61 22 62 23 63 27 64 24 65 26 66 25 67
REMARK SMILES IDX 44 68 45 69 49 70 46 71 48 72 47 73 34 74 35 75 39 76 36 77
REMARK SMILES IDX 38 78 37 79
REMARK H PARENT 6 5 63 12 10 28 54 47 32 58
REMARK Flexibility Score: inf
ROOT
ATOM      1  C   UNL A   1      31.606  27.067  26.133  1.00  0.00     0.117 C 
ENDROOT
BRANCH   1   2
ATOM      2  N   UNL A   1      31.017  25.864  26.669  1.00  0.00    -0.356 N 
ATOM      3  C   UNL A   1      31.430  24.574  26.581  1.00  0.00     0.229 C 
ATOM      4  O   UNL A   1      30.745  23.740  27.185  1.00  0.00    -0.275 OA
ATOM      5  H   UNL A   1      30.185  26.000  27.177  1.00  0.00     0.163 HD
BRANCH   3   6
ATOM      6  C   UNL A   1      32.688  24.124  25.844  1.00  0.00     0.142 C 
ATOM      7  C   UNL A   1      32.490  22.266  24.170  1.00  0.00     0.076 C 
ATOM      8  C   UNL A   1      32.591  23.788  24.341  1.00  0.00     0.193 C 
ATOM      9  N   UNL A   1      33.863  24.239  23.740  1.00  0.00    -0.328 N 
ATOM     10  C   UNL A   1      33.870  25.074  25.949  1.00  0.00     0.081 C 
ATOM     11  C   UNL A   1      34.771  24.577  24.829  1.00  0.00     0.263 C 
ATOM     12  H   UNL A   1      34.248  23.456  23.212  1.00  0.00     0.348 HD
BRANCH   9  13
ATOM     13  C   UNL A   1      33.827  25.133  22.567  1.00  0.00     0.299 C 
BRANCH  13  14
ATOM     14  C   UNL A   1      32.884  26.330  22.555  1.00  0.00     0.006 A 
ATOM     15  C   UNL A   1      31.532  26.175  22.211  1.00  0.00     0.010 A 
ATOM     16  C   UNL A   1      33.318  27.625  22.864  1.00  0.00     0.010 A 
ATOM     17  C   UNL A   1      30.618  27.228  22.378  1.00  0.00     0.013 A 
ATOM     18  C   UNL A   1      32.409  28.667  23.070  1.00  0.00     0.013 A 
ATOM     19  C   UNL A   1      31.041  28.464  22.885  1.00  0.00     0.056 A 
BRANCH  19  20
ATOM     20  C   UNL A   1      30.048  29.516  23.323  1.00  0.00     0.416 C 
ATOM     21  F   UNL A   1      30.395  30.148  24.472  1.00  0.00    -0.166 F 
ATOM     22  F   UNL A   1      29.888  30.474  22.363  1.00  0.00    -0.166 F 
ATOM     23  F   UNL A   1      28.797  29.014  23.535  1.00  0.00    -0.166 F 
ENDBRANCH  19  20
ENDBRANCH  13  14
ENDBRANCH   9  13
ENDBRANCH   3   6
ENDBRANCH   1   2
BRANCH   1  24
ATOM     24  C   UNL A   1      31.875  28.111  27.215  1.00  0.00     0.042 C 
BRANCH  24  25
ATOM     25  C   UNL A   1      33.333  28.551  27.286  1.00  0.00     0.118 C 
BRANCH  25  26
ATOM     26  N   UNL A   1      33.485  29.964  27.624  1.00  0.00    -0.352 N 
ATOM     27  C   UNL A   1      34.508  30.679  28.185  1.00  0.00     0.251 C 
ATOM     28  H   UNL A   1      32.696  30.509  27.405  1.00  0.00     0.163 HD
ATOM     29  O   UNL A   1      34.289  31.844  28.540  1.00  0.00    -0.269 OA
BRANCH  27  30
ATOM     30  C   UNL A   1      35.854  30.123  28.414  1.00  0.00     0.039 A 
ATOM     31  C   UNL A   1      36.159  29.624  29.690  1.00  0.00     0.014 A 
ATOM     32  C   UNL A   1      36.851  30.175  27.442  1.00  0.00     0.014 A 
ATOM     33  C   UNL A   1      37.440  29.147  29.974  1.00  0.00     0.010 A 
ATOM     34  C   UNL A   1      38.095  29.609  27.692  1.00  0.00     0.010 A 
ATOM     35  C   UNL A   1      38.412  29.114  28.965  1.00  0.00    -0.014 A 
BRANCH  35  36
ATOM     36  C   UNL A   1      39.792  28.636  29.219  1.00  0.00     0.031 A 
ATOM     37  C   UNL A   1      40.804  29.585  29.803  1.00  0.00     0.074 A 
ATOM     38  C   UNL A   1      40.156  27.398  28.839  1.00  0.00     0.049 A 
ATOM     39  N   UNL A   1      42.100  29.449  29.915  1.00  0.00    -0.248 NA
ATOM     40  C   UNL A   1      40.291  30.880  30.284  1.00  0.00     0.031 C 
ATOM     41  C   UNL A   1      39.271  26.396  28.242  1.00  0.00     0.029 A 
ATOM     42  N   UNL A   1      41.379  26.781  28.878  1.00  0.00    -0.354 N 
ATOM     43  C   UNL A   1      42.560  30.656  30.429  1.00  0.00     0.074 A 
ATOM     44  C   UNL A   1      41.411  31.524  30.569  1.00  0.00     0.031 C 
ATOM     45  C   UNL A   1      39.978  25.286  27.981  1.00  0.00     0.029 A 
ATOM     46  C   UNL A   1      41.371  25.515  28.346  1.00  0.00     0.049 A 
ATOM     47  H   UNL A   1      42.186  27.204  29.252  1.00  0.00     0.167 HD
ATOM     48  C   UNL A   1      43.824  31.005  30.768  1.00  0.00     0.031 A 
ATOM     49  C   UNL A   1      42.380  24.644  28.157  1.00  0.00     0.031 A 
ATOM     50  C   UNL A   1      44.954  30.122  30.660  1.00  0.00     0.049 A 
ATOM     51  C   UNL A   1      43.768  25.040  28.571  1.00  0.00     0.074 A 
ATOM     52  C   UNL A   1      46.269  30.350  31.022  1.00  0.00     0.029 A 
ATOM     53  N   UNL A   1      44.891  28.828  30.164  1.00  0.00    -0.354 N 
ATOM     54  N   UNL A   1      44.187  26.177  29.075  1.00  0.00    -0.248 NA
ATOM     55  C   UNL A   1      44.820  24.030  28.399  1.00  0.00     0.031 C 
ATOM     56  C   UNL A   1      47.010  29.204  30.714  1.00  0.00     0.029 A 
ATOM     57  C   UNL A   1      46.146  28.246  30.206  1.00  0.00     0.049 A 
ATOM     58  H   UNL A   1      44.075  28.389  29.833  1.00  0.00     0.167 HD
ATOM     59  C   UNL A   1      45.547  26.012  29.299  1.00  0.00     0.074 A 
ATOM     60  C   UNL A   1      45.877  24.660  28.896  1.00  0.00     0.031 C 
ATOM     61  C   UNL A   1      46.445  26.900  29.792  1.00  0.00     0.031 A 
BRANCH  48  62
ATOM     62  C   UNL A   1      44.042  32.406  31.274  1.00  0.00    -0.014 A 
ATOM     63  C   UNL A   1      44.327  33.464  30.396  1.00  0.00     0.009 A 
ATOM     64  C   UNL A   1      43.956  32.672  32.649  1.00  0.00     0.009 A 
ATOM     65  C   UNL A   1      44.568  34.749  30.890  1.00  0.00     0.001 A 
ATOM     66  C   UNL A   1      44.167  33.965  33.137  1.00  0.00     0.001 A 
ATOM     67  C   UNL A   1      44.485  34.998  32.258  1.00  0.00     0.000 A 
ENDBRANCH  48  62
BRANCH  49  68
ATOM     68  C   UNL A   1      42.105  23.312  27.562  1.00  0.00    -0.014 A 
ATOM     69  C   UNL A   1      41.558  22.284  28.345  1.00  0.00     0.009 A 
ATOM     70  C   UNL A   1      42.368  23.064  26.206  1.00  0.00     0.009 A 
ATOM     71  C   UNL A   1      41.299  21.030  27.788  1.00  0.00     0.001 A 
ATOM     72  C   UNL A   1      42.083  21.818  25.644  1.00  0.00     0.001 A 
ATOM     73  C   UNL A   1      41.556  20.800  26.437  1.00  0.00     0.000 A 
ENDBRANCH  49  68
BRANCH  61  74
ATOM     74  C   UNL A   1      47.858  26.417  29.946  1.00  0.00    -0.014 A 
ATOM     75  C   UNL A   1      48.306  25.847  31.147  1.00  0.00     0.009 A 
ATOM     76  C   UNL A   1      48.745  26.512  28.862  1.00  0.00     0.009 A 
ATOM     77  C   UNL A   1      49.627  25.415  31.272  1.00  0.00     0.001 A 
ATOM     78  C   UNL A   1      50.058  26.055  28.982  1.00  0.00     0.001 A 
ATOM     79  C   UNL A   1      50.500  25.516  30.189  1.00  0.00     0.000 A 
ENDBRANCH  61  74
ENDBRANCH  35  36
ENDBRANCH  27  30
ENDBRANCH  25  26
ENDBRANCH  24  25
ENDBRANCH   1  24
TORSDOF 13
ENDMDL
MODEL 2
REMARK VINA RESULT:     -11.5      2.806      7.479
REMARK SMILES C[C@H]1[C@H](C(=O)NCCCNC(=O)c2ccc(-c3c4nc(c(-c5ccccc5)c5ccc([nH]5)c(-c5ccccc5)c5nc(c(-c6ccccc6)c6ccc3[nH]6)C=C5)C=C4)cc2)CC[N@@H+]1Cc1ccc(C(F)(F)F)cc1
REMARK SMILES IDX 7 1 6 2 4 3 5 4 3 6 1 7 2 8 63 9 61 10 62 11 64 13 65 14
REMARK SMILES IDX 66 15 74 16 67 17 73 18 68 19 69 20 70 21 71 22 72 23 8 24
REMARK SMILES IDX 9 25 10 26 11 27 12 29 13 30 14 31 60 32 15 33 59 34 16 35
REMARK SMILES IDX 17 36 18 37 53 38 19 39 58 40 52 41 54 42 20 43 57 44 51 45
REMARK SMILES IDX 50 46 21 48 43 49 28 50 42 51 29 52 32 53 41 54 55 55 30 56
REMARK SMILES IDX 31 57 40 59 56 60 33 61 22 62 23 63 27 64 24 65 26 66 25 67
REMARK SMILES IDX 44 68 45 69 49 70 46 71 48 72 47 73 34 74 35 75 39 76 36 77
REMARK SMILES IDX 38 78 37 79
REMARK H PARENT 6 5 63 12 10 28 54 47 32 58
REMARK Flexibility Score: inf
ROOT
ATOM      1  C   UNL A   1      35.263  21.312  24.873  1.00  0.00     0.117 C 
ENDROOT
BRANCH   1   2
ATOM      2  N   UNL A   1      34.082  20.518  25.109  1.00  0.00    -0.356 N 
ATOM      3  C   UNL A   1      32.787  20.760  24.782  1.00  0.00     0.229 C 
ATOM      4  O   UNL A   1      31.977  19.870  25.070  1.00  0.00    -0.275 OA
ATOM      5  H   UNL A   1      34.240  19.669  25.581  1.00  0.00     0.163 HD
BRANCH   3   6
ATOM      6  C   UNL A   1      32.305  22.009  24.050  1.00  0.00     0.142 C 
ATOM      7  C   UNL A   1      31.067  23.755  25.358  1.00  0.00     0.076 C 
ATOM      8  C   UNL A   1      32.426  23.377  24.752  1.00  0.00     0.193 C 
ATOM      9  N   UNL A   1      32.749  24.352  23.690  1.00  0.00    -0.328 N 
ATOM     10  C   UNL A   1      32.919  22.226  22.677  1.00  0.00     0.081 C 
ATOM     11  C   UNL A   1      32.573  23.683  22.407  1.00  0.00     0.263 C 
ATOM     12  H   UNL A   1      32.080  25.119  23.764  1.00  0.00     0.348 HD
BRANCH   9  13
ATOM     13  C   UNL A   1      33.919  25.235  23.856  1.00  0.00     0.299 C 
BRANCH  13  14
ATOM     14  C   UNL A   1      33.767  26.568  24.579  1.00  0.00     0.006 A 
ATOM     15  C   UNL A   1      33.697  27.771  23.859  1.00  0.00     0.010 A 
ATOM     16  C   UNL A   1      33.709  26.657  25.975  1.00  0.00     0.010 A 
ATOM     17  C   UNL A   1      33.369  28.977  24.498  1.00  0.00     0.013 A 
ATOM     18  C   UNL A   1      33.345  27.846  26.614  1.00  0.00     0.013 A 
ATOM     19  C   UNL A   1      33.114  29.008  25.875  1.00  0.00     0.056 A 
BRANCH  19  20
ATOM     20  C   UNL A   1      32.506  30.223  26.537  1.00  0.00     0.416 C 
ATOM     21  F   UNL A   1      33.423  31.088  27.036  1.00  0.00    -0.166 F 
ATOM     22  F   UNL A   1      31.722  30.919  25.662  1.00  0.00    -0.166 F 
ATOM     23  F   UNL A   1      31.683  29.907  27.578  1.00  0.00    -0.166 F 
ENDBRANCH  19  20
ENDBRANCH  13  14
ENDBRANCH   9  13
ENDBRANCH   3   6
ENDBRANCH   1   2
BRANCH   1  24
ATOM     24  C   UNL A   1      35.543  22.286  26.016  1.00  0.00     0.042 C 
BRANCH  24  25
ATOM     25  C   UNL A   1      36.747  23.187  25.766  1.00  0.00     0.118 C 
BRANCH  25  26
ATOM     26  N   UNL A   1      38.021  22.489  25.915  1.00  0.00    -0.352 N 
ATOM     27  C   UNL A   1      39.257  22.892  26.344  1.00  0.00     0.251 C 
ATOM     28  H   UNL A   1      37.985  21.540  25.655  1.00  0.00     0.163 HD
ATOM     29  O   UNL A   1      40.217  22.129  26.181  1.00  0.00    -0.269 OA
BRANCH  27  30
ATOM     30  C   UNL A   1      39.508  24.205  26.967  1.00  0.00     0.039 A 
ATOM     31  C   UNL A   1      40.187  25.178  26.217  1.00  0.00     0.014 A 
ATOM     32  C   UNL A   1      39.186  24.466  28.297  1.00  0.00     0.014 A 
ATOM     33  C   UNL A   1      40.506  26.412  26.786  1.00  0.00     0.010 A 
ATOM     34  C   UNL A   1      39.412  25.728  28.832  1.00  0.00     0.010 A 
ATOM     35  C   UNL A   1      40.097  26.704  28.093  1.00  0.00    -0.014 A 
BRANCH  35  36
ATOM     36  C   UNL A   1      40.426  27.992  28.750  1.00  0.00     0.031 A 
ATOM     37  C   UNL A   1      41.750  28.145  29.449  1.00  0.00     0.074 A 
ATOM     38  C   UNL A   1      39.509  28.974  28.804  1.00  0.00     0.049 A 
ATOM     39  N   UNL A   1      42.160  29.091  30.254  1.00  0.00    -0.248 NA
ATOM     40  C   UNL A   1      42.728  27.061  29.249  1.00  0.00     0.031 C 
ATOM     41  C   UNL A   1      38.182  28.935  28.184  1.00  0.00     0.029 A 
ATOM     42  N   UNL A   1      39.547  30.192  29.431  1.00  0.00    -0.354 N 
ATOM     43  C   UNL A   1      43.416  28.691  30.693  1.00  0.00     0.074 A 
ATOM     44  C   UNL A   1      43.684  27.400  30.099  1.00  0.00     0.031 C 
ATOM     45  C   UNL A   1      37.538  30.081  28.454  1.00  0.00     0.029 A 
ATOM     46  C   UNL A   1      38.384  30.912  29.302  1.00  0.00     0.049 A 
ATOM     47  H   UNL A   1      40.333  30.520  29.926  1.00  0.00     0.167 HD
ATOM     48  C   UNL A   1      44.276  29.348  31.509  1.00  0.00     0.031 A 
ATOM     49  C   UNL A   1      38.035  32.101  29.826  1.00  0.00     0.031 A 
ATOM     50  C   UNL A   1      44.016  30.648  32.065  1.00  0.00     0.049 A 
ATOM     51  C   UNL A   1      39.017  32.827  30.701  1.00  0.00     0.074 A 
ATOM     52  C   UNL A   1      44.834  31.429  32.860  1.00  0.00     0.029 A 
ATOM     53  N   UNL A   1      42.845  31.365  31.866  1.00  0.00    -0.354 N 
ATOM     54  N   UNL A   1      40.210  32.447  31.092  1.00  0.00    -0.248 NA
ATOM     55  C   UNL A   1      38.608  34.147  31.196  1.00  0.00     0.031 C 
ATOM     56  C   UNL A   1      44.145  32.608  33.169  1.00  0.00     0.029 A 
ATOM     57  C   UNL A   1      42.917  32.579  32.527  1.00  0.00     0.049 A 
ATOM     58  H   UNL A   1      42.077  31.056  31.333  1.00  0.00     0.167 HD
ATOM     59  C   UNL A   1      40.703  33.491  31.864  1.00  0.00     0.074 A 
ATOM     60  C   UNL A   1      39.688  34.525  31.867  1.00  0.00     0.031 C 
ATOM     61  C   UNL A   1      41.888  33.586  32.515  1.00  0.00     0.031 A 
BRANCH  48  62
ATOM     62  C   UNL A   1      45.569  28.656  31.850  1.00  0.00    -0.014 A 
ATOM     63  C   UNL A   1      45.675  27.817  32.971  1.00  0.00     0.009 A 
ATOM     64  C   UNL A   1      46.696  28.843  31.035  1.00  0.00     0.009 A 
ATOM     65  C   UNL A   1      46.896  27.218  33.295  1.00  0.00     0.001 A 
ATOM     66  C   UNL A   1      47.907  28.217  31.344  1.00  0.00     0.001 A 
ATOM     67  C   UNL A   1      48.008  27.417  32.480  1.00  0.00     0.000 A 
ENDBRANCH  48  62
BRANCH  49  68
ATOM     68  C   UNL A   1      36.701  32.680  29.523  1.00  0.00    -0.014 A 
ATOM     69  C   UNL A   1      35.666  32.612  30.469  1.00  0.00     0.009 A 
ATOM     70  C   UNL A   1      36.460  33.320  28.298  1.00  0.00     0.009 A 
ATOM     71  C   UNL A   1      34.412  33.156  30.185  1.00  0.00     0.001 A 
ATOM     72  C   UNL A   1      35.213  33.888  28.028  1.00  0.00     0.001 A 
ATOM     73  C   UNL A   1      34.188  33.799  28.968  1.00  0.00     0.000 A 
ENDBRANCH  49  68
BRANCH  61  74
ATOM     74  C   UNL A   1      42.153  34.865  33.255  1.00  0.00    -0.014 A 
ATOM     75  C   UNL A   1      42.944  35.879  32.696  1.00  0.00     0.009 A 
ATOM     76  C   UNL A   1      41.578  35.066  34.521  1.00  0.00     0.009 A 
ATOM     77  C   UNL A   1      43.187  37.056  33.406  1.00  0.00     0.001 A 
ATOM     78  C   UNL A   1      41.800  36.255  35.216  1.00  0.00     0.001 A 
ATOM     79  C   UNL A   1      42.612  37.244  34.663  1.00  0.00     0.000 A 
ENDBRANCH  61  74
ENDBRANCH  35  36
ENDBRANCH  27  30
ENDBRANCH  25  26
ENDBRANCH  24  25
ENDBRANCH   1  24
TORSDOF 13
ENDMDL
MODEL 3
REMARK VINA RESULT:     -11.3      4.105      8.123
REMARK SMILES C[C@H]1[C@H](C(=O)NCCCNC(=O)c2ccc(-c3c4nc(c(-c5ccccc5)c5ccc([nH]5)c(-c5ccccc5)c5nc(c(-c6ccccc6)c6ccc3[nH]6)C=C5)C=C4)cc2)CC[N@@H+]1Cc1ccc(C(F)(F)F)cc1
REMARK SMILES IDX 7 1 6 2 4 3 5 4 3 6 1 7 2 8 63 9 61 10 62 11 64 13 65 14
REMARK SMILES IDX 66 15 74 16 67 17 73 18 68 19 69 20 70 21 71 22 72 23 8 24
REMARK SMILES IDX 9 25 10 26 11 27 12 29 13 30 14 31 60 32 15 33 59 34 16 35
REMARK SMILES IDX 17 36 18 37 53 38 19 39 58 40 52 41 54 42 20 43 57 44 51 45
REMARK SMILES IDX 50 46 21 48 43 49 28 50 42 51 29 52 32 53 41 54 55 55 30 56
REMARK SMILES IDX 31 57 40 59 56 60 33 61 22 62 23 63 27 64 24 65 26 66 25 67
REMARK SMILES IDX 44 68 45 69 49 70 46 71 48 72 47 73 34 74 35 75 39 76 36 77
REMARK SMILES IDX 38 78 37 79
REMARK H PARENT 6 5 63 12 10 28 54 47 32 58
REMARK Flexibility Score: inf
ROOT
ATOM      1  C   UNL A   1      36.636  20.534  24.843  1.00  0.00     0.117 C 
ENDROOT
BRANCH   1   2
ATOM      2  N   UNL A   1      36.940  21.535  23.850  1.00  0.00    -0.356 N 
ATOM      3  C   UNL A   1      36.419  22.775  23.670  1.00  0.00     0.229 C 
ATOM      4  O   UNL A   1      36.908  23.444  22.752  1.00  0.00    -0.275 OA
ATOM      5  H   UNL A   1      37.634  21.277  23.200  1.00  0.00     0.163 HD
BRANCH   3   6
ATOM      6  C   UNL A   1      35.334  23.387  24.552  1.00  0.00     0.142 C 
ATOM      7  C   UNL A   1      33.717  24.998  23.511  1.00  0.00     0.076 C 
ATOM      8  C   UNL A   1      33.911  23.548  23.978  1.00  0.00     0.193 C 
ATOM      9  N   UNL A   1      32.988  23.296  25.104  1.00  0.00    -0.328 N 
ATOM     10  C   UNL A   1      35.132  22.699  25.892  1.00  0.00     0.081 C 
ATOM     11  C   UNL A   1      33.781  23.250  26.325  1.00  0.00     0.263 C 
ATOM     12  H   UNL A   1      32.340  24.084  25.152  1.00  0.00     0.348 HD
BRANCH   9  13
ATOM     13  C   UNL A   1      31.910  22.301  24.940  1.00  0.00     0.299 C 
BRANCH  13  14
ATOM     14  C   UNL A   1      32.259  20.846  24.653  1.00  0.00     0.006 A 
ATOM     15  C   UNL A   1      32.153  20.326  23.354  1.00  0.00     0.010 A 
ATOM     16  C   UNL A   1      32.679  19.967  25.659  1.00  0.00     0.010 A 
ATOM     17  C   UNL A   1      32.648  19.049  23.044  1.00  0.00     0.013 A 
ATOM     18  C   UNL A   1      33.209  18.710  25.352  1.00  0.00     0.013 A 
ATOM     19  C   UNL A   1      33.252  18.260  24.032  1.00  0.00     0.056 A 
BRANCH  19  20
ATOM     20  C   UNL A   1      34.025  17.010  23.677  1.00  0.00     0.416 C 
ATOM     21  F   UNL A   1      34.403  16.954  22.376  1.00  0.00    -0.166 F 
ATOM     22  F   UNL A   1      35.154  16.897  24.436  1.00  0.00    -0.166 F 
ATOM     23  F   UNL A   1      33.322  15.865  23.912  1.00  0.00    -0.166 F 
ENDBRANCH  19  20
ENDBRANCH  13  14
ENDBRANCH   9  13
ENDBRANCH   3   6
ENDBRANCH   1   2
BRANCH   1  24
ATOM     24  C   UNL A   1      37.775  19.534  25.025  1.00  0.00     0.042 C 
BRANCH  24  25
ATOM     25  C   UNL A   1      38.984  20.114  25.750  1.00  0.00     0.118 C 
BRANCH  25  26
ATOM     26  N   UNL A   1      40.110  19.186  25.812  1.00  0.00    -0.352 N 
ATOM     27  C   UNL A   1      41.456  19.368  25.974  1.00  0.00     0.251 C 
ATOM     28  H   UNL A   1      39.849  18.241  25.717  1.00  0.00     0.163 HD
ATOM     29  O   UNL A   1      42.210  18.405  25.791  1.00  0.00    -0.269 OA
BRANCH  27  30
ATOM     30  C   UNL A   1      42.059  20.666  26.331  1.00  0.00     0.039 A 
ATOM     31  C   UNL A   1      42.256  20.958  27.689  1.00  0.00     0.014 A 
ATOM     32  C   UNL A   1      42.339  21.639  25.373  1.00  0.00     0.014 A 
ATOM     33  C   UNL A   1      42.762  22.199  28.079  1.00  0.00     0.010 A 
ATOM     34  C   UNL A   1      42.938  22.835  25.751  1.00  0.00     0.010 A 
ATOM     35  C   UNL A   1      43.131  23.139  27.107  1.00  0.00    -0.014 A 
BRANCH  35  36
ATOM     36  C   UNL A   1      43.655  24.477  27.468  1.00  0.00     0.031 A 
ATOM     37  C   UNL A   1      42.699  25.543  27.931  1.00  0.00     0.074 A 
ATOM     38  C   UNL A   1      44.958  24.761  27.287  1.00  0.00     0.049 A 
ATOM     39  N   UNL A   1      42.901  26.824  28.098  1.00  0.00    -0.248 NA
ATOM     40  C   UNL A   1      41.315  25.113  28.198  1.00  0.00     0.031 C 
ATOM     41  C   UNL A   1      45.978  23.818  26.822  1.00  0.00     0.029 A 
ATOM     42  N   UNL A   1      45.642  25.937  27.452  1.00  0.00    -0.354 N 
ATOM     43  C   UNL A   1      41.664  27.358  28.438  1.00  0.00     0.074 A 
ATOM     44  C   UNL A   1      40.711  26.270  28.415  1.00  0.00     0.031 C 
ATOM     45  C   UNL A   1      47.159  24.451  26.750  1.00  0.00     0.029 A 
ATOM     46  C   UNL A   1      46.971  25.850  27.115  1.00  0.00     0.049 A 
ATOM     47  H   UNL A   1      45.221  26.765  27.780  1.00  0.00     0.167 HD
ATOM     48  C   UNL A   1      41.352  28.638  28.756  1.00  0.00     0.031 A 
ATOM     49  C   UNL A   1      47.925  26.798  27.086  1.00  0.00     0.031 A 
ATOM     50  C   UNL A   1      42.315  29.705  28.813  1.00  0.00     0.049 A 
ATOM     51  C   UNL A   1      47.564  28.204  27.474  1.00  0.00     0.074 A 
ATOM     52  C   UNL A   1      42.122  31.025  29.172  1.00  0.00     0.029 A 
ATOM     53  N   UNL A   1      43.662  29.561  28.514  1.00  0.00    -0.354 N 
ATOM     54  N   UNL A   1      46.394  28.692  27.814  1.00  0.00    -0.248 NA
ATOM     55  C   UNL A   1      48.656  29.185  27.484  1.00  0.00     0.031 C 
ATOM     56  C   UNL A   1      43.349  31.691  29.060  1.00  0.00     0.029 A 
ATOM     57  C   UNL A   1      44.313  30.771  28.676  1.00  0.00     0.049 A 
ATOM     58  H   UNL A   1      44.091  28.722  28.229  1.00  0.00     0.167 HD
ATOM     59  C   UNL A   1      46.613  30.033  28.098  1.00  0.00     0.074 A 
ATOM     60  C   UNL A   1      48.030  30.275  27.910  1.00  0.00     0.031 C 
ATOM     61  C   UNL A   1      45.723  30.982  28.477  1.00  0.00     0.031 A 
BRANCH  48  62
ATOM     62  C   UNL A   1      39.909  28.943  29.053  1.00  0.00    -0.014 A 
ATOM     63  C   UNL A   1      39.020  29.332  28.037  1.00  0.00     0.009 A 
ATOM     64  C   UNL A   1      39.429  28.836  30.367  1.00  0.00     0.009 A 
ATOM     65  C   UNL A   1      37.694  29.653  28.340  1.00  0.00     0.001 A 
ATOM     66  C   UNL A   1      38.094  29.128  30.661  1.00  0.00     0.001 A 
ATOM     67  C   UNL A   1      37.233  29.548  29.650  1.00  0.00     0.000 A 
ENDBRANCH  48  62
BRANCH  49  68
ATOM     68  C   UNL A   1      49.311  26.442  26.690  1.00  0.00    -0.014 A 
ATOM     69  C   UNL A   1      49.752  26.661  25.375  1.00  0.00     0.009 A 
ATOM     70  C   UNL A   1      50.207  25.901  27.625  1.00  0.00     0.009 A 
ATOM     71  C   UNL A   1      51.054  26.327  25.001  1.00  0.00     0.001 A 
ATOM     72  C   UNL A   1      51.518  25.594  27.255  1.00  0.00     0.001 A 
ATOM     73  C   UNL A   1      51.938  25.799  25.941  1.00  0.00     0.000 A 
ENDBRANCH  49  68
BRANCH  61  74
ATOM     74  C   UNL A   1      46.269  32.355  28.741  1.00  0.00    -0.014 A 
ATOM     75  C   UNL A   1      46.324  33.323  27.727  1.00  0.00     0.009 A 
ATOM     76  C   UNL A   1      46.711  32.691  30.030  1.00  0.00     0.009 A 
ATOM     77  C   UNL A   1      46.846  34.590  27.990  1.00  0.00     0.001 A 
ATOM     78  C   UNL A   1      47.207  33.967  30.297  1.00  0.00     0.001 A 
ATOM     79  C   UNL A   1      47.283  34.912  29.275  1.00  0.00     0.000 A 
ENDBRANCH  61  74
ENDBRANCH  35  36
ENDBRANCH  27  30
ENDBRANCH  25  26
ENDBRANCH  24  25
ENDBRANCH   1  24
TORSDOF 13
ENDMDL
