MODEL 1
REMARK VINA RESULT:     -10.6      0.000      0.000
REMARK SMILES C[NH+]1CCC([N@@H+](C)CCC(=O)NCCCNC(=O)c2ccc(-c3c4nc(c(-c5ccccc5)c5ccc([nH]5)c(-c5ccccc5)c5nc(c(-c6ccccc6)c6ccc3[nH]6)C=C5)C=C4)cc2)CC1
REMARK SMILES IDX 13 1 12 2 10 3 11 4 9 6 8 7 6 8 7 9 5 11 1 12 2 13 3 14
REMARK SMILES IDX 68 15 4 17 67 18 14 19 15 20 16 21 17 22 18 24 19 25 20 26
REMARK SMILES IDX 66 27 21 28 65 29 22 30 23 31 24 32 59 33 25 34 64 35 58 36
REMARK SMILES IDX 60 37 26 38 63 39 57 40 56 41 27 43 49 44 34 45 48 46 35 47
REMARK SMILES IDX 38 48 47 49 61 50 36 51 37 52 46 54 62 55 39 56 28 57 29 58
REMARK SMILES IDX 33 59 30 60 32 61 31 62 50 63 51 64 55 65 52 66 54 67 53 68
REMARK SMILES IDX 40 69 41 70 45 71 42 72 44 73 43 74
REMARK H PARENT 12 5 6 10 2 16 16 23 60 42 38 53
REMARK Flexibility Score: inf
ROOT
ATOM      1  C   UNL A   1      37.014  22.590  25.734  1.00  0.00     0.117 C 
ENDROOT
BRANCH   1   2
ATOM      2  N   UNL A   1      35.254  22.317  26.632  1.00  0.00    -0.356 N 
ATOM      3  C   UNL A   1      33.921  21.988  26.860  1.00  0.00     0.225 C 
ATOM      4  O   UNL A   1      33.542  22.160  28.031  1.00  0.00    -0.275 OA
ATOM      5  H   UNL A   1      35.492  22.631  27.533  1.00  0.00     0.163 HD
BRANCH   3   6
ATOM      6  C   UNL A   1      32.909  21.382  25.903  1.00  0.00     0.161 C 
BRANCH   6   7
ATOM      7  C   UNL A   1      31.859  22.306  25.338  1.00  0.00     0.272 C 
BRANCH   7   8
ATOM      8  N   UNL A   1      31.393  23.287  26.299  1.00  0.00    -0.334 N 
ATOM      9  C   UNL A   1      30.094  22.955  26.869  1.00  0.00     0.332 C 
ATOM     10  H   UNL A   1      32.041  23.275  27.088  1.00  0.00     0.348 HD
BRANCH   8  11
ATOM     11  C   UNL A   1      31.421  24.633  25.709  1.00  0.00     0.195 C 
ATOM     12  C   UNL A   1      33.024  28.387  22.552  1.00  0.00     0.332 C 
ATOM     13  N   UNL A   1      32.952  27.034  23.084  1.00  0.00    -0.337 N 
ATOM     14  C   UNL A   1      31.315  26.229  22.760  1.00  0.00     0.268 C 
ATOM     15  C   UNL A   1      33.732  26.881  24.756  1.00  0.00     0.268 C 
ATOM     16  H   UNL A   1      33.564  26.422  22.546  1.00  0.00     0.347 HD
ATOM     17  C   UNL A   1      30.578  24.868  23.949  1.00  0.00     0.126 C 
ATOM     18  C   UNL A   1      33.155  25.505  26.019  1.00  0.00     0.126 C 
ENDBRANCH   8  11
ENDBRANCH   7   8
ENDBRANCH   6   7
ENDBRANCH   3   6
ENDBRANCH   1   2
BRANCH   1  19
ATOM     19  C   UNL A   1      38.091  21.562  25.069  1.00  0.00     0.042 C 
BRANCH  19  20
ATOM     20  C   UNL A   1      39.149  21.124  26.084  1.00  0.00     0.118 C 
BRANCH  20  21
ATOM     21  N   UNL A   1      39.925  19.932  25.791  1.00  0.00    -0.352 N 
ATOM     22  C   UNL A   1      41.283  19.786  26.023  1.00  0.00     0.251 C 
ATOM     23  H   UNL A   1      39.448  19.168  25.396  1.00  0.00     0.163 HD
ATOM     24  O   UNL A   1      41.874  18.754  25.746  1.00  0.00    -0.269 OA
BRANCH  22  25
ATOM     25  C   UNL A   1      42.012  20.964  26.549  1.00  0.00     0.039 A 
ATOM     26  C   UNL A   1      42.434  21.946  25.651  1.00  0.00     0.014 A 
ATOM     27  C   UNL A   1      42.068  21.188  27.926  1.00  0.00     0.014 A 
ATOM     28  C   UNL A   1      42.800  23.204  26.136  1.00  0.00     0.010 A 
ATOM     29  C   UNL A   1      42.322  22.470  28.394  1.00  0.00     0.010 A 
ATOM     30  C   UNL A   1      42.679  23.498  27.505  1.00  0.00    -0.014 A 
BRANCH  30  31
ATOM     31  C   UNL A   1      42.909  24.868  28.035  1.00  0.00     0.031 A 
ATOM     32  C   UNL A   1      44.291  25.284  28.457  1.00  0.00     0.074 A 
ATOM     33  C   UNL A   1      41.868  25.702  28.239  1.00  0.00     0.049 A 
ATOM     34  N   UNL A   1      44.676  26.372  29.073  1.00  0.00    -0.248 NA
ATOM     35  C   UNL A   1      45.378  24.325  28.197  1.00  0.00     0.031 C 
ATOM     36  C   UNL A   1      40.462  25.407  27.950  1.00  0.00     0.029 A 
ATOM     37  N   UNL A   1      41.837  26.977  28.748  1.00  0.00    -0.354 N 
ATOM     38  C   UNL A   1      46.030  26.197  29.331  1.00  0.00     0.074 A 
ATOM     39  C   UNL A   1      46.391  24.887  28.835  1.00  0.00     0.031 C 
ATOM     40  C   UNL A   1      39.715  26.486  28.242  1.00  0.00     0.029 A 
ATOM     41  C   UNL A   1      40.580  27.534  28.772  1.00  0.00     0.049 A 
ATOM     42  H   UNL A   1      42.641  27.449  29.067  1.00  0.00     0.167 HD
ATOM     43  C   UNL A   1      46.904  27.055  29.906  1.00  0.00     0.031 A 
ATOM     44  C   UNL A   1      40.173  28.755  29.167  1.00  0.00     0.031 A 
ATOM     45  C   UNL A   1      46.571  28.388  30.325  1.00  0.00     0.049 A 
ATOM     46  C   UNL A   1      41.182  29.736  29.691  1.00  0.00     0.074 A 
ATOM     47  C   UNL A   1      47.404  29.364  30.846  1.00  0.00     0.029 A 
ATOM     48  N   UNL A   1      45.304  28.941  30.241  1.00  0.00    -0.354 N 
ATOM     49  N   UNL A   1      42.468  29.570  29.885  1.00  0.00    -0.248 NA
ATOM     50  C   UNL A   1      40.687  31.077  30.037  1.00  0.00     0.031 C 
ATOM     51  C   UNL A   1      46.635  30.510  31.081  1.00  0.00     0.029 A 
ATOM     52  C   UNL A   1      45.333  30.251  30.685  1.00  0.00     0.049 A 
ATOM     53  H   UNL A   1      44.503  28.472  29.914  1.00  0.00     0.167 HD
ATOM     54  C   UNL A   1      42.938  30.791  30.351  1.00  0.00     0.074 A 
ATOM     55  C   UNL A   1      41.805  31.690  30.402  1.00  0.00     0.031 C 
ATOM     56  C   UNL A   1      44.200  31.135  30.706  1.00  0.00     0.031 A 
BRANCH  43  57
ATOM     57  C   UNL A   1      48.309  26.567  30.101  1.00  0.00    -0.014 A 
ATOM     58  C   UNL A   1      49.294  26.781  29.124  1.00  0.00     0.009 A 
ATOM     59  C   UNL A   1      48.650  25.876  31.273  1.00  0.00     0.009 A 
ATOM     60  C   UNL A   1      50.581  26.269  29.295  1.00  0.00     0.001 A 
ATOM     61  C   UNL A   1      49.946  25.388  31.453  1.00  0.00     0.001 A 
ATOM     62  C   UNL A   1      50.906  25.574  30.459  1.00  0.00     0.000 A 
ENDBRANCH  43  57
BRANCH  44  63
ATOM     63  C   UNL A   1      38.747  29.145  29.030  1.00  0.00    -0.014 A 
ATOM     64  C   UNL A   1      37.879  29.026  30.127  1.00  0.00     0.009 A 
ATOM     65  C   UNL A   1      38.244  29.629  27.814  1.00  0.00     0.009 A 
ATOM     66  C   UNL A   1      36.529  29.360  30.001  1.00  0.00     0.001 A 
ATOM     67  C   UNL A   1      36.897  29.980  27.697  1.00  0.00     0.001 A 
ATOM     68  C   UNL A   1      36.040  29.839  28.787  1.00  0.00     0.000 A 
ENDBRANCH  44  63
BRANCH  56  69
ATOM     69  C   UNL A   1      44.430  32.552  31.134  1.00  0.00    -0.014 A 
ATOM     70  C   UNL A   1      44.743  33.548  30.197  1.00  0.00     0.009 A 
ATOM     71  C   UNL A   1      44.276  32.901  32.484  1.00  0.00     0.009 A 
ATOM     72  C   UNL A   1      44.915  34.869  30.611  1.00  0.00     0.001 A 
ATOM     73  C   UNL A   1      44.433  34.227  32.890  1.00  0.00     0.001 A 
ATOM     74  C   UNL A   1      44.756  35.208  31.955  1.00  0.00     0.000 A 
ENDBRANCH  56  69
ENDBRANCH  30  31
ENDBRANCH  22  25
ENDBRANCH  20  21
ENDBRANCH  19  20
ENDBRANCH   1  19
TORSDOF 13
ENDMDL
MODEL 2
REMARK VINA RESULT:     -10.5      4.585     10.132
REMARK SMILES C[NH+]1CCC([N@@H+](C)CCC(=O)NCCCNC(=O)c2ccc(-c3c4nc(c(-c5ccccc5)c5ccc([nH]5)c(-c5ccccc5)c5nc(c(-c6ccccc6)c6ccc3[nH]6)C=C5)C=C4)cc2)CC1
REMARK SMILES IDX 13 1 12 2 10 3 11 4 9 6 8 7 6 8 7 9 5 11 1 12 2 13 3 14
REMARK SMILES IDX 68 15 4 17 67 18 14 19 15 20 16 21 17 22 18 24 19 25 20 26
REMARK SMILES IDX 66 27 21 28 65 29 22 30 23 31 24 32 59 33 25 34 64 35 58 36
REMARK SMILES IDX 60 37 26 38 63 39 57 40 56 41 27 43 49 44 34 45 48 46 35 47
REMARK SMILES IDX 38 48 47 49 61 50 36 51 37 52 46 54 62 55 39 56 28 57 29 58
REMARK SMILES IDX 33 59 30 60 32 61 31 62 50 63 51 64 55 65 52 66 54 67 53 68
REMARK SMILES IDX 40 69 41 70 45 71 42 72 44 73 43 74
REMARK H PARENT 12 5 6 10 2 16 16 23 60 42 38 53
REMARK Flexibility Score: inf
ROOT
ATOM      1  C   UNL A   1      33.429  35.613  29.331  1.00  0.00     0.117 C 
ENDROOT
BRANCH   1   2
ATOM      2  N   UNL A   1      33.887  35.946  31.243  1.00  0.00    -0.356 N 
ATOM      3  C   UNL A   1      34.219  35.745  32.580  1.00  0.00     0.225 C 
ATOM      4  O   UNL A   1      34.382  36.789  33.232  1.00  0.00    -0.275 OA
ATOM      5  H   UNL A   1      33.858  36.930  31.238  1.00  0.00     0.163 HD
BRANCH   3   6
ATOM      6  C   UNL A   1      34.484  34.440  33.312  1.00  0.00     0.161 C 
BRANCH   6   7
ATOM      7  C   UNL A   1      35.650  34.414  34.268  1.00  0.00     0.272 C 
BRANCH   7   8
ATOM      8  N   UNL A   1      36.720  33.537  33.832  1.00  0.00    -0.334 N 
ATOM      9  C   UNL A   1      37.462  32.948  34.939  1.00  0.00     0.332 C 
ATOM     10  H   UNL A   1      36.291  32.747  33.349  1.00  0.00     0.348 HD
BRANCH   8  11
ATOM     11  C   UNL A   1      37.594  34.233  32.877  1.00  0.00     0.195 C 
ATOM     12  C   UNL A   1      41.614  34.816  29.694  1.00  0.00     0.332 C 
ATOM     13  N   UNL A   1      40.712  34.099  30.584  1.00  0.00    -0.337 N 
ATOM     14  C   UNL A   1      39.021  33.882  29.860  1.00  0.00     0.268 C 
ATOM     15  C   UNL A   1      40.892  34.618  32.352  1.00  0.00     0.268 C 
ATOM     16  H   UNL A   1      41.005  33.125  30.655  1.00  0.00     0.347 HD
ATOM     17  C   UNL A   1      37.427  33.749  30.978  1.00  0.00     0.126 C 
ATOM     18  C   UNL A   1      39.403  34.459  33.610  1.00  0.00     0.126 C 
ENDBRANCH   8  11
ENDBRANCH   7   8
ENDBRANCH   6   7
ENDBRANCH   3   6
ENDBRANCH   1   2
BRANCH   1  19
ATOM     19  C   UNL A   1      34.079  34.650  28.186  1.00  0.00     0.042 C 
BRANCH  19  20
ATOM     20  C   UNL A   1      34.219  33.208  28.678  1.00  0.00     0.118 C 
BRANCH  20  21
ATOM     21  N   UNL A   1      33.831  32.138  27.777  1.00  0.00    -0.352 N 
ATOM     22  C   UNL A   1      34.470  30.913  27.669  1.00  0.00     0.251 C 
ATOM     23  H   UNL A   1      33.053  32.296  27.195  1.00  0.00     0.163 HD
ATOM     24  O   UNL A   1      34.093  30.059  26.883  1.00  0.00    -0.269 OA
BRANCH  22  25
ATOM     25  C   UNL A   1      35.685  30.709  28.492  1.00  0.00     0.039 A 
ATOM     26  C   UNL A   1      35.611  29.859  29.597  1.00  0.00     0.014 A 
ATOM     27  C   UNL A   1      36.919  31.175  28.036  1.00  0.00     0.014 A 
ATOM     28  C   UNL A   1      36.790  29.379  30.171  1.00  0.00     0.010 A 
ATOM     29  C   UNL A   1      38.084  30.608  28.534  1.00  0.00     0.010 A 
ATOM     30  C   UNL A   1      38.035  29.693  29.600  1.00  0.00    -0.014 A 
BRANCH  30  31
ATOM     31  C   UNL A   1      39.298  29.076  30.085  1.00  0.00     0.031 A 
ATOM     32  C   UNL A   1      39.985  29.638  31.299  1.00  0.00     0.074 A 
ATOM     33  C   UNL A   1      39.886  28.086  29.383  1.00  0.00     0.049 A 
ATOM     34  N   UNL A   1      41.158  29.342  31.797  1.00  0.00    -0.248 NA
ATOM     35  C   UNL A   1      39.281  30.713  32.019  1.00  0.00     0.031 C 
ATOM     36  C   UNL A   1      39.375  27.492  28.144  1.00  0.00     0.029 A 
ATOM     37  N   UNL A   1      41.056  27.405  29.614  1.00  0.00    -0.354 N 
ATOM     38  C   UNL A   1      41.357  30.236  32.842  1.00  0.00     0.074 A 
ATOM     39  C   UNL A   1      40.202  31.104  32.885  1.00  0.00     0.031 C 
ATOM     40  C   UNL A   1      40.201  26.507  27.753  1.00  0.00     0.029 A 
ATOM     41  C   UNL A   1      41.317  26.422  28.689  1.00  0.00     0.049 A 
ATOM     42  H   UNL A   1      41.652  27.601  30.373  1.00  0.00     0.167 HD
ATOM     43  C   UNL A   1      42.396  30.316  33.706  1.00  0.00     0.031 A 
ATOM     44  C   UNL A   1      42.335  25.545  28.609  1.00  0.00     0.031 A 
ATOM     45  C   UNL A   1      43.506  29.406  33.722  1.00  0.00     0.049 A 
ATOM     46  C   UNL A   1      43.417  25.574  29.651  1.00  0.00     0.074 A 
ATOM     47  C   UNL A   1      44.569  29.354  34.608  1.00  0.00     0.029 A 
ATOM     48  N   UNL A   1      43.680  28.367  32.823  1.00  0.00    -0.354 N 
ATOM     49  N   UNL A   1      43.566  26.397  30.661  1.00  0.00    -0.248 NA
ATOM     50  C   UNL A   1      44.463  24.545  29.551  1.00  0.00     0.031 C 
ATOM     51  C   UNL A   1      45.389  28.281  34.240  1.00  0.00     0.029 A 
ATOM     52  C   UNL A   1      44.823  27.656  33.140  1.00  0.00     0.049 A 
ATOM     53  H   UNL A   1      43.078  28.165  32.070  1.00  0.00     0.167 HD
ATOM     54  C   UNL A   1      44.705  25.969  31.329  1.00  0.00     0.074 A 
ATOM     55  C   UNL A   1      45.205  24.811  30.618  1.00  0.00     0.031 C 
ATOM     56  C   UNL A   1      45.288  26.493  32.435  1.00  0.00     0.031 A 
BRANCH  43  57
ATOM     57  C   UNL A   1      42.360  31.429  34.711  1.00  0.00    -0.014 A 
ATOM     58  C   UNL A   1      41.614  31.314  35.896  1.00  0.00     0.009 A 
ATOM     59  C   UNL A   1      43.074  32.612  34.468  1.00  0.00     0.009 A 
ATOM     60  C   UNL A   1      41.545  32.381  36.792  1.00  0.00     0.001 A 
ATOM     61  C   UNL A   1      43.024  33.668  35.380  1.00  0.00     0.001 A 
ATOM     62  C   UNL A   1      42.250  33.556  36.534  1.00  0.00     0.000 A 
ENDBRANCH  43  57
BRANCH  44  63
ATOM     63  C   UNL A   1      42.357  24.523  27.533  1.00  0.00    -0.014 A 
ATOM     64  C   UNL A   1      41.720  23.288  27.727  1.00  0.00     0.009 A 
ATOM     65  C   UNL A   1      43.014  24.767  26.319  1.00  0.00     0.009 A 
ATOM     66  C   UNL A   1      41.761  22.306  26.734  1.00  0.00     0.001 A 
ATOM     67  C   UNL A   1      43.037  23.790  25.320  1.00  0.00     0.001 A 
ATOM     68  C   UNL A   1      42.417  22.559  25.531  1.00  0.00     0.000 A 
ENDBRANCH  44  63
BRANCH  56  69
ATOM     69  C   UNL A   1      46.498  25.792  32.971  1.00  0.00    -0.014 A 
ATOM     70  C   UNL A   1      46.376  24.760  33.914  1.00  0.00     0.009 A 
ATOM     71  C   UNL A   1      47.768  26.131  32.483  1.00  0.00     0.009 A 
ATOM     72  C   UNL A   1      47.513  24.092  34.372  1.00  0.00     0.001 A 
ATOM     73  C   UNL A   1      48.900  25.450  32.932  1.00  0.00     0.001 A 
ATOM     74  C   UNL A   1      48.771  24.434  33.878  1.00  0.00     0.000 A 
ENDBRANCH  56  69
ENDBRANCH  30  31
ENDBRANCH  22  25
ENDBRANCH  20  21
ENDBRANCH  19  20
ENDBRANCH   1  19
TORSDOF 13
ENDMDL
MODEL 3
REMARK VINA RESULT:     -10.5      5.370     10.278
REMARK SMILES C[NH+]1CCC([N@@H+](C)CCC(=O)NCCCNC(=O)c2ccc(-c3c4nc(c(-c5ccccc5)c5ccc([nH]5)c(-c5ccccc5)c5nc(c(-c6ccccc6)c6ccc3[nH]6)C=C5)C=C4)cc2)CC1
REMARK SMILES IDX 13 1 12 2 10 3 11 4 9 6 8 7 6 8 7 9 5 11 1 12 2 13 3 14
REMARK SMILES IDX 68 15 4 17 67 18 14 19 15 20 16 21 17 22 18 24 19 25 20 26
REMARK SMILES IDX 66 27 21 28 65 29 22 30 23 31 24 32 59 33 25 34 64 35 58 36
REMARK SMILES IDX 60 37 26 38 63 39 57 40 56 41 27 43 49 44 34 45 48 46 35 47
REMARK SMILES IDX 38 48 47 49 61 50 36 51 37 52 46 54 62 55 39 56 28 57 29 58
REMARK SMILES IDX 33 59 30 60 32 61 31 62 50 63 51 64 55 65 52 66 54 67 53 68
REMARK SMILES IDX 40 69 41 70 45 71 42 72 44 73 43 74
REMARK H PARENT 12 5 6 10 2 16 16 23 60 42 38 53
REMARK Flexibility Score: inf
ROOT
ATOM      1  C   UNL A   1      34.061  32.690  28.024  1.00  0.00     0.117 C 
ENDROOT
BRANCH   1   2
ATOM      2  N   UNL A   1      33.428  30.860  27.547  1.00  0.00    -0.356 N 
ATOM      3  C   UNL A   1      32.821  29.802  26.877  1.00  0.00     0.225 C 
ATOM      4  O   UNL A   1      32.982  28.693  27.414  1.00  0.00    -0.275 OA
ATOM      5  H   UNL A   1      33.805  30.365  28.309  1.00  0.00     0.163 HD
BRANCH   3   6
ATOM      6  C   UNL A   1      32.069  29.812  25.557  1.00  0.00     0.161 C 
BRANCH   6   7
ATOM      7  C   UNL A   1      31.868  28.485  24.871  1.00  0.00     0.272 C 
BRANCH   7   8
ATOM      8  N   UNL A   1      33.052  28.025  24.171  1.00  0.00    -0.334 N 
ATOM      9  C   UNL A   1      33.246  28.682  22.884  1.00  0.00     0.332 C 
ATOM     10  H   UNL A   1      33.863  28.292  24.731  1.00  0.00     0.348 HD
BRANCH   8  11
ATOM     11  C   UNL A   1      33.043  26.560  24.058  1.00  0.00     0.195 C 
ATOM     12  C   UNL A   1      31.825  21.717  25.363  1.00  0.00     0.332 C 
ATOM     13  N   UNL A   1      31.774  23.171  25.438  1.00  0.00    -0.337 N 
ATOM     14  C   UNL A   1      30.960  23.931  23.958  1.00  0.00     0.268 C 
ATOM     15  C   UNL A   1      33.337  23.907  26.102  1.00  0.00     0.268 C 
ATOM     16  H   UNL A   1      31.122  23.453  26.168  1.00  0.00     0.347 HD
ATOM     17  C   UNL A   1      31.422  25.719  23.327  1.00  0.00     0.126 C 
ATOM     18  C   UNL A   1      33.882  25.724  25.626  1.00  0.00     0.126 C 
ENDBRANCH   8  11
ENDBRANCH   7   8
ENDBRANCH   6   7
ENDBRANCH   3   6
ENDBRANCH   1   2
BRANCH   1  19
ATOM     19  C   UNL A   1      33.283  34.094  28.309  1.00  0.00     0.042 C 
BRANCH  19  20
ATOM     20  C   UNL A   1      33.701  34.706  29.648  1.00  0.00     0.118 C 
BRANCH  20  21
ATOM     21  N   UNL A   1      32.714  35.477  30.383  1.00  0.00    -0.352 N 
ATOM     22  C   UNL A   1      32.749  35.727  31.746  1.00  0.00     0.251 C 
ATOM     23  H   UNL A   1      31.960  35.852  29.873  1.00  0.00     0.163 HD
ATOM     24  O   UNL A   1      31.881  36.380  32.301  1.00  0.00    -0.269 OA
BRANCH  22  25
ATOM     25  C   UNL A   1      33.845  35.099  32.521  1.00  0.00     0.039 A 
ATOM     26  C   UNL A   1      33.664  33.803  33.007  1.00  0.00     0.014 A 
ATOM     27  C   UNL A   1      35.101  35.706  32.564  1.00  0.00     0.014 A 
ATOM     28  C   UNL A   1      34.776  33.069  33.426  1.00  0.00     0.010 A 
ATOM     29  C   UNL A   1      36.215  34.936  32.872  1.00  0.00     0.010 A 
ATOM     30  C   UNL A   1      36.069  33.604  33.295  1.00  0.00    -0.014 A 
BRANCH  30  31
ATOM     31  C   UNL A   1      37.284  32.797  33.581  1.00  0.00     0.031 A 
ATOM     32  C   UNL A   1      38.029  33.002  34.872  1.00  0.00     0.074 A 
ATOM     33  C   UNL A   1      37.782  31.960  32.647  1.00  0.00     0.049 A 
ATOM     34  N   UNL A   1      39.181  32.509  35.249  1.00  0.00    -0.248 NA
ATOM     35  C   UNL A   1      37.423  33.924  35.846  1.00  0.00     0.031 C 
ATOM     36  C   UNL A   1      37.209  31.717  31.320  1.00  0.00     0.029 A 
ATOM     37  N   UNL A   1      38.896  31.158  32.675  1.00  0.00    -0.354 N 
ATOM     38  C   UNL A   1      39.465  33.111  36.468  1.00  0.00     0.074 A 
ATOM     39  C   UNL A   1      38.383  34.029  36.750  1.00  0.00     0.031 C 
ATOM     40  C   UNL A   1      37.949  30.794  30.682  1.00  0.00     0.029 A 
ATOM     41  C   UNL A   1      39.065  30.406  31.537  1.00  0.00     0.049 A 
ATOM     42  H   UNL A   1      39.516  31.123  33.440  1.00  0.00     0.167 HD
ATOM     43  C   UNL A   1      40.517  32.905  37.294  1.00  0.00     0.031 A 
ATOM     44  C   UNL A   1      40.009  29.499  31.221  1.00  0.00     0.031 A 
ATOM     45  C   UNL A   1      41.551  31.937  37.060  1.00  0.00     0.049 A 
ATOM     46  C   UNL A   1      41.103  29.199  32.206  1.00  0.00     0.074 A 
ATOM     47  C   UNL A   1      42.617  31.596  37.875  1.00  0.00     0.029 A 
ATOM     48  N   UNL A   1      41.629  31.131  35.936  1.00  0.00    -0.354 N 
ATOM     49  N   UNL A   1      41.330  29.745  33.376  1.00  0.00    -0.248 NA
ATOM     50  C   UNL A   1      42.061  28.147  31.834  1.00  0.00     0.031 C 
ATOM     51  C   UNL A   1      43.343  30.583  37.240  1.00  0.00     0.029 A 
ATOM     52  C   UNL A   1      42.715  30.281  36.042  1.00  0.00     0.049 A 
ATOM     53  H   UNL A   1      41.004  31.159  35.176  1.00  0.00     0.167 HD
ATOM     54  C   UNL A   1      42.440  29.086  33.889  1.00  0.00     0.074 A 
ATOM     55  C   UNL A   1      42.835  28.096  32.910  1.00  0.00     0.031 C 
ATOM     56  C   UNL A   1      43.076  29.288  35.068  1.00  0.00     0.031 A 
BRANCH  43  57
ATOM     57  C   UNL A   1      40.584  33.748  38.534  1.00  0.00    -0.014 A 
ATOM     58  C   UNL A   1      41.243  34.988  38.535  1.00  0.00     0.009 A 
ATOM     59  C   UNL A   1      39.988  33.292  39.719  1.00  0.00     0.009 A 
ATOM     60  C   UNL A   1      41.346  35.731  39.711  1.00  0.00     0.001 A 
ATOM     61  C   UNL A   1      40.069  34.051  40.888  1.00  0.00     0.001 A 
ATOM     62  C   UNL A   1      40.759  35.263  40.886  1.00  0.00     0.000 A 
ENDBRANCH  43  57
BRANCH  44  63
ATOM     63  C   UNL A   1      39.935  28.763  29.934  1.00  0.00    -0.014 A 
ATOM     64  C   UNL A   1      39.333  27.496  29.885  1.00  0.00     0.009 A 
ATOM     65  C   UNL A   1      40.467  29.310  28.758  1.00  0.00     0.009 A 
ATOM     66  C   UNL A   1      39.286  26.780  28.686  1.00  0.00     0.001 A 
ATOM     67  C   UNL A   1      40.401  28.600  27.557  1.00  0.00     0.001 A 
ATOM     68  C   UNL A   1      39.818  27.334  27.523  1.00  0.00     0.000 A 
ENDBRANCH  44  63
BRANCH  56  69
ATOM     69  C   UNL A   1      44.232  28.390  35.386  1.00  0.00    -0.014 A 
ATOM     70  C   UNL A   1      45.545  28.755  35.051  1.00  0.00     0.009 A 
ATOM     71  C   UNL A   1      44.008  27.192  36.080  1.00  0.00     0.009 A 
ATOM     72  C   UNL A   1      46.612  27.923  35.392  1.00  0.00     0.001 A 
ATOM     73  C   UNL A   1      45.080  26.371  36.433  1.00  0.00     0.001 A 
ATOM     74  C   UNL A   1      46.379  26.735  36.085  1.00  0.00     0.000 A 
ENDBRANCH  56  69
ENDBRANCH  30  31
ENDBRANCH  22  25
ENDBRANCH  20  21
ENDBRANCH  19  20
ENDBRANCH   1  19
TORSDOF 13
ENDMDL
