MODEL 1
REMARK VINA RESULT:      -9.7      0.000      0.000
REMARK SMILES COC[C@H](C)CC(=O)N[C@@H](C(=O)NCCCNC(=O)c1ccc(-c2c3nc(c(-c4ccccc4)c4ccc([nH]4)c(-c4ccccc4)c4nc(c(-c5ccccc5)c5ccc2[nH]5)C=C4)C=C3)cc1)C(C)C
REMARK SMILES IDX 11 1 12 2 13 3 10 5 9 6 7 7 8 8 6 10 4 11 5 12 3 13 2 14
REMARK SMILES IDX 1 15 68 16 69 17 70 18 14 19 15 20 16 21 17 22 18 23 19 25
REMARK SMILES IDX 20 26 21 27 67 28 22 29 66 30 23 31 24 32 25 33 60 34 26 35
REMARK SMILES IDX 65 36 59 37 61 38 27 39 64 40 58 41 57 42 28 44 50 45 35 46
REMARK SMILES IDX 49 47 36 48 39 49 48 50 62 51 37 52 38 53 47 55 63 56 40 57
REMARK SMILES IDX 29 58 30 59 34 60 31 61 33 62 32 63 51 64 52 65 56 66 53 67
REMARK SMILES IDX 55 68 54 69 41 70 42 71 46 72 43 73 45 74 44 75
REMARK H PARENT 13 4 9 9 17 24 61 43 39 54
REMARK Flexibility Score: inf
ROOT
ATOM      1  C   UNL A   1      31.167  28.931  23.655  1.00  0.00     0.242 C 
ATOM      2  O   UNL A   1      30.511  29.154  22.632  1.00  0.00    -0.273 OA
ATOM      3  N   UNL A   1      31.353  30.014  24.471  1.00  0.00    -0.354 N 
ATOM      4  H   UNL A   1      31.096  30.875  24.066  1.00  0.00     0.163 HD
ENDROOT
BRANCH   1   5
ATOM      5  C   UNL A   1      31.601  27.477  24.051  1.00  0.00     0.173 C 
BRANCH   5   6
ATOM      6  N   UNL A   1      32.259  26.805  22.936  1.00  0.00    -0.344 N 
ATOM      7  C   UNL A   1      33.407  26.067  22.936  1.00  0.00     0.221 C 
ATOM      8  O   UNL A   1      33.925  25.814  21.846  1.00  0.00    -0.275 OA
ATOM      9  H   UNL A   1      31.813  26.896  22.063  1.00  0.00     0.164 HD
BRANCH   7  10
ATOM     10  C   UNL A   1      34.043  25.574  24.237  1.00  0.00     0.105 C 
BRANCH  10  11
ATOM     11  C   UNL A   1      34.570  24.108  24.265  1.00  0.00     0.021 C 
ATOM     12  C   UNL A   1      35.879  23.970  25.053  1.00  0.00     0.010 C 
BRANCH  11  13
ATOM     13  C   UNL A   1      33.483  23.140  24.812  1.00  0.00     0.163 C 
BRANCH  13  14
ATOM     14  O   UNL A   1      33.251  22.007  23.973  1.00  0.00    -0.384 OA
ATOM     15  C   UNL A   1      32.461  22.283  22.820  1.00  0.00     0.194 C 
ENDBRANCH  13  14
ENDBRANCH  11  13
ENDBRANCH  10  11
ENDBRANCH   7  10
ENDBRANCH   5   6
BRANCH   5  16
ATOM     16  C   UNL A   1      30.426  26.673  24.670  1.00  0.00     0.015 C 
ATOM     17  C   UNL A   1      29.918  25.547  23.767  1.00  0.00     0.010 C 
ATOM     18  C   UNL A   1      30.883  26.050  26.004  1.00  0.00     0.010 C 
ENDBRANCH   5  16
ENDBRANCH   1   5
BRANCH   3  19
ATOM     19  C   UNL A   1      31.859  30.122  25.826  1.00  0.00     0.117 C 
BRANCH  19  20
ATOM     20  C   UNL A   1      31.503  31.423  26.516  1.00  0.00     0.042 C 
BRANCH  20  21
ATOM     21  C   UNL A   1      32.723  32.141  27.065  1.00  0.00     0.118 C 
BRANCH  21  22
ATOM     22  N   UNL A   1      32.437  33.501  27.517  1.00  0.00    -0.352 N 
ATOM     23  C   UNL A   1      33.112  34.318  28.400  1.00  0.00     0.251 C 
ATOM     24  H   UNL A   1      31.627  33.902  27.127  1.00  0.00     0.163 HD
ATOM     25  O   UNL A   1      32.619  35.380  28.746  1.00  0.00    -0.269 OA
BRANCH  23  26
ATOM     26  C   UNL A   1      34.415  33.888  28.959  1.00  0.00     0.039 A 
ATOM     27  C   UNL A   1      34.439  33.140  30.139  1.00  0.00     0.014 A 
ATOM     28  C   UNL A   1      35.608  34.190  28.305  1.00  0.00     0.014 A 
ATOM     29  C   UNL A   1      35.646  32.604  30.594  1.00  0.00     0.010 A 
ATOM     30  C   UNL A   1      36.781  33.549  28.681  1.00  0.00     0.010 A 
ATOM     31  C   UNL A   1      36.818  32.750  29.832  1.00  0.00    -0.014 A 
BRANCH  31  32
ATOM     32  C   UNL A   1      38.091  32.086  30.213  1.00  0.00     0.031 A 
ATOM     33  C   UNL A   1      39.050  32.775  31.150  1.00  0.00     0.074 A 
ATOM     34  C   UNL A   1      38.429  30.906  29.652  1.00  0.00     0.049 A 
ATOM     35  N   UNL A   1      40.252  32.408  31.519  1.00  0.00    -0.248 NA
ATOM     36  C   UNL A   1      38.619  34.064  31.718  1.00  0.00     0.031 C 
ATOM     37  C   UNL A   1      37.622  30.159  28.683  1.00  0.00     0.029 A 
ATOM     38  N   UNL A   1      39.550  30.130  29.814  1.00  0.00    -0.354 N 
ATOM     39  C   UNL A   1      40.724  33.431  32.334  1.00  0.00     0.074 A 
ATOM     40  C   UNL A   1      39.709  34.460  32.356  1.00  0.00     0.031 C 
ATOM     41  C   UNL A   1      38.254  29.016  28.371  1.00  0.00     0.029 A 
ATOM     42  C   UNL A   1      39.530  28.970  29.076  1.00  0.00     0.049 A 
ATOM     43  H   UNL A   1      40.297  30.379  30.404  1.00  0.00     0.167 HD
ATOM     44  C   UNL A   1      41.883  33.497  33.029  1.00  0.00     0.031 A 
ATOM     45  C   UNL A   1      40.438  27.981  28.976  1.00  0.00     0.031 A 
ATOM     46  C   UNL A   1      42.879  32.462  33.038  1.00  0.00     0.049 A 
ATOM     47  C   UNL A   1      41.712  28.075  29.768  1.00  0.00     0.074 A 
ATOM     48  C   UNL A   1      44.060  32.408  33.758  1.00  0.00     0.029 A 
ATOM     49  N   UNL A   1      42.803  31.292  32.301  1.00  0.00    -0.354 N 
ATOM     50  N   UNL A   1      42.111  29.020  30.585  1.00  0.00    -0.248 NA
ATOM     51  C   UNL A   1      42.658  26.959  29.631  1.00  0.00     0.031 C 
ATOM     52  C   UNL A   1      44.719  31.220  33.425  1.00  0.00     0.029 A 
ATOM     53  C   UNL A   1      43.923  30.514  32.537  1.00  0.00     0.049 A 
ATOM     54  H   UNL A   1      42.063  31.049  31.698  1.00  0.00     0.167 HD
ATOM     55  C   UNL A   1      43.338  28.598  31.081  1.00  0.00     0.074 A 
ATOM     56  C   UNL A   1      43.607  27.303  30.490  1.00  0.00     0.031 C 
ATOM     57  C   UNL A   1      44.169  29.225  31.947  1.00  0.00     0.031 A 
BRANCH  44  58
ATOM     58  C   UNL A   1      42.127  34.731  33.853  1.00  0.00    -0.014 A 
ATOM     59  C   UNL A   1      42.749  35.861  33.299  1.00  0.00     0.009 A 
ATOM     60  C   UNL A   1      41.694  34.781  35.187  1.00  0.00     0.009 A 
ATOM     61  C   UNL A   1      42.962  37.003  34.072  1.00  0.00     0.001 A 
ATOM     62  C   UNL A   1      41.882  35.934  35.949  1.00  0.00     0.001 A 
ATOM     63  C   UNL A   1      42.522  37.042  35.395  1.00  0.00     0.000 A 
ENDBRANCH  44  58
BRANCH  45  64
ATOM     64  C   UNL A   1      40.177  26.801  28.109  1.00  0.00    -0.014 A 
ATOM     65  C   UNL A   1      39.416  25.723  28.587  1.00  0.00     0.009 A 
ATOM     66  C   UNL A   1      40.713  26.730  26.814  1.00  0.00     0.009 A 
ATOM     67  C   UNL A   1      39.230  24.582  27.801  1.00  0.00     0.001 A 
ATOM     68  C   UNL A   1      40.499  25.602  26.019  1.00  0.00     0.001 A 
ATOM     69  C   UNL A   1      39.769  24.524  26.518  1.00  0.00     0.000 A 
ENDBRANCH  45  64
BRANCH  57  70
ATOM     70  C   UNL A   1      45.425  28.501  32.338  1.00  0.00    -0.014 A 
ATOM     71  C   UNL A   1      46.622  28.684  31.629  1.00  0.00     0.009 A 
ATOM     72  C   UNL A   1      45.416  27.652  33.455  1.00  0.00     0.009 A 
ATOM     73  C   UNL A   1      47.777  28.000  32.011  1.00  0.00     0.001 A 
ATOM     74  C   UNL A   1      46.579  26.993  33.853  1.00  0.00     0.001 A 
ATOM     75  C   UNL A   1      47.756  27.159  33.124  1.00  0.00     0.000 A 
ENDBRANCH  57  70
ENDBRANCH  31  32
ENDBRANCH  23  26
ENDBRANCH  21  22
ENDBRANCH  20  21
ENDBRANCH  19  20
ENDBRANCH   3  19
TORSDOF 16
ENDMDL
MODEL 2
REMARK VINA RESULT:      -9.6      3.651      8.849
REMARK SMILES COC[C@H](C)CC(=O)N[C@@H](C(=O)NCCCNC(=O)c1ccc(-c2c3nc(c(-c4ccccc4)c4ccc([nH]4)c(-c4ccccc4)c4nc(c(-c5ccccc5)c5ccc2[nH]5)C=C4)C=C3)cc1)C(C)C
REMARK SMILES IDX 11 1 12 2 13 3 10 5 9 6 7 7 8 8 6 10 4 11 5 12 3 13 2 14
REMARK SMILES IDX 1 15 68 16 69 17 70 18 14 19 15 20 16 21 17 22 18 23 19 25
REMARK SMILES IDX 20 26 21 27 67 28 22 29 66 30 23 31 24 32 25 33 60 34 26 35
REMARK SMILES IDX 65 36 59 37 61 38 27 39 64 40 58 41 57 42 28 44 50 45 35 46
REMARK SMILES IDX 49 47 36 48 39 49 48 50 62 51 37 52 38 53 47 55 63 56 40 57
REMARK SMILES IDX 29 58 30 59 34 60 31 61 33 62 32 63 51 64 52 65 56 66 53 67
REMARK SMILES IDX 55 68 54 69 41 70 42 71 46 72 43 73 45 74 44 75
REMARK H PARENT 13 4 9 9 17 24 61 43 39 54
REMARK Flexibility Score: inf
ROOT
ATOM      1  C   UNL A   1      34.434  21.384  26.417  1.00  0.00     0.242 C 
ATOM      2  O   UNL A   1      34.172  21.421  27.624  1.00  0.00    -0.273 OA
ATOM      3  N   UNL A   1      35.767  21.442  26.111  1.00  0.00    -0.354 N 
ATOM      4  H   UNL A   1      36.346  21.682  26.871  1.00  0.00     0.163 HD
ENDROOT
BRANCH   1   5
ATOM      5  C   UNL A   1      33.322  21.123  25.343  1.00  0.00     0.173 C 
BRANCH   5   6
ATOM      6  N   UNL A   1      32.006  21.502  25.849  1.00  0.00    -0.344 N 
ATOM      7  C   UNL A   1      31.231  22.571  25.506  1.00  0.00     0.221 C 
ATOM      8  O   UNL A   1      30.281  22.848  26.242  1.00  0.00    -0.275 OA
ATOM      9  H   UNL A   1      31.626  20.902  26.531  1.00  0.00     0.164 HD
BRANCH   7  10
ATOM     10  C   UNL A   1      31.527  23.410  24.262  1.00  0.00     0.105 C 
BRANCH  10  11
ATOM     11  C   UNL A   1      32.584  24.546  24.399  1.00  0.00     0.021 C 
ATOM     12  C   UNL A   1      32.940  24.845  25.861  1.00  0.00     0.010 C 
BRANCH  11  13
ATOM     13  C   UNL A   1      33.857  24.220  23.567  1.00  0.00     0.163 C 
BRANCH  13  14
ATOM     14  O   UNL A   1      34.028  25.063  22.427  1.00  0.00    -0.384 OA
ATOM     15  C   UNL A   1      32.878  25.834  22.091  1.00  0.00     0.194 C 
ENDBRANCH  13  14
ENDBRANCH  11  13
ENDBRANCH  10  11
ENDBRANCH   7  10
ENDBRANCH   5   6
BRANCH   5  16
ATOM     16  C   UNL A   1      33.391  19.678  24.781  1.00  0.00     0.015 C 
ATOM     17  C   UNL A   1      32.873  18.620  25.759  1.00  0.00     0.010 C 
ATOM     18  C   UNL A   1      32.551  19.592  23.491  1.00  0.00     0.010 C 
ENDBRANCH   5  16
ENDBRANCH   1   5
BRANCH   3  19
ATOM     19  C   UNL A   1      36.481  21.213  24.869  1.00  0.00     0.117 C 
BRANCH  19  20
ATOM     20  C   UNL A   1      37.521  20.114  24.949  1.00  0.00     0.042 C 
BRANCH  20  21
ATOM     21  C   UNL A   1      38.774  20.555  25.682  1.00  0.00     0.118 C 
BRANCH  21  22
ATOM     22  N   UNL A   1      39.813  19.527  25.718  1.00  0.00    -0.352 N 
ATOM     23  C   UNL A   1      41.149  19.608  26.053  1.00  0.00     0.251 C 
ATOM     24  H   UNL A   1      39.509  18.628  25.461  1.00  0.00     0.163 HD
ATOM     25  O   UNL A   1      41.879  18.644  25.880  1.00  0.00    -0.269 OA
BRANCH  23  26
ATOM     26  C   UNL A   1      41.705  20.874  26.583  1.00  0.00     0.039 A 
ATOM     27  C   UNL A   1      42.217  21.821  25.692  1.00  0.00     0.014 A 
ATOM     28  C   UNL A   1      41.692  21.145  27.950  1.00  0.00     0.014 A 
ATOM     29  C   UNL A   1      42.606  23.077  26.166  1.00  0.00     0.010 A 
ATOM     30  C   UNL A   1      41.951  22.432  28.400  1.00  0.00     0.010 A 
ATOM     31  C   UNL A   1      42.415  23.415  27.516  1.00  0.00    -0.014 A 
BRANCH  31  32
ATOM     32  C   UNL A   1      42.694  24.781  28.032  1.00  0.00     0.031 A 
ATOM     33  C   UNL A   1      44.088  25.154  28.465  1.00  0.00     0.074 A 
ATOM     34  C   UNL A   1      41.681  25.658  28.193  1.00  0.00     0.049 A 
ATOM     35  N   UNL A   1      44.510  26.254  29.036  1.00  0.00    -0.248 NA
ATOM     36  C   UNL A   1      45.142  24.143  28.267  1.00  0.00     0.031 C 
ATOM     37  C   UNL A   1      40.274  25.407  27.871  1.00  0.00     0.029 A 
ATOM     38  N   UNL A   1      41.683  26.943  28.677  1.00  0.00    -0.354 N 
ATOM     39  C   UNL A   1      45.862  26.054  29.287  1.00  0.00     0.074 A 
ATOM     40  C   UNL A   1      46.178  24.708  28.865  1.00  0.00     0.031 C 
ATOM     41  C   UNL A   1      39.558  26.514  28.128  1.00  0.00     0.029 A 
ATOM     42  C   UNL A   1      40.443  27.536  28.676  1.00  0.00     0.049 A 
ATOM     43  H   UNL A   1      42.496  27.398  28.995  1.00  0.00     0.167 HD
ATOM     44  C   UNL A   1      46.770  26.921  29.792  1.00  0.00     0.031 A 
ATOM     45  C   UNL A   1      40.059  28.763  29.074  1.00  0.00     0.031 A 
ATOM     46  C   UNL A   1      46.468  28.271  30.179  1.00  0.00     0.049 A 
ATOM     47  C   UNL A   1      41.090  29.710  29.622  1.00  0.00     0.074 A 
ATOM     48  C   UNL A   1      47.331  29.248  30.645  1.00  0.00     0.029 A 
ATOM     49  N   UNL A   1      45.206  28.839  30.132  1.00  0.00    -0.354 N 
ATOM     50  N   UNL A   1      42.378  29.525  29.790  1.00  0.00    -0.248 NA
ATOM     51  C   UNL A   1      40.617  31.042  30.025  1.00  0.00     0.031 C 
ATOM     52  C   UNL A   1      46.582  30.397  30.918  1.00  0.00     0.029 A 
ATOM     53  C   UNL A   1      45.263  30.150  30.574  1.00  0.00     0.049 A 
ATOM     54  H   UNL A   1      44.389  28.379  29.829  1.00  0.00     0.167 HD
ATOM     55  C   UNL A   1      42.871  30.724  30.288  1.00  0.00     0.074 A 
ATOM     56  C   UNL A   1      41.748  31.635  30.376  1.00  0.00     0.031 C 
ATOM     57  C   UNL A   1      44.138  31.043  30.644  1.00  0.00     0.031 A 
BRANCH  44  58
ATOM     58  C   UNL A   1      48.185  26.435  29.939  1.00  0.00    -0.014 A 
ATOM     59  C   UNL A   1      49.124  26.619  28.911  1.00  0.00     0.009 A 
ATOM     60  C   UNL A   1      48.598  25.824  31.133  1.00  0.00     0.009 A 
ATOM     61  C   UNL A   1      50.437  26.172  29.063  1.00  0.00     0.001 A 
ATOM     62  C   UNL A   1      49.919  25.404  31.293  1.00  0.00     0.001 A 
ATOM     63  C   UNL A   1      50.836  25.571  30.256  1.00  0.00     0.000 A 
ENDBRANCH  44  58
BRANCH  45  64
ATOM     64  C   UNL A   1      38.638  29.186  28.957  1.00  0.00    -0.014 A 
ATOM     65  C   UNL A   1      37.763  29.045  30.046  1.00  0.00     0.009 A 
ATOM     66  C   UNL A   1      38.140  29.703  27.751  1.00  0.00     0.009 A 
ATOM     67  C   UNL A   1      36.412  29.374  29.918  1.00  0.00     0.001 A 
ATOM     68  C   UNL A   1      36.795  30.061  27.635  1.00  0.00     0.001 A 
ATOM     69  C   UNL A   1      35.929  29.883  28.714  1.00  0.00     0.000 A 
ENDBRANCH  45  64
BRANCH  57  70
ATOM     70  C   UNL A   1      44.383  32.446  31.120  1.00  0.00    -0.014 A 
ATOM     71  C   UNL A   1      44.909  33.425  30.263  1.00  0.00     0.009 A 
ATOM     72  C   UNL A   1      44.050  32.798  32.437  1.00  0.00     0.009 A 
ATOM     73  C   UNL A   1      45.129  34.722  30.729  1.00  0.00     0.001 A 
ATOM     74  C   UNL A   1      44.243  34.104  32.890  1.00  0.00     0.001 A 
ATOM     75  C   UNL A   1      44.792  35.062  32.039  1.00  0.00     0.000 A 
ENDBRANCH  57  70
ENDBRANCH  31  32
ENDBRANCH  23  26
ENDBRANCH  21  22
ENDBRANCH  20  21
ENDBRANCH  19  20
ENDBRANCH   3  19
TORSDOF 16
ENDMDL
MODEL 3
REMARK VINA RESULT:      -9.6      0.944      6.231
REMARK SMILES COC[C@H](C)CC(=O)N[C@@H](C(=O)NCCCNC(=O)c1ccc(-c2c3nc(c(-c4ccccc4)c4ccc([nH]4)c(-c4ccccc4)c4nc(c(-c5ccccc5)c5ccc2[nH]5)C=C4)C=C3)cc1)C(C)C
REMARK SMILES IDX 11 1 12 2 13 3 10 5 9 6 7 7 8 8 6 10 4 11 5 12 3 13 2 14
REMARK SMILES IDX 1 15 68 16 69 17 70 18 14 19 15 20 16 21 17 22 18 23 19 25
REMARK SMILES IDX 20 26 21 27 67 28 22 29 66 30 23 31 24 32 25 33 60 34 26 35
REMARK SMILES IDX 65 36 59 37 61 38 27 39 64 40 58 41 57 42 28 44 50 45 35 46
REMARK SMILES IDX 49 47 36 48 39 49 48 50 62 51 37 52 38 53 47 55 63 56 40 57
REMARK SMILES IDX 29 58 30 59 34 60 31 61 33 62 32 63 51 64 52 65 56 66 53 67
REMARK SMILES IDX 55 68 54 69 41 70 42 71 46 72 43 73 45 74 44 75
REMARK H PARENT 13 4 9 9 17 24 61 43 39 54
REMARK Flexibility Score: inf
ROOT
ATOM      1  C   UNL A   1      33.065  28.897  23.570  1.00  0.00     0.242 C 
ATOM      2  O   UNL A   1      33.805  29.345  22.688  1.00  0.00    -0.273 OA
ATOM      3  N   UNL A   1      33.112  29.569  24.762  1.00  0.00    -0.354 N 
ATOM      4  H   UNL A   1      33.853  30.215  24.833  1.00  0.00     0.163 HD
ENDROOT
BRANCH   1   5
ATOM      5  C   UNL A   1      32.036  27.752  23.275  1.00  0.00     0.173 C 
BRANCH   5   6
ATOM      6  N   UNL A   1      32.265  27.169  21.957  1.00  0.00    -0.344 N 
ATOM      7  C   UNL A   1      32.741  25.930  21.639  1.00  0.00     0.221 C 
ATOM      8  O   UNL A   1      33.107  25.739  20.477  1.00  0.00    -0.275 OA
ATOM      9  H   UNL A   1      32.046  27.749  21.193  1.00  0.00     0.164 HD
BRANCH   7  10
ATOM     10  C   UNL A   1      32.832  24.814  22.681  1.00  0.00     0.105 C 
BRANCH  10  11
ATOM     11  C   UNL A   1      34.196  24.624  23.410  1.00  0.00     0.021 C 
ATOM     12  C   UNL A   1      34.163  25.126  24.858  1.00  0.00     0.010 C 
BRANCH  11  13
ATOM     13  C   UNL A   1      34.657  23.140  23.341  1.00  0.00     0.163 C 
BRANCH  13  14
ATOM     14  O   UNL A   1      33.831  22.249  24.092  1.00  0.00    -0.384 OA
ATOM     15  C   UNL A   1      34.544  21.205  24.751  1.00  0.00     0.194 C 
ENDBRANCH  13  14
ENDBRANCH  11  13
ENDBRANCH  10  11
ENDBRANCH   7  10
ENDBRANCH   5   6
BRANCH   5  16
ATOM     16  C   UNL A   1      30.574  28.215  23.516  1.00  0.00     0.015 C 
ATOM     17  C   UNL A   1      30.024  29.102  22.396  1.00  0.00     0.010 C 
ATOM     18  C   UNL A   1      29.662  26.977  23.640  1.00  0.00     0.010 C 
ENDBRANCH   5  16
ENDBRANCH   1   5
BRANCH   3  19
ATOM     19  C   UNL A   1      32.268  29.501  25.940  1.00  0.00     0.117 C 
BRANCH  19  20
ATOM     20  C   UNL A   1      31.804  30.852  26.445  1.00  0.00     0.042 C 
BRANCH  20  21
ATOM     21  C   UNL A   1      32.918  31.633  27.117  1.00  0.00     0.118 C 
BRANCH  21  22
ATOM     22  N   UNL A   1      32.532  32.996  27.476  1.00  0.00    -0.352 N 
ATOM     23  C   UNL A   1      33.138  33.916  28.306  1.00  0.00     0.251 C 
ATOM     24  H   UNL A   1      31.700  33.311  27.054  1.00  0.00     0.163 HD
ATOM     25  O   UNL A   1      32.567  34.960  28.578  1.00  0.00    -0.269 OA
BRANCH  23  26
ATOM     26  C   UNL A   1      34.461  33.617  28.901  1.00  0.00     0.039 A 
ATOM     27  C   UNL A   1      34.525  32.930  30.116  1.00  0.00     0.014 A 
ATOM     28  C   UNL A   1      35.637  33.983  28.248  1.00  0.00     0.014 A 
ATOM     29  C   UNL A   1      35.764  32.513  30.610  1.00  0.00     0.010 A 
ATOM     30  C   UNL A   1      36.851  33.456  28.669  1.00  0.00     0.010 A 
ATOM     31  C   UNL A   1      36.932  32.717  29.857  1.00  0.00    -0.014 A 
BRANCH  31  32
ATOM     32  C   UNL A   1      38.248  32.175  30.285  1.00  0.00     0.031 A 
ATOM     33  C   UNL A   1      38.740  30.862  29.732  1.00  0.00     0.074 A 
ATOM     34  C   UNL A   1      38.964  32.816  31.233  1.00  0.00     0.049 A 
ATOM     35  N   UNL A   1      39.807  30.175  30.057  1.00  0.00    -0.248 NA
ATOM     36  C   UNL A   1      37.903  30.214  28.706  1.00  0.00     0.031 C 
ATOM     37  C   UNL A   1      38.576  34.064  31.897  1.00  0.00     0.029 A 
ATOM     38  N   UNL A   1      40.168  32.498  31.809  1.00  0.00    -0.354 N 
ATOM     39  C   UNL A   1      39.751  29.012  29.299  1.00  0.00     0.074 A 
ATOM     40  C   UNL A   1      38.519  29.053  28.546  1.00  0.00     0.031 C 
ATOM     41  C   UNL A   1      39.543  34.425  32.756  1.00  0.00     0.029 A 
ATOM     42  C   UNL A   1      40.594  33.414  32.741  1.00  0.00     0.049 A 
ATOM     43  H   UNL A   1      40.680  31.690  31.576  1.00  0.00     0.167 HD
ATOM     44  C   UNL A   1      40.657  28.011  29.211  1.00  0.00     0.031 A 
ATOM     45  C   UNL A   1      41.704  33.436  33.502  1.00  0.00     0.031 A 
ATOM     46  C   UNL A   1      41.901  27.983  29.931  1.00  0.00     0.049 A 
ATOM     47  C   UNL A   1      42.700  32.317  33.376  1.00  0.00     0.074 A 
ATOM     48  C   UNL A   1      42.915  27.043  29.864  1.00  0.00     0.029 A 
ATOM     49  N   UNL A   1      42.304  28.945  30.841  1.00  0.00    -0.354 N 
ATOM     50  N   UNL A   1      42.661  31.257  32.605  1.00  0.00    -0.248 NA
ATOM     51  C   UNL A   1      43.901  32.404  34.220  1.00  0.00     0.031 C 
ATOM     52  C   UNL A   1      43.916  27.417  30.765  1.00  0.00     0.029 A 
ATOM     53  C   UNL A   1      43.547  28.616  31.354  1.00  0.00     0.049 A 
ATOM     54  H   UNL A   1      41.785  29.745  31.087  1.00  0.00     0.167 HD
ATOM     55  C   UNL A   1      43.843  30.569  32.848  1.00  0.00     0.074 A 
ATOM     56  C   UNL A   1      44.586  31.342  33.822  1.00  0.00     0.031 C 
ATOM     57  C   UNL A   1      44.275  29.402  32.315  1.00  0.00     0.031 A 
BRANCH  44  58
ATOM     58  C   UNL A   1      40.342  26.869  28.286  1.00  0.00    -0.014 A 
ATOM     59  C   UNL A   1      39.500  25.820  28.691  1.00  0.00     0.009 A 
ATOM     60  C   UNL A   1      40.856  26.861  26.980  1.00  0.00     0.009 A 
ATOM     61  C   UNL A   1      39.208  24.770  27.819  1.00  0.00     0.001 A 
ATOM     62  C   UNL A   1      40.538  25.825  26.101  1.00  0.00     0.001 A 
ATOM     63  C   UNL A   1      39.721  24.776  26.522  1.00  0.00     0.000 A 
ENDBRANCH  44  58
BRANCH  45  64
ATOM     64  C   UNL A   1      41.954  34.561  34.442  1.00  0.00    -0.014 A 
ATOM     65  C   UNL A   1      42.623  35.716  34.007  1.00  0.00     0.009 A 
ATOM     66  C   UNL A   1      41.554  34.477  35.785  1.00  0.00     0.009 A 
ATOM     67  C   UNL A   1      42.923  36.744  34.904  1.00  0.00     0.001 A 
ATOM     68  C   UNL A   1      41.827  35.520  36.673  1.00  0.00     0.001 A 
ATOM     69  C   UNL A   1      42.523  36.646  36.235  1.00  0.00     0.000 A 
ENDBRANCH  45  64
BRANCH  57  70
ATOM     70  C   UNL A   1      45.628  28.911  32.743  1.00  0.00    -0.014 A 
ATOM     71  C   UNL A   1      46.792  29.300  32.062  1.00  0.00     0.009 A 
ATOM     72  C   UNL A   1      45.739  28.077  33.865  1.00  0.00     0.009 A 
ATOM     73  C   UNL A   1      48.039  28.831  32.478  1.00  0.00     0.001 A 
ATOM     74  C   UNL A   1      46.990  27.635  34.297  1.00  0.00     0.001 A 
ATOM     75  C   UNL A   1      48.138  28.003  33.597  1.00  0.00     0.000 A 
ENDBRANCH  57  70
ENDBRANCH  31  32
ENDBRANCH  23  26
ENDBRANCH  21  22
ENDBRANCH  20  21
ENDBRANCH  19  20
ENDBRANCH   3  19
TORSDOF 16
ENDMDL
