MODEL 1
REMARK VINA RESULT:     -10.3      0.000      0.000
REMARK SMILES CC[N@@H+](Cc1cccc(C)n1)Cc1csc(C(=O)NCCCNC(=O)c2ccc(-c3c4nc(c(-c5ccccc5)c5ccc([nH]5)c(-c5ccccc5)c5nc(c(-c6ccccc6)c6ccc3[nH]6)C=C5)C=C4)cc2)n1
REMARK SMILES IDX 20 1 19 2 17 3 18 4 16 6 13 7 14 8 74 9 15 10 12 11 3 12
REMARK SMILES IDX 2 14 1 15 4 16 5 17 6 18 11 19 7 20 9 21 8 22 10 23 21 24
REMARK SMILES IDX 22 25 23 26 24 27 25 29 26 30 27 31 73 32 28 33 72 34 29 35
REMARK SMILES IDX 30 36 31 37 66 38 32 39 71 40 65 41 67 42 33 43 70 44 64 45
REMARK SMILES IDX 63 46 34 48 56 49 41 50 55 51 42 52 45 53 54 54 68 55 43 56
REMARK SMILES IDX 44 57 53 59 69 60 46 61 35 62 36 63 40 64 37 65 39 66 38 67
REMARK SMILES IDX 57 68 58 69 62 70 59 71 61 72 60 73 47 74 48 75 52 76 49 77
REMARK SMILES IDX 51 78 50 79
REMARK H PARENT 19 5 3 13 23 28 67 47 45 58
REMARK Flexibility Score: inf
ROOT
ATOM      1  C   UNL A   1      33.267  29.152  25.010  1.00  0.00     0.118 C 
ENDROOT
BRANCH   1   2
ATOM      2  N   UNL A   1      33.876  29.022  23.697  1.00  0.00    -0.350 N 
ATOM      3  C   UNL A   1      33.641  28.090  22.703  1.00  0.00     0.280 C 
ATOM      4  O   UNL A   1      34.278  28.259  21.654  1.00  0.00    -0.267 OA
ATOM      5  H   UNL A   1      34.558  29.699  23.483  1.00  0.00     0.163 HD
BRANCH   3   6
ATOM      6  C   UNL A   1      32.678  27.010  22.909  1.00  0.00     0.181 A 
ATOM      7  C   UNL A   1      31.875  25.001  23.421  1.00  0.00     0.106 A 
ATOM      8  C   UNL A   1      30.686  25.704  23.352  1.00  0.00     0.097 A 
ATOM      9  N   UNL A   1      32.998  25.745  23.097  1.00  0.00    -0.230 NA
ATOM     10  S   UNL A   1      30.992  27.341  22.946  1.00  0.00    -0.117 S 
BRANCH   7  11
ATOM     11  C   UNL A   1      32.057  23.555  23.774  1.00  0.00     0.320 C 
BRANCH  11  12
ATOM     12  N   UNL A   1      33.283  23.257  24.550  1.00  0.00    -0.325 N 
ATOM     13  H   UNL A   1      33.507  24.154  24.981  1.00  0.00     0.348 HD
BRANCH  12  14
ATOM     14  C   UNL A   1      33.088  22.283  25.636  1.00  0.00     0.259 C 
ATOM     15  C   UNL A   1      33.162  22.909  27.024  1.00  0.00     0.071 C 
ENDBRANCH  12  14
BRANCH  12  16
ATOM     16  C   UNL A   1      34.430  22.848  23.708  1.00  0.00     0.319 C 
BRANCH  16  17
ATOM     17  C   UNL A   1      35.754  22.664  24.432  1.00  0.00     0.095 A 
ATOM     18  C   UNL A   1      36.328  23.699  25.166  1.00  0.00     0.030 A 
ATOM     19  N   UNL A   1      36.319  21.431  24.360  1.00  0.00    -0.252 NA
ATOM     20  C   UNL A   1      37.554  23.486  25.785  1.00  0.00     0.004 A 
ATOM     21  C   UNL A   1      37.488  21.225  25.011  1.00  0.00     0.038 A 
ATOM     22  C   UNL A   1      38.142  22.231  25.712  1.00  0.00     0.023 A 
ATOM     23  C   UNL A   1      38.026  19.825  24.998  1.00  0.00     0.067 C 
ENDBRANCH  16  17
ENDBRANCH  12  16
ENDBRANCH  11  12
ENDBRANCH   7  11
ENDBRANCH   3   6
ENDBRANCH   1   2
BRANCH   1  24
ATOM     24  C   UNL A   1      33.981  28.308  26.061  1.00  0.00     0.042 C 
BRANCH  24  25
ATOM     25  C   UNL A   1      33.511  28.606  27.482  1.00  0.00     0.118 C 
BRANCH  25  26
ATOM     26  N   UNL A   1      33.543  30.033  27.788  1.00  0.00    -0.352 N 
ATOM     27  C   UNL A   1      34.531  30.804  28.338  1.00  0.00     0.251 C 
ATOM     28  H   UNL A   1      32.718  30.520  27.562  1.00  0.00     0.163 HD
ATOM     29  O   UNL A   1      34.272  31.955  28.689  1.00  0.00    -0.269 OA
BRANCH  27  30
ATOM     30  C   UNL A   1      35.896  30.273  28.522  1.00  0.00     0.039 A 
ATOM     31  C   UNL A   1      36.781  30.309  27.441  1.00  0.00     0.014 A 
ATOM     32  C   UNL A   1      36.294  29.696  29.731  1.00  0.00     0.014 A 
ATOM     33  C   UNL A   1      38.077  29.811  27.586  1.00  0.00     0.010 A 
ATOM     34  C   UNL A   1      37.608  29.271  29.898  1.00  0.00     0.010 A 
ATOM     35  C   UNL A   1      38.511  29.314  28.825  1.00  0.00    -0.014 A 
BRANCH  35  36
ATOM     36  C   UNL A   1      39.897  28.819  29.013  1.00  0.00     0.031 A 
ATOM     37  C   UNL A   1      40.961  29.738  29.550  1.00  0.00     0.074 A 
ATOM     38  C   UNL A   1      40.213  27.563  28.646  1.00  0.00     0.049 A 
ATOM     39  N   UNL A   1      42.238  29.509  29.727  1.00  0.00    -0.248 NA
ATOM     40  C   UNL A   1      40.541  31.103  29.913  1.00  0.00     0.031 C 
ATOM     41  C   UNL A   1      39.281  26.582  28.083  1.00  0.00     0.029 A 
ATOM     42  N   UNL A   1      41.411  26.895  28.686  1.00  0.00    -0.354 N 
ATOM     43  C   UNL A   1      42.775  30.703  30.194  1.00  0.00     0.074 A 
ATOM     44  C   UNL A   1      41.696  31.666  30.234  1.00  0.00     0.031 C 
ATOM     45  C   UNL A   1      39.935  25.431  27.860  1.00  0.00     0.029 A 
ATOM     46  C   UNL A   1      41.338  25.604  28.222  1.00  0.00     0.049 A 
ATOM     47  H   UNL A   1      42.244  27.302  29.017  1.00  0.00     0.167 HD
ATOM     48  C   UNL A   1      44.048  30.970  30.571  1.00  0.00     0.031 A 
ATOM     49  C   UNL A   1      42.296  24.666  28.097  1.00  0.00     0.031 A 
ATOM     50  C   UNL A   1      45.115  30.005  30.553  1.00  0.00     0.049 A 
ATOM     51  C   UNL A   1      43.703  24.994  28.515  1.00  0.00     0.074 A 
ATOM     52  C   UNL A   1      46.423  30.160  30.980  1.00  0.00     0.029 A 
ATOM     53  N   UNL A   1      44.997  28.707  30.083  1.00  0.00    -0.354 N 
ATOM     54  N   UNL A   1      44.178  26.105  29.023  1.00  0.00    -0.248 NA
ATOM     55  C   UNL A   1      44.704  23.930  28.351  1.00  0.00     0.031 C 
ATOM     56  C   UNL A   1      47.110  28.971  30.719  1.00  0.00     0.029 A 
ATOM     57  C   UNL A   1      46.216  28.057  30.187  1.00  0.00     0.049 A 
ATOM     58  H   UNL A   1      44.171  28.307  29.730  1.00  0.00     0.167 HD
ATOM     59  C   UNL A   1      45.522  25.860  29.277  1.00  0.00     0.074 A 
ATOM     60  C   UNL A   1      45.782  24.493  28.878  1.00  0.00     0.031 C 
ATOM     61  C   UNL A   1      46.456  26.692  29.798  1.00  0.00     0.031 A 
BRANCH  48  62
ATOM     62  C   UNL A   1      44.363  32.367  31.028  1.00  0.00    -0.014 A 
ATOM     63  C   UNL A   1      44.762  33.361  30.121  1.00  0.00     0.009 A 
ATOM     64  C   UNL A   1      44.209  32.706  32.382  1.00  0.00     0.009 A 
ATOM     65  C   UNL A   1      45.031  34.657  30.565  1.00  0.00     0.001 A 
ATOM     66  C   UNL A   1      44.450  34.010  32.818  1.00  0.00     0.001 A 
ATOM     67  C   UNL A   1      44.869  34.982  31.912  1.00  0.00     0.000 A 
ENDBRANCH  48  62
BRANCH  49  68
ATOM     68  C   UNL A   1      41.964  23.316  27.571  1.00  0.00    -0.014 A 
ATOM     69  C   UNL A   1      41.447  22.330  28.426  1.00  0.00     0.009 A 
ATOM     70  C   UNL A   1      42.187  22.995  26.223  1.00  0.00     0.009 A 
ATOM     71  C   UNL A   1      41.199  21.039  27.950  1.00  0.00     0.001 A 
ATOM     72  C   UNL A   1      41.908  21.714  25.743  1.00  0.00     0.001 A 
ATOM     73  C   UNL A   1      41.427  20.733  26.609  1.00  0.00     0.000 A 
ENDBRANCH  49  68
BRANCH  61  74
ATOM     74  C   UNL A   1      47.831  26.130  30.021  1.00  0.00    -0.014 A 
ATOM     75  C   UNL A   1      48.768  26.048  28.978  1.00  0.00     0.009 A 
ATOM     76  C   UNL A   1      48.204  25.708  31.306  1.00  0.00     0.009 A 
ATOM     77  C   UNL A   1      50.039  25.520  29.214  1.00  0.00     0.001 A 
ATOM     78  C   UNL A   1      49.485  25.210  31.545  1.00  0.00     0.001 A 
ATOM     79  C   UNL A   1      50.398  25.106  30.497  1.00  0.00     0.000 A 
ENDBRANCH  61  74
ENDBRANCH  35  36
ENDBRANCH  27  30
ENDBRANCH  25  26
ENDBRANCH  24  25
ENDBRANCH   1  24
TORSDOF 15
ENDMDL
MODEL 2
REMARK VINA RESULT:     -10.2      2.666      8.036
REMARK SMILES CC[N@@H+](Cc1cccc(C)n1)Cc1csc(C(=O)NCCCNC(=O)c2ccc(-c3c4nc(c(-c5ccccc5)c5ccc([nH]5)c(-c5ccccc5)c5nc(c(-c6ccccc6)c6ccc3[nH]6)C=C5)C=C4)cc2)n1
REMARK SMILES IDX 20 1 19 2 17 3 18 4 16 6 13 7 14 8 74 9 15 10 12 11 3 12
REMARK SMILES IDX 2 14 1 15 4 16 5 17 6 18 11 19 7 20 9 21 8 22 10 23 21 24
REMARK SMILES IDX 22 25 23 26 24 27 25 29 26 30 27 31 73 32 28 33 72 34 29 35
REMARK SMILES IDX 30 36 31 37 66 38 32 39 71 40 65 41 67 42 33 43 70 44 64 45
REMARK SMILES IDX 63 46 34 48 56 49 41 50 55 51 42 52 45 53 54 54 68 55 43 56
REMARK SMILES IDX 44 57 53 59 69 60 46 61 35 62 36 63 40 64 37 65 39 66 38 67
REMARK SMILES IDX 57 68 58 69 62 70 59 71 61 72 60 73 47 74 48 75 52 76 49 77
REMARK SMILES IDX 51 78 50 79
REMARK H PARENT 19 5 3 13 23 28 67 47 45 58
REMARK Flexibility Score: inf
ROOT
ATOM      1  C   UNL A   1      35.222  22.338  25.910  1.00  0.00     0.118 C 
ENDROOT
BRANCH   1   2
ATOM      2  N   UNL A   1      34.440  22.205  27.127  1.00  0.00    -0.350 N 
ATOM      3  C   UNL A   1      33.156  22.638  27.405  1.00  0.00     0.280 C 
ATOM      4  O   UNL A   1      32.722  22.334  28.524  1.00  0.00    -0.267 OA
ATOM      5  H   UNL A   1      34.892  21.736  27.866  1.00  0.00     0.163 HD
BRANCH   3   6
ATOM      6  C   UNL A   1      32.390  23.379  26.405  1.00  0.00     0.181 A 
ATOM      7  C   UNL A   1      31.618  25.095  25.219  1.00  0.00     0.106 A 
ATOM      8  C   UNL A   1      31.142  24.055  24.441  1.00  0.00     0.097 A 
ATOM      9  N   UNL A   1      32.269  24.692  26.375  1.00  0.00    -0.230 NA
ATOM     10  S   UNL A   1      31.583  22.550  25.135  1.00  0.00    -0.117 S 
BRANCH   7  11
ATOM     11  C   UNL A   1      31.479  26.564  24.956  1.00  0.00     0.320 C 
BRANCH  11  12
ATOM     12  N   UNL A   1      32.094  27.027  23.690  1.00  0.00    -0.325 N 
ATOM     13  H   UNL A   1      32.421  26.161  23.262  1.00  0.00     0.348 HD
BRANCH  12  14
ATOM     14  C   UNL A   1      31.147  27.652  22.753  1.00  0.00     0.259 C 
ATOM     15  C   UNL A   1      29.838  28.072  23.414  1.00  0.00     0.071 C 
ENDBRANCH  12  14
BRANCH  12  16
ATOM     16  C   UNL A   1      33.261  27.915  23.891  1.00  0.00     0.319 C 
BRANCH  16  17
ATOM     17  C   UNL A   1      33.274  28.714  25.184  1.00  0.00     0.095 A 
ATOM     18  C   UNL A   1      34.182  28.432  26.201  1.00  0.00     0.030 A 
ATOM     19  N   UNL A   1      32.386  29.738  25.273  1.00  0.00    -0.252 NA
ATOM     20  C   UNL A   1      34.132  29.175  27.374  1.00  0.00     0.004 A 
ATOM     21  C   UNL A   1      32.384  30.486  26.402  1.00  0.00     0.038 A 
ATOM     22  C   UNL A   1      33.224  30.221  27.477  1.00  0.00     0.023 A 
ATOM     23  C   UNL A   1      31.466  31.671  26.420  1.00  0.00     0.067 C 
ENDBRANCH  16  17
ENDBRANCH  12  16
ENDBRANCH  11  12
ENDBRANCH   7  11
ENDBRANCH   3   6
ENDBRANCH   1   2
BRANCH   1  24
ATOM     24  C   UNL A   1      35.965  23.668  25.846  1.00  0.00     0.042 C 
BRANCH  24  25
ATOM     25  C   UNL A   1      37.184  23.626  24.929  1.00  0.00     0.118 C 
BRANCH  25  26
ATOM     26  N   UNL A   1      38.175  22.650  25.371  1.00  0.00    -0.352 N 
ATOM     27  C   UNL A   1      39.321  22.812  26.102  1.00  0.00     0.251 C 
ATOM     28  H   UNL A   1      37.988  21.723  25.099  1.00  0.00     0.163 HD
ATOM     29  O   UNL A   1      40.114  21.875  26.195  1.00  0.00    -0.269 OA
BRANCH  27  30
ATOM     30  C   UNL A   1      39.620  24.093  26.771  1.00  0.00     0.039 A 
ATOM     31  C   UNL A   1      39.124  24.309  28.060  1.00  0.00     0.014 A 
ATOM     32  C   UNL A   1      40.340  25.100  26.123  1.00  0.00     0.014 A 
ATOM     33  C   UNL A   1      39.390  25.512  28.716  1.00  0.00     0.010 A 
ATOM     34  C   UNL A   1      40.670  26.267  26.805  1.00  0.00     0.010 A 
ATOM     35  C   UNL A   1      40.190  26.491  28.105  1.00  0.00    -0.014 A 
BRANCH  35  36
ATOM     36  C   UNL A   1      40.521  27.759  28.800  1.00  0.00     0.031 A 
ATOM     37  C   UNL A   1      41.860  27.930  29.464  1.00  0.00     0.074 A 
ATOM     38  C   UNL A   1      39.594  28.734  28.886  1.00  0.00     0.049 A 
ATOM     39  N   UNL A   1      42.310  28.937  30.169  1.00  0.00    -0.248 NA
ATOM     40  C   UNL A   1      42.812  26.813  29.340  1.00  0.00     0.031 C 
ATOM     41  C   UNL A   1      38.247  28.679  28.312  1.00  0.00     0.029 A 
ATOM     42  N   UNL A   1      39.645  29.962  29.495  1.00  0.00    -0.354 N 
ATOM     43  C   UNL A   1      43.579  28.564  30.594  1.00  0.00     0.074 A 
ATOM     44  C   UNL A   1      43.813  27.224  30.103  1.00  0.00     0.031 C 
ATOM     45  C   UNL A   1      37.612  29.834  28.571  1.00  0.00     0.029 A 
ATOM     46  C   UNL A   1      38.489  30.691  29.363  1.00  0.00     0.049 A 
ATOM     47  H   UNL A   1      40.436  30.290  29.980  1.00  0.00     0.167 HD
ATOM     48  C   UNL A   1      44.476  29.279  31.314  1.00  0.00     0.031 A 
ATOM     49  C   UNL A   1      38.168  31.911  29.833  1.00  0.00     0.031 A 
ATOM     50  C   UNL A   1      44.251  30.621  31.782  1.00  0.00     0.049 A 
ATOM     51  C   UNL A   1      39.180  32.677  30.638  1.00  0.00     0.074 A 
ATOM     52  C   UNL A   1      45.125  31.453  32.460  1.00  0.00     0.029 A 
ATOM     53  N   UNL A   1      43.069  31.325  31.620  1.00  0.00    -0.354 N 
ATOM     54  N   UNL A   1      40.403  32.339  30.967  1.00  0.00    -0.248 NA
ATOM     55  C   UNL A   1      38.769  34.002  31.125  1.00  0.00     0.031 C 
ATOM     56  C   UNL A   1      44.453  32.643  32.756  1.00  0.00     0.029 A 
ATOM     57  C   UNL A   1      43.182  32.575  32.208  1.00  0.00     0.049 A 
ATOM     58  H   UNL A   1      42.270  30.988  31.156  1.00  0.00     0.167 HD
ATOM     59  C   UNL A   1      40.920  33.425  31.665  1.00  0.00     0.074 A 
ATOM     60  C   UNL A   1      39.883  34.434  31.700  1.00  0.00     0.031 C 
ATOM     61  C   UNL A   1      42.146  33.573  32.222  1.00  0.00     0.031 A 
BRANCH  48  62
ATOM     62  C   UNL A   1      45.785  28.621  31.650  1.00  0.00    -0.014 A 
ATOM     63  C   UNL A   1      45.942  27.859  32.819  1.00  0.00     0.009 A 
ATOM     64  C   UNL A   1      46.865  28.724  30.759  1.00  0.00     0.009 A 
ATOM     65  C   UNL A   1      47.161  27.240  33.102  1.00  0.00     0.001 A 
ATOM     66  C   UNL A   1      48.072  28.080  31.030  1.00  0.00     0.001 A 
ATOM     67  C   UNL A   1      48.223  27.346  32.205  1.00  0.00     0.000 A 
ENDBRANCH  48  62
BRANCH  49  68
ATOM     68  C   UNL A   1      36.834  32.502  29.543  1.00  0.00    -0.014 A 
ATOM     69  C   UNL A   1      35.755  32.278  30.413  1.00  0.00     0.009 A 
ATOM     70  C   UNL A   1      36.623  33.265  28.385  1.00  0.00     0.009 A 
ATOM     71  C   UNL A   1      34.485  32.773  30.108  1.00  0.00     0.001 A 
ATOM     72  C   UNL A   1      35.359  33.786  28.099  1.00  0.00     0.001 A 
ATOM     73  C   UNL A   1      34.288  33.528  28.953  1.00  0.00     0.000 A 
ENDBRANCH  49  68
BRANCH  61  74
ATOM     74  C   UNL A   1      42.453  34.894  32.868  1.00  0.00    -0.014 A 
ATOM     75  C   UNL A   1      43.178  35.889  32.194  1.00  0.00     0.009 A 
ATOM     76  C   UNL A   1      41.976  35.157  34.162  1.00  0.00     0.009 A 
ATOM     77  C   UNL A   1      43.451  37.108  32.820  1.00  0.00     0.001 A 
ATOM     78  C   UNL A   1      42.222  36.387  34.772  1.00  0.00     0.001 A 
ATOM     79  C   UNL A   1      42.969  37.357  34.105  1.00  0.00     0.000 A 
ENDBRANCH  61  74
ENDBRANCH  35  36
ENDBRANCH  27  30
ENDBRANCH  25  26
ENDBRANCH  24  25
ENDBRANCH   1  24
TORSDOF 15
ENDMDL
MODEL 3
REMARK VINA RESULT:     -10.0      2.610      7.899
REMARK SMILES CC[N@@H+](Cc1cccc(C)n1)Cc1csc(C(=O)NCCCNC(=O)c2ccc(-c3c4nc(c(-c5ccccc5)c5ccc([nH]5)c(-c5ccccc5)c5nc(c(-c6ccccc6)c6ccc3[nH]6)C=C5)C=C4)cc2)n1
REMARK SMILES IDX 20 1 19 2 17 3 18 4 16 6 13 7 14 8 74 9 15 10 12 11 3 12
REMARK SMILES IDX 2 14 1 15 4 16 5 17 6 18 11 19 7 20 9 21 8 22 10 23 21 24
REMARK SMILES IDX 22 25 23 26 24 27 25 29 26 30 27 31 73 32 28 33 72 34 29 35
REMARK SMILES IDX 30 36 31 37 66 38 32 39 71 40 65 41 67 42 33 43 70 44 64 45
REMARK SMILES IDX 63 46 34 48 56 49 41 50 55 51 42 52 45 53 54 54 68 55 43 56
REMARK SMILES IDX 44 57 53 59 69 60 46 61 35 62 36 63 40 64 37 65 39 66 38 67
REMARK SMILES IDX 57 68 58 69 62 70 59 71 61 72 60 73 47 74 48 75 52 76 49 77
REMARK SMILES IDX 51 78 50 79
REMARK H PARENT 19 5 3 13 23 28 67 47 45 58
REMARK Flexibility Score: inf
ROOT
ATOM      1  C   UNL A   1      35.172  22.521  25.901  1.00  0.00     0.118 C 
ENDROOT
BRANCH   1   2
ATOM      2  N   UNL A   1      34.378  22.386  27.110  1.00  0.00    -0.350 N 
ATOM      3  C   UNL A   1      33.069  22.761  27.354  1.00  0.00     0.280 C 
ATOM      4  O   UNL A   1      32.632  22.470  28.476  1.00  0.00    -0.267 OA
ATOM      5  H   UNL A   1      34.841  21.966  27.870  1.00  0.00     0.163 HD
BRANCH   3   6
ATOM      6  C   UNL A   1      32.282  23.428  26.319  1.00  0.00     0.181 A 
ATOM      7  C   UNL A   1      31.647  24.978  24.857  1.00  0.00     0.106 A 
ATOM      8  C   UNL A   1      30.829  23.940  24.449  1.00  0.00     0.097 A 
ATOM      9  N   UNL A   1      32.421  24.692  25.970  1.00  0.00    -0.230 NA
ATOM     10  S   UNL A   1      31.091  22.562  25.434  1.00  0.00    -0.117 S 
BRANCH   7  11
ATOM     11  C   UNL A   1      31.753  26.345  24.248  1.00  0.00     0.320 C 
BRANCH  11  12
ATOM     12  N   UNL A   1      33.104  26.697  23.752  1.00  0.00    -0.325 N 
ATOM     13  H   UNL A   1      33.722  26.276  24.445  1.00  0.00     0.348 HD
BRANCH  12  14
ATOM     14  C   UNL A   1      33.440  26.108  22.446  1.00  0.00     0.259 C 
ATOM     15  C   UNL A   1      32.240  25.992  21.513  1.00  0.00     0.071 C 
ENDBRANCH  12  14
BRANCH  12  16
ATOM     16  C   UNL A   1      33.362  28.155  23.726  1.00  0.00     0.319 C 
BRANCH  16  17
ATOM     17  C   UNL A   1      33.337  28.858  25.073  1.00  0.00     0.095 A 
ATOM     18  C   UNL A   1      34.237  28.524  26.082  1.00  0.00     0.030 A 
ATOM     19  N   UNL A   1      32.424  29.853  25.222  1.00  0.00    -0.252 NA
ATOM     20  C   UNL A   1      34.153  29.179  27.304  1.00  0.00     0.004 A 
ATOM     21  C   UNL A   1      32.388  30.516  26.402  1.00  0.00     0.038 A 
ATOM     22  C   UNL A   1      33.219  30.193  27.468  1.00  0.00     0.023 A 
ATOM     23  C   UNL A   1      31.441  31.676  26.491  1.00  0.00     0.067 C 
ENDBRANCH  16  17
ENDBRANCH  12  16
ENDBRANCH  11  12
ENDBRANCH   7  11
ENDBRANCH   3   6
ENDBRANCH   1   2
BRANCH   1  24
ATOM     24  C   UNL A   1      36.120  23.714  25.966  1.00  0.00     0.042 C 
BRANCH  24  25
ATOM     25  C   UNL A   1      37.280  23.606  24.979  1.00  0.00     0.118 C 
BRANCH  25  26
ATOM     26  N   UNL A   1      38.276  22.627  25.402  1.00  0.00    -0.352 N 
ATOM     27  C   UNL A   1      39.452  22.790  26.085  1.00  0.00     0.251 C 
ATOM     28  H   UNL A   1      38.070  21.697  25.154  1.00  0.00     0.163 HD
ATOM     29  O   UNL A   1      40.238  21.847  26.166  1.00  0.00    -0.269 OA
BRANCH  27  30
ATOM     30  C   UNL A   1      39.789  24.080  26.718  1.00  0.00     0.039 A 
ATOM     31  C   UNL A   1      39.459  24.275  28.063  1.00  0.00     0.014 A 
ATOM     32  C   UNL A   1      40.381  25.114  25.988  1.00  0.00     0.014 A 
ATOM     33  C   UNL A   1      39.765  25.485  28.686  1.00  0.00     0.010 A 
ATOM     34  C   UNL A   1      40.756  26.291  26.630  1.00  0.00     0.010 A 
ATOM     35  C   UNL A   1      40.441  26.494  27.982  1.00  0.00    -0.014 A 
BRANCH  35  36
ATOM     36  C   UNL A   1      40.815  27.772  28.637  1.00  0.00     0.031 A 
ATOM     37  C   UNL A   1      39.787  28.856  28.822  1.00  0.00     0.074 A 
ATOM     38  C   UNL A   1      42.092  27.982  29.011  1.00  0.00     0.049 A 
ATOM     39  N   UNL A   1      39.935  30.059  29.315  1.00  0.00    -0.248 NA
ATOM     40  C   UNL A   1      38.416  28.557  28.372  1.00  0.00     0.031 C 
ATOM     41  C   UNL A   1      43.190  27.024  28.859  1.00  0.00     0.029 A 
ATOM     42  N   UNL A   1      42.683  29.074  29.594  1.00  0.00    -0.354 N 
ATOM     43  C   UNL A   1      38.690  30.667  29.208  1.00  0.00     0.074 A 
ATOM     44  C   UNL A   1      37.808  29.717  28.568  1.00  0.00     0.031 C 
ATOM     45  C   UNL A   1      44.313  27.560  29.363  1.00  0.00     0.029 A 
ATOM     46  C   UNL A   1      44.026  28.911  29.835  1.00  0.00     0.049 A 
ATOM     47  H   UNL A   1      42.192  29.897  29.819  1.00  0.00     0.167 HD
ATOM     48  C   UNL A   1      38.310  31.900  29.622  1.00  0.00     0.031 A 
ATOM     49  C   UNL A   1      44.926  29.757  30.369  1.00  0.00     0.031 A 
ATOM     50  C   UNL A   1      39.182  32.835  30.281  1.00  0.00     0.049 A 
ATOM     51  C   UNL A   1      44.477  31.123  30.810  1.00  0.00     0.074 A 
ATOM     52  C   UNL A   1      38.873  34.082  30.798  1.00  0.00     0.029 A 
ATOM     53  N   UNL A   1      40.532  32.628  30.511  1.00  0.00    -0.354 N 
ATOM     54  N   UNL A   1      43.279  31.654  30.770  1.00  0.00    -0.248 NA
ATOM     55  C   UNL A   1      45.507  32.002  31.383  1.00  0.00     0.031 C 
ATOM     56  C   UNL A   1      40.049  34.651  31.295  1.00  0.00     0.029 A 
ATOM     57  C   UNL A   1      41.076  33.734  31.143  1.00  0.00     0.049 A 
ATOM     58  H   UNL A   1      41.029  31.815  30.265  1.00  0.00     0.167 HD
ATOM     59  C   UNL A   1      43.405  32.911  31.347  1.00  0.00     0.074 A 
ATOM     60  C   UNL A   1      44.790  33.058  31.740  1.00  0.00     0.031 C 
ATOM     61  C   UNL A   1      42.454  33.858  31.539  1.00  0.00     0.031 A 
BRANCH  48  62
ATOM     62  C   UNL A   1      36.888  32.314  29.366  1.00  0.00    -0.014 A 
ATOM     63  C   UNL A   1      35.879  32.094  30.318  1.00  0.00     0.009 A 
ATOM     64  C   UNL A   1      36.560  32.980  28.175  1.00  0.00     0.009 A 
ATOM     65  C   UNL A   1      34.568  32.504  30.069  1.00  0.00     0.001 A 
ATOM     66  C   UNL A   1      35.256  33.415  27.940  1.00  0.00     0.001 A 
ATOM     67  C   UNL A   1      34.259  33.170  28.883  1.00  0.00     0.000 A 
ENDBRANCH  48  62
BRANCH  49  68
ATOM     68  C   UNL A   1      46.343  29.340  30.539  1.00  0.00    -0.014 A 
ATOM     69  C   UNL A   1      47.271  29.545  29.507  1.00  0.00     0.009 A 
ATOM     70  C   UNL A   1      46.769  28.708  31.718  1.00  0.00     0.009 A 
ATOM     71  C   UNL A   1      48.586  29.092  29.636  1.00  0.00     0.001 A 
ATOM     72  C   UNL A   1      48.092  28.284  31.856  1.00  0.00     0.001 A 
ATOM     73  C   UNL A   1      48.997  28.464  30.811  1.00  0.00     0.000 A 
ENDBRANCH  49  68
BRANCH  61  74
ATOM     74  C   UNL A   1      42.868  35.113  32.255  1.00  0.00    -0.014 A 
ATOM     75  C   UNL A   1      43.482  36.177  31.575  1.00  0.00     0.009 A 
ATOM     76  C   UNL A   1      42.605  35.243  33.628  1.00  0.00     0.009 A 
ATOM     77  C   UNL A   1      43.857  37.331  32.267  1.00  0.00     0.001 A 
ATOM     78  C   UNL A   1      42.952  36.409  34.309  1.00  0.00     0.001 A 
ATOM     79  C   UNL A   1      43.588  37.448  33.630  1.00  0.00     0.000 A 
ENDBRANCH  61  74
ENDBRANCH  35  36
ENDBRANCH  27  30
ENDBRANCH  25  26
ENDBRANCH  24  25
ENDBRANCH   1  24
TORSDOF 15
ENDMDL
