MODEL 1
REMARK VINA RESULT:     -10.8      0.000      0.000
REMARK SMILES C[C@H]1C[C@@H]1C(=O)NC[C@@H]1CC[C@H](C(=O)NCCCNC(=O)c2ccc(-c3c4nc(c(-c5ccccc5)c5ccc([nH]5)c(-c5ccccc5)c5nc(c(-c6ccccc6)c6ccc3[nH]6)C=C5)C=C4)cc2)O1
REMARK SMILES IDX 16 1 15 2 13 3 14 4 12 6 9 7 10 8 70 9 11 10 8 11 7 12 5 13
REMARK SMILES IDX 6 14 4 16 1 17 2 18 3 19 17 20 18 21 19 22 20 23 21 25 22 26
REMARK SMILES IDX 23 27 69 28 24 29 68 30 25 31 26 32 27 33 62 34 28 35 67 36
REMARK SMILES IDX 61 37 63 38 29 39 66 40 60 41 59 42 30 44 52 45 37 46 51 47
REMARK SMILES IDX 38 48 41 49 50 50 64 51 39 52 40 53 49 55 65 56 42 57 31 58
REMARK SMILES IDX 32 59 36 60 33 61 35 62 34 63 53 64 54 65 58 66 55 67 57 68
REMARK SMILES IDX 56 69 43 70 44 71 48 72 45 73 47 74 46 75
REMARK H PARENT 15 5 7 15 19 24 63 43 41 54
REMARK Flexibility Score: inf
ROOT
ATOM      1  C   UNL A   1      36.701  20.988  24.943  1.00  0.00     0.117 C 
ENDROOT
BRANCH   1   2
ATOM      2  N   UNL A   1      35.356  20.467  24.960  1.00  0.00    -0.354 N 
ATOM      3  C   UNL A   1      34.181  21.096  24.666  1.00  0.00     0.249 C 
ATOM      4  O   UNL A   1      33.153  20.414  24.697  1.00  0.00    -0.272 OA
ATOM      5  H   UNL A   1      35.273  19.522  25.222  1.00  0.00     0.163 HD
BRANCH   3   6
ATOM      6  C   UNL A   1      34.117  22.612  24.363  1.00  0.00     0.207 C 
ATOM      7  C   UNL A   1      32.459  24.101  23.623  1.00  0.00     0.138 C 
ATOM      8  C   UNL A   1      33.158  23.582  22.379  1.00  0.00     0.037 C 
ATOM      9  O   UNL A   1      32.891  23.252  24.709  1.00  0.00    -0.363 OA
ATOM     10  C   UNL A   1      34.426  22.951  22.913  1.00  0.00     0.045 C 
BRANCH   7  11
ATOM     11  C   UNL A   1      30.913  24.134  23.632  1.00  0.00     0.147 C 
BRANCH  11  12
ATOM     12  N   UNL A   1      30.256  24.219  24.928  1.00  0.00    -0.353 N 
ATOM     13  C   UNL A   1      30.180  25.263  25.812  1.00  0.00     0.223 C 
ATOM     14  O   UNL A   1      29.456  25.162  26.801  1.00  0.00    -0.275 OA
ATOM     15  H   UNL A   1      29.795  23.397  25.213  1.00  0.00     0.163 HD
BRANCH  13  16
ATOM     16  C   UNL A   1      31.048  26.459  25.661  1.00  0.00     0.081 C 
ATOM     17  C   UNL A   1      33.597  27.065  25.588  1.00  0.00     0.008 C 
ATOM     18  C   UNL A   1      32.417  26.509  26.315  1.00  0.00    -0.001 C 
ATOM     19  C   UNL A   1      31.339  27.445  26.767  1.00  0.00     0.018 C 
ENDBRANCH  13  16
ENDBRANCH  11  12
ENDBRANCH   7  11
ENDBRANCH   3   6
ENDBRANCH   1   2
BRANCH   1  20
ATOM     20  C   UNL A   1      37.752  19.891  25.036  1.00  0.00     0.042 C 
BRANCH  20  21
ATOM     21  C   UNL A   1      38.995  20.339  25.785  1.00  0.00     0.118 C 
BRANCH  21  22
ATOM     22  N   UNL A   1      40.030  19.306  25.813  1.00  0.00    -0.352 N 
ATOM     23  C   UNL A   1      41.383  19.422  26.022  1.00  0.00     0.251 C 
ATOM     24  H   UNL A   1      39.709  18.389  25.658  1.00  0.00     0.163 HD
ATOM     25  O   UNL A   1      42.127  18.467  25.827  1.00  0.00    -0.269 OA
BRANCH  23  26
ATOM     26  C   UNL A   1      41.939  20.692  26.519  1.00  0.00     0.039 A 
ATOM     27  C   UNL A   1      42.059  20.917  27.893  1.00  0.00     0.014 A 
ATOM     28  C   UNL A   1      42.298  21.680  25.603  1.00  0.00     0.014 A 
ATOM     29  C   UNL A   1      42.584  22.129  28.347  1.00  0.00     0.010 A 
ATOM     30  C   UNL A   1      42.913  22.835  26.048  1.00  0.00     0.010 A 
ATOM     31  C   UNL A   1      43.032  23.085  27.424  1.00  0.00    -0.014 A 
BRANCH  31  32
ATOM     32  C   UNL A   1      43.562  24.408  27.821  1.00  0.00     0.031 A 
ATOM     33  C   UNL A   1      42.584  25.475  28.234  1.00  0.00     0.074 A 
ATOM     34  C   UNL A   1      44.869  24.687  27.670  1.00  0.00     0.049 A 
ATOM     35  N   UNL A   1      42.763  26.763  28.354  1.00  0.00    -0.248 NA
ATOM     36  C   UNL A   1      41.200  25.032  28.488  1.00  0.00     0.031 C 
ATOM     37  C   UNL A   1      45.901  23.735  27.255  1.00  0.00     0.029 A 
ATOM     38  N   UNL A   1      45.544  25.871  27.813  1.00  0.00    -0.354 N 
ATOM     39  C   UNL A   1      41.512  27.287  28.654  1.00  0.00     0.074 A 
ATOM     40  C   UNL A   1      40.573  26.187  28.645  1.00  0.00     0.031 C 
ATOM     41  C   UNL A   1      47.079  24.375  27.176  1.00  0.00     0.029 A 
ATOM     42  C   UNL A   1      46.874  25.787  27.480  1.00  0.00     0.049 A 
ATOM     43  H   UNL A   1      45.116  26.702  28.125  1.00  0.00     0.167 HD
ATOM     44  C   UNL A   1      41.178  28.569  28.928  1.00  0.00     0.031 A 
ATOM     45  C   UNL A   1      47.811  26.750  27.401  1.00  0.00     0.031 A 
ATOM     46  C   UNL A   1      42.129  29.645  28.960  1.00  0.00     0.049 A 
ATOM     47  C   UNL A   1      47.418  28.169  27.715  1.00  0.00     0.074 A 
ATOM     48  C   UNL A   1      41.919  30.975  29.273  1.00  0.00     0.029 A 
ATOM     49  N   UNL A   1      43.481  29.504  28.679  1.00  0.00    -0.354 N 
ATOM     50  N   UNL A   1      46.238  28.650  28.030  1.00  0.00    -0.248 NA
ATOM     51  C   UNL A   1      48.487  29.175  27.676  1.00  0.00     0.031 C 
ATOM     52  C   UNL A   1      43.137  31.648  29.142  1.00  0.00     0.029 A 
ATOM     53  C   UNL A   1      44.116  30.725  28.807  1.00  0.00     0.049 A 
ATOM     54  H   UNL A   1      43.921  28.660  28.426  1.00  0.00     0.167 HD
ATOM     55  C   UNL A   1      46.431  30.005  28.266  1.00  0.00     0.074 A 
ATOM     56  C   UNL A   1      47.842  30.267  28.064  1.00  0.00     0.031 C 
ATOM     57  C   UNL A   1      45.526  30.948  28.623  1.00  0.00     0.031 A 
BRANCH  44  58
ATOM     58  C   UNL A   1      39.733  28.868  29.218  1.00  0.00    -0.014 A 
ATOM     59  C   UNL A   1      38.857  29.284  28.203  1.00  0.00     0.009 A 
ATOM     60  C   UNL A   1      39.232  28.707  30.519  1.00  0.00     0.009 A 
ATOM     61  C   UNL A   1      37.521  29.569  28.492  1.00  0.00     0.001 A 
ATOM     62  C   UNL A   1      37.888  28.961  30.799  1.00  0.00     0.001 A 
ATOM     63  C   UNL A   1      37.037  29.402  29.788  1.00  0.00     0.000 A 
ENDBRANCH  44  58
BRANCH  45  64
ATOM     64  C   UNL A   1      49.205  26.409  27.013  1.00  0.00    -0.014 A 
ATOM     65  C   UNL A   1      50.118  25.954  27.977  1.00  0.00     0.009 A 
ATOM     66  C   UNL A   1      49.633  26.537  25.683  1.00  0.00     0.009 A 
ATOM     67  C   UNL A   1      51.438  25.666  27.623  1.00  0.00     0.001 A 
ATOM     68  C   UNL A   1      50.945  26.219  25.326  1.00  0.00     0.001 A 
ATOM     69  C   UNL A   1      51.850  25.796  26.297  1.00  0.00     0.000 A 
ENDBRANCH  45  64
BRANCH  57  70
ATOM     70  C   UNL A   1      46.042  32.332  28.888  1.00  0.00    -0.014 A 
ATOM     71  C   UNL A   1      46.079  33.307  27.881  1.00  0.00     0.009 A 
ATOM     72  C   UNL A   1      46.428  32.681  30.193  1.00  0.00     0.009 A 
ATOM     73  C   UNL A   1      46.519  34.601  28.171  1.00  0.00     0.001 A 
ATOM     74  C   UNL A   1      46.838  33.980  30.486  1.00  0.00     0.001 A 
ATOM     75  C   UNL A   1      46.891  34.937  29.474  1.00  0.00     0.000 A 
ENDBRANCH  57  70
ENDBRANCH  31  32
ENDBRANCH  23  26
ENDBRANCH  21  22
ENDBRANCH  20  21
ENDBRANCH   1  20
TORSDOF 13
ENDMDL
MODEL 2
REMARK VINA RESULT:     -10.7      2.376      7.692
REMARK SMILES C[C@H]1C[C@@H]1C(=O)NC[C@@H]1CC[C@H](C(=O)NCCCNC(=O)c2ccc(-c3c4nc(c(-c5ccccc5)c5ccc([nH]5)c(-c5ccccc5)c5nc(c(-c6ccccc6)c6ccc3[nH]6)C=C5)C=C4)cc2)O1
REMARK SMILES IDX 16 1 15 2 13 3 14 4 12 6 9 7 10 8 70 9 11 10 8 11 7 12 5 13
REMARK SMILES IDX 6 14 4 16 1 17 2 18 3 19 17 20 18 21 19 22 20 23 21 25 22 26
REMARK SMILES IDX 23 27 69 28 24 29 68 30 25 31 26 32 27 33 62 34 28 35 67 36
REMARK SMILES IDX 61 37 63 38 29 39 66 40 60 41 59 42 30 44 52 45 37 46 51 47
REMARK SMILES IDX 38 48 41 49 50 50 64 51 39 52 40 53 49 55 65 56 42 57 31 58
REMARK SMILES IDX 32 59 36 60 33 61 35 62 34 63 53 64 54 65 58 66 55 67 57 68
REMARK SMILES IDX 56 69 43 70 44 71 48 72 45 73 47 74 46 75
REMARK H PARENT 15 5 7 15 19 24 63 43 41 54
REMARK Flexibility Score: inf
ROOT
ATOM      1  C   UNL A   1      32.384  29.542  25.498  1.00  0.00     0.117 C 
ENDROOT
BRANCH   1   2
ATOM      2  N   UNL A   1      33.253  29.363  24.360  1.00  0.00    -0.354 N 
ATOM      3  C   UNL A   1      33.169  28.458  23.343  1.00  0.00     0.249 C 
ATOM      4  O   UNL A   1      34.009  28.541  22.443  1.00  0.00    -0.272 OA
ATOM      5  H   UNL A   1      34.016  29.982  24.311  1.00  0.00     0.163 HD
BRANCH   3   6
ATOM      6  C   UNL A   1      32.109  27.331  23.334  1.00  0.00     0.207 C 
ATOM      7  C   UNL A   1      32.161  24.985  23.416  1.00  0.00     0.138 C 
ATOM      8  C   UNL A   1      32.198  25.366  21.946  1.00  0.00     0.037 C 
ATOM      9  O   UNL A   1      32.411  26.202  24.152  1.00  0.00    -0.363 OA
ATOM     10  C   UNL A   1      31.783  26.821  21.939  1.00  0.00     0.045 C 
BRANCH   7  11
ATOM     11  C   UNL A   1      33.157  23.914  23.918  1.00  0.00     0.147 C 
BRANCH  11  12
ATOM     12  N   UNL A   1      34.287  23.600  23.055  1.00  0.00    -0.353 N 
ATOM     13  C   UNL A   1      35.591  23.324  23.374  1.00  0.00     0.223 C 
ATOM     14  O   UNL A   1      36.361  22.953  22.490  1.00  0.00    -0.275 OA
ATOM     15  H   UNL A   1      34.082  23.584  22.092  1.00  0.00     0.163 HD
BRANCH  13  16
ATOM     16  C   UNL A   1      36.117  23.583  24.739  1.00  0.00     0.081 C 
ATOM     17  C   UNL A   1      38.311  23.212  26.124  1.00  0.00     0.008 C 
ATOM     18  C   UNL A   1      37.155  22.663  25.356  1.00  0.00    -0.001 C 
ATOM     19  C   UNL A   1      35.783  22.749  25.952  1.00  0.00     0.018 C 
ENDBRANCH  13  16
ENDBRANCH  11  12
ENDBRANCH   7  11
ENDBRANCH   3   6
ENDBRANCH   1   2
BRANCH   1  20
ATOM     20  C   UNL A   1      32.750  28.630  26.660  1.00  0.00     0.042 C 
BRANCH  20  21
ATOM     21  C   UNL A   1      34.085  28.993  27.287  1.00  0.00     0.118 C 
BRANCH  21  22
ATOM     22  N   UNL A   1      34.065  30.316  27.911  1.00  0.00    -0.352 N 
ATOM     23  C   UNL A   1      34.990  30.916  28.730  1.00  0.00     0.251 C 
ATOM     24  H   UNL A   1      33.266  30.857  27.716  1.00  0.00     0.163 HD
ATOM     25  O   UNL A   1      34.721  31.962  29.312  1.00  0.00    -0.269 OA
BRANCH  23  26
ATOM     26  C   UNL A   1      36.328  30.320  28.880  1.00  0.00     0.039 A 
ATOM     27  C   UNL A   1      36.703  29.728  30.089  1.00  0.00     0.014 A 
ATOM     28  C   UNL A   1      37.228  30.397  27.817  1.00  0.00     0.014 A 
ATOM     29  C   UNL A   1      37.978  29.172  30.215  1.00  0.00     0.010 A 
ATOM     30  C   UNL A   1      38.449  29.756  27.907  1.00  0.00     0.010 A 
ATOM     31  C   UNL A   1      38.849  29.166  29.115  1.00  0.00    -0.014 A 
BRANCH  31  32
ATOM     32  C   UNL A   1      40.228  28.635  29.178  1.00  0.00     0.031 A 
ATOM     33  C   UNL A   1      41.354  29.597  29.444  1.00  0.00     0.074 A 
ATOM     34  C   UNL A   1      40.474  27.352  28.855  1.00  0.00     0.049 A 
ATOM     35  N   UNL A   1      42.639  29.438  29.274  1.00  0.00    -0.248 NA
ATOM     36  C   UNL A   1      40.969  30.943  29.908  1.00  0.00     0.031 C 
ATOM     37  C   UNL A   1      39.462  26.338  28.558  1.00  0.00     0.029 A 
ATOM     38  N   UNL A   1      41.665  26.695  28.686  1.00  0.00    -0.354 N 
ATOM     39  C   UNL A   1      43.209  30.671  29.568  1.00  0.00     0.074 A 
ATOM     40  C   UNL A   1      42.128  31.581  29.874  1.00  0.00     0.031 C 
ATOM     41  C   UNL A   1      40.076  25.186  28.241  1.00  0.00     0.029 A 
ATOM     42  C   UNL A   1      41.519  25.397  28.260  1.00  0.00     0.049 A 
ATOM     43  H   UNL A   1      42.541  27.113  28.854  1.00  0.00     0.167 HD
ATOM     44  C   UNL A   1      44.519  31.009  29.597  1.00  0.00     0.031 A 
ATOM     45  C   UNL A   1      42.448  24.493  27.897  1.00  0.00     0.031 A 
ATOM     46  C   UNL A   1      45.581  30.084  29.317  1.00  0.00     0.049 A 
ATOM     47  C   UNL A   1      43.899  24.890  27.941  1.00  0.00     0.074 A 
ATOM     48  C   UNL A   1      46.946  30.297  29.362  1.00  0.00     0.029 A 
ATOM     49  N   UNL A   1      45.390  28.759  28.953  1.00  0.00    -0.354 N 
ATOM     50  N   UNL A   1      44.431  26.049  28.252  1.00  0.00    -0.248 NA
ATOM     51  C   UNL A   1      44.879  23.851  27.597  1.00  0.00     0.031 C 
ATOM     52  C   UNL A   1      47.582  29.110  28.985  1.00  0.00     0.029 A 
ATOM     53  C   UNL A   1      46.614  28.143  28.764  1.00  0.00     0.049 A 
ATOM     54  H   UNL A   1      44.514  28.323  28.843  1.00  0.00     0.167 HD
ATOM     55  C   UNL A   1      45.805  25.867  28.181  1.00  0.00     0.074 A 
ATOM     56  C   UNL A   1      46.025  24.485  27.803  1.00  0.00     0.031 C 
ATOM     57  C   UNL A   1      46.799  26.759  28.412  1.00  0.00     0.031 A 
BRANCH  44  58
ATOM     58  C   UNL A   1      44.866  32.430  29.946  1.00  0.00    -0.014 A 
ATOM     59  C   UNL A   1      45.083  32.821  31.277  1.00  0.00     0.009 A 
ATOM     60  C   UNL A   1      45.003  33.387  28.929  1.00  0.00     0.009 A 
ATOM     61  C   UNL A   1      45.392  34.148  31.585  1.00  0.00     0.001 A 
ATOM     62  C   UNL A   1      45.346  34.705  29.236  1.00  0.00     0.001 A 
ATOM     63  C   UNL A   1      45.529  35.087  30.565  1.00  0.00     0.000 A 
ENDBRANCH  44  58
BRANCH  45  64
ATOM     64  C   UNL A   1      42.038  23.130  27.467  1.00  0.00    -0.014 A 
ATOM     65  C   UNL A   1      42.005  22.796  26.105  1.00  0.00     0.009 A 
ATOM     66  C   UNL A   1      41.675  22.158  28.412  1.00  0.00     0.009 A 
ATOM     67  C   UNL A   1      41.587  21.528  25.696  1.00  0.00     0.001 A 
ATOM     68  C   UNL A   1      41.287  20.880  28.001  1.00  0.00     0.001 A 
ATOM     69  C   UNL A   1      41.232  20.569  26.644  1.00  0.00     0.000 A 
ENDBRANCH  45  64
BRANCH  57  70
ATOM     70  C   UNL A   1      48.210  26.255  28.334  1.00  0.00    -0.014 A 
ATOM     71  C   UNL A   1      48.856  25.706  29.450  1.00  0.00     0.009 A 
ATOM     72  C   UNL A   1      48.874  26.267  27.096  1.00  0.00     0.009 A 
ATOM     73  C   UNL A   1      50.153  25.202  29.334  1.00  0.00     0.001 A 
ATOM     74  C   UNL A   1      50.157  25.736  26.976  1.00  0.00     0.001 A 
ATOM     75  C   UNL A   1      50.799  25.210  28.095  1.00  0.00     0.000 A 
ENDBRANCH  57  70
ENDBRANCH  31  32
ENDBRANCH  23  26
ENDBRANCH  21  22
ENDBRANCH  20  21
ENDBRANCH   1  20
TORSDOF 13
ENDMDL
MODEL 3
REMARK VINA RESULT:     -10.7      2.529      7.409
REMARK SMILES C[C@H]1C[C@@H]1C(=O)NC[C@@H]1CC[C@H](C(=O)NCCCNC(=O)c2ccc(-c3c4nc(c(-c5ccccc5)c5ccc([nH]5)c(-c5ccccc5)c5nc(c(-c6ccccc6)c6ccc3[nH]6)C=C5)C=C4)cc2)O1
REMARK SMILES IDX 16 1 15 2 13 3 14 4 12 6 9 7 10 8 70 9 11 10 8 11 7 12 5 13
REMARK SMILES IDX 6 14 4 16 1 17 2 18 3 19 17 20 18 21 19 22 20 23 21 25 22 26
REMARK SMILES IDX 23 27 69 28 24 29 68 30 25 31 26 32 27 33 62 34 28 35 67 36
REMARK SMILES IDX 61 37 63 38 29 39 66 40 60 41 59 42 30 44 52 45 37 46 51 47
REMARK SMILES IDX 38 48 41 49 50 50 64 51 39 52 40 53 49 55 65 56 42 57 31 58
REMARK SMILES IDX 32 59 36 60 33 61 35 62 34 63 53 64 54 65 58 66 55 67 57 68
REMARK SMILES IDX 56 69 43 70 44 71 48 72 45 73 47 74 46 75
REMARK H PARENT 15 5 7 15 19 24 63 43 41 54
REMARK Flexibility Score: inf
ROOT
ATOM      1  C   UNL A   1      33.386  28.794  24.862  1.00  0.00     0.117 C 
ENDROOT
BRANCH   1   2
ATOM      2  N   UNL A   1      33.828  28.237  23.607  1.00  0.00    -0.354 N 
ATOM      3  C   UNL A   1      33.103  27.614  22.633  1.00  0.00     0.249 C 
ATOM      4  O   UNL A   1      33.706  27.272  21.612  1.00  0.00    -0.272 OA
ATOM      5  H   UNL A   1      34.793  28.316  23.428  1.00  0.00     0.163 HD
BRANCH   3   6
ATOM      6  C   UNL A   1      31.601  27.292  22.811  1.00  0.00     0.207 C 
ATOM      7  C   UNL A   1      30.289  26.308  24.492  1.00  0.00     0.138 C 
ATOM      8  C   UNL A   1      30.725  25.182  23.571  1.00  0.00     0.037 C 
ATOM      9  O   UNL A   1      31.095  27.452  24.135  1.00  0.00    -0.363 OA
ATOM     10  C   UNL A   1      31.222  25.898  22.335  1.00  0.00     0.045 C 
BRANCH   7  11
ATOM     11  C   UNL A   1      30.419  26.094  26.019  1.00  0.00     0.147 C 
BRANCH  11  12
ATOM     12  N   UNL A   1      30.440  24.720  26.499  1.00  0.00    -0.353 N 
ATOM     13  C   UNL A   1      31.500  23.926  26.855  1.00  0.00     0.223 C 
ATOM     14  O   UNL A   1      31.283  22.828  27.363  1.00  0.00    -0.275 OA
ATOM     15  H   UNL A   1      29.556  24.296  26.580  1.00  0.00     0.163 HD
BRANCH  13  16
ATOM     16  C   UNL A   1      32.895  24.315  26.524  1.00  0.00     0.081 C 
ATOM     17  C   UNL A   1      34.393  24.727  24.414  1.00  0.00     0.008 C 
ATOM     18  C   UNL A   1      33.556  23.818  25.252  1.00  0.00    -0.001 C 
ATOM     19  C   UNL A   1      34.077  23.379  26.586  1.00  0.00     0.018 C 
ENDBRANCH  13  16
ENDBRANCH  11  12
ENDBRANCH   7  11
ENDBRANCH   3   6
ENDBRANCH   1   2
BRANCH   1  20
ATOM     20  C   UNL A   1      34.386  28.567  25.986  1.00  0.00     0.042 C 
BRANCH  20  21
ATOM     21  C   UNL A   1      33.775  28.782  27.360  1.00  0.00     0.118 C 
BRANCH  21  22
ATOM     22  N   UNL A   1      33.808  30.186  27.769  1.00  0.00    -0.352 N 
ATOM     23  C   UNL A   1      34.774  30.880  28.457  1.00  0.00     0.251 C 
ATOM     24  H   UNL A   1      33.017  30.713  27.515  1.00  0.00     0.163 HD
ATOM     25  O   UNL A   1      34.550  32.010  28.875  1.00  0.00    -0.269 OA
BRANCH  23  26
ATOM     26  C   UNL A   1      36.101  30.276  28.659  1.00  0.00     0.039 A 
ATOM     27  C   UNL A   1      36.433  29.703  29.890  1.00  0.00     0.014 A 
ATOM     28  C   UNL A   1      37.035  30.326  27.624  1.00  0.00     0.014 A 
ATOM     29  C   UNL A   1      37.699  29.139  30.066  1.00  0.00     0.010 A 
ATOM     30  C   UNL A   1      38.247  29.677  27.764  1.00  0.00     0.010 A 
ATOM     31  C   UNL A   1      38.604  29.106  28.995  1.00  0.00    -0.014 A 
BRANCH  31  32
ATOM     32  C   UNL A   1      39.975  28.565  29.111  1.00  0.00     0.031 A 
ATOM     33  C   UNL A   1      41.097  29.519  29.418  1.00  0.00     0.074 A 
ATOM     34  C   UNL A   1      40.225  27.280  28.798  1.00  0.00     0.049 A 
ATOM     35  N   UNL A   1      42.387  29.351  29.298  1.00  0.00    -0.248 NA
ATOM     36  C   UNL A   1      40.705  30.869  29.866  1.00  0.00     0.031 C 
ATOM     37  C   UNL A   1      39.217  26.273  28.464  1.00  0.00     0.029 A 
ATOM     38  N   UNL A   1      41.417  26.615  28.675  1.00  0.00    -0.354 N 
ATOM     39  C   UNL A   1      42.954  30.581  29.613  1.00  0.00     0.074 A 
ATOM     40  C   UNL A   1      41.868  31.498  29.877  1.00  0.00     0.031 C 
ATOM     41  C   UNL A   1      39.834  25.117  28.172  1.00  0.00     0.029 A 
ATOM     42  C   UNL A   1      41.278  25.317  28.246  1.00  0.00     0.049 A 
ATOM     43  H   UNL A   1      42.288  27.027  28.876  1.00  0.00     0.167 HD
ATOM     44  C   UNL A   1      44.264  30.909  29.691  1.00  0.00     0.031 A 
ATOM     45  C   UNL A   1      42.213  24.407  27.919  1.00  0.00     0.031 A 
ATOM     46  C   UNL A   1      45.330  29.976  29.452  1.00  0.00     0.049 A 
ATOM     47  C   UNL A   1      43.664  24.793  28.017  1.00  0.00     0.074 A 
ATOM     48  C   UNL A   1      46.694  30.180  29.549  1.00  0.00     0.029 A 
ATOM     49  N   UNL A   1      45.143  28.652  29.082  1.00  0.00    -0.354 N 
ATOM     50  N   UNL A   1      44.192  25.948  28.348  1.00  0.00    -0.248 NA
ATOM     51  C   UNL A   1      44.649  23.747  27.712  1.00  0.00     0.031 C 
ATOM     52  C   UNL A   1      47.335  28.988  29.198  1.00  0.00     0.029 A 
ATOM     53  C   UNL A   1      46.369  28.028  28.941  1.00  0.00     0.049 A 
ATOM     54  H   UNL A   1      44.268  28.222  28.940  1.00  0.00     0.167 HD
ATOM     55  C   UNL A   1      45.567  25.757  28.330  1.00  0.00     0.074 A 
ATOM     56  C   UNL A   1      45.791  24.373  27.961  1.00  0.00     0.031 C 
ATOM     57  C   UNL A   1      46.557  26.642  28.597  1.00  0.00     0.031 A 
BRANCH  44  58
ATOM     58  C   UNL A   1      44.608  32.328  30.052  1.00  0.00    -0.014 A 
ATOM     59  C   UNL A   1      44.798  32.714  31.388  1.00  0.00     0.009 A 
ATOM     60  C   UNL A   1      44.769  33.288  29.041  1.00  0.00     0.009 A 
ATOM     61  C   UNL A   1      45.104  34.039  31.707  1.00  0.00     0.001 A 
ATOM     62  C   UNL A   1      45.109  34.604  29.360  1.00  0.00     0.001 A 
ATOM     63  C   UNL A   1      45.265  34.981  30.693  1.00  0.00     0.000 A 
ENDBRANCH  44  58
BRANCH  45  64
ATOM     64  C   UNL A   1      41.810  23.046  27.474  1.00  0.00    -0.014 A 
ATOM     65  C   UNL A   1      41.501  22.054  28.417  1.00  0.00     0.009 A 
ATOM     66  C   UNL A   1      41.736  22.729  26.109  1.00  0.00     0.009 A 
ATOM     67  C   UNL A   1      41.157  20.765  28.003  1.00  0.00     0.001 A 
ATOM     68  C   UNL A   1      41.362  21.448  25.698  1.00  0.00     0.001 A 
ATOM     69  C   UNL A   1      41.084  20.464  26.644  1.00  0.00     0.000 A 
ENDBRANCH  45  64
BRANCH  57  70
ATOM     70  C   UNL A   1      47.967  26.128  28.573  1.00  0.00    -0.014 A 
ATOM     71  C   UNL A   1      48.740  26.157  27.404  1.00  0.00     0.009 A 
ATOM     72  C   UNL A   1      48.550  25.674  29.768  1.00  0.00     0.009 A 
ATOM     73  C   UNL A   1      50.064  25.716  27.426  1.00  0.00     0.001 A 
ATOM     74  C   UNL A   1      49.881  25.261  29.793  1.00  0.00     0.001 A 
ATOM     75  C   UNL A   1      50.636  25.275  28.622  1.00  0.00     0.000 A 
ENDBRANCH  57  70
ENDBRANCH  31  32
ENDBRANCH  23  26
ENDBRANCH  21  22
ENDBRANCH  20  21
ENDBRANCH   1  20
TORSDOF 13
ENDMDL
