MODEL 1
REMARK VINA RESULT:     -12.8      0.000      0.000
REMARK SMILES CC(C)(C)c1cc(Nc2ccccc2C(=O)NCCCNC(=O)c2ccc(-c3c4nc(c(-c5ccccc5)c5ccc([nH]5)c(-c5ccccc5)c5nc(c(-c6ccccc6)c6ccc3[nH]6)C=C5)C=C4)cc2)cc2c1OCC2(C)C
REMARK SMILES IDX 18 1 17 2 15 3 16 4 14 6 9 7 10 8 11 9 13 10 12 11 8 12 7 14
REMARK SMILES IDX 5 15 6 16 74 17 73 18 75 19 72 20 77 21 76 22 78 23 79 24
REMARK SMILES IDX 2 25 1 26 3 27 4 28 19 29 20 30 21 31 22 32 23 34 24 35
REMARK SMILES IDX 25 36 71 37 26 38 70 39 27 40 28 41 29 42 64 43 30 44 69 45
REMARK SMILES IDX 63 46 65 47 31 48 68 49 62 50 61 51 32 53 54 54 39 55 53 56
REMARK SMILES IDX 40 57 43 58 52 59 66 60 41 61 42 62 51 64 67 65 44 66 33 67
REMARK SMILES IDX 34 68 38 69 35 70 37 71 36 72 55 73 56 74 60 75 57 76 59 77
REMARK SMILES IDX 58 78 45 79 46 80 50 81 47 82 49 83 48 84
REMARK H PARENT 17 5 8 13 21 33 65 52 43 63
REMARK Flexibility Score: inf
ROOT
ATOM      1  C   UNL A   1      31.691  28.188  26.719  1.00  0.00     0.118 C 
ENDROOT
BRANCH   1   2
ATOM      2  N   UNL A   1      30.972  26.958  26.969  1.00  0.00    -0.352 N 
ATOM      3  C   UNL A   1      30.759  25.837  26.214  1.00  0.00     0.253 C 
ATOM      4  O   UNL A   1      30.095  24.949  26.761  1.00  0.00    -0.269 OA
ATOM      5  H   UNL A   1      30.554  26.920  27.860  1.00  0.00     0.163 HD
BRANCH   3   6
ATOM      6  C   UNL A   1      31.195  25.606  24.803  1.00  0.00     0.063 A 
ATOM      7  C   UNL A   1      31.283  24.390  24.098  1.00  0.00     0.051 A 
ATOM      8  C   UNL A   1      31.548  24.438  22.706  1.00  0.00     0.027 A 
ATOM      9  C   UNL A   1      31.779  25.635  22.032  1.00  0.00     0.002 A 
ATOM     10  C   UNL A   1      31.436  26.811  24.098  1.00  0.00     0.016 A 
ATOM     11  C   UNL A   1      31.741  26.827  22.734  1.00  0.00     0.001 A 
BRANCH   7  12
ATOM     12  N   UNL A   1      31.228  23.107  24.683  1.00  0.00    -0.355 N 
ATOM     13  H   UNL A   1      30.357  22.807  25.030  1.00  0.00     0.167 HD
BRANCH  12  14
ATOM     14  C   UNL A   1      32.322  22.212  24.814  1.00  0.00     0.039 A 
ATOM     15  C   UNL A   1      34.787  21.882  24.891  1.00  0.00     0.002 A 
ATOM     16  C   UNL A   1      33.634  22.713  24.955  1.00  0.00     0.034 A 
ATOM     17  C   UNL A   1      34.544  20.516  24.751  1.00  0.00     0.127 A 
ATOM     18  C   UNL A   1      33.261  19.999  24.680  1.00  0.00     0.006 A 
ATOM     19  O   UNL A   1      35.500  19.545  24.628  1.00  0.00    -0.492 OA
ATOM     20  C   UNL A   1      32.154  20.829  24.707  1.00  0.00     0.034 A 
ATOM     21  C   UNL A   1      33.285  18.518  24.518  1.00  0.00     0.028 C 
ATOM     22  C   UNL A   1      34.802  18.280  24.621  1.00  0.00     0.240 C 
ATOM     23  C   UNL A   1      32.528  17.810  25.646  1.00  0.00     0.020 C 
ATOM     24  C   UNL A   1      32.735  18.085  23.154  1.00  0.00     0.020 C 
BRANCH  15  25
ATOM     25  C   UNL A   1      36.185  22.522  24.917  1.00  0.00    -0.009 C 
ATOM     26  C   UNL A   1      37.248  21.767  25.743  1.00  0.00     0.016 C 
ATOM     27  C   UNL A   1      36.106  23.951  25.493  1.00  0.00     0.016 C 
ATOM     28  C   UNL A   1      36.725  22.593  23.474  1.00  0.00     0.016 C 
ENDBRANCH  15  25
ENDBRANCH  12  14
ENDBRANCH   7  12
ENDBRANCH   3   6
ENDBRANCH   1   2
BRANCH   1  29
ATOM     29  C   UNL A   1      33.128  28.228  27.241  1.00  0.00     0.042 C 
BRANCH  29  30
ATOM     30  C   UNL A   1      33.915  29.489  26.900  1.00  0.00     0.118 C 
BRANCH  30  31
ATOM     31  N   UNL A   1      34.079  30.433  27.995  1.00  0.00    -0.352 N 
ATOM     32  C   UNL A   1      35.118  30.796  28.816  1.00  0.00     0.251 C 
ATOM     33  H   UNL A   1      33.251  30.927  28.194  1.00  0.00     0.163 HD
ATOM     34  O   UNL A   1      34.898  31.704  29.623  1.00  0.00    -0.269 OA
BRANCH  32  35
ATOM     35  C   UNL A   1      36.450  30.127  28.849  1.00  0.00     0.039 A 
ATOM     36  C   UNL A   1      36.989  29.501  29.966  1.00  0.00     0.014 A 
ATOM     37  C   UNL A   1      37.216  30.133  27.665  1.00  0.00     0.014 A 
ATOM     38  C   UNL A   1      38.306  29.046  29.958  1.00  0.00     0.010 A 
ATOM     39  C   UNL A   1      38.518  29.609  27.632  1.00  0.00     0.010 A 
ATOM     40  C   UNL A   1      39.093  29.097  28.797  1.00  0.00    -0.014 A 
BRANCH  40  41
ATOM     41  C   UNL A   1      40.476  28.558  28.862  1.00  0.00     0.031 A 
ATOM     42  C   UNL A   1      40.784  27.131  28.506  1.00  0.00     0.074 A 
ATOM     43  C   UNL A   1      41.485  29.418  29.105  1.00  0.00     0.049 A 
ATOM     44  N   UNL A   1      41.947  26.583  28.253  1.00  0.00    -0.248 NA
ATOM     45  C   UNL A   1      39.651  26.200  28.418  1.00  0.00     0.031 C 
ATOM     46  C   UNL A   1      41.312  30.825  29.473  1.00  0.00     0.029 A 
ATOM     47  N   UNL A   1      42.844  29.261  29.009  1.00  0.00    -0.354 N 
ATOM     48  C   UNL A   1      41.683  25.249  27.965  1.00  0.00     0.074 A 
ATOM     49  C   UNL A   1      40.257  25.060  28.109  1.00  0.00     0.031 C 
ATOM     50  C   UNL A   1      42.509  31.428  29.466  1.00  0.00     0.029 A 
ATOM     51  C   UNL A   1      43.537  30.440  29.151  1.00  0.00     0.049 A 
ATOM     52  H   UNL A   1      43.280  28.392  28.854  1.00  0.00     0.167 HD
ATOM     53  C   UNL A   1      42.551  24.274  27.602  1.00  0.00     0.031 A 
ATOM     54  C   UNL A   1      44.849  30.711  29.021  1.00  0.00     0.031 A 
ATOM     55  C   UNL A   1      43.975  24.457  27.479  1.00  0.00     0.049 A 
ATOM     56  C   UNL A   1      45.794  29.607  28.653  1.00  0.00     0.074 A 
ATOM     57  C   UNL A   1      44.931  23.528  27.101  1.00  0.00     0.029 A 
ATOM     58  N   UNL A   1      44.647  25.639  27.741  1.00  0.00    -0.354 N 
ATOM     59  N   UNL A   1      45.524  28.363  28.342  1.00  0.00    -0.248 NA
ATOM     60  C   UNL A   1      47.224  29.942  28.622  1.00  0.00     0.031 C 
ATOM     61  C   UNL A   1      46.188  24.133  27.196  1.00  0.00     0.029 A 
ATOM     62  C   UNL A   1      46.010  25.454  27.571  1.00  0.00     0.049 A 
ATOM     63  H   UNL A   1      44.220  26.485  28.009  1.00  0.00     0.167 HD
ATOM     64  C   UNL A   1      46.748  27.762  28.087  1.00  0.00     0.074 A 
ATOM     65  C   UNL A   1      47.760  28.788  28.243  1.00  0.00     0.031 C 
ATOM     66  C   UNL A   1      47.010  26.472  27.764  1.00  0.00     0.031 A 
BRANCH  53  67
ATOM     67  C   UNL A   1      41.997  22.905  27.320  1.00  0.00    -0.014 A 
ATOM     68  C   UNL A   1      41.615  22.562  26.012  1.00  0.00     0.009 A 
ATOM     69  C   UNL A   1      41.762  21.990  28.357  1.00  0.00     0.009 A 
ATOM     70  C   UNL A   1      40.999  21.337  25.751  1.00  0.00     0.001 A 
ATOM     71  C   UNL A   1      41.165  20.755  28.089  1.00  0.00     0.001 A 
ATOM     72  C   UNL A   1      40.777  20.434  26.789  1.00  0.00     0.000 A 
ENDBRANCH  53  67
BRANCH  54  73
ATOM     73  C   UNL A   1      45.326  32.103  29.224  1.00  0.00    -0.014 A 
ATOM     74  C   UNL A   1      45.443  32.980  28.133  1.00  0.00     0.009 A 
ATOM     75  C   UNL A   1      45.730  32.542  30.494  1.00  0.00     0.009 A 
ATOM     76  C   UNL A   1      45.988  34.253  28.301  1.00  0.00     0.001 A 
ATOM     77  C   UNL A   1      46.248  33.829  30.664  1.00  0.00     0.001 A 
ATOM     78  C   UNL A   1      46.388  34.678  29.566  1.00  0.00     0.000 A 
ENDBRANCH  54  73
BRANCH  66  79
ATOM     79  C   UNL A   1      48.451  26.086  27.587  1.00  0.00    -0.014 A 
ATOM     80  C   UNL A   1      49.052  26.166  26.321  1.00  0.00     0.009 A 
ATOM     81  C   UNL A   1      49.198  25.585  28.665  1.00  0.00     0.009 A 
ATOM     82  C   UNL A   1      50.372  25.750  26.138  1.00  0.00     0.001 A 
ATOM     83  C   UNL A   1      50.526  25.196  28.484  1.00  0.00     0.001 A 
ATOM     84  C   UNL A   1      51.109  25.272  27.219  1.00  0.00     0.000 A 
ENDBRANCH  66  79
ENDBRANCH  40  41
ENDBRANCH  32  35
ENDBRANCH  30  31
ENDBRANCH  29  30
ENDBRANCH   1  29
TORSDOF 13
ENDMDL
MODEL 2
REMARK VINA RESULT:     -12.2      5.537      8.421
REMARK SMILES CC(C)(C)c1cc(Nc2ccccc2C(=O)NCCCNC(=O)c2ccc(-c3c4nc(c(-c5ccccc5)c5ccc([nH]5)c(-c5ccccc5)c5nc(c(-c6ccccc6)c6ccc3[nH]6)C=C5)C=C4)cc2)cc2c1OCC2(C)C
REMARK SMILES IDX 18 1 17 2 15 3 16 4 14 6 9 7 10 8 11 9 13 10 12 11 8 12 7 14
REMARK SMILES IDX 5 15 6 16 74 17 73 18 75 19 72 20 77 21 76 22 78 23 79 24
REMARK SMILES IDX 2 25 1 26 3 27 4 28 19 29 20 30 21 31 22 32 23 34 24 35
REMARK SMILES IDX 25 36 71 37 26 38 70 39 27 40 28 41 29 42 64 43 30 44 69 45
REMARK SMILES IDX 63 46 65 47 31 48 68 49 62 50 61 51 32 53 54 54 39 55 53 56
REMARK SMILES IDX 40 57 43 58 52 59 66 60 41 61 42 62 51 64 67 65 44 66 33 67
REMARK SMILES IDX 34 68 38 69 35 70 37 71 36 72 55 73 56 74 60 75 57 76 59 77
REMARK SMILES IDX 58 78 45 79 46 80 50 81 47 82 49 83 48 84
REMARK H PARENT 17 5 8 13 21 33 65 52 43 63
REMARK Flexibility Score: inf
ROOT
ATOM      1  C   UNL A   1      34.359  34.790  28.347  1.00  0.00     0.118 C 
ENDROOT
BRANCH   1   2
ATOM      2  N   UNL A   1      33.219  34.077  27.812  1.00  0.00    -0.352 N 
ATOM      3  C   UNL A   1      33.005  32.758  27.516  1.00  0.00     0.253 C 
ATOM      4  O   UNL A   1      31.879  32.492  27.078  1.00  0.00    -0.269 OA
ATOM      5  H   UNL A   1      32.446  34.656  27.625  1.00  0.00     0.163 HD
BRANCH   3   6
ATOM      6  C   UNL A   1      33.991  31.641  27.619  1.00  0.00     0.063 A 
ATOM      7  C   UNL A   1      33.811  30.278  27.314  1.00  0.00     0.051 A 
ATOM      8  C   UNL A   1      34.948  29.432  27.314  1.00  0.00     0.027 A 
ATOM      9  C   UNL A   1      36.217  29.890  27.659  1.00  0.00     0.002 A 
ATOM     10  C   UNL A   1      35.290  32.084  27.969  1.00  0.00     0.016 A 
ATOM     11  C   UNL A   1      36.387  31.219  28.006  1.00  0.00     0.001 A 
BRANCH   7  12
ATOM     12  N   UNL A   1      32.563  29.652  27.102  1.00  0.00    -0.355 N 
ATOM     13  H   UNL A   1      31.926  29.651  27.852  1.00  0.00     0.167 HD
BRANCH  12  14
ATOM     14  C   UNL A   1      32.149  29.023  25.898  1.00  0.00     0.039 A 
ATOM     15  C   UNL A   1      30.620  29.011  23.935  1.00  0.00     0.002 A 
ATOM     16  C   UNL A   1      31.225  29.663  25.046  1.00  0.00     0.034 A 
ATOM     17  C   UNL A   1      31.050  27.707  23.689  1.00  0.00     0.127 A 
ATOM     18  C   UNL A   1      32.007  27.086  24.475  1.00  0.00     0.006 A 
ATOM     19  O   UNL A   1      30.575  26.883  22.706  1.00  0.00    -0.492 OA
ATOM     20  C   UNL A   1      32.555  27.725  25.573  1.00  0.00     0.034 A 
ATOM     21  C   UNL A   1      32.271  25.696  24.005  1.00  0.00     0.028 C 
ATOM     22  C   UNL A   1      31.377  25.683  22.752  1.00  0.00     0.240 C 
ATOM     23  C   UNL A   1      33.745  25.489  23.645  1.00  0.00     0.020 C 
ATOM     24  C   UNL A   1      31.821  24.652  25.033  1.00  0.00     0.020 C 
BRANCH  15  25
ATOM     25  C   UNL A   1      29.522  29.733  23.138  1.00  0.00    -0.009 C 
ATOM     26  C   UNL A   1      28.174  28.987  23.034  1.00  0.00     0.016 C 
ATOM     27  C   UNL A   1      29.997  29.995  21.693  1.00  0.00     0.016 C 
ATOM     28  C   UNL A   1      29.221  31.084  23.818  1.00  0.00     0.016 C 
ENDBRANCH  15  25
ENDBRANCH  12  14
ENDBRANCH   7  12
ENDBRANCH   3   6
ENDBRANCH   1   2
BRANCH   1  29
ATOM     29  C   UNL A   1      34.041  35.820  29.431  1.00  0.00     0.042 C 
BRANCH  29  30
ATOM     30  C   UNL A   1      32.567  35.946  29.805  1.00  0.00     0.118 C 
BRANCH  30  31
ATOM     31  N   UNL A   1      32.309  36.427  31.154  1.00  0.00    -0.352 N 
ATOM     32  C   UNL A   1      32.888  36.228  32.383  1.00  0.00     0.251 C 
ATOM     33  H   UNL A   1      31.539  37.039  31.194  1.00  0.00     0.163 HD
ATOM     34  O   UNL A   1      32.420  36.868  33.328  1.00  0.00    -0.269 OA
BRANCH  32  35
ATOM     35  C   UNL A   1      33.978  35.249  32.661  1.00  0.00     0.039 A 
ATOM     36  C   UNL A   1      33.773  33.936  33.064  1.00  0.00     0.014 A 
ATOM     37  C   UNL A   1      35.309  35.689  32.506  1.00  0.00     0.014 A 
ATOM     38  C   UNL A   1      34.845  33.140  33.462  1.00  0.00     0.010 A 
ATOM     39  C   UNL A   1      36.396  34.864  32.835  1.00  0.00     0.010 A 
ATOM     40  C   UNL A   1      36.170  33.590  33.360  1.00  0.00    -0.014 A 
BRANCH  40  41
ATOM     41  C   UNL A   1      37.260  32.666  33.771  1.00  0.00     0.031 A 
ATOM     42  C   UNL A   1      37.800  31.620  32.837  1.00  0.00     0.074 A 
ATOM     43  C   UNL A   1      37.864  32.880  34.956  1.00  0.00     0.049 A 
ATOM     44  N   UNL A   1      38.907  30.926  32.938  1.00  0.00    -0.248 NA
ATOM     45  C   UNL A   1      37.007  31.312  31.640  1.00  0.00     0.031 C 
ATOM     46  C   UNL A   1      37.424  33.859  35.953  1.00  0.00     0.029 A 
ATOM     47  N   UNL A   1      39.010  32.348  35.492  1.00  0.00    -0.354 N 
ATOM     48  C   UNL A   1      38.948  30.111  31.814  1.00  0.00     0.074 A 
ATOM     49  C   UNL A   1      37.739  30.368  31.062  1.00  0.00     0.031 C 
ATOM     50  C   UNL A   1      38.344  33.935  36.925  1.00  0.00     0.029 A 
ATOM     51  C   UNL A   1      39.407  32.973  36.651  1.00  0.00     0.049 A 
ATOM     52  H   UNL A   1      39.499  31.596  35.086  1.00  0.00     0.167 HD
ATOM     53  C   UNL A   1      39.912  29.236  31.437  1.00  0.00     0.031 A 
ATOM     54  C   UNL A   1      40.511  32.812  37.402  1.00  0.00     0.031 A 
ATOM     55  C   UNL A   1      41.106  28.965  32.196  1.00  0.00     0.049 A 
ATOM     56  C   UNL A   1      41.547  31.812  36.982  1.00  0.00     0.074 A 
ATOM     57  C   UNL A   1      42.146  28.106  31.883  1.00  0.00     0.029 A 
ATOM     58  N   UNL A   1      41.413  29.537  33.419  1.00  0.00    -0.354 N 
ATOM     59  N   UNL A   1      41.591  31.082  35.895  1.00  0.00    -0.248 NA
ATOM     60  C   UNL A   1      42.681  31.612  37.893  1.00  0.00     0.031 C 
ATOM     61  C   UNL A   1      43.052  28.111  32.948  1.00  0.00     0.029 A 
ATOM     62  C   UNL A   1      42.609  29.021  33.894  1.00  0.00     0.049 A 
ATOM     63  H   UNL A   1      40.865  30.210  33.883  1.00  0.00     0.167 HD
ATOM     64  C   UNL A   1      42.751  30.327  35.994  1.00  0.00     0.074 A 
ATOM     65  C   UNL A   1      43.401  30.716  37.230  1.00  0.00     0.031 C 
ATOM     66  C   UNL A   1      43.228  29.387  35.141  1.00  0.00     0.031 A 
BRANCH  53  67
ATOM     67  C   UNL A   1      39.720  28.489  30.146  1.00  0.00    -0.014 A 
ATOM     68  C   UNL A   1      39.249  27.165  30.169  1.00  0.00     0.009 A 
ATOM     69  C   UNL A   1      40.093  29.056  28.918  1.00  0.00     0.009 A 
ATOM     70  C   UNL A   1      39.168  26.422  28.991  1.00  0.00     0.001 A 
ATOM     71  C   UNL A   1      39.989  28.316  27.738  1.00  0.00     0.001 A 
ATOM     72  C   UNL A   1      39.536  26.998  27.776  1.00  0.00     0.000 A 
ENDBRANCH  53  67
BRANCH  54  73
ATOM     73  C   UNL A   1      40.688  33.645  38.619  1.00  0.00    -0.014 A 
ATOM     74  C   UNL A   1      40.144  33.230  39.847  1.00  0.00     0.009 A 
ATOM     75  C   UNL A   1      41.337  34.886  38.549  1.00  0.00     0.009 A 
ATOM     76  C   UNL A   1      40.216  34.056  40.969  1.00  0.00     0.001 A 
ATOM     77  C   UNL A   1      41.433  35.697  39.683  1.00  0.00     0.001 A 
ATOM     78  C   UNL A   1      40.862  35.288  40.888  1.00  0.00     0.000 A 
ENDBRANCH  54  73
BRANCH  66  79
ATOM     79  C   UNL A   1      44.500  28.689  35.528  1.00  0.00    -0.014 A 
ATOM     80  C   UNL A   1      44.454  27.426  36.137  1.00  0.00     0.009 A 
ATOM     81  C   UNL A   1      45.745  29.311  35.343  1.00  0.00     0.009 A 
ATOM     82  C   UNL A   1      45.629  26.799  36.555  1.00  0.00     0.001 A 
ATOM     83  C   UNL A   1      46.920  28.669  35.737  1.00  0.00     0.001 A 
ATOM     84  C   UNL A   1      46.861  27.418  36.349  1.00  0.00     0.000 A 
ENDBRANCH  66  79
ENDBRANCH  40  41
ENDBRANCH  32  35
ENDBRANCH  30  31
ENDBRANCH  29  30
ENDBRANCH   1  29
TORSDOF 13
ENDMDL
MODEL 3
REMARK VINA RESULT:     -12.2      4.346      9.253
REMARK SMILES CC(C)(C)c1cc(Nc2ccccc2C(=O)NCCCNC(=O)c2ccc(-c3c4nc(c(-c5ccccc5)c5ccc([nH]5)c(-c5ccccc5)c5nc(c(-c6ccccc6)c6ccc3[nH]6)C=C5)C=C4)cc2)cc2c1OCC2(C)C
REMARK SMILES IDX 18 1 17 2 15 3 16 4 14 6 9 7 10 8 11 9 13 10 12 11 8 12 7 14
REMARK SMILES IDX 5 15 6 16 74 17 73 18 75 19 72 20 77 21 76 22 78 23 79 24
REMARK SMILES IDX 2 25 1 26 3 27 4 28 19 29 20 30 21 31 22 32 23 34 24 35
REMARK SMILES IDX 25 36 71 37 26 38 70 39 27 40 28 41 29 42 64 43 30 44 69 45
REMARK SMILES IDX 63 46 65 47 31 48 68 49 62 50 61 51 32 53 54 54 39 55 53 56
REMARK SMILES IDX 40 57 43 58 52 59 66 60 41 61 42 62 51 64 67 65 44 66 33 67
REMARK SMILES IDX 34 68 38 69 35 70 37 71 36 72 55 73 56 74 60 75 57 76 59 77
REMARK SMILES IDX 58 78 45 79 46 80 50 81 47 82 49 83 48 84
REMARK H PARENT 17 5 8 13 21 33 65 52 43 63
REMARK Flexibility Score: inf
ROOT
ATOM      1  C   UNL A   1      38.135  23.134  25.729  1.00  0.00     0.118 C 
ENDROOT
BRANCH   1   2
ATOM      2  N   UNL A   1      37.516  23.181  24.422  1.00  0.00    -0.352 N 
ATOM      3  C   UNL A   1      36.287  22.794  23.963  1.00  0.00     0.253 C 
ATOM      4  O   UNL A   1      36.082  23.001  22.761  1.00  0.00    -0.269 OA
ATOM      5  H   UNL A   1      38.095  23.568  23.726  1.00  0.00     0.163 HD
BRANCH   3   6
ATOM      6  C   UNL A   1      35.208  22.115  24.743  1.00  0.00     0.063 A 
ATOM      7  C   UNL A   1      34.243  22.688  25.594  1.00  0.00     0.051 A 
ATOM      8  C   UNL A   1      33.202  21.860  26.083  1.00  0.00     0.027 A 
ATOM      9  C   UNL A   1      33.135  20.499  25.798  1.00  0.00     0.002 A 
ATOM     10  C   UNL A   1      35.122  20.728  24.468  1.00  0.00     0.016 A 
ATOM     11  C   UNL A   1      34.110  19.925  25.001  1.00  0.00     0.001 A 
BRANCH   7  12
ATOM     12  N   UNL A   1      34.280  24.009  26.088  1.00  0.00    -0.355 N 
ATOM     13  H   UNL A   1      34.811  24.172  26.901  1.00  0.00     0.167 HD
BRANCH  12  14
ATOM     14  C   UNL A   1      33.616  25.124  25.513  1.00  0.00     0.039 A 
ATOM     15  C   UNL A   1      32.881  27.492  25.731  1.00  0.00     0.002 A 
ATOM     16  C   UNL A   1      33.679  26.387  26.140  1.00  0.00     0.034 A 
ATOM     17  C   UNL A   1      32.071  27.277  24.617  1.00  0.00     0.127 A 
ATOM     18  C   UNL A   1      32.047  26.064  23.947  1.00  0.00     0.006 A 
ATOM     19  O   UNL A   1      31.196  28.181  24.080  1.00  0.00    -0.492 OA
ATOM     20  C   UNL A   1      32.803  24.991  24.384  1.00  0.00     0.034 A 
ATOM     21  C   UNL A   1      31.089  26.098  22.805  1.00  0.00     0.028 C 
ATOM     22  C   UNL A   1      30.662  27.575  22.882  1.00  0.00     0.240 C 
ATOM     23  C   UNL A   1      31.779  25.782  21.475  1.00  0.00     0.020 C 
ATOM     24  C   UNL A   1      29.903  25.153  23.028  1.00  0.00     0.020 C 
BRANCH  15  25
ATOM     25  C   UNL A   1      32.909  28.792  26.551  1.00  0.00    -0.009 C 
ATOM     26  C   UNL A   1      32.662  30.090  25.751  1.00  0.00     0.016 C 
ATOM     27  C   UNL A   1      34.277  28.953  27.248  1.00  0.00     0.016 C 
ATOM     28  C   UNL A   1      31.805  28.726  27.626  1.00  0.00     0.016 C 
ENDBRANCH  15  25
ENDBRANCH  12  14
ENDBRANCH   7  12
ENDBRANCH   3   6
ENDBRANCH   1   2
BRANCH   1  29
ATOM     29  C   UNL A   1      38.880  21.840  26.058  1.00  0.00     0.042 C 
BRANCH  29  30
ATOM     30  C   UNL A   1      40.236  22.016  26.736  1.00  0.00     0.118 C 
BRANCH  30  31
ATOM     31  N   UNL A   1      41.284  22.565  25.890  1.00  0.00    -0.352 N 
ATOM     32  C   UNL A   1      42.005  23.734  25.873  1.00  0.00     0.251 C 
ATOM     33  H   UNL A   1      41.537  21.956  25.159  1.00  0.00     0.163 HD
ATOM     34  O   UNL A   1      42.883  23.833  25.011  1.00  0.00    -0.269 OA
BRANCH  32  35
ATOM     35  C   UNL A   1      41.751  24.903  26.763  1.00  0.00     0.039 A 
ATOM     36  C   UNL A   1      42.429  26.113  26.686  1.00  0.00     0.014 A 
ATOM     37  C   UNL A   1      40.757  24.768  27.754  1.00  0.00     0.014 A 
ATOM     38  C   UNL A   1      42.247  27.092  27.661  1.00  0.00     0.010 A 
ATOM     39  C   UNL A   1      40.518  25.783  28.693  1.00  0.00     0.010 A 
ATOM     40  C   UNL A   1      41.295  26.942  28.681  1.00  0.00    -0.014 A 
BRANCH  40  41
ATOM     41  C   UNL A   1      41.136  28.049  29.661  1.00  0.00     0.031 A 
ATOM     42  C   UNL A   1      40.022  29.051  29.544  1.00  0.00     0.074 A 
ATOM     43  C   UNL A   1      41.927  28.053  30.752  1.00  0.00     0.049 A 
ATOM     44  N   UNL A   1      39.587  29.899  30.443  1.00  0.00    -0.248 NA
ATOM     45  C   UNL A   1      39.303  29.112  28.265  1.00  0.00     0.031 C 
ATOM     46  C   UNL A   1      43.049  27.138  30.973  1.00  0.00     0.029 A 
ATOM     47  N   UNL A   1      41.867  28.795  31.904  1.00  0.00    -0.354 N 
ATOM     48  C   UNL A   1      38.537  30.583  29.842  1.00  0.00     0.074 A 
ATOM     49  C   UNL A   1      38.423  30.079  28.491  1.00  0.00     0.031 C 
ATOM     50  C   UNL A   1      43.501  27.299  32.225  1.00  0.00     0.029 A 
ATOM     51  C   UNL A   1      42.742  28.364  32.872  1.00  0.00     0.049 A 
ATOM     52  H   UNL A   1      41.257  29.559  32.025  1.00  0.00     0.167 HD
ATOM     53  C   UNL A   1      37.734  31.537  30.373  1.00  0.00     0.031 A 
ATOM     54  C   UNL A   1      42.906  28.759  34.148  1.00  0.00     0.031 A 
ATOM     55  C   UNL A   1      37.861  32.054  31.712  1.00  0.00     0.049 A 
ATOM     56  C   UNL A   1      42.029  29.841  34.702  1.00  0.00     0.074 A 
ATOM     57  C   UNL A   1      37.082  33.011  32.341  1.00  0.00     0.029 A 
ATOM     58  N   UNL A   1      38.833  31.669  32.621  1.00  0.00    -0.354 N 
ATOM     59  N   UNL A   1      41.014  30.446  34.136  1.00  0.00    -0.248 NA
ATOM     60  C   UNL A   1      42.321  30.297  36.067  1.00  0.00     0.031 C 
ATOM     61  C   UNL A   1      37.621  33.249  33.608  1.00  0.00     0.029 A 
ATOM     62  C   UNL A   1      38.697  32.396  33.792  1.00  0.00     0.049 A 
ATOM     63  H   UNL A   1      39.518  30.981  32.458  1.00  0.00     0.167 HD
ATOM     64  C   UNL A   1      40.551  31.362  35.069  1.00  0.00     0.074 A 
ATOM     65  C   UNL A   1      41.372  31.206  36.254  1.00  0.00     0.031 C 
ATOM     66  C   UNL A   1      39.542  32.259  34.950  1.00  0.00     0.031 A 
BRANCH  53  67
ATOM     67  C   UNL A   1      36.644  32.104  29.506  1.00  0.00    -0.014 A 
ATOM     68  C   UNL A   1      36.894  33.246  28.726  1.00  0.00     0.009 A 
ATOM     69  C   UNL A   1      35.347  31.571  29.532  1.00  0.00     0.009 A 
ATOM     70  C   UNL A   1      35.865  33.847  28.001  1.00  0.00     0.001 A 
ATOM     71  C   UNL A   1      34.324  32.163  28.786  1.00  0.00     0.001 A 
ATOM     72  C   UNL A   1      34.582  33.305  28.029  1.00  0.00     0.000 A 
ENDBRANCH  53  67
BRANCH  54  73
ATOM     73  C   UNL A   1      43.942  28.098  34.984  1.00  0.00    -0.014 A 
ATOM     74  C   UNL A   1      43.609  26.988  35.779  1.00  0.00     0.009 A 
ATOM     75  C   UNL A   1      45.246  28.610  35.046  1.00  0.00     0.009 A 
ATOM     76  C   UNL A   1      44.549  26.428  36.644  1.00  0.00     0.001 A 
ATOM     77  C   UNL A   1      46.194  28.028  35.892  1.00  0.00     0.001 A 
ATOM     78  C   UNL A   1      45.841  26.946  36.699  1.00  0.00     0.000 A 
ENDBRANCH  54  73
BRANCH  66  79
ATOM     79  C   UNL A   1      39.286  33.166  36.120  1.00  0.00    -0.014 A 
ATOM     80  C   UNL A   1      39.964  34.391  36.224  1.00  0.00     0.009 A 
ATOM     81  C   UNL A   1      38.417  32.779  37.152  1.00  0.00     0.009 A 
ATOM     82  C   UNL A   1      39.778  35.210  37.339  1.00  0.00     0.001 A 
ATOM     83  C   UNL A   1      38.212  33.614  38.252  1.00  0.00     0.001 A 
ATOM     84  C   UNL A   1      38.898  34.824  38.348  1.00  0.00     0.000 A 
ENDBRANCH  66  79
ENDBRANCH  40  41
ENDBRANCH  32  35
ENDBRANCH  30  31
ENDBRANCH  29  30
ENDBRANCH   1  29
TORSDOF 13
ENDMDL
