MODEL 1
REMARK VINA RESULT:     -11.2      0.000      0.000
REMARK SMILES C[NH2+][C@]1(C(=O)NCCCNC(=O)c2ccc(-c3c4nc(c(-c5ccccc5)c5ccc([nH]5)c(-c5ccccc5)c5nc(c(-c6ccccc6)c6ccc3[nH]6)C=C5)C=C4)cc2)CCC[C@@H]([N@H+]2CC[C@@H](C)C2)C1
REMARK SMILES IDX 8 1 7 2 6 3 4 4 5 5 3 7 61 8 71 9 62 10 64 11 63 12 2 13
REMARK SMILES IDX 1 14 65 17 66 18 70 19 67 21 68 22 69 23 9 24 10 25 11 26
REMARK SMILES IDX 12 28 13 29 14 30 60 31 15 32 59 33 16 34 17 35 18 36 53 37
REMARK SMILES IDX 19 38 58 39 52 40 54 41 20 42 57 43 51 44 50 45 21 47 43 48
REMARK SMILES IDX 28 49 42 50 29 51 32 52 41 53 55 54 30 55 31 56 40 58 56 59
REMARK SMILES IDX 33 60 22 61 23 62 27 63 24 64 26 65 25 66 44 67 45 68 49 69
REMARK SMILES IDX 46 70 48 71 47 72 34 73 35 74 39 75 36 76 38 77 37 78
REMARK H PARENT 6 6 2 15 2 16 65 20 10 27 54 46 32 57
REMARK Flexibility Score: inf
ROOT
ATOM      1  C   UNL A   1      37.431  20.532  24.653  1.00  0.00     0.042 C 
ENDROOT
BRANCH   1   2
ATOM      2  C   UNL A   1      36.255  21.484  24.776  1.00  0.00     0.118 C 
BRANCH   2   3
ATOM      3  N   UNL A   1      35.808  21.617  26.155  1.00  0.00    -0.351 N 
ATOM      4  C   UNL A   1      34.564  21.716  26.707  1.00  0.00     0.281 C 
ATOM      5  O   UNL A   1      34.528  21.951  27.922  1.00  0.00    -0.268 OA
ATOM      6  H   UNL A   1      36.540  21.639  26.813  1.00  0.00     0.163 HD
BRANCH   4   7
ATOM      7  C   UNL A   1      33.232  21.553  25.869  1.00  0.00     0.181 C 
ATOM      8  C   UNL A   1      33.385  22.347  24.555  1.00  0.00     0.079 C 
ATOM      9  C   UNL A   1      33.001  20.043  25.677  1.00  0.00     0.144 C 
ATOM     10  C   UNL A   1      32.459  21.912  23.424  1.00  0.00     0.013 C 
ATOM     11  C   UNL A   1      32.182  19.585  24.464  1.00  0.00     0.190 C 
ATOM     12  C   UNL A   1      32.491  20.406  23.194  1.00  0.00     0.065 C 
BRANCH   7  13
ATOM     13  N   UNL A   1      32.142  22.031  26.768  1.00  0.00    -0.336 N 
ATOM     14  C   UNL A   1      31.654  23.384  26.629  1.00  0.00     0.331 C 
ATOM     15  H   UNL A   1      31.345  21.411  26.626  1.00  0.00     0.346 HD
ATOM     16  H   UNL A   1      32.570  22.022  27.694  1.00  0.00     0.346 HD
ENDBRANCH   7  13
BRANCH  11  17
ATOM     17  N   UNL A   1      32.315  18.127  24.209  1.00  0.00    -0.332 N 
ATOM     18  C   UNL A   1      32.891  17.733  22.918  1.00  0.00     0.262 C 
ATOM     19  C   UNL A   1      32.994  17.359  25.262  1.00  0.00     0.265 C 
ATOM     20  H   UNL A   1      31.325  17.884  24.199  1.00  0.00     0.348 HD
ATOM     21  C   UNL A   1      33.803  16.540  23.183  1.00  0.00     0.070 C 
ATOM     22  C   UNL A   1      34.229  16.706  24.635  1.00  0.00     0.047 C 
ATOM     23  C   UNL A   1      35.521  17.517  24.759  1.00  0.00     0.014 C 
ENDBRANCH  11  17
ENDBRANCH   4   7
ENDBRANCH   2   3
ENDBRANCH   1   2
BRANCH   1  24
ATOM     24  C   UNL A   1      38.486  20.737  25.726  1.00  0.00     0.118 C 
BRANCH  24  25
ATOM     25  N   UNL A   1      39.501  19.692  25.726  1.00  0.00    -0.352 N 
ATOM     26  C   UNL A   1      40.842  19.762  26.025  1.00  0.00     0.251 C 
ATOM     27  H   UNL A   1      39.177  18.797  25.473  1.00  0.00     0.163 HD
ATOM     28  O   UNL A   1      41.571  18.806  25.789  1.00  0.00    -0.269 OA
BRANCH  26  29
ATOM     29  C   UNL A   1      41.408  21.002  26.599  1.00  0.00     0.039 A 
ATOM     30  C   UNL A   1      41.958  21.956  25.740  1.00  0.00     0.014 A 
ATOM     31  C   UNL A   1      41.393  21.228  27.976  1.00  0.00     0.014 A 
ATOM     32  C   UNL A   1      42.415  23.171  26.257  1.00  0.00     0.010 A 
ATOM     33  C   UNL A   1      41.746  22.476  28.476  1.00  0.00     0.010 A 
ATOM     34  C   UNL A   1      42.268  23.460  27.624  1.00  0.00    -0.014 A 
BRANCH  34  35
ATOM     35  C   UNL A   1      42.657  24.779  28.185  1.00  0.00     0.031 A 
ATOM     36  C   UNL A   1      41.617  25.848  28.393  1.00  0.00     0.074 A 
ATOM     37  C   UNL A   1      43.954  25.040  28.442  1.00  0.00     0.049 A 
ATOM     38  N   UNL A   1      41.774  27.080  28.805  1.00  0.00    -0.248 NA
ATOM     39  C   UNL A   1      40.226  25.496  28.069  1.00  0.00     0.031 C 
ATOM     40  C   UNL A   1      45.065  24.106  28.244  1.00  0.00     0.029 A 
ATOM     41  N   UNL A   1      44.559  26.175  28.921  1.00  0.00    -0.354 N 
ATOM     42  C   UNL A   1      40.507  27.652  28.771  1.00  0.00     0.074 A 
ATOM     43  C   UNL A   1      39.606  26.653  28.245  1.00  0.00     0.031 C 
ATOM     44  C   UNL A   1      46.209  24.693  28.630  1.00  0.00     0.029 A 
ATOM     45  C   UNL A   1      45.922  26.059  29.056  1.00  0.00     0.049 A 
ATOM     46  H   UNL A   1      44.063  26.994  29.148  1.00  0.00     0.167 HD
ATOM     47  C   UNL A   1      40.124  28.890  29.164  1.00  0.00     0.031 A 
ATOM     48  C   UNL A   1      46.839  26.954  29.467  1.00  0.00     0.031 A 
ATOM     49  C   UNL A   1      41.019  29.880  29.697  1.00  0.00     0.049 A 
ATOM     50  C   UNL A   1      46.391  28.329  29.876  1.00  0.00     0.074 A 
ATOM     51  C   UNL A   1      40.719  31.143  30.176  1.00  0.00     0.029 A 
ATOM     52  N   UNL A   1      42.390  29.721  29.821  1.00  0.00    -0.354 N 
ATOM     53  N   UNL A   1      45.179  28.829  29.905  1.00  0.00    -0.248 NA
ATOM     54  C   UNL A   1      47.437  29.260  30.322  1.00  0.00     0.031 C 
ATOM     55  C   UNL A   1      41.916  31.771  30.534  1.00  0.00     0.029 A 
ATOM     56  C   UNL A   1      42.954  30.873  30.344  1.00  0.00     0.049 A 
ATOM     57  H   UNL A   1      42.889  28.908  29.575  1.00  0.00     0.167 HD
ATOM     58  C   UNL A   1      45.314  30.119  30.402  1.00  0.00     0.074 A 
ATOM     59  C   UNL A   1      46.721  30.318  30.678  1.00  0.00     0.031 C 
ATOM     60  C   UNL A   1      44.355  31.054  30.614  1.00  0.00     0.031 A 
BRANCH  47  61
ATOM     61  C   UNL A   1      38.668  29.244  29.023  1.00  0.00    -0.014 A 
ATOM     62  C   UNL A   1      37.775  29.102  30.097  1.00  0.00     0.009 A 
ATOM     63  C   UNL A   1      38.191  29.765  27.809  1.00  0.00     0.009 A 
ATOM     64  C   UNL A   1      36.428  29.438  29.948  1.00  0.00     0.001 A 
ATOM     65  C   UNL A   1      36.851  30.131  27.674  1.00  0.00     0.001 A 
ATOM     66  C   UNL A   1      35.969  29.958  28.739  1.00  0.00     0.000 A 
ENDBRANCH  47  61
BRANCH  48  67
ATOM     67  C   UNL A   1      48.278  26.579  29.524  1.00  0.00    -0.014 A 
ATOM     68  C   UNL A   1      49.120  26.810  28.426  1.00  0.00     0.009 A 
ATOM     69  C   UNL A   1      48.814  25.972  30.672  1.00  0.00     0.009 A 
ATOM     70  C   UNL A   1      50.459  26.411  28.462  1.00  0.00     0.001 A 
ATOM     71  C   UNL A   1      50.161  25.606  30.718  1.00  0.00     0.001 A 
ATOM     72  C   UNL A   1      50.979  25.814  29.609  1.00  0.00     0.000 A 
ENDBRANCH  48  67
BRANCH  60  73
ATOM     73  C   UNL A   1      44.790  32.363  31.215  1.00  0.00    -0.014 A 
ATOM     74  C   UNL A   1      44.855  32.545  32.605  1.00  0.00     0.009 A 
ATOM     75  C   UNL A   1      45.182  33.414  30.372  1.00  0.00     0.009 A 
ATOM     76  C   UNL A   1      45.272  33.768  33.137  1.00  0.00     0.001 A 
ATOM     77  C   UNL A   1      45.630  34.623  30.905  1.00  0.00     0.001 A 
ATOM     78  C   UNL A   1      45.663  34.802  32.288  1.00  0.00     0.000 A 
ENDBRANCH  60  73
ENDBRANCH  34  35
ENDBRANCH  26  29
ENDBRANCH  24  25
ENDBRANCH   1  24
TORSDOF 12
ENDMDL
MODEL 2
REMARK VINA RESULT:     -11.1      0.306      6.126
REMARK SMILES C[NH2+][C@]1(C(=O)NCCCNC(=O)c2ccc(-c3c4nc(c(-c5ccccc5)c5ccc([nH]5)c(-c5ccccc5)c5nc(c(-c6ccccc6)c6ccc3[nH]6)C=C5)C=C4)cc2)CCC[C@@H]([N@H+]2CC[C@@H](C)C2)C1
REMARK SMILES IDX 8 1 7 2 6 3 4 4 5 5 3 7 61 8 71 9 62 10 64 11 63 12 2 13
REMARK SMILES IDX 1 14 65 17 66 18 70 19 67 21 68 22 69 23 9 24 10 25 11 26
REMARK SMILES IDX 12 28 13 29 14 30 60 31 15 32 59 33 16 34 17 35 18 36 53 37
REMARK SMILES IDX 19 38 58 39 52 40 54 41 20 42 57 43 51 44 50 45 21 47 43 48
REMARK SMILES IDX 28 49 42 50 29 51 32 52 41 53 55 54 30 55 31 56 40 58 56 59
REMARK SMILES IDX 33 60 22 61 23 62 27 63 24 64 26 65 25 66 44 67 45 68 49 69
REMARK SMILES IDX 46 70 48 71 47 72 34 73 35 74 39 75 36 76 38 77 37 78
REMARK H PARENT 6 6 2 15 2 16 65 20 10 27 54 46 32 57
REMARK Flexibility Score: inf
ROOT
ATOM      1  C   UNL A   1      37.522  20.469  24.656  1.00  0.00     0.042 C 
ENDROOT
BRANCH   1   2
ATOM      2  C   UNL A   1      36.321  21.394  24.747  1.00  0.00     0.118 C 
BRANCH   2   3
ATOM      3  N   UNL A   1      35.897  21.599  26.123  1.00  0.00    -0.351 N 
ATOM      4  C   UNL A   1      34.665  21.771  26.685  1.00  0.00     0.281 C 
ATOM      5  O   UNL A   1      34.655  22.055  27.890  1.00  0.00    -0.268 OA
ATOM      6  H   UNL A   1      36.638  21.618  26.772  1.00  0.00     0.163 HD
BRANCH   4   7
ATOM      7  C   UNL A   1      33.317  21.630  25.870  1.00  0.00     0.181 C 
ATOM      8  C   UNL A   1      33.453  22.440  24.564  1.00  0.00     0.079 C 
ATOM      9  C   UNL A   1      33.070  20.125  25.662  1.00  0.00     0.144 C 
ATOM     10  C   UNL A   1      32.503  22.027  23.444  1.00  0.00     0.013 C 
ATOM     11  C   UNL A   1      32.226  19.688  24.458  1.00  0.00     0.190 C 
ATOM     12  C   UNL A   1      32.519  20.523  23.194  1.00  0.00     0.065 C 
BRANCH   7  13
ATOM     13  N   UNL A   1      32.247  22.104  26.795  1.00  0.00    -0.336 N 
ATOM     14  C   UNL A   1      31.716  23.438  26.634  1.00  0.00     0.331 C 
ATOM     15  H   UNL A   1      31.464  21.458  26.700  1.00  0.00     0.346 HD
ATOM     16  H   UNL A   1      32.710  22.136  27.704  1.00  0.00     0.346 HD
ENDBRANCH   7  13
BRANCH  11  17
ATOM     17  N   UNL A   1      32.343  18.233  24.182  1.00  0.00    -0.332 N 
ATOM     18  C   UNL A   1      32.927  17.851  22.892  1.00  0.00     0.262 C 
ATOM     19  C   UNL A   1      33.000  17.439  25.230  1.00  0.00     0.265 C 
ATOM     20  H   UNL A   1      31.349  18.003  24.158  1.00  0.00     0.348 HD
ATOM     21  C   UNL A   1      33.820  16.642  23.147  1.00  0.00     0.070 C 
ATOM     22  C   UNL A   1      34.233  16.780  24.606  1.00  0.00     0.047 C 
ATOM     23  C   UNL A   1      35.534  17.571  24.756  1.00  0.00     0.014 C 
ENDBRANCH  11  17
ENDBRANCH   4   7
ENDBRANCH   2   3
ENDBRANCH   1   2
BRANCH   1  24
ATOM     24  C   UNL A   1      38.525  20.675  25.779  1.00  0.00     0.118 C 
BRANCH  24  25
ATOM     25  N   UNL A   1      39.588  19.679  25.773  1.00  0.00    -0.352 N 
ATOM     26  C   UNL A   1      40.929  19.818  26.046  1.00  0.00     0.251 C 
ATOM     27  H   UNL A   1      39.304  18.767  25.536  1.00  0.00     0.163 HD
ATOM     28  O   UNL A   1      41.700  18.895  25.809  1.00  0.00    -0.269 OA
BRANCH  26  29
ATOM     29  C   UNL A   1      41.445  21.091  26.596  1.00  0.00     0.039 A 
ATOM     30  C   UNL A   1      41.926  22.063  25.716  1.00  0.00     0.014 A 
ATOM     31  C   UNL A   1      41.449  21.331  27.971  1.00  0.00     0.014 A 
ATOM     32  C   UNL A   1      42.332  23.304  26.211  1.00  0.00     0.010 A 
ATOM     33  C   UNL A   1      41.749  22.600  28.452  1.00  0.00     0.010 A 
ATOM     34  C   UNL A   1      42.201  23.599  27.578  1.00  0.00    -0.014 A 
BRANCH  34  35
ATOM     35  C   UNL A   1      42.536  24.942  28.119  1.00  0.00     0.031 A 
ATOM     36  C   UNL A   1      43.949  25.258  28.532  1.00  0.00     0.074 A 
ATOM     37  C   UNL A   1      41.560  25.852  28.302  1.00  0.00     0.049 A 
ATOM     38  N   UNL A   1      44.421  26.346  29.088  1.00  0.00    -0.248 NA
ATOM     39  C   UNL A   1      44.956  24.207  28.322  1.00  0.00     0.031 C 
ATOM     40  C   UNL A   1      40.143  25.656  27.983  1.00  0.00     0.029 A 
ATOM     41  N   UNL A   1      41.609  27.127  28.810  1.00  0.00    -0.354 N 
ATOM     42  C   UNL A   1      45.771  26.100  29.308  1.00  0.00     0.074 A 
ATOM     43  C   UNL A   1      46.030  24.744  28.882  1.00  0.00     0.031 C 
ATOM     44  C   UNL A   1      39.467  26.780  28.270  1.00  0.00     0.029 A 
ATOM     45  C   UNL A   1      40.389  27.757  28.838  1.00  0.00     0.049 A 
ATOM     46  H   UNL A   1      42.441  27.548  29.124  1.00  0.00     0.167 HD
ATOM     47  C   UNL A   1      46.716  26.935  29.800  1.00  0.00     0.031 A 
ATOM     48  C   UNL A   1      40.047  28.982  29.281  1.00  0.00     0.031 A 
ATOM     49  C   UNL A   1      46.461  28.288  30.215  1.00  0.00     0.049 A 
ATOM     50  C   UNL A   1      41.112  29.882  29.843  1.00  0.00     0.074 A 
ATOM     51  C   UNL A   1      47.363  29.232  30.674  1.00  0.00     0.029 A 
ATOM     52  N   UNL A   1      45.213  28.889  30.222  1.00  0.00    -0.354 N 
ATOM     53  N   UNL A   1      42.397  29.658  29.978  1.00  0.00    -0.248 NA
ATOM     54  C   UNL A   1      40.680  31.209  30.304  1.00  0.00     0.031 C 
ATOM     55  C   UNL A   1      46.651  30.385  31.016  1.00  0.00     0.029 A 
ATOM     56  C   UNL A   1      45.316  30.184  30.704  1.00  0.00     0.049 A 
ATOM     57  H   UNL A   1      44.377  28.460  29.928  1.00  0.00     0.167 HD
ATOM     58  C   UNL A   1      42.931  30.827  30.507  1.00  0.00     0.074 A 
ATOM     59  C   UNL A   1      41.835  31.761  30.652  1.00  0.00     0.031 C 
ATOM     60  C   UNL A   1      44.216  31.102  30.840  1.00  0.00     0.031 A 
BRANCH  47  61
ATOM     61  C   UNL A   1      48.119  26.402  29.923  1.00  0.00    -0.014 A 
ATOM     62  C   UNL A   1      49.041  26.525  28.871  1.00  0.00     0.009 A 
ATOM     63  C   UNL A   1      48.535  25.803  31.123  1.00  0.00     0.009 A 
ATOM     64  C   UNL A   1      50.339  26.027  29.005  1.00  0.00     0.001 A 
ATOM     65  C   UNL A   1      49.842  25.336  31.265  1.00  0.00     0.001 A 
ATOM     66  C   UNL A   1      50.740  25.438  30.204  1.00  0.00     0.000 A 
ENDBRANCH  47  61
BRANCH  48  67
ATOM     67  C   UNL A   1      38.634  29.440  29.202  1.00  0.00    -0.014 A 
ATOM     68  C   UNL A   1      37.770  29.280  30.296  1.00  0.00     0.009 A 
ATOM     69  C   UNL A   1      38.136  30.024  28.025  1.00  0.00     0.009 A 
ATOM     70  C   UNL A   1      36.429  29.664  30.203  1.00  0.00     0.001 A 
ATOM     71  C   UNL A   1      36.805  30.438  27.948  1.00  0.00     0.001 A 
ATOM     72  C   UNL A   1      35.949  30.247  29.031  1.00  0.00     0.000 A 
ENDBRANCH  48  67
BRANCH  60  73
ATOM     73  C   UNL A   1      44.516  32.484  31.351  1.00  0.00    -0.014 A 
ATOM     74  C   UNL A   1      44.829  33.537  30.477  1.00  0.00     0.009 A 
ATOM     75  C   UNL A   1      44.439  32.743  32.728  1.00  0.00     0.009 A 
ATOM     76  C   UNL A   1      45.093  34.814  30.978  1.00  0.00     0.001 A 
ATOM     77  C   UNL A   1      44.670  34.027  33.223  1.00  0.00     0.001 A 
ATOM     78  C   UNL A   1      45.008  35.058  32.348  1.00  0.00     0.000 A 
ENDBRANCH  60  73
ENDBRANCH  34  35
ENDBRANCH  26  29
ENDBRANCH  24  25
ENDBRANCH   1  24
TORSDOF 12
ENDMDL
MODEL 3
REMARK VINA RESULT:     -11.0      4.185      8.675
REMARK SMILES C[NH2+][C@]1(C(=O)NCCCNC(=O)c2ccc(-c3c4nc(c(-c5ccccc5)c5ccc([nH]5)c(-c5ccccc5)c5nc(c(-c6ccccc6)c6ccc3[nH]6)C=C5)C=C4)cc2)CCC[C@@H]([N@H+]2CC[C@@H](C)C2)C1
REMARK SMILES IDX 8 1 7 2 6 3 4 4 5 5 3 7 61 8 71 9 62 10 64 11 63 12 2 13
REMARK SMILES IDX 1 14 65 17 66 18 70 19 67 21 68 22 69 23 9 24 10 25 11 26
REMARK SMILES IDX 12 28 13 29 14 30 60 31 15 32 59 33 16 34 17 35 18 36 53 37
REMARK SMILES IDX 19 38 58 39 52 40 54 41 20 42 57 43 51 44 50 45 21 47 43 48
REMARK SMILES IDX 28 49 42 50 29 51 32 52 41 53 55 54 30 55 31 56 40 58 56 59
REMARK SMILES IDX 33 60 22 61 23 62 27 63 24 64 26 65 25 66 44 67 45 68 49 69
REMARK SMILES IDX 46 70 48 71 47 72 34 73 35 74 39 75 36 76 38 77 37 78
REMARK H PARENT 6 6 2 15 2 16 65 20 10 27 54 46 32 57
REMARK Flexibility Score: inf
ROOT
ATOM      1  C   UNL A   1      32.432  28.701  26.999  1.00  0.00     0.042 C 
ENDROOT
BRANCH   1   2
ATOM      2  C   UNL A   1      32.037  29.432  25.728  1.00  0.00     0.118 C 
BRANCH   2   3
ATOM      3  N   UNL A   1      33.098  29.401  24.733  1.00  0.00    -0.351 N 
ATOM      4  C   UNL A   1      33.213  28.750  23.539  1.00  0.00     0.281 C 
ATOM      5  O   UNL A   1      34.316  28.832  22.981  1.00  0.00    -0.268 OA
ATOM      6  H   UNL A   1      33.880  29.954  24.963  1.00  0.00     0.163 HD
BRANCH   4   7
ATOM      7  C   UNL A   1      32.030  27.926  22.887  1.00  0.00     0.181 C 
ATOM      8  C   UNL A   1      31.517  26.909  23.927  1.00  0.00     0.079 C 
ATOM      9  C   UNL A   1      30.976  28.944  22.417  1.00  0.00     0.144 C 
ATOM     10  C   UNL A   1      30.099  26.399  23.689  1.00  0.00     0.013 C 
ATOM     11  C   UNL A   1      29.519  28.478  22.304  1.00  0.00     0.190 C 
ATOM     12  C   UNL A   1      29.107  27.532  23.451  1.00  0.00     0.065 C 
BRANCH   7  13
ATOM     13  N   UNL A   1      32.607  27.322  21.651  1.00  0.00    -0.336 N 
ATOM     14  C   UNL A   1      33.054  25.949  21.678  1.00  0.00     0.331 C 
ATOM     15  H   UNL A   1      31.893  27.389  20.926  1.00  0.00     0.346 HD
ATOM     16  H   UNL A   1      33.466  27.853  21.500  1.00  0.00     0.346 HD
ENDBRANCH   7  13
BRANCH  11  17
ATOM     17  N   UNL A   1      28.569  29.612  22.173  1.00  0.00    -0.332 N 
ATOM     18  C   UNL A   1      27.529  29.724  23.201  1.00  0.00     0.262 C 
ATOM     19  C   UNL A   1      29.184  30.937  22.004  1.00  0.00     0.265 C 
ATOM     20  H   UNL A   1      28.121  29.335  21.300  1.00  0.00     0.348 HD
ATOM     21  C   UNL A   1      27.370  31.207  23.516  1.00  0.00     0.070 C 
ATOM     22  C   UNL A   1      28.725  31.812  23.174  1.00  0.00     0.047 C 
ATOM     23  C   UNL A   1      29.665  31.820  24.381  1.00  0.00     0.014 C 
ENDBRANCH  11  17
ENDBRANCH   4   7
ENDBRANCH   2   3
ENDBRANCH   1   2
BRANCH   1  24
ATOM     24  C   UNL A   1      33.822  29.064  27.494  1.00  0.00     0.118 C 
BRANCH  24  25
ATOM     25  N   UNL A   1      33.887  30.407  28.055  1.00  0.00    -0.352 N 
ATOM     26  C   UNL A   1      34.900  31.025  28.750  1.00  0.00     0.251 C 
ATOM     27  H   UNL A   1      33.082  30.956  27.914  1.00  0.00     0.163 HD
ATOM     28  O   UNL A   1      34.695  32.101  29.301  1.00  0.00    -0.269 OA
BRANCH  26  29
ATOM     29  C   UNL A   1      36.225  30.377  28.861  1.00  0.00     0.039 A 
ATOM     30  C   UNL A   1      37.095  30.423  27.770  1.00  0.00     0.014 A 
ATOM     31  C   UNL A   1      36.614  29.732  30.037  1.00  0.00     0.014 A 
ATOM     32  C   UNL A   1      38.382  29.896  27.888  1.00  0.00     0.010 A 
ATOM     33  C   UNL A   1      37.928  29.306  30.190  1.00  0.00     0.010 A 
ATOM     34  C   UNL A   1      38.825  29.376  29.116  1.00  0.00    -0.014 A 
BRANCH  34  35
ATOM     35  C   UNL A   1      40.219  28.895  29.298  1.00  0.00     0.031 A 
ATOM     36  C   UNL A   1      41.262  29.808  29.887  1.00  0.00     0.074 A 
ATOM     37  C   UNL A   1      40.563  27.665  28.871  1.00  0.00     0.049 A 
ATOM     38  N   UNL A   1      42.542  29.594  30.059  1.00  0.00    -0.248 NA
ATOM     39  C   UNL A   1      40.816  31.145  30.310  1.00  0.00     0.031 C 
ATOM     40  C   UNL A   1      39.658  26.697  28.244  1.00  0.00     0.029 A 
ATOM     41  N   UNL A   1      41.773  27.016  28.893  1.00  0.00    -0.354 N 
ATOM     42  C   UNL A   1      43.052  30.772  30.591  1.00  0.00     0.074 A 
ATOM     43  C   UNL A   1      41.959  31.714  30.659  1.00  0.00     0.031 C 
ATOM     44  C   UNL A   1      40.336  25.571  27.974  1.00  0.00     0.029 A 
ATOM     45  C   UNL A   1      41.731  25.750  28.362  1.00  0.00     0.049 A 
ATOM     46  H   UNL A   1      42.593  27.421  29.257  1.00  0.00     0.167 HD
ATOM     47  C   UNL A   1      44.312  31.039  31.009  1.00  0.00     0.031 A 
ATOM     48  C   UNL A   1      42.707  24.838  28.195  1.00  0.00     0.031 A 
ATOM     49  C   UNL A   1      45.398  30.097  30.951  1.00  0.00     0.049 A 
ATOM     50  C   UNL A   1      44.103  25.168  28.646  1.00  0.00     0.074 A 
ATOM     51  C   UNL A   1      46.697  30.254  31.400  1.00  0.00     0.029 A 
ATOM     52  N   UNL A   1      45.311  28.825  30.410  1.00  0.00    -0.354 N 
ATOM     53  N   UNL A   1      44.552  26.262  29.213  1.00  0.00    -0.248 NA
ATOM     54  C   UNL A   1      45.125  24.130  28.445  1.00  0.00     0.031 C 
ATOM     55  C   UNL A   1      47.413  29.097  31.077  1.00  0.00     0.029 A 
ATOM     56  C   UNL A   1      46.542  28.194  30.489  1.00  0.00     0.049 A 
ATOM     57  H   UNL A   1      44.495  28.428  30.026  1.00  0.00     0.167 HD
ATOM     58  C   UNL A   1      45.899  26.031  29.465  1.00  0.00     0.074 A 
ATOM     59  C   UNL A   1      46.189  24.689  29.006  1.00  0.00     0.031 C 
ATOM     60  C   UNL A   1      46.813  26.858  30.030  1.00  0.00     0.031 A 
BRANCH  47  61
ATOM     61  C   UNL A   1      44.586  32.413  31.558  1.00  0.00    -0.014 A 
ATOM     62  C   UNL A   1      44.450  32.690  32.928  1.00  0.00     0.009 A 
ATOM     63  C   UNL A   1      45.024  33.434  30.700  1.00  0.00     0.009 A 
ATOM     64  C   UNL A   1      44.711  33.971  33.421  1.00  0.00     0.001 A 
ATOM     65  C   UNL A   1      45.316  34.703  31.200  1.00  0.00     0.001 A 
ATOM     66  C   UNL A   1      45.150  34.974  32.558  1.00  0.00     0.000 A 
ENDBRANCH  47  61
BRANCH  48  67
ATOM     67  C   UNL A   1      42.402  23.517  27.582  1.00  0.00    -0.014 A 
ATOM     68  C   UNL A   1      42.596  23.306  26.209  1.00  0.00     0.009 A 
ATOM     69  C   UNL A   1      41.898  22.465  28.365  1.00  0.00     0.009 A 
ATOM     70  C   UNL A   1      42.261  22.081  25.625  1.00  0.00     0.001 A 
ATOM     71  C   UNL A   1      41.597  21.231  27.785  1.00  0.00     0.001 A 
ATOM     72  C   UNL A   1      41.767  21.044  26.414  1.00  0.00     0.000 A 
ENDBRANCH  48  67
BRANCH  60  73
ATOM     73  C   UNL A   1      48.203  26.318  30.226  1.00  0.00    -0.014 A 
ATOM     74  C   UNL A   1      49.189  26.454  29.236  1.00  0.00     0.009 A 
ATOM     75  C   UNL A   1      48.540  25.701  31.441  1.00  0.00     0.009 A 
ATOM     76  C   UNL A   1      50.475  25.952  29.448  1.00  0.00     0.001 A 
ATOM     77  C   UNL A   1      49.834  25.230  31.663  1.00  0.00     0.001 A 
ATOM     78  C   UNL A   1      50.797  25.346  30.662  1.00  0.00     0.000 A 
ENDBRANCH  60  73
ENDBRANCH  34  35
ENDBRANCH  26  29
ENDBRANCH  24  25
ENDBRANCH   1  24
TORSDOF 12
ENDMDL
