MODEL 1
REMARK VINA RESULT:     -10.8      0.000      0.000
REMARK SMILES CC(=O)[C@]1(C)CC[C@@H](C(=O)NCCCNC(=O)c2ccc(-c3c4nc(c(-c5ccccc5)c5ccc([nH]5)c(-c5ccccc5)c5nc(c(-c6ccccc6)c6ccc3[nH]6)C=C5)C=C4)cc2)C1(C)C
REMARK SMILES IDX 13 1 12 2 11 3 9 4 10 5 8 7 4 8 6 9 66 10 5 11 7 12 67 13
REMARK SMILES IDX 68 14 2 15 1 16 3 17 14 18 15 19 16 20 17 22 18 23 19 24
REMARK SMILES IDX 65 25 20 26 64 27 21 28 22 29 23 30 58 31 24 32 63 33 57 34
REMARK SMILES IDX 59 35 25 36 62 37 56 38 55 39 26 41 48 42 33 43 47 44 34 45
REMARK SMILES IDX 37 46 46 47 60 48 35 49 36 50 45 52 61 53 38 54 27 55 28 56
REMARK SMILES IDX 32 57 29 58 31 59 30 60 49 61 50 62 54 63 51 64 53 65 52 66
REMARK SMILES IDX 39 67 40 68 44 69 41 70 43 71 42 72
REMARK H PARENT 11 6 15 21 59 40 37 51
REMARK Flexibility Score: inf
ROOT
ATOM      1  C   UNL A   1      37.263  19.613  24.971  1.00  0.00     0.042 C 
ENDROOT
BRANCH   1   2
ATOM      2  C   UNL A   1      36.050  20.533  24.978  1.00  0.00     0.117 C 
BRANCH   2   3
ATOM      3  N   UNL A   1      34.818  19.846  25.298  1.00  0.00    -0.356 N 
ATOM      4  C   UNL A   1      33.522  20.235  25.321  1.00  0.00     0.223 C 
ATOM      5  O   UNL A   1      32.713  19.365  25.668  1.00  0.00    -0.275 OA
ATOM      6  H   UNL A   1      34.948  18.903  25.549  1.00  0.00     0.163 HD
BRANCH   4   7
ATOM      7  C   UNL A   1      33.011  21.642  24.981  1.00  0.00     0.085 C 
ATOM      8  C   UNL A   1      34.116  23.902  25.095  1.00  0.00     0.032 C 
ATOM      9  C   UNL A   1      34.228  23.319  23.660  1.00  0.00     0.016 C 
ATOM     10  C   UNL A   1      33.311  22.826  25.955  1.00  0.00    -0.012 C 
ATOM     11  C   UNL A   1      35.547  24.155  25.615  1.00  0.00     0.020 C 
ATOM     12  C   UNL A   1      33.284  22.133  23.565  1.00  0.00     0.015 C 
ATOM     13  C   UNL A   1      34.025  22.361  27.243  1.00  0.00     0.013 C 
ATOM     14  C   UNL A   1      31.950  23.371  26.474  1.00  0.00     0.013 C 
BRANCH   8  15
ATOM     15  C   UNL A   1      33.364  25.252  24.913  1.00  0.00     0.136 C 
ATOM     16  C   UNL A   1      33.660  26.405  25.840  1.00  0.00     0.088 C 
ATOM     17  O   UNL A   1      32.550  25.413  23.998  1.00  0.00    -0.299 OA
ENDBRANCH   8  15
ENDBRANCH   4   7
ENDBRANCH   2   3
ENDBRANCH   1   2
BRANCH   1  18
ATOM     18  C   UNL A   1      38.557  20.309  25.353  1.00  0.00     0.118 C 
BRANCH  18  19
ATOM     19  N   UNL A   1      39.623  19.360  25.621  1.00  0.00    -0.352 N 
ATOM     20  C   UNL A   1      40.910  19.570  26.055  1.00  0.00     0.251 C 
ATOM     21  H   UNL A   1      39.388  18.416  25.467  1.00  0.00     0.163 HD
ATOM     22  O   UNL A   1      41.729  18.659  25.973  1.00  0.00    -0.269 OA
BRANCH  20  23
ATOM     23  C   UNL A   1      41.327  20.884  26.602  1.00  0.00     0.039 A 
ATOM     24  C   UNL A   1      41.850  21.843  25.729  1.00  0.00     0.014 A 
ATOM     25  C   UNL A   1      41.263  21.161  27.969  1.00  0.00     0.014 A 
ATOM     26  C   UNL A   1      42.259  23.086  26.220  1.00  0.00     0.010 A 
ATOM     27  C   UNL A   1      41.564  22.436  28.440  1.00  0.00     0.010 A 
ATOM     28  C   UNL A   1      42.094  23.404  27.578  1.00  0.00    -0.014 A 
BRANCH  28  29
ATOM     29  C   UNL A   1      42.512  24.724  28.120  1.00  0.00     0.031 A 
ATOM     30  C   UNL A   1      41.488  25.804  28.357  1.00  0.00     0.074 A 
ATOM     31  C   UNL A   1      43.815  24.972  28.352  1.00  0.00     0.049 A 
ATOM     32  N   UNL A   1      41.663  27.025  28.798  1.00  0.00    -0.248 NA
ATOM     33  C   UNL A   1      40.089  25.484  28.028  1.00  0.00     0.031 C 
ATOM     34  C   UNL A   1      44.915  24.034  28.119  1.00  0.00     0.029 A 
ATOM     35  N   UNL A   1      44.435  26.094  28.843  1.00  0.00    -0.354 N 
ATOM     36  C   UNL A   1      40.407  27.623  28.763  1.00  0.00     0.074 A 
ATOM     37  C   UNL A   1      39.491  26.650  28.215  1.00  0.00     0.031 C 
ATOM     38  C   UNL A   1      46.067  24.601  28.511  1.00  0.00     0.029 A 
ATOM     39  C   UNL A   1      45.794  25.953  28.987  1.00  0.00     0.049 A 
ATOM     40  H   UNL A   1      43.952  26.921  29.070  1.00  0.00     0.167 HD
ATOM     41  C   UNL A   1      40.041  28.860  29.174  1.00  0.00     0.031 A 
ATOM     42  C   UNL A   1      46.716  26.813  29.457  1.00  0.00     0.031 A 
ATOM     43  C   UNL A   1      40.942  29.817  29.758  1.00  0.00     0.049 A 
ATOM     44  C   UNL A   1      46.283  28.173  29.929  1.00  0.00     0.074 A 
ATOM     45  C   UNL A   1      40.654  31.064  30.284  1.00  0.00     0.029 A 
ATOM     46  N   UNL A   1      42.308  29.630  29.893  1.00  0.00    -0.354 N 
ATOM     47  N   UNL A   1      45.079  28.691  29.964  1.00  0.00    -0.248 NA
ATOM     48  C   UNL A   1      47.338  29.059  30.439  1.00  0.00     0.031 C 
ATOM     49  C   UNL A   1      41.854  31.651  30.698  1.00  0.00     0.029 A 
ATOM     50  C   UNL A   1      42.882  30.749  30.474  1.00  0.00     0.049 A 
ATOM     51  H   UNL A   1      42.798  28.822  29.618  1.00  0.00     0.167 HD
ATOM     52  C   UNL A   1      45.228  29.954  30.522  1.00  0.00     0.074 A 
ATOM     53  C   UNL A   1      46.635  30.115  30.825  1.00  0.00     0.031 C 
ATOM     54  C   UNL A   1      44.284  30.895  30.763  1.00  0.00     0.031 A 
BRANCH  41  55
ATOM     55  C   UNL A   1      38.599  29.247  28.999  1.00  0.00    -0.014 A 
ATOM     56  C   UNL A   1      37.683  29.152  30.059  1.00  0.00     0.009 A 
ATOM     57  C   UNL A   1      38.154  29.732  27.760  1.00  0.00     0.009 A 
ATOM     58  C   UNL A   1      36.342  29.492  29.869  1.00  0.00     0.001 A 
ATOM     59  C   UNL A   1      36.818  30.101  27.581  1.00  0.00     0.001 A 
ATOM     60  C   UNL A   1      35.912  29.970  28.632  1.00  0.00     0.000 A 
ENDBRANCH  41  55
BRANCH  42  61
ATOM     61  C   UNL A   1      48.140  26.400  29.550  1.00  0.00    -0.014 A 
ATOM     62  C   UNL A   1      49.025  26.673  28.495  1.00  0.00     0.009 A 
ATOM     63  C   UNL A   1      48.622  25.730  30.684  1.00  0.00     0.009 A 
ATOM     64  C   UNL A   1      50.357  26.262  28.564  1.00  0.00     0.001 A 
ATOM     65  C   UNL A   1      49.962  25.343  30.762  1.00  0.00     0.001 A 
ATOM     66  C   UNL A   1      50.826  25.601  29.698  1.00  0.00     0.000 A 
ENDBRANCH  42  61
BRANCH  54  67
ATOM     67  C   UNL A   1      44.742  32.169  31.411  1.00  0.00    -0.014 A 
ATOM     68  C   UNL A   1      44.751  32.313  32.808  1.00  0.00     0.009 A 
ATOM     69  C   UNL A   1      45.192  33.233  30.614  1.00  0.00     0.009 A 
ATOM     70  C   UNL A   1      45.167  33.511  33.390  1.00  0.00     0.001 A 
ATOM     71  C   UNL A   1      45.635  34.419  31.201  1.00  0.00     0.001 A 
ATOM     72  C   UNL A   1      45.611  34.561  32.588  1.00  0.00     0.000 A 
ENDBRANCH  54  67
ENDBRANCH  28  29
ENDBRANCH  20  23
ENDBRANCH  18  19
ENDBRANCH   1  18
TORSDOF 11
ENDMDL
MODEL 2
REMARK VINA RESULT:     -10.8      4.324      9.888
REMARK SMILES CC(=O)[C@]1(C)CC[C@@H](C(=O)NCCCNC(=O)c2ccc(-c3c4nc(c(-c5ccccc5)c5ccc([nH]5)c(-c5ccccc5)c5nc(c(-c6ccccc6)c6ccc3[nH]6)C=C5)C=C4)cc2)C1(C)C
REMARK SMILES IDX 13 1 12 2 11 3 9 4 10 5 8 7 4 8 6 9 66 10 5 11 7 12 67 13
REMARK SMILES IDX 68 14 2 15 1 16 3 17 14 18 15 19 16 20 17 22 18 23 19 24
REMARK SMILES IDX 65 25 20 26 64 27 21 28 22 29 23 30 58 31 24 32 63 33 57 34
REMARK SMILES IDX 59 35 25 36 62 37 56 38 55 39 26 41 48 42 33 43 47 44 34 45
REMARK SMILES IDX 37 46 46 47 60 48 35 49 36 50 45 52 61 53 38 54 27 55 28 56
REMARK SMILES IDX 32 57 29 58 31 59 30 60 49 61 50 62 54 63 51 64 53 65 52 66
REMARK SMILES IDX 39 67 40 68 44 69 41 70 43 71 42 72
REMARK H PARENT 11 6 15 21 59 40 37 51
REMARK Flexibility Score: inf
ROOT
ATOM      1  C   UNL A   1      34.204  34.120  29.024  1.00  0.00     0.042 C 
ENDROOT
BRANCH   1   2
ATOM      2  C   UNL A   1      34.396  33.716  30.479  1.00  0.00     0.117 C 
BRANCH   2   3
ATOM      3  N   UNL A   1      34.695  34.837  31.343  1.00  0.00    -0.356 N 
ATOM      4  C   UNL A   1      35.216  34.930  32.589  1.00  0.00     0.223 C 
ATOM      5  O   UNL A   1      35.316  36.079  33.038  1.00  0.00    -0.275 OA
ATOM      6  H   UNL A   1      34.474  35.710  30.945  1.00  0.00     0.163 HD
BRANCH   4   7
ATOM      7  C   UNL A   1      35.653  33.744  33.460  1.00  0.00     0.085 C 
ATOM      8  C   UNL A   1      37.882  33.117  34.449  1.00  0.00     0.032 C 
ATOM      9  C   UNL A   1      37.031  33.897  35.488  1.00  0.00     0.016 C 
ATOM     10  C   UNL A   1      36.985  32.999  33.133  1.00  0.00    -0.012 C 
ATOM     11  C   UNL A   1      39.192  33.903  34.228  1.00  0.00     0.020 C 
ATOM     12  C   UNL A   1      35.606  33.962  34.966  1.00  0.00     0.015 C 
ATOM     13  C   UNL A   1      37.654  33.525  31.845  1.00  0.00     0.013 C 
ATOM     14  C   UNL A   1      36.634  31.526  32.780  1.00  0.00     0.013 C 
BRANCH   8  15
ATOM     15  C   UNL A   1      38.182  31.752  35.131  1.00  0.00     0.136 C 
ATOM     16  C   UNL A   1      39.245  30.847  34.560  1.00  0.00     0.088 C 
ATOM     17  O   UNL A   1      37.590  31.405  36.158  1.00  0.00    -0.299 OA
ENDBRANCH   8  15
ENDBRANCH   4   7
ENDBRANCH   2   3
ENDBRANCH   1   2
BRANCH   1  18
ATOM     18  C   UNL A   1      34.825  33.146  28.037  1.00  0.00     0.118 C 
BRANCH  18  19
ATOM     19  N   UNL A   1      33.990  31.975  27.835  1.00  0.00    -0.352 N 
ATOM     20  C   UNL A   1      34.331  30.646  27.754  1.00  0.00     0.251 C 
ATOM     21  H   UNL A   1      33.027  32.161  27.743  1.00  0.00     0.163 HD
ATOM     22  O   UNL A   1      33.510  29.839  27.327  1.00  0.00    -0.269 OA
BRANCH  20  23
ATOM     23  C   UNL A   1      35.679  30.176  28.156  1.00  0.00     0.039 A 
ATOM     24  C   UNL A   1      35.868  29.702  29.459  1.00  0.00     0.014 A 
ATOM     25  C   UNL A   1      36.768  30.249  27.286  1.00  0.00     0.014 A 
ATOM     26  C   UNL A   1      37.130  29.262  29.866  1.00  0.00     0.010 A 
ATOM     27  C   UNL A   1      37.997  29.708  27.655  1.00  0.00     0.010 A 
ATOM     28  C   UNL A   1      38.201  29.235  28.958  1.00  0.00    -0.014 A 
BRANCH  28  29
ATOM     29  C   UNL A   1      39.550  28.762  29.366  1.00  0.00     0.031 A 
ATOM     30  C   UNL A   1      40.404  29.603  30.280  1.00  0.00     0.074 A 
ATOM     31  C   UNL A   1      40.031  27.602  28.878  1.00  0.00     0.049 A 
ATOM     32  N   UNL A   1      41.614  29.372  30.724  1.00  0.00    -0.248 NA
ATOM     33  C   UNL A   1      39.838  30.886  30.731  1.00  0.00     0.031 C 
ATOM     34  C   UNL A   1      39.331  26.715  27.946  1.00  0.00     0.029 A 
ATOM     35  N   UNL A   1      41.226  26.967  29.104  1.00  0.00    -0.354 N 
ATOM     36  C   UNL A   1      41.963  30.492  31.471  1.00  0.00     0.074 A 
ATOM     37  C   UNL A   1      40.859  31.420  31.381  1.00  0.00     0.031 C 
ATOM     38  C   UNL A   1      40.088  25.631  27.719  1.00  0.00     0.029 A 
ATOM     39  C   UNL A   1      41.340  25.761  28.457  1.00  0.00     0.049 A 
ATOM     40  H   UNL A   1      41.935  27.341  29.677  1.00  0.00     0.167 HD
ATOM     41  C   UNL A   1      43.087  30.720  32.190  1.00  0.00     0.031 A 
ATOM     42  C   UNL A   1      42.337  24.858  28.463  1.00  0.00     0.031 A 
ATOM     43  C   UNL A   1      44.171  29.783  32.315  1.00  0.00     0.049 A 
ATOM     44  C   UNL A   1      43.567  25.122  29.287  1.00  0.00     0.074 A 
ATOM     45  C   UNL A   1      45.314  29.884  33.087  1.00  0.00     0.029 A 
ATOM     46  N   UNL A   1      44.241  28.570  31.650  1.00  0.00    -0.354 N 
ATOM     47  N   UNL A   1      43.844  26.150  30.051  1.00  0.00    -0.248 NA
ATOM     48  C   UNL A   1      44.614  24.091  29.256  1.00  0.00     0.031 C 
ATOM     49  C   UNL A   1      46.099  28.750  32.855  1.00  0.00     0.029 A 
ATOM     50  C   UNL A   1      45.421  27.921  31.975  1.00  0.00     0.049 A 
ATOM     51  H   UNL A   1      43.555  28.220  31.037  1.00  0.00     0.167 HD
ATOM     52  C   UNL A   1      45.085  25.879  30.612  1.00  0.00     0.074 A 
ATOM     53  C   UNL A   1      45.498  24.584  30.113  1.00  0.00     0.031 C 
ATOM     54  C   UNL A   1      45.817  26.636  31.465  1.00  0.00     0.031 A 
BRANCH  41  55
ATOM     55  C   UNL A   1      43.201  32.044  32.893  1.00  0.00    -0.014 A 
ATOM     56  C   UNL A   1      43.770  33.162  32.261  1.00  0.00     0.009 A 
ATOM     57  C   UNL A   1      42.715  32.181  34.203  1.00  0.00     0.009 A 
ATOM     58  C   UNL A   1      43.890  34.376  32.941  1.00  0.00     0.001 A 
ATOM     59  C   UNL A   1      42.808  33.404  34.870  1.00  0.00     0.001 A 
ATOM     60  C   UNL A   1      43.406  34.497  34.243  1.00  0.00     0.000 A 
ENDBRANCH  41  55
BRANCH  42  61
ATOM     61  C   UNL A   1      42.199  23.592  27.698  1.00  0.00    -0.014 A 
ATOM     62  C   UNL A   1      41.616  22.464  28.298  1.00  0.00     0.009 A 
ATOM     63  C   UNL A   1      42.650  23.499  26.374  1.00  0.00     0.009 A 
ATOM     64  C   UNL A   1      41.509  21.264  27.594  1.00  0.00     0.001 A 
ATOM     65  C   UNL A   1      42.519  22.303  25.663  1.00  0.00     0.001 A 
ATOM     66  C   UNL A   1      41.957  21.185  26.276  1.00  0.00     0.000 A 
ENDBRANCH  42  61
BRANCH  54  67
ATOM     67  C   UNL A   1      47.124  26.063  31.933  1.00  0.00    -0.014 A 
ATOM     68  C   UNL A   1      48.303  26.237  31.190  1.00  0.00     0.009 A 
ATOM     69  C   UNL A   1      47.181  25.360  33.146  1.00  0.00     0.009 A 
ATOM     70  C   UNL A   1      49.504  25.685  31.635  1.00  0.00     0.001 A 
ATOM     71  C   UNL A   1      48.390  24.833  33.603  1.00  0.00     0.001 A 
ATOM     72  C   UNL A   1      49.548  24.986  32.842  1.00  0.00     0.000 A 
ENDBRANCH  54  67
ENDBRANCH  28  29
ENDBRANCH  20  23
ENDBRANCH  18  19
ENDBRANCH   1  18
TORSDOF 11
ENDMDL
MODEL 3
REMARK VINA RESULT:     -10.8      0.362      6.283
REMARK SMILES CC(=O)[C@]1(C)CC[C@@H](C(=O)NCCCNC(=O)c2ccc(-c3c4nc(c(-c5ccccc5)c5ccc([nH]5)c(-c5ccccc5)c5nc(c(-c6ccccc6)c6ccc3[nH]6)C=C5)C=C4)cc2)C1(C)C
REMARK SMILES IDX 13 1 12 2 11 3 9 4 10 5 8 7 4 8 6 9 66 10 5 11 7 12 67 13
REMARK SMILES IDX 68 14 2 15 1 16 3 17 14 18 15 19 16 20 17 22 18 23 19 24
REMARK SMILES IDX 65 25 20 26 64 27 21 28 22 29 23 30 58 31 24 32 63 33 57 34
REMARK SMILES IDX 59 35 25 36 62 37 56 38 55 39 26 41 48 42 33 43 47 44 34 45
REMARK SMILES IDX 37 46 46 47 60 48 35 49 36 50 45 52 61 53 38 54 27 55 28 56
REMARK SMILES IDX 32 57 29 58 31 59 30 60 49 61 50 62 54 63 51 64 53 65 52 66
REMARK SMILES IDX 39 67 40 68 44 69 41 70 43 71 42 72
REMARK H PARENT 11 6 15 21 59 40 37 51
REMARK Flexibility Score: inf
ROOT
ATOM      1  C   UNL A   1      37.314  19.434  24.998  1.00  0.00     0.042 C 
ENDROOT
BRANCH   1   2
ATOM      2  C   UNL A   1      36.098  20.320  24.766  1.00  0.00     0.117 C 
BRANCH   2   3
ATOM      3  N   UNL A   1      34.862  19.716  25.212  1.00  0.00    -0.356 N 
ATOM      4  C   UNL A   1      33.595  20.180  25.326  1.00  0.00     0.223 C 
ATOM      5  O   UNL A   1      32.772  19.370  25.773  1.00  0.00    -0.275 OA
ATOM      6  H   UNL A   1      34.962  18.777  25.489  1.00  0.00     0.163 HD
BRANCH   4   7
ATOM      7  C   UNL A   1      33.135  21.601  24.974  1.00  0.00     0.085 C 
ATOM      8  C   UNL A   1      34.326  23.818  25.043  1.00  0.00     0.032 C 
ATOM      9  C   UNL A   1      34.398  23.212  23.616  1.00  0.00     0.016 C 
ATOM     10  C   UNL A   1      33.492  22.784  25.928  1.00  0.00    -0.012 C 
ATOM     11  C   UNL A   1      35.773  24.022  25.542  1.00  0.00     0.020 C 
ATOM     12  C   UNL A   1      33.407  22.062  23.548  1.00  0.00     0.015 C 
ATOM     13  C   UNL A   1      34.204  22.309  27.213  1.00  0.00     0.013 C 
ATOM     14  C   UNL A   1      32.160  23.389  26.457  1.00  0.00     0.013 C 
BRANCH   8  15
ATOM     15  C   UNL A   1      33.625  25.193  24.853  1.00  0.00     0.136 C 
ATOM     16  C   UNL A   1      33.887  26.310  25.833  1.00  0.00     0.088 C 
ATOM     17  O   UNL A   1      32.880  25.403  23.890  1.00  0.00    -0.299 OA
ENDBRANCH   8  15
ENDBRANCH   4   7
ENDBRANCH   2   3
ENDBRANCH   1   2
BRANCH   1  18
ATOM     18  C   UNL A   1      38.562  20.205  25.389  1.00  0.00     0.118 C 
BRANCH  18  19
ATOM     19  N   UNL A   1      39.685  19.320  25.647  1.00  0.00    -0.352 N 
ATOM     20  C   UNL A   1      40.966  19.607  26.056  1.00  0.00     0.251 C 
ATOM     21  H   UNL A   1      39.500  18.362  25.508  1.00  0.00     0.163 HD
ATOM     22  O   UNL A   1      41.833  18.742  25.969  1.00  0.00    -0.269 OA
BRANCH  20  23
ATOM     23  C   UNL A   1      41.318  20.948  26.581  1.00  0.00     0.039 A 
ATOM     24  C   UNL A   1      41.176  21.195  27.950  1.00  0.00     0.014 A 
ATOM     25  C   UNL A   1      41.730  21.979  25.735  1.00  0.00     0.014 A 
ATOM     26  C   UNL A   1      41.493  22.454  28.469  1.00  0.00     0.010 A 
ATOM     27  C   UNL A   1      42.152  23.195  26.266  1.00  0.00     0.010 A 
ATOM     28  C   UNL A   1      42.011  23.458  27.635  1.00  0.00    -0.014 A 
BRANCH  28  29
ATOM     29  C   UNL A   1      42.364  24.800  28.167  1.00  0.00     0.031 A 
ATOM     30  C   UNL A   1      43.791  25.120  28.529  1.00  0.00     0.074 A 
ATOM     31  C   UNL A   1      41.398  25.716  28.374  1.00  0.00     0.049 A 
ATOM     32  N   UNL A   1      44.289  26.223  29.032  1.00  0.00    -0.248 NA
ATOM     33  C   UNL A   1      44.787  24.054  28.330  1.00  0.00     0.031 C 
ATOM     34  C   UNL A   1      39.970  25.521  28.115  1.00  0.00     0.029 A 
ATOM     35  N   UNL A   1      41.476  27.001  28.849  1.00  0.00    -0.354 N 
ATOM     36  C   UNL A   1      45.640  25.967  29.239  1.00  0.00     0.074 A 
ATOM     37  C   UNL A   1      45.875  24.594  28.856  1.00  0.00     0.031 C 
ATOM     38  C   UNL A   1      39.314  26.660  28.388  1.00  0.00     0.029 A 
ATOM     39  C   UNL A   1      40.266  27.652  28.876  1.00  0.00     0.049 A 
ATOM     40  H   UNL A   1      42.319  27.418  29.141  1.00  0.00     0.167 HD
ATOM     41  C   UNL A   1      46.607  26.804  29.685  1.00  0.00     0.031 A 
ATOM     42  C   UNL A   1      39.959  28.909  29.244  1.00  0.00     0.031 A 
ATOM     43  C   UNL A   1      46.386  28.183  30.029  1.00  0.00     0.049 A 
ATOM     44  C   UNL A   1      41.052  29.828  29.713  1.00  0.00     0.074 A 
ATOM     45  C   UNL A   1      47.314  29.136  30.408  1.00  0.00     0.029 A 
ATOM     46  N   UNL A   1      45.148  28.804  30.034  1.00  0.00    -0.354 N 
ATOM     47  N   UNL A   1      42.337  29.593  29.827  1.00  0.00    -0.248 NA
ATOM     48  C   UNL A   1      40.651  31.190  30.092  1.00  0.00     0.031 C 
ATOM     49  C   UNL A   1      46.631  30.325  30.686  1.00  0.00     0.029 A 
ATOM     50  C   UNL A   1      45.283  30.123  30.432  1.00  0.00     0.049 A 
ATOM     51  H   UNL A   1      44.298  28.371  29.790  1.00  0.00     0.167 HD
ATOM     52  C   UNL A   1      42.900  30.784  30.266  1.00  0.00     0.074 A 
ATOM     53  C   UNL A   1      41.821  31.743  30.381  1.00  0.00     0.031 C 
ATOM     54  C   UNL A   1      44.197  31.060  30.547  1.00  0.00     0.031 A 
BRANCH  41  55
ATOM     55  C   UNL A   1      47.994  26.243  29.828  1.00  0.00    -0.014 A 
ATOM     56  C   UNL A   1      48.877  26.187  28.737  1.00  0.00     0.009 A 
ATOM     57  C   UNL A   1      48.433  25.780  31.078  1.00  0.00     0.009 A 
ATOM     58  C   UNL A   1      50.153  25.639  28.884  1.00  0.00     0.001 A 
ATOM     59  C   UNL A   1      49.720  25.259  31.231  1.00  0.00     0.001 A 
ATOM     60  C   UNL A   1      50.574  25.179  30.132  1.00  0.00     0.000 A 
ENDBRANCH  41  55
BRANCH  42  61
ATOM     61  C   UNL A   1      38.558  29.394  29.141  1.00  0.00    -0.014 A 
ATOM     62  C   UNL A   1      37.688  29.275  30.236  1.00  0.00     0.009 A 
ATOM     63  C   UNL A   1      38.082  29.971  27.955  1.00  0.00     0.009 A 
ATOM     64  C   UNL A   1      36.363  29.702  30.137  1.00  0.00     0.001 A 
ATOM     65  C   UNL A   1      36.763  30.421  27.867  1.00  0.00     0.001 A 
ATOM     66  C   UNL A   1      35.902  30.278  28.954  1.00  0.00     0.000 A 
ENDBRANCH  42  61
BRANCH  54  67
ATOM     67  C   UNL A   1      44.517  32.462  30.978  1.00  0.00    -0.014 A 
ATOM     68  C   UNL A   1      44.819  33.461  30.039  1.00  0.00     0.009 A 
ATOM     69  C   UNL A   1      44.495  32.794  32.341  1.00  0.00     0.009 A 
ATOM     70  C   UNL A   1      45.128  34.755  30.461  1.00  0.00     0.001 A 
ATOM     71  C   UNL A   1      44.776  34.095  32.758  1.00  0.00     0.001 A 
ATOM     72  C   UNL A   1      45.103  35.072  31.819  1.00  0.00     0.000 A 
ENDBRANCH  54  67
ENDBRANCH  28  29
ENDBRANCH  20  23
ENDBRANCH  18  19
ENDBRANCH   1  18
TORSDOF 11
ENDMDL
