MODEL 1
REMARK VINA RESULT:     -11.1      0.000      0.000
REMARK SMILES CC[C@@](C)(NC(=O)c1c(C)cc(C)[nH]c1=O)C(=O)NCCCNC(=O)c1ccc(-c2c3nc(c(-c4ccccc4)c4ccc([nH]4)c(-c4ccccc4)c4nc(c(-c5ccccc5)c5ccc2[nH]5)C=C4)C=C3)cc1
REMARK SMILES IDX 21 1 20 2 19 3 17 4 18 5 3 7 4 8 2 9 1 10 5 11 6 12 7 14
REMARK SMILES IDX 8 15 9 16 15 17 10 18 11 19 14 20 16 21 12 22 13 24 22 25
REMARK SMILES IDX 23 26 24 27 25 29 26 30 27 31 73 32 28 33 72 34 29 35 30 36
REMARK SMILES IDX 31 37 66 38 32 39 71 40 65 41 67 42 33 43 70 44 64 45 63 46
REMARK SMILES IDX 34 48 56 49 41 50 55 51 42 52 45 53 54 54 68 55 43 56 44 57
REMARK SMILES IDX 53 59 69 60 46 61 35 62 36 63 40 64 37 65 39 66 38 67 57 68
REMARK SMILES IDX 58 69 62 70 59 71 61 72 60 73 47 74 48 75 52 76 49 77 51 78
REMARK SMILES IDX 50 79
REMARK H PARENT 19 6 5 13 14 23 23 28 67 47 45 58
REMARK Flexibility Score: inf
ROOT
ATOM      1  C   UNL A   1      31.300  31.581  26.367  1.00  0.00     0.042 C 
ENDROOT
BRANCH   1   2
ATOM      2  C   UNL A   1      31.596  30.133  25.949  1.00  0.00     0.117 C 
BRANCH   2   3
ATOM      3  N   UNL A   1      32.901  29.589  26.304  1.00  0.00    -0.354 N 
ATOM      4  C   UNL A   1      33.503  28.363  26.298  1.00  0.00     0.245 C 
ATOM      5  O   UNL A   1      34.628  28.351  26.824  1.00  0.00    -0.272 OA
ATOM      6  H   UNL A   1      33.509  30.289  26.634  1.00  0.00     0.163 HD
BRANCH   4   7
ATOM      7  C   UNL A   1      32.893  27.030  25.716  1.00  0.00     0.116 C 
ATOM      8  C   UNL A   1      32.549  27.286  24.227  1.00  0.00     0.045 C 
BRANCH   7   9
ATOM      9  C   UNL A   1      33.973  25.893  25.756  1.00  0.00     0.035 C 
ATOM     10  C   UNL A   1      34.387  25.281  24.415  1.00  0.00     0.007 C 
ENDBRANCH   7   9
BRANCH   7  11
ATOM     11  N   UNL A   1      31.647  26.454  26.351  1.00  0.00    -0.338 N 
ATOM     12  C   UNL A   1      30.826  25.376  26.125  1.00  0.00     0.258 C 
ATOM     13  H   UNL A   1      31.347  26.989  27.122  1.00  0.00     0.164 HD
ATOM     14  O   UNL A   1      29.653  25.526  26.480  1.00  0.00    -0.269 OA
BRANCH  12  15
ATOM     15  C   UNL A   1      31.288  24.059  25.568  1.00  0.00     0.107 A 
ATOM     16  C   UNL A   1      31.204  23.643  24.276  1.00  0.00    -0.031 A 
ATOM     17  C   UNL A   1      31.545  22.964  26.514  1.00  0.00     0.261 A 
ATOM     18  C   UNL A   1      30.650  24.419  23.113  1.00  0.00     0.045 C 
ATOM     19  C   UNL A   1      31.631  22.280  23.898  1.00  0.00     0.025 A 
ATOM     20  N   UNL A   1      32.170  21.833  26.103  1.00  0.00    -0.326 N 
ATOM     21  O   UNL A   1      31.059  23.002  27.629  1.00  0.00    -0.269 OA
ATOM     22  C   UNL A   1      32.152  21.435  24.801  1.00  0.00     0.015 A 
ATOM     23  H   UNL A   1      32.651  21.284  26.765  1.00  0.00     0.169 HD
ATOM     24  C   UNL A   1      32.564  20.020  24.535  1.00  0.00     0.064 C 
ENDBRANCH  12  15
ENDBRANCH   7  11
ENDBRANCH   4   7
ENDBRANCH   2   3
ENDBRANCH   1   2
BRANCH   1  25
ATOM     25  C   UNL A   1      32.481  32.452  26.826  1.00  0.00     0.118 C 
BRANCH  25  26
ATOM     26  N   UNL A   1      32.152  33.650  27.567  1.00  0.00    -0.352 N 
ATOM     27  C   UNL A   1      32.959  34.399  28.391  1.00  0.00     0.251 C 
ATOM     28  H   UNL A   1      31.227  33.972  27.469  1.00  0.00     0.163 HD
ATOM     29  O   UNL A   1      32.582  35.513  28.752  1.00  0.00    -0.269 OA
BRANCH  27  30
ATOM     30  C   UNL A   1      34.234  33.868  28.936  1.00  0.00     0.039 A 
ATOM     31  C   UNL A   1      34.135  32.756  29.780  1.00  0.00     0.014 A 
ATOM     32  C   UNL A   1      35.489  34.445  28.703  1.00  0.00     0.014 A 
ATOM     33  C   UNL A   1      35.280  32.193  30.347  1.00  0.00     0.010 A 
ATOM     34  C   UNL A   1      36.645  33.859  29.249  1.00  0.00     0.010 A 
ATOM     35  C   UNL A   1      36.551  32.725  30.073  1.00  0.00    -0.014 A 
BRANCH  35  36
ATOM     36  C   UNL A   1      37.754  32.059  30.646  1.00  0.00     0.031 A 
ATOM     37  C   UNL A   1      38.229  32.370  32.039  1.00  0.00     0.074 A 
ATOM     38  C   UNL A   1      38.398  31.118  29.927  1.00  0.00     0.049 A 
ATOM     39  N   UNL A   1      39.176  31.790  32.734  1.00  0.00    -0.248 NA
ATOM     40  C   UNL A   1      37.555  33.472  32.742  1.00  0.00     0.031 C 
ATOM     41  C   UNL A   1      38.054  30.717  28.563  1.00  0.00     0.029 A 
ATOM     42  N   UNL A   1      39.461  30.309  30.255  1.00  0.00    -0.354 N 
ATOM     43  C   UNL A   1      39.206  32.446  33.959  1.00  0.00     0.074 A 
ATOM     44  C   UNL A   1      38.212  33.497  33.894  1.00  0.00     0.031 C 
ATOM     45  C   UNL A   1      38.860  29.712  28.186  1.00  0.00     0.029 A 
ATOM     46  C   UNL A   1      39.791  29.410  29.269  1.00  0.00     0.049 A 
ATOM     47  H   UNL A   1      39.938  30.367  31.114  1.00  0.00     0.167 HD
ATOM     48  C   UNL A   1      39.973  32.185  35.045  1.00  0.00     0.031 A 
ATOM     49  C   UNL A   1      40.727  28.440  29.241  1.00  0.00     0.031 A 
ATOM     50  C   UNL A   1      40.967  31.147  35.121  1.00  0.00     0.049 A 
ATOM     51  C   UNL A   1      41.600  28.205  30.440  1.00  0.00     0.074 A 
ATOM     52  C   UNL A   1      41.759  30.793  36.200  1.00  0.00     0.029 A 
ATOM     53  N   UNL A   1      41.311  30.304  34.079  1.00  0.00    -0.354 N 
ATOM     54  N   UNL A   1      41.571  28.795  31.609  1.00  0.00    -0.248 NA
ATOM     55  C   UNL A   1      42.633  27.164  30.318  1.00  0.00     0.031 C 
ATOM     56  C   UNL A   1      42.616  29.763  35.797  1.00  0.00     0.029 A 
ATOM     57  C   UNL A   1      42.324  29.448  34.479  1.00  0.00     0.049 A 
ATOM     58  H   UNL A   1      40.897  30.310  33.185  1.00  0.00     0.167 HD
ATOM     59  C   UNL A   1      42.563  28.186  32.366  1.00  0.00     0.074 A 
ATOM     60  C   UNL A   1      43.171  27.172  31.530  1.00  0.00     0.031 C 
ATOM     61  C   UNL A   1      42.931  28.447  33.643  1.00  0.00     0.031 A 
BRANCH  48  62
ATOM     62  C   UNL A   1      39.765  33.042  36.261  1.00  0.00    -0.014 A 
ATOM     63  C   UNL A   1      40.490  34.232  36.435  1.00  0.00     0.009 A 
ATOM     64  C   UNL A   1      38.787  32.696  37.206  1.00  0.00     0.009 A 
ATOM     65  C   UNL A   1      40.257  35.045  37.546  1.00  0.00     0.001 A 
ATOM     66  C   UNL A   1      38.541  33.523  38.304  1.00  0.00     0.001 A 
ATOM     67  C   UNL A   1      39.280  34.693  38.476  1.00  0.00     0.000 A 
ENDBRANCH  48  62
BRANCH  49  68
ATOM     68  C   UNL A   1      40.869  27.590  28.031  1.00  0.00    -0.014 A 
ATOM     69  C   UNL A   1      41.709  27.987  26.979  1.00  0.00     0.009 A 
ATOM     70  C   UNL A   1      40.175  26.375  27.926  1.00  0.00     0.009 A 
ATOM     71  C   UNL A   1      41.840  27.191  25.840  1.00  0.00     0.001 A 
ATOM     72  C   UNL A   1      40.325  25.570  26.796  1.00  0.00     0.001 A 
ATOM     73  C   UNL A   1      41.152  25.981  25.751  1.00  0.00     0.000 A 
ENDBRANCH  49  68
BRANCH  61  74
ATOM     74  C   UNL A   1      44.041  27.623  34.232  1.00  0.00    -0.014 A 
ATOM     75  C   UNL A   1      45.377  28.040  34.138  1.00  0.00     0.009 A 
ATOM     76  C   UNL A   1      43.740  26.459  34.956  1.00  0.00     0.009 A 
ATOM     77  C   UNL A   1      46.392  27.300  34.747  1.00  0.00     0.001 A 
ATOM     78  C   UNL A   1      44.754  25.733  35.582  1.00  0.00     0.001 A 
ATOM     79  C   UNL A   1      46.079  26.152  35.475  1.00  0.00     0.000 A 
ENDBRANCH  61  74
ENDBRANCH  35  36
ENDBRANCH  27  30
ENDBRANCH  25  26
ENDBRANCH   1  25
TORSDOF 13
ENDMDL
MODEL 2
REMARK VINA RESULT:     -11.1      3.664      7.560
REMARK SMILES CC[C@@](C)(NC(=O)c1c(C)cc(C)[nH]c1=O)C(=O)NCCCNC(=O)c1ccc(-c2c3nc(c(-c4ccccc4)c4ccc([nH]4)c(-c4ccccc4)c4nc(c(-c5ccccc5)c5ccc2[nH]5)C=C4)C=C3)cc1
REMARK SMILES IDX 21 1 20 2 19 3 17 4 18 5 3 7 4 8 2 9 1 10 5 11 6 12 7 14
REMARK SMILES IDX 8 15 9 16 15 17 10 18 11 19 14 20 16 21 12 22 13 24 22 25
REMARK SMILES IDX 23 26 24 27 25 29 26 30 27 31 73 32 28 33 72 34 29 35 30 36
REMARK SMILES IDX 31 37 66 38 32 39 71 40 65 41 67 42 33 43 70 44 64 45 63 46
REMARK SMILES IDX 34 48 56 49 41 50 55 51 42 52 45 53 54 54 68 55 43 56 44 57
REMARK SMILES IDX 53 59 69 60 46 61 35 62 36 63 40 64 37 65 39 66 38 67 57 68
REMARK SMILES IDX 58 69 62 70 59 71 61 72 60 73 47 74 48 75 52 76 49 77 51 78
REMARK SMILES IDX 50 79
REMARK H PARENT 19 6 5 13 14 23 23 28 67 47 45 58
REMARK Flexibility Score: inf
ROOT
ATOM      1  C   UNL A   1      34.020  28.234  25.807  1.00  0.00     0.042 C 
ENDROOT
BRANCH   1   2
ATOM      2  C   UNL A   1      34.155  26.764  25.382  1.00  0.00     0.117 C 
BRANCH   2   3
ATOM      3  N   UNL A   1      33.270  25.799  26.023  1.00  0.00    -0.354 N 
ATOM      4  C   UNL A   1      33.096  24.445  26.007  1.00  0.00     0.245 C 
ATOM      5  O   UNL A   1      32.100  24.057  26.639  1.00  0.00    -0.272 OA
ATOM      6  H   UNL A   1      32.629  26.240  26.626  1.00  0.00     0.163 HD
BRANCH   4   7
ATOM      7  C   UNL A   1      34.014  23.398  25.265  1.00  0.00     0.116 C 
ATOM      8  C   UNL A   1      35.408  23.440  25.942  1.00  0.00     0.045 C 
BRANCH   7   9
ATOM      9  C   UNL A   1      33.439  21.953  25.471  1.00  0.00     0.035 C 
ATOM     10  C   UNL A   1      34.046  20.836  24.617  1.00  0.00     0.007 C 
ENDBRANCH   7   9
BRANCH   7  11
ATOM     11  N   UNL A   1      34.253  23.553  23.780  1.00  0.00    -0.338 N 
ATOM     12  C   UNL A   1      33.538  24.019  22.704  1.00  0.00     0.258 C 
ATOM     13  H   UNL A   1      35.148  23.238  23.518  1.00  0.00     0.164 HD
ATOM     14  O   UNL A   1      33.827  23.504  21.620  1.00  0.00    -0.269 OA
BRANCH  12  15
ATOM     15  C   UNL A   1      32.527  25.128  22.771  1.00  0.00     0.107 A 
ATOM     16  C   UNL A   1      31.211  25.017  23.098  1.00  0.00    -0.031 A 
ATOM     17  C   UNL A   1      32.856  26.399  22.110  1.00  0.00     0.261 A 
ATOM     18  C   UNL A   1      30.481  23.761  23.484  1.00  0.00     0.045 C 
ATOM     19  C   UNL A   1      30.323  26.197  23.040  1.00  0.00     0.025 A 
ATOM     20  N   UNL A   1      32.094  27.501  22.322  1.00  0.00    -0.326 N 
ATOM     21  O   UNL A   1      33.716  26.429  21.250  1.00  0.00    -0.269 OA
ATOM     22  C   UNL A   1      30.792  27.410  22.711  1.00  0.00     0.015 A 
ATOM     23  H   UNL A   1      32.493  28.392  22.190  1.00  0.00     0.169 HD
ATOM     24  C   UNL A   1      29.971  28.654  22.572  1.00  0.00     0.064 C 
ENDBRANCH  12  15
ENDBRANCH   7  11
ENDBRANCH   4   7
ENDBRANCH   2   3
ENDBRANCH   1   2
BRANCH   1  25
ATOM     25  C   UNL A   1      33.598  28.527  27.256  1.00  0.00     0.118 C 
BRANCH  25  26
ATOM     26  N   UNL A   1      33.557  29.919  27.649  1.00  0.00    -0.352 N 
ATOM     27  C   UNL A   1      34.599  30.744  28.002  1.00  0.00     0.251 C 
ATOM     28  H   UNL A   1      32.662  30.331  27.667  1.00  0.00     0.163 HD
ATOM     29  O   UNL A   1      34.407  31.956  28.080  1.00  0.00    -0.269 OA
BRANCH  27  30
ATOM     30  C   UNL A   1      35.930  30.208  28.383  1.00  0.00     0.039 A 
ATOM     31  C   UNL A   1      36.907  30.201  27.382  1.00  0.00     0.014 A 
ATOM     32  C   UNL A   1      36.230  29.668  29.640  1.00  0.00     0.014 A 
ATOM     33  C   UNL A   1      38.187  29.707  27.644  1.00  0.00     0.010 A 
ATOM     34  C   UNL A   1      37.528  29.200  29.913  1.00  0.00     0.010 A 
ATOM     35  C   UNL A   1      38.520  29.218  28.918  1.00  0.00    -0.014 A 
BRANCH  35  36
ATOM     36  C   UNL A   1      39.912  28.758  29.177  1.00  0.00     0.031 A 
ATOM     37  C   UNL A   1      40.358  27.372  28.801  1.00  0.00     0.074 A 
ATOM     38  C   UNL A   1      40.808  29.615  29.706  1.00  0.00     0.049 A 
ATOM     39  N   UNL A   1      41.562  26.856  28.839  1.00  0.00    -0.248 NA
ATOM     40  C   UNL A   1      39.322  26.445  28.322  1.00  0.00     0.031 C 
ATOM     41  C   UNL A   1      40.517  30.987  30.123  1.00  0.00     0.029 A 
ATOM     42  N   UNL A   1      42.151  29.468  29.957  1.00  0.00    -0.354 N 
ATOM     43  C   UNL A   1      41.432  25.551  28.378  1.00  0.00     0.074 A 
ATOM     44  C   UNL A   1      40.025  25.341  28.110  1.00  0.00     0.031 C 
ATOM     45  C   UNL A   1      41.653  31.569  30.539  1.00  0.00     0.029 A 
ATOM     46  C   UNL A   1      42.749  30.608  30.439  1.00  0.00     0.049 A 
ATOM     47  H   UNL A   1      42.639  28.627  29.806  1.00  0.00     0.167 HD
ATOM     48  C   UNL A   1      42.396  24.621  28.176  1.00  0.00     0.031 A 
ATOM     49  C   UNL A   1      44.035  30.863  30.752  1.00  0.00     0.031 A 
ATOM     50  C   UNL A   1      43.798  24.816  28.442  1.00  0.00     0.049 A 
ATOM     51  C   UNL A   1      45.077  29.797  30.567  1.00  0.00     0.074 A 
ATOM     52  C   UNL A   1      44.844  23.935  28.227  1.00  0.00     0.029 A 
ATOM     53  N   UNL A   1      44.347  25.963  28.988  1.00  0.00    -0.354 N 
ATOM     54  N   UNL A   1      44.944  28.592  30.073  1.00  0.00    -0.248 NA
ATOM     55  C   UNL A   1      46.450  30.130  30.978  1.00  0.00     0.031 C 
ATOM     56  C   UNL A   1      46.022  24.533  28.685  1.00  0.00     0.029 A 
ATOM     57  C   UNL A   1      45.714  25.803  29.144  1.00  0.00     0.049 A 
ATOM     58  H   UNL A   1      43.842  26.773  29.230  1.00  0.00     0.167 HD
ATOM     59  C   UNL A   1      46.214  28.031  30.094  1.00  0.00     0.074 A 
ATOM     60  C   UNL A   1      47.109  29.030  30.640  1.00  0.00     0.031 C 
ATOM     61  C   UNL A   1      46.599  26.795  29.693  1.00  0.00     0.031 A 
BRANCH  48  62
ATOM     62  C   UNL A   1      41.969  23.289  27.628  1.00  0.00    -0.014 A 
ATOM     63  C   UNL A   1      41.600  22.242  28.489  1.00  0.00     0.009 A 
ATOM     64  C   UNL A   1      41.865  23.100  26.242  1.00  0.00     0.009 A 
ATOM     65  C   UNL A   1      41.161  21.023  27.970  1.00  0.00     0.001 A 
ATOM     66  C   UNL A   1      41.404  21.887  25.726  1.00  0.00     0.001 A 
ATOM     67  C   UNL A   1      41.059  20.848  26.590  1.00  0.00     0.000 A 
ENDBRANCH  48  62
BRANCH  49  68
ATOM     68  C   UNL A   1      44.418  32.208  31.252  1.00  0.00    -0.014 A 
ATOM     69  C   UNL A   1      44.397  32.487  32.628  1.00  0.00     0.009 A 
ATOM     70  C   UNL A   1      44.814  33.216  30.360  1.00  0.00     0.009 A 
ATOM     71  C   UNL A   1      44.754  33.752  33.098  1.00  0.00     0.001 A 
ATOM     72  C   UNL A   1      45.191  34.473  30.834  1.00  0.00     0.001 A 
ATOM     73  C   UNL A   1      45.155  34.743  32.201  1.00  0.00     0.000 A 
ENDBRANCH  49  68
BRANCH  61  74
ATOM     74  C   UNL A   1      48.054  26.443  29.817  1.00  0.00    -0.014 A 
ATOM     75  C   UNL A   1      48.555  25.848  30.985  1.00  0.00     0.009 A 
ATOM     76  C   UNL A   1      48.916  26.636  28.727  1.00  0.00     0.009 A 
ATOM     77  C   UNL A   1      49.896  25.464  31.061  1.00  0.00     0.001 A 
ATOM     78  C   UNL A   1      50.250  26.232  28.798  1.00  0.00     0.001 A 
ATOM     79  C   UNL A   1      50.739  25.650  29.967  1.00  0.00     0.000 A 
ENDBRANCH  61  74
ENDBRANCH  35  36
ENDBRANCH  27  30
ENDBRANCH  25  26
ENDBRANCH   1  25
TORSDOF 13
ENDMDL
MODEL 3
REMARK VINA RESULT:     -11.1      4.702      9.404
REMARK SMILES CC[C@@](C)(NC(=O)c1c(C)cc(C)[nH]c1=O)C(=O)NCCCNC(=O)c1ccc(-c2c3nc(c(-c4ccccc4)c4ccc([nH]4)c(-c4ccccc4)c4nc(c(-c5ccccc5)c5ccc2[nH]5)C=C4)C=C3)cc1
REMARK SMILES IDX 21 1 20 2 19 3 17 4 18 5 3 7 4 8 2 9 1 10 5 11 6 12 7 14
REMARK SMILES IDX 8 15 9 16 15 17 10 18 11 19 14 20 16 21 12 22 13 24 22 25
REMARK SMILES IDX 23 26 24 27 25 29 26 30 27 31 73 32 28 33 72 34 29 35 30 36
REMARK SMILES IDX 31 37 66 38 32 39 71 40 65 41 67 42 33 43 70 44 64 45 63 46
REMARK SMILES IDX 34 48 56 49 41 50 55 51 42 52 45 53 54 54 68 55 43 56 44 57
REMARK SMILES IDX 53 59 69 60 46 61 35 62 36 63 40 64 37 65 39 66 38 67 57 68
REMARK SMILES IDX 58 69 62 70 59 71 61 72 60 73 47 74 48 75 52 76 49 77 51 78
REMARK SMILES IDX 50 79
REMARK H PARENT 19 6 5 13 14 23 23 28 67 47 45 58
REMARK Flexibility Score: inf
ROOT
ATOM      1  C   UNL A   1      37.592  19.842  24.796  1.00  0.00     0.042 C 
ENDROOT
BRANCH   1   2
ATOM      2  C   UNL A   1      36.487  20.909  24.796  1.00  0.00     0.117 C 
BRANCH   2   3
ATOM      3  N   UNL A   1      36.793  22.187  25.427  1.00  0.00    -0.354 N 
ATOM      4  C   UNL A   1      36.227  23.429  25.486  1.00  0.00     0.245 C 
ATOM      5  O   UNL A   1      36.929  24.277  26.061  1.00  0.00    -0.272 OA
ATOM      6  H   UNL A   1      37.628  22.144  25.948  1.00  0.00     0.163 HD
BRANCH   4   7
ATOM      7  C   UNL A   1      34.826  23.841  24.889  1.00  0.00     0.116 C 
ATOM      8  C   UNL A   1      33.744  23.006  25.620  1.00  0.00     0.045 C 
BRANCH   7   9
ATOM      9  C   UNL A   1      34.542  25.352  25.206  1.00  0.00     0.035 C 
ATOM     10  C   UNL A   1      33.344  25.658  26.109  1.00  0.00     0.007 C 
ENDBRANCH   7   9
BRANCH   7  11
ATOM     11  N   UNL A   1      34.577  23.663  23.408  1.00  0.00    -0.338 N 
ATOM     12  C   UNL A   1      33.539  23.905  22.541  1.00  0.00     0.258 C 
ATOM     13  H   UNL A   1      35.357  23.275  22.949  1.00  0.00     0.164 HD
ATOM     14  O   UNL A   1      33.494  23.160  21.558  1.00  0.00    -0.269 OA
BRANCH  12  15
ATOM     15  C   UNL A   1      32.555  25.031  22.687  1.00  0.00     0.107 A 
ATOM     16  C   UNL A   1      31.304  24.960  23.215  1.00  0.00    -0.031 A 
ATOM     17  C   UNL A   1      32.784  26.251  21.900  1.00  0.00     0.261 A 
ATOM     18  C   UNL A   1      30.636  23.741  23.791  1.00  0.00     0.045 C 
ATOM     19  C   UNL A   1      30.422  26.145  23.214  1.00  0.00     0.025 A 
ATOM     20  N   UNL A   1      32.067  27.374  22.150  1.00  0.00    -0.326 N 
ATOM     21  O   UNL A   1      33.504  26.212  20.919  1.00  0.00    -0.269 OA
ATOM     22  C   UNL A   1      30.839  27.328  22.738  1.00  0.00     0.015 A 
ATOM     23  H   UNL A   1      32.445  28.249  21.900  1.00  0.00     0.169 HD
ATOM     24  C   UNL A   1      30.011  28.571  22.642  1.00  0.00     0.064 C 
ENDBRANCH  12  15
ENDBRANCH   7  11
ENDBRANCH   4   7
ENDBRANCH   2   3
ENDBRANCH   1   2
BRANCH   1  25
ATOM     25  C   UNL A   1      38.745  20.001  25.800  1.00  0.00     0.118 C 
BRANCH  25  26
ATOM     26  N   UNL A   1      39.965  19.282  25.505  1.00  0.00    -0.352 N 
ATOM     27  C   UNL A   1      41.233  19.507  25.986  1.00  0.00     0.251 C 
ATOM     28  H   UNL A   1      39.875  18.530  24.875  1.00  0.00     0.163 HD
ATOM     29  O   UNL A   1      42.103  18.656  25.811  1.00  0.00    -0.269 OA
BRANCH  27  30
ATOM     30  C   UNL A   1      41.612  20.789  26.632  1.00  0.00     0.039 A 
ATOM     31  C   UNL A   1      41.987  21.830  25.776  1.00  0.00     0.014 A 
ATOM     32  C   UNL A   1      41.670  20.984  28.017  1.00  0.00     0.014 A 
ATOM     33  C   UNL A   1      42.369  23.070  26.293  1.00  0.00     0.010 A 
ATOM     34  C   UNL A   1      42.023  22.242  28.537  1.00  0.00     0.010 A 
ATOM     35  C   UNL A   1      42.372  23.299  27.678  1.00  0.00    -0.014 A 
BRANCH  35  36
ATOM     36  C   UNL A   1      42.725  24.653  28.189  1.00  0.00     0.031 A 
ATOM     37  C   UNL A   1      44.158  25.061  28.393  1.00  0.00     0.074 A 
ATOM     38  C   UNL A   1      41.747  25.551  28.420  1.00  0.00     0.049 A 
ATOM     39  N   UNL A   1      44.642  26.238  28.706  1.00  0.00    -0.248 NA
ATOM     40  C   UNL A   1      45.179  24.016  28.223  1.00  0.00     0.031 C 
ATOM     41  C   UNL A   1      40.314  25.294  28.272  1.00  0.00     0.029 A 
ATOM     42  N   UNL A   1      41.811  26.870  28.803  1.00  0.00    -0.354 N 
ATOM     43  C   UNL A   1      46.022  26.080  28.759  1.00  0.00     0.074 A 
ATOM     44  C   UNL A   1      46.294  24.684  28.490  1.00  0.00     0.031 C 
ATOM     45  C   UNL A   1      39.638  26.427  28.519  1.00  0.00     0.029 A 
ATOM     46  C   UNL A   1      40.584  27.485  28.863  1.00  0.00     0.049 A 
ATOM     47  H   UNL A   1      42.655  27.330  29.013  1.00  0.00     0.167 HD
ATOM     48  C   UNL A   1      46.976  27.015  28.989  1.00  0.00     0.031 A 
ATOM     49  C   UNL A   1      40.252  28.760  29.149  1.00  0.00     0.031 A 
ATOM     50  C   UNL A   1      46.718  28.405  29.262  1.00  0.00     0.049 A 
ATOM     51  C   UNL A   1      41.326  29.765  29.451  1.00  0.00     0.074 A 
ATOM     52  C   UNL A   1      47.633  29.424  29.467  1.00  0.00     0.029 A 
ATOM     53  N   UNL A   1      45.460  28.969  29.376  1.00  0.00    -0.354 N 
ATOM     54  N   UNL A   1      42.627  29.611  29.436  1.00  0.00    -0.248 NA
ATOM     55  C   UNL A   1      40.886  31.124  29.803  1.00  0.00     0.031 C 
ATOM     56  C   UNL A   1      46.927  30.597  29.749  1.00  0.00     0.029 A 
ATOM     57  C   UNL A   1      45.572  30.316  29.676  1.00  0.00     0.049 A 
ATOM     58  H   UNL A   1      44.610  28.485  29.260  1.00  0.00     0.167 HD
ATOM     59  C   UNL A   1      43.159  30.852  29.756  1.00  0.00     0.074 A 
ATOM     60  C   UNL A   1      42.044  31.755  29.950  1.00  0.00     0.031 C 
ATOM     61  C   UNL A   1      44.461  31.208  29.875  1.00  0.00     0.031 A 
BRANCH  48  62
ATOM     62  C   UNL A   1      48.408  26.564  28.951  1.00  0.00    -0.014 A 
ATOM     63  C   UNL A   1      49.148  26.621  27.760  1.00  0.00     0.009 A 
ATOM     64  C   UNL A   1      49.045  26.146  30.130  1.00  0.00     0.009 A 
ATOM     65  C   UNL A   1      50.492  26.243  27.745  1.00  0.00     0.001 A 
ATOM     66  C   UNL A   1      50.395  25.790  30.116  1.00  0.00     0.001 A 
ATOM     67  C   UNL A   1      51.116  25.832  28.923  1.00  0.00     0.000 A 
ENDBRANCH  48  62
BRANCH  49  68
ATOM     68  C   UNL A   1      38.823  29.169  29.134  1.00  0.00    -0.014 A 
ATOM     69  C   UNL A   1      38.240  29.666  27.959  1.00  0.00     0.009 A 
ATOM     70  C   UNL A   1      38.036  29.056  30.290  1.00  0.00     0.009 A 
ATOM     71  C   UNL A   1      36.899  30.054  27.946  1.00  0.00     0.001 A 
ATOM     72  C   UNL A   1      36.690  29.424  30.268  1.00  0.00     0.001 A 
ATOM     73  C   UNL A   1      36.124  29.928  29.098  1.00  0.00     0.000 A 
ENDBRANCH  49  68
BRANCH  61  74
ATOM     74  C   UNL A   1      44.765  32.637  30.225  1.00  0.00    -0.014 A 
ATOM     75  C   UNL A   1      44.979  33.024  31.556  1.00  0.00     0.009 A 
ATOM     76  C   UNL A   1      44.917  33.589  29.205  1.00  0.00     0.009 A 
ATOM     77  C   UNL A   1      45.327  34.342  31.861  1.00  0.00     0.001 A 
ATOM     78  C   UNL A   1      45.286  34.901  29.511  1.00  0.00     0.001 A 
ATOM     79  C   UNL A   1      45.487  35.276  30.838  1.00  0.00     0.000 A 
ENDBRANCH  61  74
ENDBRANCH  35  36
ENDBRANCH  27  30
ENDBRANCH  25  26
ENDBRANCH   1  25
TORSDOF 13
ENDMDL
