MODEL 1
REMARK VINA RESULT:     -11.3      0.000      0.000
REMARK SMILES COC(=O)C[C@@H](NC(=O)c1ccccc1C(=O)NCCCNC(=O)c1ccc(-c2c3nc(c(-c4ccccc4)c4ccc([nH]4)c(-c4ccccc4)c4nc(c(-c5ccccc5)c5ccc2[nH]5)C=C4)C=C3)cc1)c1cccc(C)c1C
REMARK SMILES IDX 16 1 17 2 18 3 15 5 10 6 11 7 12 8 14 9 13 10 8 11 7 12 9 14
REMARK SMILES IDX 6 15 5 16 3 17 4 18 2 19 1 20 73 21 74 22 79 23 75 24 77 25
REMARK SMILES IDX 80 26 76 27 78 28 19 29 20 30 21 31 22 32 23 33 24 35 25 36
REMARK SMILES IDX 26 37 72 38 27 39 71 40 28 41 29 42 30 43 65 44 31 45 70 46
REMARK SMILES IDX 64 47 66 48 32 49 69 50 63 51 62 52 33 54 55 55 40 56 54 57
REMARK SMILES IDX 41 58 44 59 53 60 67 61 42 62 43 63 52 65 68 66 45 67 34 68
REMARK SMILES IDX 35 69 39 70 36 71 38 72 37 73 56 74 57 75 61 76 58 77 60 78
REMARK SMILES IDX 59 79 46 80 47 81 51 82 48 83 50 84 49 85
REMARK H PARENT 18 4 7 13 22 34 66 53 44 64
REMARK Flexibility Score: inf
ROOT
ATOM      1  C   UNL A   1      30.819  27.401  24.789  1.00  0.00     0.252 C 
ATOM      2  O   UNL A   1      29.931  27.449  23.926  1.00  0.00    -0.269 OA
ATOM      3  N   UNL A   1      31.493  28.573  24.909  1.00  0.00    -0.352 N 
ATOM      4  H   UNL A   1      31.254  29.198  24.188  1.00  0.00     0.163 HD
ENDROOT
BRANCH   1   5
ATOM      5  C   UNL A   1      31.050  26.100  25.487  1.00  0.00     0.052 A 
ATOM      6  C   UNL A   1      32.198  25.330  25.684  1.00  0.00     0.052 A 
ATOM      7  C   UNL A   1      32.102  24.051  26.307  1.00  0.00     0.014 A 
ATOM      8  C   UNL A   1      30.905  23.562  26.815  1.00  0.00     0.001 A 
ATOM      9  C   UNL A   1      29.844  25.564  26.026  1.00  0.00     0.014 A 
ATOM     10  C   UNL A   1      29.769  24.333  26.687  1.00  0.00     0.001 A 
BRANCH   6  11
ATOM     11  C   UNL A   1      33.587  25.591  25.307  1.00  0.00     0.252 C 
ATOM     12  N   UNL A   1      34.027  25.520  24.005  1.00  0.00    -0.345 N 
ATOM     13  H   UNL A   1      34.438  26.354  23.682  1.00  0.00     0.164 HD
ATOM     14  O   UNL A   1      34.295  26.185  26.122  1.00  0.00    -0.269 OA
BRANCH  12  15
ATOM     15  C   UNL A   1      34.006  24.427  22.985  1.00  0.00     0.124 C 
BRANCH  15  16
ATOM     16  C   UNL A   1      32.769  24.677  22.097  1.00  0.00     0.152 C 
BRANCH  16  17
ATOM     17  C   UNL A   1      32.885  26.072  21.516  1.00  0.00     0.307 C 
ATOM     18  O   UNL A   1      32.666  27.099  22.147  1.00  0.00    -0.252 OA
BRANCH  17  19
ATOM     19  O   UNL A   1      33.211  26.015  20.197  1.00  0.00    -0.469 OA
ATOM     20  C   UNL A   1      32.290  25.287  19.374  1.00  0.00     0.282 C 
ENDBRANCH  17  19
ENDBRANCH  16  17
ENDBRANCH  15  16
BRANCH  15  21
ATOM     21  C   UNL A   1      34.182  22.992  23.477  1.00  0.00    -0.022 A 
ATOM     22  C   UNL A   1      33.072  22.138  23.538  1.00  0.00     0.006 A 
ATOM     23  C   UNL A   1      35.412  22.527  24.036  1.00  0.00    -0.043 A 
ATOM     24  C   UNL A   1      33.097  20.959  24.274  1.00  0.00     0.001 A 
ATOM     25  C   UNL A   1      35.469  21.239  24.627  1.00  0.00    -0.048 A 
ATOM     26  C   UNL A   1      36.683  23.349  23.988  1.00  0.00     0.045 C 
ATOM     27  C   UNL A   1      34.287  20.517  24.823  1.00  0.00     0.004 A 
ATOM     28  C   UNL A   1      36.749  20.605  25.107  1.00  0.00     0.044 C 
ENDBRANCH  15  21
ENDBRANCH  12  15
ENDBRANCH   6  11
ENDBRANCH   1   5
BRANCH   3  29
ATOM     29  C   UNL A   1      32.457  29.149  25.798  1.00  0.00     0.118 C 
BRANCH  29  30
ATOM     30  C   UNL A   1      31.904  30.164  26.767  1.00  0.00     0.042 C 
BRANCH  30  31
ATOM     31  C   UNL A   1      32.958  31.202  27.075  1.00  0.00     0.118 C 
BRANCH  31  32
ATOM     32  N   UNL A   1      32.432  32.540  27.367  1.00  0.00    -0.352 N 
ATOM     33  C   UNL A   1      33.065  33.527  28.086  1.00  0.00     0.251 C 
ATOM     34  H   UNL A   1      31.539  32.752  27.014  1.00  0.00     0.163 HD
ATOM     35  O   UNL A   1      32.550  34.616  28.309  1.00  0.00    -0.269 OA
BRANCH  33  36
ATOM     36  C   UNL A   1      34.388  33.211  28.639  1.00  0.00     0.039 A 
ATOM     37  C   UNL A   1      34.470  32.456  29.809  1.00  0.00     0.014 A 
ATOM     38  C   UNL A   1      35.526  33.545  27.903  1.00  0.00     0.014 A 
ATOM     39  C   UNL A   1      35.714  31.991  30.221  1.00  0.00     0.010 A 
ATOM     40  C   UNL A   1      36.732  32.965  28.236  1.00  0.00     0.010 A 
ATOM     41  C   UNL A   1      36.843  32.225  29.422  1.00  0.00    -0.014 A 
BRANCH  41  42
ATOM     42  C   UNL A   1      38.199  31.837  29.853  1.00  0.00     0.031 A 
ATOM     43  C   UNL A   1      38.755  30.546  29.321  1.00  0.00     0.074 A 
ATOM     44  C   UNL A   1      38.862  32.575  30.759  1.00  0.00     0.049 A 
ATOM     45  N   UNL A   1      39.820  29.887  29.689  1.00  0.00    -0.248 NA
ATOM     46  C   UNL A   1      37.965  29.870  28.273  1.00  0.00     0.031 C 
ATOM     47  C   UNL A   1      38.386  33.825  31.358  1.00  0.00     0.029 A 
ATOM     48  N   UNL A   1      40.082  32.369  31.344  1.00  0.00    -0.354 N 
ATOM     49  C   UNL A   1      39.788  28.702  28.965  1.00  0.00     0.074 A 
ATOM     50  C   UNL A   1      38.571  28.699  28.190  1.00  0.00     0.031 C 
ATOM     51  C   UNL A   1      39.324  34.292  32.200  1.00  0.00     0.029 A 
ATOM     52  C   UNL A   1      40.437  33.351  32.235  1.00  0.00     0.049 A 
ATOM     53  H   UNL A   1      40.651  31.591  31.144  1.00  0.00     0.167 HD
ATOM     54  C   UNL A   1      40.713  27.717  28.925  1.00  0.00     0.031 A 
ATOM     55  C   UNL A   1      41.543  33.463  32.992  1.00  0.00     0.031 A 
ATOM     56  C   UNL A   1      41.945  27.775  29.657  1.00  0.00     0.049 A 
ATOM     57  C   UNL A   1      42.584  32.380  32.893  1.00  0.00     0.074 A 
ATOM     58  C   UNL A   1      42.997  26.880  29.657  1.00  0.00     0.029 A 
ATOM     59  N   UNL A   1      42.296  28.817  30.506  1.00  0.00    -0.354 N 
ATOM     60  N   UNL A   1      42.564  31.279  32.179  1.00  0.00    -0.248 NA
ATOM     61  C   UNL A   1      43.804  32.564  33.687  1.00  0.00     0.031 C 
ATOM     62  C   UNL A   1      43.974  27.366  30.532  1.00  0.00     0.029 A 
ATOM     63  C   UNL A   1      43.551  28.587  31.036  1.00  0.00     0.049 A 
ATOM     64  H   UNL A   1      41.734  29.602  30.700  1.00  0.00     0.167 HD
ATOM     65  C   UNL A   1      43.779  30.651  32.416  1.00  0.00     0.074 A 
ATOM     66  C   UNL A   1      44.517  31.507  33.325  1.00  0.00     0.031 C 
ATOM     67  C   UNL A   1      44.249  29.476  31.929  1.00  0.00     0.031 A 
BRANCH  54  68
ATOM     68  C   UNL A   1      40.414  26.521  28.063  1.00  0.00    -0.014 A 
ATOM     69  C   UNL A   1      39.634  25.452  28.539  1.00  0.00     0.009 A 
ATOM     70  C   UNL A   1      40.930  26.454  26.761  1.00  0.00     0.009 A 
ATOM     71  C   UNL A   1      39.424  24.320  27.748  1.00  0.00     0.001 A 
ATOM     72  C   UNL A   1      40.687  25.336  25.959  1.00  0.00     0.001 A 
ATOM     73  C   UNL A   1      39.946  24.265  26.456  1.00  0.00     0.000 A 
ENDBRANCH  54  68
BRANCH  55  74
ATOM     74  C   UNL A   1      41.737  34.648  33.868  1.00  0.00    -0.014 A 
ATOM     75  C   UNL A   1      42.422  35.777  33.391  1.00  0.00     0.009 A 
ATOM     76  C   UNL A   1      41.231  34.669  35.177  1.00  0.00     0.009 A 
ATOM     77  C   UNL A   1      42.619  36.889  34.214  1.00  0.00     0.001 A 
ATOM     78  C   UNL A   1      41.406  35.794  35.988  1.00  0.00     0.001 A 
ATOM     79  C   UNL A   1      42.107  36.898  35.510  1.00  0.00     0.000 A 
ENDBRANCH  55  74
BRANCH  67  80
ATOM     80  C   UNL A   1      45.638  29.082  32.336  1.00  0.00    -0.014 A 
ATOM     81  C   UNL A   1      46.757  29.493  31.597  1.00  0.00     0.009 A 
ATOM     82  C   UNL A   1      45.825  28.332  33.506  1.00  0.00     0.009 A 
ATOM     83  C   UNL A   1      48.039  29.128  32.006  1.00  0.00     0.001 A 
ATOM     84  C   UNL A   1      47.111  27.995  33.931  1.00  0.00     0.001 A 
ATOM     85  C   UNL A   1      48.215  28.385  33.175  1.00  0.00     0.000 A 
ENDBRANCH  67  80
ENDBRANCH  41  42
ENDBRANCH  33  36
ENDBRANCH  31  32
ENDBRANCH  30  31
ENDBRANCH  29  30
ENDBRANCH   3  29
TORSDOF 16
ENDMDL
MODEL 2
REMARK VINA RESULT:     -11.2      2.972      8.128
REMARK SMILES COC(=O)C[C@@H](NC(=O)c1ccccc1C(=O)NCCCNC(=O)c1ccc(-c2c3nc(c(-c4ccccc4)c4ccc([nH]4)c(-c4ccccc4)c4nc(c(-c5ccccc5)c5ccc2[nH]5)C=C4)C=C3)cc1)c1cccc(C)c1C
REMARK SMILES IDX 16 1 17 2 18 3 15 5 10 6 11 7 12 8 14 9 13 10 8 11 7 12 9 14
REMARK SMILES IDX 6 15 5 16 3 17 4 18 2 19 1 20 73 21 74 22 79 23 75 24 77 25
REMARK SMILES IDX 80 26 76 27 78 28 19 29 20 30 21 31 22 32 23 33 24 35 25 36
REMARK SMILES IDX 26 37 72 38 27 39 71 40 28 41 29 42 30 43 65 44 31 45 70 46
REMARK SMILES IDX 64 47 66 48 32 49 69 50 63 51 62 52 33 54 55 55 40 56 54 57
REMARK SMILES IDX 41 58 44 59 53 60 67 61 42 62 43 63 52 65 68 66 45 67 34 68
REMARK SMILES IDX 35 69 39 70 36 71 38 72 37 73 56 74 57 75 61 76 58 77 60 78
REMARK SMILES IDX 59 79 46 80 47 81 51 82 48 83 50 84 49 85
REMARK H PARENT 18 4 7 13 22 34 66 53 44 64
REMARK Flexibility Score: inf
ROOT
ATOM      1  C   UNL A   1      36.346  22.744  23.781  1.00  0.00     0.252 C 
ATOM      2  O   UNL A   1      36.503  23.787  23.130  1.00  0.00    -0.269 OA
ATOM      3  N   UNL A   1      37.494  22.318  24.367  1.00  0.00    -0.352 N 
ATOM      4  H   UNL A   1      38.270  22.831  24.046  1.00  0.00     0.163 HD
ENDROOT
BRANCH   1   5
ATOM      5  C   UNL A   1      34.996  22.104  23.768  1.00  0.00     0.052 A 
ATOM      6  C   UNL A   1      33.783  22.481  23.187  1.00  0.00     0.052 A 
ATOM      7  C   UNL A   1      32.605  21.716  23.434  1.00  0.00     0.014 A 
ATOM      8  C   UNL A   1      32.626  20.541  24.174  1.00  0.00     0.001 A 
ATOM      9  C   UNL A   1      34.976  20.891  24.516  1.00  0.00     0.014 A 
ATOM     10  C   UNL A   1      33.826  20.116  24.706  1.00  0.00     0.001 A 
BRANCH   6  11
ATOM     11  C   UNL A   1      33.457  23.625  22.336  1.00  0.00     0.252 C 
ATOM     12  N   UNL A   1      33.575  24.926  22.766  1.00  0.00    -0.345 N 
ATOM     13  H   UNL A   1      34.171  25.474  22.207  1.00  0.00     0.164 HD
ATOM     14  O   UNL A   1      33.378  23.425  21.122  1.00  0.00    -0.269 OA
BRANCH  12  15
ATOM     15  C   UNL A   1      32.977  25.673  23.915  1.00  0.00     0.124 C 
BRANCH  15  16
ATOM     16  C   UNL A   1      33.834  26.942  24.109  1.00  0.00     0.152 C 
BRANCH  16  17
ATOM     17  C   UNL A   1      33.588  27.857  22.926  1.00  0.00     0.307 C 
ATOM     18  O   UNL A   1      33.970  27.623  21.786  1.00  0.00    -0.252 OA
BRANCH  17  19
ATOM     19  O   UNL A   1      32.935  28.983  23.320  1.00  0.00    -0.469 OA
ATOM     20  C   UNL A   1      33.073  29.311  24.710  1.00  0.00     0.282 C 
ENDBRANCH  17  19
ENDBRANCH  16  17
ENDBRANCH  15  16
BRANCH  15  21
ATOM     21  C   UNL A   1      32.669  24.889  25.189  1.00  0.00    -0.022 A 
ATOM     22  C   UNL A   1      33.711  24.533  26.055  1.00  0.00     0.006 A 
ATOM     23  C   UNL A   1      31.369  24.357  25.456  1.00  0.00    -0.043 A 
ATOM     24  C   UNL A   1      33.550  23.556  27.031  1.00  0.00     0.001 A 
ATOM     25  C   UNL A   1      31.180  23.499  26.570  1.00  0.00    -0.048 A 
ATOM     26  C   UNL A   1      30.164  24.708  24.611  1.00  0.00     0.045 C 
ATOM     27  C   UNL A   1      32.293  23.035  27.280  1.00  0.00     0.004 A 
ATOM     28  C   UNL A   1      29.827  23.011  27.018  1.00  0.00     0.044 C 
ENDBRANCH  15  21
ENDBRANCH  12  15
ENDBRANCH   6  11
ENDBRANCH   1   5
BRANCH   3  29
ATOM     29  C   UNL A   1      37.885  21.327  25.324  1.00  0.00     0.118 C 
BRANCH  29  30
ATOM     30  C   UNL A   1      39.349  21.335  25.687  1.00  0.00     0.042 C 
BRANCH  30  31
ATOM     31  C   UNL A   1      39.678  20.107  26.503  1.00  0.00     0.118 C 
BRANCH  31  32
ATOM     32  N   UNL A   1      40.788  19.304  25.980  1.00  0.00    -0.352 N 
ATOM     33  C   UNL A   1      42.111  19.676  25.925  1.00  0.00     0.251 C 
ATOM     34  H   UNL A   1      40.565  18.411  25.632  1.00  0.00     0.163 HD
ATOM     35  O   UNL A   1      42.982  18.957  25.450  1.00  0.00    -0.269 OA
BRANCH  33  36
ATOM     36  C   UNL A   1      42.452  21.017  26.418  1.00  0.00     0.039 A 
ATOM     37  C   UNL A   1      42.724  22.028  25.497  1.00  0.00     0.014 A 
ATOM     38  C   UNL A   1      42.348  21.282  27.785  1.00  0.00     0.014 A 
ATOM     39  C   UNL A   1      42.850  23.336  25.953  1.00  0.00     0.010 A 
ATOM     40  C   UNL A   1      42.332  22.593  28.212  1.00  0.00     0.010 A 
ATOM     41  C   UNL A   1      42.631  23.623  27.308  1.00  0.00    -0.014 A 
BRANCH  41  42
ATOM     42  C   UNL A   1      42.840  24.972  27.865  1.00  0.00     0.031 A 
ATOM     43  C   UNL A   1      44.230  25.334  28.307  1.00  0.00     0.074 A 
ATOM     44  C   UNL A   1      41.799  25.801  28.048  1.00  0.00     0.049 A 
ATOM     45  N   UNL A   1      44.639  26.361  29.001  1.00  0.00    -0.248 NA
ATOM     46  C   UNL A   1      45.299  24.369  27.979  1.00  0.00     0.031 C 
ATOM     47  C   UNL A   1      40.408  25.522  27.681  1.00  0.00     0.029 A 
ATOM     48  N   UNL A   1      41.753  27.051  28.603  1.00  0.00    -0.354 N 
ATOM     49  C   UNL A   1      45.989  26.131  29.239  1.00  0.00     0.074 A 
ATOM     50  C   UNL A   1      46.315  24.842  28.679  1.00  0.00     0.031 C 
ATOM     51  C   UNL A   1      39.651  26.589  27.991  1.00  0.00     0.029 A 
ATOM     52  C   UNL A   1      40.494  27.599  28.619  1.00  0.00     0.049 A 
ATOM     53  H   UNL A   1      42.547  27.514  28.956  1.00  0.00     0.167 HD
ATOM     54  C   UNL A   1      46.885  26.942  29.843  1.00  0.00     0.031 A 
ATOM     55  C   UNL A   1      40.082  28.788  29.095  1.00  0.00     0.031 A 
ATOM     56  C   UNL A   1      46.548  28.248  30.333  1.00  0.00     0.049 A 
ATOM     57  C   UNL A   1      41.107  29.697  29.717  1.00  0.00     0.074 A 
ATOM     58  C   UNL A   1      47.370  29.198  30.906  1.00  0.00     0.029 A 
ATOM     59  N   UNL A   1      45.272  28.793  30.279  1.00  0.00    -0.354 N 
ATOM     60  N   UNL A   1      42.389  29.489  29.908  1.00  0.00    -0.248 NA
ATOM     61  C   UNL A   1      40.634  31.010  30.172  1.00  0.00     0.031 C 
ATOM     62  C   UNL A   1      46.584  30.309  31.227  1.00  0.00     0.029 A 
ATOM     63  C   UNL A   1      45.284  30.069  30.807  1.00  0.00     0.049 A 
ATOM     64  H   UNL A   1      44.477  28.337  29.917  1.00  0.00     0.167 HD
ATOM     65  C   UNL A   1      42.882  30.653  30.479  1.00  0.00     0.074 A 
ATOM     66  C   UNL A   1      41.762  31.569  30.586  1.00  0.00     0.031 C 
ATOM     67  C   UNL A   1      44.143  30.947  30.881  1.00  0.00     0.031 A 
BRANCH  54  68
ATOM     68  C   UNL A   1      48.292  26.432  29.989  1.00  0.00    -0.014 A 
ATOM     69  C   UNL A   1      48.695  25.709  31.126  1.00  0.00     0.009 A 
ATOM     70  C   UNL A   1      49.235  26.688  28.983  1.00  0.00     0.009 A 
ATOM     71  C   UNL A   1      50.023  25.302  31.274  1.00  0.00     0.001 A 
ATOM     72  C   UNL A   1      50.554  26.248  29.118  1.00  0.00     0.001 A 
ATOM     73  C   UNL A   1      50.950  25.567  30.268  1.00  0.00     0.000 A 
ENDBRANCH  54  68
BRANCH  55  74
ATOM     74  C   UNL A   1      38.658  29.194  28.968  1.00  0.00    -0.014 A 
ATOM     75  C   UNL A   1      37.786  29.073  30.062  1.00  0.00     0.009 A 
ATOM     76  C   UNL A   1      38.161  29.718  27.765  1.00  0.00     0.009 A 
ATOM     77  C   UNL A   1      36.443  29.441  29.945  1.00  0.00     0.001 A 
ATOM     78  C   UNL A   1      36.824  30.112  27.659  1.00  0.00     0.001 A 
ATOM     79  C   UNL A   1      35.964  29.964  28.746  1.00  0.00     0.000 A 
ENDBRANCH  55  74
BRANCH  67  80
ATOM     80  C   UNL A   1      44.378  32.326  31.423  1.00  0.00    -0.014 A 
ATOM     81  C   UNL A   1      44.713  33.392  30.577  1.00  0.00     0.009 A 
ATOM     82  C   UNL A   1      44.209  32.563  32.795  1.00  0.00     0.009 A 
ATOM     83  C   UNL A   1      44.908  34.669  31.104  1.00  0.00     0.001 A 
ATOM     84  C   UNL A   1      44.374  33.847  33.314  1.00  0.00     0.001 A 
ATOM     85  C   UNL A   1      44.733  34.896  32.470  1.00  0.00     0.000 A 
ENDBRANCH  67  80
ENDBRANCH  41  42
ENDBRANCH  33  36
ENDBRANCH  31  32
ENDBRANCH  30  31
ENDBRANCH  29  30
ENDBRANCH   3  29
TORSDOF 16
ENDMDL
MODEL 3
REMARK VINA RESULT:     -11.1      1.951      7.113
REMARK SMILES COC(=O)C[C@@H](NC(=O)c1ccccc1C(=O)NCCCNC(=O)c1ccc(-c2c3nc(c(-c4ccccc4)c4ccc([nH]4)c(-c4ccccc4)c4nc(c(-c5ccccc5)c5ccc2[nH]5)C=C4)C=C3)cc1)c1cccc(C)c1C
REMARK SMILES IDX 16 1 17 2 18 3 15 5 10 6 11 7 12 8 14 9 13 10 8 11 7 12 9 14
REMARK SMILES IDX 6 15 5 16 3 17 4 18 2 19 1 20 73 21 74 22 79 23 75 24 77 25
REMARK SMILES IDX 80 26 76 27 78 28 19 29 20 30 21 31 22 32 23 33 24 35 25 36
REMARK SMILES IDX 26 37 72 38 27 39 71 40 28 41 29 42 30 43 65 44 31 45 70 46
REMARK SMILES IDX 64 47 66 48 32 49 69 50 63 51 62 52 33 54 55 55 40 56 54 57
REMARK SMILES IDX 41 58 44 59 53 60 67 61 42 62 43 63 52 65 68 66 45 67 34 68
REMARK SMILES IDX 35 69 39 70 36 71 38 72 37 73 56 74 57 75 61 76 58 77 60 78
REMARK SMILES IDX 59 79 46 80 47 81 51 82 48 83 50 84 49 85
REMARK H PARENT 18 4 7 13 22 34 66 53 44 64
REMARK Flexibility Score: inf
ROOT
ATOM      1  C   UNL A   1      34.095  26.010  24.930  1.00  0.00     0.252 C 
ATOM      2  O   UNL A   1      34.415  26.406  23.800  1.00  0.00    -0.269 OA
ATOM      3  N   UNL A   1      34.606  24.785  25.217  1.00  0.00    -0.352 N 
ATOM      4  H   UNL A   1      35.012  24.373  24.421  1.00  0.00     0.163 HD
ENDROOT
BRANCH   1   5
ATOM      5  C   UNL A   1      33.180  26.868  25.742  1.00  0.00     0.052 A 
ATOM      6  C   UNL A   1      31.847  26.717  26.129  1.00  0.00     0.052 A 
ATOM      7  C   UNL A   1      31.182  27.768  26.827  1.00  0.00     0.014 A 
ATOM      8  C   UNL A   1      31.839  28.926  27.222  1.00  0.00     0.001 A 
ATOM      9  C   UNL A   1      33.818  28.068  26.170  1.00  0.00     0.014 A 
ATOM     10  C   UNL A   1      33.174  29.070  26.904  1.00  0.00     0.001 A 
BRANCH   6  11
ATOM     11  C   UNL A   1      30.916  25.611  25.902  1.00  0.00     0.252 C 
ATOM     12  N   UNL A   1      30.887  24.897  24.727  1.00  0.00    -0.345 N 
ATOM     13  H   UNL A   1      31.027  23.931  24.850  1.00  0.00     0.164 HD
ATOM     14  O   UNL A   1      30.371  25.117  26.891  1.00  0.00    -0.269 OA
BRANCH  12  15
ATOM     15  C   UNL A   1      30.683  25.296  23.301  1.00  0.00     0.124 C 
BRANCH  15  16
ATOM     16  C   UNL A   1      31.810  24.624  22.490  1.00  0.00     0.152 C 
BRANCH  16  17
ATOM     17  C   UNL A   1      31.953  23.198  22.982  1.00  0.00     0.307 C 
ATOM     18  O   UNL A   1      31.023  22.407  23.074  1.00  0.00    -0.252 OA
BRANCH  17  19
ATOM     19  O   UNL A   1      33.238  22.945  23.350  1.00  0.00    -0.469 OA
ATOM     20  C   UNL A   1      33.478  21.623  23.852  1.00  0.00     0.282 C 
ENDBRANCH  17  19
ENDBRANCH  16  17
ENDBRANCH  15  16
BRANCH  15  21
ATOM     21  C   UNL A   1      30.454  26.777  23.004  1.00  0.00    -0.022 A 
ATOM     22  C   UNL A   1      31.520  27.569  22.557  1.00  0.00     0.006 A 
ATOM     23  C   UNL A   1      29.224  27.433  23.320  1.00  0.00    -0.043 A 
ATOM     24  C   UNL A   1      31.465  28.957  22.590  1.00  0.00     0.001 A 
ATOM     25  C   UNL A   1      29.125  28.840  23.176  1.00  0.00    -0.048 A 
ATOM     26  C   UNL A   1      27.996  26.672  23.772  1.00  0.00     0.045 C 
ATOM     27  C   UNL A   1      30.276  29.589  22.907  1.00  0.00     0.004 A 
ATOM     28  C   UNL A   1      27.833  29.600  23.341  1.00  0.00     0.044 C 
ENDBRANCH  15  21
ENDBRANCH  12  15
ENDBRANCH   6  11
ENDBRANCH   1   5
BRANCH   3  29
ATOM     29  C   UNL A   1      34.716  23.930  26.360  1.00  0.00     0.118 C 
BRANCH  29  30
ATOM     30  C   UNL A   1      35.877  22.968  26.326  1.00  0.00     0.042 C 
BRANCH  30  31
ATOM     31  C   UNL A   1      37.043  23.601  25.605  1.00  0.00     0.118 C 
BRANCH  31  32
ATOM     32  N   UNL A   1      38.252  22.774  25.551  1.00  0.00    -0.352 N 
ATOM     33  C   UNL A   1      39.476  23.078  26.102  1.00  0.00     0.251 C 
ATOM     34  H   UNL A   1      38.183  21.916  25.074  1.00  0.00     0.163 HD
ATOM     35  O   UNL A   1      40.451  22.344  25.995  1.00  0.00    -0.269 OA
BRANCH  33  36
ATOM     36  C   UNL A   1      39.598  24.367  26.795  1.00  0.00     0.039 A 
ATOM     37  C   UNL A   1      39.129  24.479  28.103  1.00  0.00     0.014 A 
ATOM     38  C   UNL A   1      40.310  25.399  26.182  1.00  0.00     0.014 A 
ATOM     39  C   UNL A   1      39.420  25.631  28.824  1.00  0.00     0.010 A 
ATOM     40  C   UNL A   1      40.717  26.474  26.944  1.00  0.00     0.010 A 
ATOM     41  C   UNL A   1      40.236  26.620  28.253  1.00  0.00    -0.014 A 
BRANCH  41  42
ATOM     42  C   UNL A   1      40.502  27.901  28.933  1.00  0.00     0.031 A 
ATOM     43  C   UNL A   1      41.819  28.052  29.642  1.00  0.00     0.074 A 
ATOM     44  C   UNL A   1      39.555  28.854  28.985  1.00  0.00     0.049 A 
ATOM     45  N   UNL A   1      42.214  28.981  30.469  1.00  0.00    -0.248 NA
ATOM     46  C   UNL A   1      42.802  26.969  29.442  1.00  0.00     0.031 C 
ATOM     47  C   UNL A   1      38.234  28.781  28.356  1.00  0.00     0.029 A 
ATOM     48  N   UNL A   1      39.561  30.071  29.610  1.00  0.00    -0.354 N 
ATOM     49  C   UNL A   1      43.457  28.561  30.928  1.00  0.00     0.074 A 
ATOM     50  C   UNL A   1      43.720  27.267  30.346  1.00  0.00     0.031 C 
ATOM     51  C   UNL A   1      37.570  29.925  28.600  1.00  0.00     0.029 A 
ATOM     52  C   UNL A   1      38.399  30.781  29.439  1.00  0.00     0.049 A 
ATOM     53  H   UNL A   1      40.326  30.405  30.132  1.00  0.00     0.167 HD
ATOM     54  C   UNL A   1      44.317  29.215  31.739  1.00  0.00     0.031 A 
ATOM     55  C   UNL A   1      38.055  31.991  29.917  1.00  0.00     0.031 A 
ATOM     56  C   UNL A   1      44.058  30.529  32.253  1.00  0.00     0.049 A 
ATOM     57  C   UNL A   1      39.050  32.724  30.776  1.00  0.00     0.074 A 
ATOM     58  C   UNL A   1      44.870  31.332  33.030  1.00  0.00     0.029 A 
ATOM     59  N   UNL A   1      42.892  31.243  32.009  1.00  0.00    -0.354 N 
ATOM     60  N   UNL A   1      40.237  32.336  31.178  1.00  0.00    -0.248 NA
ATOM     61  C   UNL A   1      38.666  34.066  31.231  1.00  0.00     0.031 C 
ATOM     62  C   UNL A   1      44.181  32.522  33.282  1.00  0.00     0.029 A 
ATOM     63  C   UNL A   1      42.962  32.479  32.620  1.00  0.00     0.049 A 
ATOM     64  H   UNL A   1      42.129  30.915  31.479  1.00  0.00     0.167 HD
ATOM     65  C   UNL A   1      40.755  33.396  31.910  1.00  0.00     0.074 A 
ATOM     66  C   UNL A   1      39.757  34.447  31.879  1.00  0.00     0.031 C 
ATOM     67  C   UNL A   1      41.946  33.498  32.551  1.00  0.00     0.031 A 
BRANCH  54  68
ATOM     68  C   UNL A   1      45.598  28.514  32.098  1.00  0.00    -0.014 A 
ATOM     69  C   UNL A   1      46.756  28.654  31.313  1.00  0.00     0.009 A 
ATOM     70  C   UNL A   1      45.647  27.687  33.230  1.00  0.00     0.009 A 
ATOM     71  C   UNL A   1      47.916  27.942  31.624  1.00  0.00     0.001 A 
ATOM     72  C   UNL A   1      46.821  27.003  33.559  1.00  0.00     0.001 A 
ATOM     73  C   UNL A   1      47.949  27.121  32.750  1.00  0.00     0.000 A 
ENDBRANCH  54  68
BRANCH  55  74
ATOM     74  C   UNL A   1      36.741  32.591  29.566  1.00  0.00    -0.014 A 
ATOM     75  C   UNL A   1      36.573  33.266  28.347  1.00  0.00     0.009 A 
ATOM     76  C   UNL A   1      35.644  32.484  30.435  1.00  0.00     0.009 A 
ATOM     77  C   UNL A   1      35.345  33.844  28.017  1.00  0.00     0.001 A 
ATOM     78  C   UNL A   1      34.408  33.039  30.090  1.00  0.00     0.001 A 
ATOM     79  C   UNL A   1      34.262  33.727  28.887  1.00  0.00     0.000 A 
ENDBRANCH  55  74
BRANCH  67  80
ATOM     80  C   UNL A   1      42.243  34.806  33.223  1.00  0.00    -0.014 A 
ATOM     81  C   UNL A   1      43.026  35.784  32.595  1.00  0.00     0.009 A 
ATOM     82  C   UNL A   1      41.685  35.075  34.481  1.00  0.00     0.009 A 
ATOM     83  C   UNL A   1      43.273  36.999  33.234  1.00  0.00     0.001 A 
ATOM     84  C   UNL A   1      41.907  36.302  35.104  1.00  0.00     0.001 A 
ATOM     85  C   UNL A   1      42.709  37.259  34.484  1.00  0.00     0.000 A 
ENDBRANCH  67  80
ENDBRANCH  41  42
ENDBRANCH  33  36
ENDBRANCH  31  32
ENDBRANCH  30  31
ENDBRANCH  29  30
ENDBRANCH   3  29
TORSDOF 16
ENDMDL
