MODEL 1
REMARK VINA RESULT:     -11.4      0.000      0.000
REMARK SMILES COc1ccc(-n2nc(C(=O)NCCCNC(=O)c3ccc(-c4c5nc(c(-c6ccccc6)c6ccc([nH]6)c(-c6ccccc6)c6nc(c(-c7ccccc7)c7ccc4[nH]7)C=C6)C=C5)cc3)c(=O)cc2C)cc1
REMARK SMILES IDX 14 1 13 2 12 3 10 4 11 5 9 7 7 8 8 9 70 10 69 11 71 12 67 13
REMARK SMILES IDX 68 14 6 15 3 16 4 17 73 18 5 19 72 20 2 21 1 22 15 23 16 24
REMARK SMILES IDX 17 25 18 27 19 28 20 29 66 30 21 31 65 32 22 33 23 34 24 35
REMARK SMILES IDX 59 36 25 37 64 38 58 39 60 40 26 41 63 42 57 43 56 44 27 46
REMARK SMILES IDX 49 47 34 48 48 49 35 50 38 51 47 52 61 53 36 54 37 55 46 57
REMARK SMILES IDX 62 58 39 59 28 60 29 61 33 62 30 63 32 64 31 65 50 66 51 67
REMARK SMILES IDX 55 68 52 69 54 70 53 71 40 72 41 73 45 74 42 75 44 76 43 77
REMARK H PARENT 12 6 16 26 60 45 38 56
REMARK Flexibility Score: inf
ROOT
ATOM      1  C   UNL A   1      33.894  28.586  25.790  1.00  0.00     0.042 C 
ENDROOT
BRANCH   1   2
ATOM      2  C   UNL A   1      33.022  29.428  24.851  1.00  0.00     0.118 C 
BRANCH   2   3
ATOM      3  N   UNL A   1      33.473  29.319  23.477  1.00  0.00    -0.350 N 
ATOM      4  C   UNL A   1      33.658  28.222  22.668  1.00  0.00     0.275 C 
ATOM      5  O   UNL A   1      34.253  28.384  21.604  1.00  0.00    -0.267 OA
ATOM      6  H   UNL A   1      33.682  30.180  23.048  1.00  0.00     0.163 HD
BRANCH   4   7
ATOM      7  C   UNL A   1      33.112  26.837  22.992  1.00  0.00     0.196 A 
ATOM      8  N   UNL A   1      33.631  24.679  23.644  1.00  0.00    -0.237 N 
ATOM      9  N   UNL A   1      34.022  25.943  23.281  1.00  0.00    -0.158 NA
ATOM     10  C   UNL A   1      32.304  24.239  23.617  1.00  0.00     0.044 A 
ATOM     11  C   UNL A   1      31.301  25.069  23.306  1.00  0.00     0.078 A 
ATOM     12  C   UNL A   1      31.954  22.828  24.026  1.00  0.00     0.067 C 
ATOM     13  C   UNL A   1      31.649  26.475  23.076  1.00  0.00     0.213 A 
ATOM     14  O   UNL A   1      30.768  27.312  22.987  1.00  0.00    -0.287 OA
BRANCH   8  15
ATOM     15  C   UNL A   1      34.697  23.903  24.181  1.00  0.00     0.065 A 
ATOM     16  C   UNL A   1      36.865  22.412  25.200  1.00  0.00     0.119 A 
ATOM     17  C   UNL A   1      36.557  22.372  23.839  1.00  0.00     0.048 A 
ATOM     18  C   UNL A   1      36.085  23.193  26.054  1.00  0.00     0.048 A 
ATOM     19  C   UNL A   1      35.472  23.094  23.336  1.00  0.00     0.032 A 
ATOM     20  C   UNL A   1      35.010  23.934  25.547  1.00  0.00     0.032 A 
BRANCH  16  21
ATOM     21  O   UNL A   1      37.956  21.672  25.566  1.00  0.00    -0.497 OA
ATOM     22  C   UNL A   1      38.044  20.364  25.016  1.00  0.00     0.278 C 
ENDBRANCH  16  21
ENDBRANCH   8  15
ENDBRANCH   4   7
ENDBRANCH   2   3
ENDBRANCH   1   2
BRANCH   1  23
ATOM     23  C   UNL A   1      33.583  28.754  27.275  1.00  0.00     0.118 C 
BRANCH  23  24
ATOM     24  N   UNL A   1      33.606  30.145  27.697  1.00  0.00    -0.352 N 
ATOM     25  C   UNL A   1      34.573  30.855  28.366  1.00  0.00     0.251 C 
ATOM     26  H   UNL A   1      32.800  30.660  27.465  1.00  0.00     0.163 HD
ATOM     27  O   UNL A   1      34.302  31.973  28.797  1.00  0.00    -0.269 OA
BRANCH  25  28
ATOM     28  C   UNL A   1      35.928  30.297  28.590  1.00  0.00     0.039 A 
ATOM     29  C   UNL A   1      36.841  30.321  27.530  1.00  0.00     0.014 A 
ATOM     30  C   UNL A   1      36.291  29.699  29.800  1.00  0.00     0.014 A 
ATOM     31  C   UNL A   1      38.129  29.804  27.701  1.00  0.00     0.010 A 
ATOM     32  C   UNL A   1      37.595  29.240  29.990  1.00  0.00     0.010 A 
ATOM     33  C   UNL A   1      38.528  29.288  28.943  1.00  0.00    -0.014 A 
BRANCH  33  34
ATOM     34  C   UNL A   1      39.920  28.818  29.168  1.00  0.00     0.031 A 
ATOM     35  C   UNL A   1      40.954  29.735  29.761  1.00  0.00     0.074 A 
ATOM     36  C   UNL A   1      40.270  27.575  28.779  1.00  0.00     0.049 A 
ATOM     37  N   UNL A   1      42.228  29.515  29.972  1.00  0.00    -0.248 NA
ATOM     38  C   UNL A   1      40.504  31.081  30.146  1.00  0.00     0.031 C 
ATOM     39  C   UNL A   1      39.372  26.597  28.161  1.00  0.00     0.029 A 
ATOM     40  N   UNL A   1      41.478  26.926  28.840  1.00  0.00    -0.354 N 
ATOM     41  C   UNL A   1      42.734  30.696  30.499  1.00  0.00     0.074 A 
ATOM     42  C   UNL A   1      41.639  31.643  30.538  1.00  0.00     0.031 C 
ATOM     43  C   UNL A   1      40.055  25.467  27.919  1.00  0.00     0.029 A 
ATOM     44  C   UNL A   1      41.443  25.653  28.327  1.00  0.00     0.049 A 
ATOM     45  H   UNL A   1      42.291  27.334  29.215  1.00  0.00     0.167 HD
ATOM     46  C   UNL A   1      43.992  30.967  30.924  1.00  0.00     0.031 A 
ATOM     47  C   UNL A   1      42.421  24.737  28.187  1.00  0.00     0.031 A 
ATOM     48  C   UNL A   1      45.081  30.026  30.894  1.00  0.00     0.049 A 
ATOM     49  C   UNL A   1      43.811  25.069  28.648  1.00  0.00     0.074 A 
ATOM     50  C   UNL A   1      46.374  30.187  31.359  1.00  0.00     0.029 A 
ATOM     51  N   UNL A   1      45.005  28.748  30.363  1.00  0.00    -0.354 N 
ATOM     52  N   UNL A   1      44.256  26.169  29.204  1.00  0.00    -0.248 NA
ATOM     53  C   UNL A   1      44.834  24.028  28.465  1.00  0.00     0.031 C 
ATOM     54  C   UNL A   1      47.095  29.024  31.065  1.00  0.00     0.029 A 
ATOM     55  C   UNL A   1      46.236  28.120  30.462  1.00  0.00     0.049 A 
ATOM     56  H   UNL A   1      44.195  28.345  29.973  1.00  0.00     0.167 HD
ATOM     57  C   UNL A   1      45.604  25.947  29.454  1.00  0.00     0.074 A 
ATOM     58  C   UNL A   1      45.899  24.601  29.007  1.00  0.00     0.031 C 
ATOM     59  C   UNL A   1      46.517  26.785  30.003  1.00  0.00     0.031 A 
BRANCH  46  60
ATOM     60  C   UNL A   1      44.263  32.349  31.453  1.00  0.00    -0.014 A 
ATOM     61  C   UNL A   1      44.114  32.647  32.817  1.00  0.00     0.009 A 
ATOM     62  C   UNL A   1      44.710  33.355  30.582  1.00  0.00     0.009 A 
ATOM     63  C   UNL A   1      44.371  33.936  33.290  1.00  0.00     0.001 A 
ATOM     64  C   UNL A   1      44.994  34.634  31.064  1.00  0.00     0.001 A 
ATOM     65  C   UNL A   1      44.815  34.926  32.415  1.00  0.00     0.000 A 
ENDBRANCH  46  60
BRANCH  47  66
ATOM     66  C   UNL A   1      42.116  23.413  27.588  1.00  0.00    -0.014 A 
ATOM     67  C   UNL A   1      42.385  23.167  26.233  1.00  0.00     0.009 A 
ATOM     68  C   UNL A   1      41.555  22.388  28.365  1.00  0.00     0.009 A 
ATOM     69  C   UNL A   1      42.078  21.929  25.664  1.00  0.00     0.001 A 
ATOM     70  C   UNL A   1      41.275  21.143  27.800  1.00  0.00     0.001 A 
ATOM     71  C   UNL A   1      41.528  20.917  26.449  1.00  0.00     0.000 A 
ENDBRANCH  47  66
BRANCH  59  72
ATOM     72  C   UNL A   1      47.915  26.262  30.166  1.00  0.00    -0.014 A 
ATOM     73  C   UNL A   1      48.352  25.732  31.391  1.00  0.00     0.009 A 
ATOM     74  C   UNL A   1      48.794  26.268  29.073  1.00  0.00     0.009 A 
ATOM     75  C   UNL A   1      49.655  25.248  31.525  1.00  0.00     0.001 A 
ATOM     76  C   UNL A   1      50.088  25.760  29.203  1.00  0.00     0.001 A 
ATOM     77  C   UNL A   1      50.519  25.258  30.430  1.00  0.00     0.000 A 
ENDBRANCH  59  72
ENDBRANCH  33  34
ENDBRANCH  25  28
ENDBRANCH  23  24
ENDBRANCH   1  23
TORSDOF 12
ENDMDL
MODEL 2
REMARK VINA RESULT:     -11.0      2.357      6.784
REMARK SMILES COc1ccc(-n2nc(C(=O)NCCCNC(=O)c3ccc(-c4c5nc(c(-c6ccccc6)c6ccc([nH]6)c(-c6ccccc6)c6nc(c(-c7ccccc7)c7ccc4[nH]7)C=C6)C=C5)cc3)c(=O)cc2C)cc1
REMARK SMILES IDX 14 1 13 2 12 3 10 4 11 5 9 7 7 8 8 9 70 10 69 11 71 12 67 13
REMARK SMILES IDX 68 14 6 15 3 16 4 17 73 18 5 19 72 20 2 21 1 22 15 23 16 24
REMARK SMILES IDX 17 25 18 27 19 28 20 29 66 30 21 31 65 32 22 33 23 34 24 35
REMARK SMILES IDX 59 36 25 37 64 38 58 39 60 40 26 41 63 42 57 43 56 44 27 46
REMARK SMILES IDX 49 47 34 48 48 49 35 50 38 51 47 52 61 53 36 54 37 55 46 57
REMARK SMILES IDX 62 58 39 59 28 60 29 61 33 62 30 63 32 64 31 65 50 66 51 67
REMARK SMILES IDX 55 68 52 69 54 70 53 71 40 72 41 73 45 74 42 75 44 76 43 77
REMARK H PARENT 12 6 16 26 60 45 38 56
REMARK Flexibility Score: inf
ROOT
ATOM      1  C   UNL A   1      31.402  30.884  25.863  1.00  0.00     0.042 C 
ENDROOT
BRANCH   1   2
ATOM      2  C   UNL A   1      31.747  29.504  25.291  1.00  0.00     0.118 C 
BRANCH   2   3
ATOM      3  N   UNL A   1      32.611  29.616  24.132  1.00  0.00    -0.350 N 
ATOM      4  C   UNL A   1      33.173  28.654  23.325  1.00  0.00     0.275 C 
ATOM      5  O   UNL A   1      34.045  29.005  22.531  1.00  0.00    -0.267 OA
ATOM      6  H   UNL A   1      32.835  30.540  23.879  1.00  0.00     0.163 HD
BRANCH   4   7
ATOM      7  C   UNL A   1      32.731  27.196  23.321  1.00  0.00     0.196 A 
ATOM      8  N   UNL A   1      33.373  25.000  23.659  1.00  0.00    -0.237 N 
ATOM      9  N   UNL A   1      33.680  26.335  23.581  1.00  0.00    -0.158 NA
ATOM     10  C   UNL A   1      32.112  24.474  23.361  1.00  0.00     0.044 A 
ATOM     11  C   UNL A   1      31.081  25.271  23.054  1.00  0.00     0.078 A 
ATOM     12  C   UNL A   1      31.853  22.990  23.464  1.00  0.00     0.067 C 
ATOM     13  C   UNL A   1      31.313  26.717  23.124  1.00  0.00     0.213 A 
ATOM     14  O   UNL A   1      30.372  27.488  23.053  1.00  0.00    -0.287 OA
BRANCH   8  15
ATOM     15  C   UNL A   1      34.432  24.219  24.205  1.00  0.00     0.065 A 
ATOM     16  C   UNL A   1      36.586  22.721  25.243  1.00  0.00     0.119 A 
ATOM     17  C   UNL A   1      36.322  22.723  23.873  1.00  0.00     0.048 A 
ATOM     18  C   UNL A   1      35.769  23.465  26.097  1.00  0.00     0.048 A 
ATOM     19  C   UNL A   1      35.244  23.448  23.359  1.00  0.00     0.032 A 
ATOM     20  C   UNL A   1      34.700  24.209  25.580  1.00  0.00     0.032 A 
BRANCH  16  21
ATOM     21  O   UNL A   1      37.674  21.984  25.621  1.00  0.00    -0.497 OA
ATOM     22  C   UNL A   1      37.825  20.717  24.991  1.00  0.00     0.278 C 
ENDBRANCH  16  21
ENDBRANCH   8  15
ENDBRANCH   4   7
ENDBRANCH   2   3
ENDBRANCH   1   2
BRANCH   1  23
ATOM     23  C   UNL A   1      32.327  31.363  26.979  1.00  0.00     0.118 C 
BRANCH  23  24
ATOM     24  N   UNL A   1      32.164  32.778  27.271  1.00  0.00    -0.352 N 
ATOM     25  C   UNL A   1      32.943  33.627  28.018  1.00  0.00     0.251 C 
ATOM     26  H   UNL A   1      31.367  33.194  26.869  1.00  0.00     0.163 HD
ATOM     27  O   UNL A   1      32.513  34.743  28.297  1.00  0.00    -0.269 OA
BRANCH  25  28
ATOM     28  C   UNL A   1      34.284  33.222  28.503  1.00  0.00     0.039 A 
ATOM     29  C   UNL A   1      34.372  32.529  29.716  1.00  0.00     0.014 A 
ATOM     30  C   UNL A   1      35.453  33.564  27.817  1.00  0.00     0.014 A 
ATOM     31  C   UNL A   1      35.619  32.131  30.208  1.00  0.00     0.010 A 
ATOM     32  C   UNL A   1      36.691  33.112  28.276  1.00  0.00     0.010 A 
ATOM     33  C   UNL A   1      36.788  32.390  29.476  1.00  0.00    -0.014 A 
BRANCH  33  34
ATOM     34  C   UNL A   1      38.110  31.895  29.939  1.00  0.00     0.031 A 
ATOM     35  C   UNL A   1      38.660  30.588  29.437  1.00  0.00     0.074 A 
ATOM     36  C   UNL A   1      38.792  32.597  30.866  1.00  0.00     0.049 A 
ATOM     37  N   UNL A   1      39.765  29.974  29.775  1.00  0.00    -0.248 NA
ATOM     38  C   UNL A   1      37.853  29.870  28.438  1.00  0.00     0.031 C 
ATOM     39  C   UNL A   1      38.355  33.862  31.462  1.00  0.00     0.029 A 
ATOM     40  N   UNL A   1      39.995  32.340  31.476  1.00  0.00    -0.354 N 
ATOM     41  C   UNL A   1      39.780  28.791  29.047  1.00  0.00     0.074 A 
ATOM     42  C   UNL A   1      38.554  28.756  28.277  1.00  0.00     0.031 C 
ATOM     43  C   UNL A   1      39.286  34.280  32.334  1.00  0.00     0.029 A 
ATOM     44  C   UNL A   1      40.363  33.297  32.389  1.00  0.00     0.049 A 
ATOM     45  H   UNL A   1      40.541  31.547  31.277  1.00  0.00     0.167 HD
ATOM     46  C   UNL A   1      40.731  27.827  29.010  1.00  0.00     0.031 A 
ATOM     47  C   UNL A   1      41.440  33.373  33.193  1.00  0.00     0.031 A 
ATOM     48  C   UNL A   1      41.955  27.862  29.768  1.00  0.00     0.049 A 
ATOM     49  C   UNL A   1      42.471  32.282  33.149  1.00  0.00     0.074 A 
ATOM     50  C   UNL A   1      43.006  26.963  29.751  1.00  0.00     0.029 A 
ATOM     51  N   UNL A   1      42.287  28.848  30.685  1.00  0.00    -0.354 N 
ATOM     52  N   UNL A   1      42.499  31.204  32.405  1.00  0.00    -0.248 NA
ATOM     53  C   UNL A   1      43.622  32.423  34.053  1.00  0.00     0.031 C 
ATOM     54  C   UNL A   1      43.954  27.379  30.693  1.00  0.00     0.029 A 
ATOM     55  C   UNL A   1      43.514  28.563  31.261  1.00  0.00     0.049 A 
ATOM     56  H   UNL A   1      41.732  29.634  30.895  1.00  0.00     0.167 HD
ATOM     57  C   UNL A   1      43.676  30.546  32.737  1.00  0.00     0.074 A 
ATOM     58  C   UNL A   1      44.344  31.357  33.734  1.00  0.00     0.031 C 
ATOM     59  C   UNL A   1      44.160  29.374  32.259  1.00  0.00     0.031 A 
BRANCH  46  60
ATOM     60  C   UNL A   1      40.480  26.638  28.123  1.00  0.00    -0.014 A 
ATOM     61  C   UNL A   1      39.692  25.561  28.558  1.00  0.00     0.009 A 
ATOM     62  C   UNL A   1      41.006  26.614  26.822  1.00  0.00     0.009 A 
ATOM     63  C   UNL A   1      39.469  24.466  27.720  1.00  0.00     0.001 A 
ATOM     64  C   UNL A   1      40.757  25.530  25.977  1.00  0.00     0.001 A 
ATOM     65  C   UNL A   1      39.997  24.454  26.430  1.00  0.00     0.000 A 
ENDBRANCH  46  60
BRANCH  47  66
ATOM     66  C   UNL A   1      41.603  34.533  34.108  1.00  0.00    -0.014 A 
ATOM     67  C   UNL A   1      42.285  35.683  33.683  1.00  0.00     0.009 A 
ATOM     68  C   UNL A   1      41.078  34.496  35.410  1.00  0.00     0.009 A 
ATOM     69  C   UNL A   1      42.456  36.764  34.550  1.00  0.00     0.001 A 
ATOM     70  C   UNL A   1      41.228  35.589  36.265  1.00  0.00     0.001 A 
ATOM     71  C   UNL A   1      41.924  36.718  35.838  1.00  0.00     0.000 A 
ENDBRANCH  47  66
BRANCH  59  72
ATOM     72  C   UNL A   1      45.483  28.910  32.799  1.00  0.00    -0.014 A 
ATOM     73  C   UNL A   1      45.553  28.066  33.919  1.00  0.00     0.009 A 
ATOM     74  C   UNL A   1      46.671  29.295  32.160  1.00  0.00     0.009 A 
ATOM     75  C   UNL A   1      46.791  27.643  34.407  1.00  0.00     0.001 A 
ATOM     76  C   UNL A   1      47.906  28.849  32.634  1.00  0.00     0.001 A 
ATOM     77  C   UNL A   1      47.965  28.031  33.762  1.00  0.00     0.000 A 
ENDBRANCH  59  72
ENDBRANCH  33  34
ENDBRANCH  25  28
ENDBRANCH  23  24
ENDBRANCH   1  23
TORSDOF 12
ENDMDL
MODEL 3
REMARK VINA RESULT:     -10.9      1.839      7.522
REMARK SMILES COc1ccc(-n2nc(C(=O)NCCCNC(=O)c3ccc(-c4c5nc(c(-c6ccccc6)c6ccc([nH]6)c(-c6ccccc6)c6nc(c(-c7ccccc7)c7ccc4[nH]7)C=C6)C=C5)cc3)c(=O)cc2C)cc1
REMARK SMILES IDX 14 1 13 2 12 3 10 4 11 5 9 7 7 8 8 9 70 10 69 11 71 12 67 13
REMARK SMILES IDX 68 14 6 15 3 16 4 17 73 18 5 19 72 20 2 21 1 22 15 23 16 24
REMARK SMILES IDX 17 25 18 27 19 28 20 29 66 30 21 31 65 32 22 33 23 34 24 35
REMARK SMILES IDX 59 36 25 37 64 38 58 39 60 40 26 41 63 42 57 43 56 44 27 46
REMARK SMILES IDX 49 47 34 48 48 49 35 50 38 51 47 52 61 53 36 54 37 55 46 57
REMARK SMILES IDX 62 58 39 59 28 60 29 61 33 62 30 63 32 64 31 65 50 66 51 67
REMARK SMILES IDX 55 68 52 69 54 70 53 71 40 72 41 73 45 74 42 75 44 76 43 77
REMARK H PARENT 12 6 16 26 60 45 38 56
REMARK Flexibility Score: inf
ROOT
ATOM      1  C   UNL A   1      37.420  20.019  24.722  1.00  0.00     0.042 C 
ENDROOT
BRANCH   1   2
ATOM      2  C   UNL A   1      36.171  20.908  24.728  1.00  0.00     0.118 C 
BRANCH   2   3
ATOM      3  N   UNL A   1      35.490  20.850  26.008  1.00  0.00    -0.350 N 
ATOM      4  C   UNL A   1      34.391  21.528  26.480  1.00  0.00     0.275 C 
ATOM      5  O   UNL A   1      34.138  21.452  27.682  1.00  0.00    -0.267 OA
ATOM      6  H   UNL A   1      35.883  20.216  26.649  1.00  0.00     0.163 HD
BRANCH   4   7
ATOM      7  C   UNL A   1      33.438  22.313  25.586  1.00  0.00     0.196 A 
ATOM      8  N   UNL A   1      32.537  24.388  25.105  1.00  0.00    -0.237 N 
ATOM      9  N   UNL A   1      33.326  23.581  25.886  1.00  0.00    -0.158 NA
ATOM     10  C   UNL A   1      31.740  23.917  24.058  1.00  0.00     0.044 A 
ATOM     11  C   UNL A   1      31.762  22.630  23.691  1.00  0.00     0.078 A 
ATOM     12  C   UNL A   1      30.893  24.869  23.247  1.00  0.00     0.067 C 
ATOM     13  C   UNL A   1      32.716  21.758  24.383  1.00  0.00     0.213 A 
ATOM     14  O   UNL A   1      32.926  20.632  23.963  1.00  0.00    -0.287 OA
BRANCH   8  15
ATOM     15  C   UNL A   1      32.717  25.774  25.383  1.00  0.00     0.065 A 
ATOM     16  C   UNL A   1      33.050  28.536  25.852  1.00  0.00     0.119 A 
ATOM     17  C   UNL A   1      33.861  27.873  24.930  1.00  0.00     0.048 A 
ATOM     18  C   UNL A   1      32.075  27.817  26.545  1.00  0.00     0.048 A 
ATOM     19  C   UNL A   1      33.711  26.501  24.711  1.00  0.00     0.032 A 
ATOM     20  C   UNL A   1      31.909  26.446  26.310  1.00  0.00     0.032 A 
BRANCH  16  21
ATOM     21  O   UNL A   1      33.286  29.878  25.968  1.00  0.00    -0.497 OA
ATOM     22  C   UNL A   1      32.640  30.541  27.048  1.00  0.00     0.278 C 
ENDBRANCH  16  21
ENDBRANCH   8  15
ENDBRANCH   4   7
ENDBRANCH   2   3
ENDBRANCH   1   2
BRANCH   1  23
ATOM     23  C   UNL A   1      38.497  20.424  25.725  1.00  0.00     0.118 C 
BRANCH  23  24
ATOM     24  N   UNL A   1      39.628  19.510  25.730  1.00  0.00    -0.352 N 
ATOM     25  C   UNL A   1      40.952  19.737  26.015  1.00  0.00     0.251 C 
ATOM     26  H   UNL A   1      39.410  18.581  25.490  1.00  0.00     0.163 HD
ATOM     27  O   UNL A   1      41.776  18.860  25.765  1.00  0.00    -0.269 OA
BRANCH  25  28
ATOM     28  C   UNL A   1      41.409  21.017  26.606  1.00  0.00     0.039 A 
ATOM     29  C   UNL A   1      41.893  22.011  25.748  1.00  0.00     0.014 A 
ATOM     30  C   UNL A   1      41.426  21.230  27.987  1.00  0.00     0.014 A 
ATOM     31  C   UNL A   1      42.334  23.233  26.266  1.00  0.00     0.010 A 
ATOM     32  C   UNL A   1      41.807  22.471  28.499  1.00  0.00     0.010 A 
ATOM     33  C   UNL A   1      42.265  23.486  27.644  1.00  0.00    -0.014 A 
BRANCH  33  34
ATOM     34  C   UNL A   1      42.644  24.810  28.202  1.00  0.00     0.031 A 
ATOM     35  C   UNL A   1      41.609  25.881  28.411  1.00  0.00     0.074 A 
ATOM     36  C   UNL A   1      43.941  25.072  28.464  1.00  0.00     0.049 A 
ATOM     37  N   UNL A   1      41.768  27.112  28.830  1.00  0.00    -0.248 NA
ATOM     38  C   UNL A   1      40.217  25.530  28.088  1.00  0.00     0.031 C 
ATOM     39  C   UNL A   1      45.049  24.133  28.274  1.00  0.00     0.029 A 
ATOM     40  N   UNL A   1      44.546  26.208  28.940  1.00  0.00    -0.354 N 
ATOM     41  C   UNL A   1      40.503  27.686  28.806  1.00  0.00     0.074 A 
ATOM     42  C   UNL A   1      39.594  26.682  28.294  1.00  0.00     0.031 C 
ATOM     43  C   UNL A   1      46.194  24.724  28.649  1.00  0.00     0.029 A 
ATOM     44  C   UNL A   1      45.908  26.093  29.067  1.00  0.00     0.049 A 
ATOM     45  H   UNL A   1      44.051  27.027  29.168  1.00  0.00     0.167 HD
ATOM     46  C   UNL A   1      40.128  28.931  29.187  1.00  0.00     0.031 A 
ATOM     47  C   UNL A   1      46.830  26.990  29.464  1.00  0.00     0.031 A 
ATOM     48  C   UNL A   1      41.028  29.930  29.704  1.00  0.00     0.049 A 
ATOM     49  C   UNL A   1      46.392  28.370  29.862  1.00  0.00     0.074 A 
ATOM     50  C   UNL A   1      40.732  31.197  30.173  1.00  0.00     0.029 A 
ATOM     51  N   UNL A   1      42.400  29.773  29.813  1.00  0.00    -0.354 N 
ATOM     52  N   UNL A   1      45.182  28.874  29.895  1.00  0.00    -0.248 NA
ATOM     53  C   UNL A   1      47.447  29.303  30.283  1.00  0.00     0.031 C 
ATOM     54  C   UNL A   1      41.932  31.827  30.522  1.00  0.00     0.029 A 
ATOM     55  C   UNL A   1      42.970  30.932  30.315  1.00  0.00     0.049 A 
ATOM     56  H   UNL A   1      42.898  28.959  29.569  1.00  0.00     0.167 HD
ATOM     57  C   UNL A   1      45.328  30.176  30.356  1.00  0.00     0.074 A 
ATOM     58  C   UNL A   1      46.740  30.377  30.608  1.00  0.00     0.031 C 
ATOM     59  C   UNL A   1      44.377  31.121  30.551  1.00  0.00     0.031 A 
BRANCH  46  60
ATOM     60  C   UNL A   1      38.674  29.290  29.048  1.00  0.00    -0.014 A 
ATOM     61  C   UNL A   1      37.795  29.194  30.138  1.00  0.00     0.009 A 
ATOM     62  C   UNL A   1      38.186  29.767  27.822  1.00  0.00     0.009 A 
ATOM     63  C   UNL A   1      36.448  29.533  29.991  1.00  0.00     0.001 A 
ATOM     64  C   UNL A   1      36.845  30.133  27.686  1.00  0.00     0.001 A 
ATOM     65  C   UNL A   1      35.975  30.006  28.768  1.00  0.00     0.000 A 
ENDBRANCH  46  60
BRANCH  47  66
ATOM     66  C   UNL A   1      48.265  26.608  29.510  1.00  0.00    -0.014 A 
ATOM     67  C   UNL A   1      49.113  26.898  28.431  1.00  0.00     0.009 A 
ATOM     68  C   UNL A   1      48.794  25.950  30.632  1.00  0.00     0.009 A 
ATOM     69  C   UNL A   1      50.457  26.520  28.466  1.00  0.00     0.001 A 
ATOM     70  C   UNL A   1      50.144  25.597  30.674  1.00  0.00     0.001 A 
ATOM     71  C   UNL A   1      50.972  25.874  29.589  1.00  0.00     0.000 A 
ENDBRANCH  47  66
BRANCH  59  72
ATOM     72  C   UNL A   1      44.833  32.451  31.079  1.00  0.00    -0.014 A 
ATOM     73  C   UNL A   1      44.926  32.689  32.459  1.00  0.00     0.009 A 
ATOM     74  C   UNL A   1      45.205  33.466  30.185  1.00  0.00     0.009 A 
ATOM     75  C   UNL A   1      45.353  33.932  32.933  1.00  0.00     0.001 A 
ATOM     76  C   UNL A   1      45.656  34.698  30.662  1.00  0.00     0.001 A 
ATOM     77  C   UNL A   1      45.722  34.932  32.035  1.00  0.00     0.000 A 
ENDBRANCH  59  72
ENDBRANCH  33  34
ENDBRANCH  25  28
ENDBRANCH  23  24
ENDBRANCH   1  23
TORSDOF 12
ENDMDL
