MODEL 1
REMARK VINA RESULT:     -13.0      0.000      0.000
REMARK SMILES Cc1cc(C(=O)NCCCNC(=O)c2ccc(-c3c4nc(c(-c5ccccc5)c5ccc([nH]5)c(-c5ccccc5)c5nc(c(-c6ccccc6)c6ccc3[nH]6)C=C5)C=C4)cc2)ccc1NC(=O)c1ccc(=O)n(CCOc2ccccc2)n1
REMARK SMILES IDX 5 1 6 2 7 3 4 5 1 6 2 7 3 8 64 9 63 10 62 11 65 12 66 13
REMARK SMILES IDX 67 15 68 16 69 17 83 18 70 19 73 20 71 21 72 22 74 23 75 24
REMARK SMILES IDX 76 25 77 26 78 27 82 28 79 29 81 30 80 31 8 32 9 33 10 34
REMARK SMILES IDX 11 35 12 36 13 38 14 39 15 40 61 41 16 42 60 43 17 44 18 45
REMARK SMILES IDX 19 46 54 47 20 48 59 49 53 50 55 51 21 52 58 53 52 54 51 55
REMARK SMILES IDX 22 57 44 58 29 59 43 60 30 61 33 62 42 63 56 64 31 65 32 66
REMARK SMILES IDX 41 68 57 69 34 70 23 71 24 72 28 73 25 74 27 75 26 76 45 77
REMARK SMILES IDX 46 78 50 79 47 80 49 81 48 82 35 83 36 84 40 85 37 86 39 87
REMARK SMILES IDX 38 88
REMARK H PARENT 7 4 65 14 11 37 55 56 33 67
REMARK Flexibility Score: inf
ROOT
ATOM      1  C   UNL A   1      36.391  22.970  23.923  1.00  0.00     0.251 C 
ATOM      2  O   UNL A   1      36.201  23.102  22.714  1.00  0.00    -0.269 OA
ATOM      3  N   UNL A   1      37.668  23.129  24.423  1.00  0.00    -0.352 N 
ATOM      4  H   UNL A   1      38.371  23.186  23.736  1.00  0.00     0.163 HD
ENDROOT
BRANCH   1   5
ATOM      5  C   UNL A   1      35.224  22.677  24.800  1.00  0.00     0.040 A 
ATOM      6  C   UNL A   1      32.200  20.376  24.723  1.00  0.00     0.046 C 
ATOM      7  C   UNL A   1      33.088  21.508  25.164  1.00  0.00    -0.027 A 
ATOM      8  C   UNL A   1      34.253  21.754  24.388  1.00  0.00     0.019 A 
ATOM      9  C   UNL A   1      32.872  22.266  26.326  1.00  0.00     0.044 A 
ATOM     10  C   UNL A   1      33.960  22.979  26.826  1.00  0.00     0.027 A 
ATOM     11  C   UNL A   1      35.117  23.193  26.079  1.00  0.00     0.016 A 
BRANCH   9  12
ATOM     12  N   UNL A   1      31.610  22.303  26.947  1.00  0.00    -0.320 N 
ATOM     13  C   UNL A   1      30.597  23.271  26.875  1.00  0.00     0.276 C 
ATOM     14  H   UNL A   1      31.406  21.529  27.519  1.00  0.00     0.170 HD
ATOM     15  O   UNL A   1      29.550  23.154  27.482  1.00  0.00    -0.267 OA
BRANCH  13  16
ATOM     16  C   UNL A   1      30.808  24.499  26.016  1.00  0.00     0.149 A 
ATOM     17  C   UNL A   1      30.563  24.295  24.572  1.00  0.00     0.042 A 
ATOM     18  N   UNL A   1      31.126  25.636  26.563  1.00  0.00    -0.164 NA
ATOM     19  C   UNL A   1      30.231  25.396  23.895  1.00  0.00     0.076 A 
ATOM     20  N   UNL A   1      30.978  26.757  25.748  1.00  0.00    -0.226 N 
ATOM     21  C   UNL A   1      30.211  26.702  24.592  1.00  0.00     0.266 A 
ATOM     22  O   UNL A   1      29.560  27.623  24.117  1.00  0.00    -0.268 OA
BRANCH  20  23
ATOM     23  C   UNL A   1      31.411  28.047  26.293  1.00  0.00     0.190 C 
BRANCH  23  24
ATOM     24  C   UNL A   1      32.872  28.016  26.784  1.00  0.00     0.253 C 
BRANCH  24  25
ATOM     25  O   UNL A   1      33.781  28.510  25.779  1.00  0.00    -0.492 OA
BRANCH  25  26
ATOM     26  C   UNL A   1      33.743  27.769  24.632  1.00  0.00     0.119 A 
ATOM     27  C   UNL A   1      34.011  26.404  24.625  1.00  0.00     0.046 A 
ATOM     28  C   UNL A   1      33.486  28.429  23.435  1.00  0.00     0.046 A 
ATOM     29  C   UNL A   1      33.901  25.688  23.430  1.00  0.00     0.004 A 
ATOM     30  C   UNL A   1      33.308  27.711  22.256  1.00  0.00     0.004 A 
ATOM     31  C   UNL A   1      33.508  26.334  22.255  1.00  0.00     0.000 A 
ENDBRANCH  25  26
ENDBRANCH  24  25
ENDBRANCH  23  24
ENDBRANCH  20  23
ENDBRANCH  13  16
ENDBRANCH   9  12
ENDBRANCH   1   5
BRANCH   3  32
ATOM     32  C   UNL A   1      38.152  23.227  25.797  1.00  0.00     0.118 C 
BRANCH  32  33
ATOM     33  C   UNL A   1      38.737  21.910  26.304  1.00  0.00     0.042 C 
BRANCH  33  34
ATOM     34  C   UNL A   1      40.227  21.935  26.604  1.00  0.00     0.118 C 
BRANCH  34  35
ATOM     35  N   UNL A   1      41.019  20.985  25.814  1.00  0.00    -0.352 N 
ATOM     36  C   UNL A   1      42.394  20.807  25.841  1.00  0.00     0.251 C 
ATOM     37  H   UNL A   1      40.517  20.409  25.193  1.00  0.00     0.163 HD
ATOM     38  O   UNL A   1      42.950  19.908  25.225  1.00  0.00    -0.269 OA
BRANCH  36  39
ATOM     39  C   UNL A   1      43.168  21.689  26.740  1.00  0.00     0.039 A 
ATOM     40  C   UNL A   1      42.955  21.548  28.111  1.00  0.00     0.014 A 
ATOM     41  C   UNL A   1      43.740  22.843  26.208  1.00  0.00     0.014 A 
ATOM     42  C   UNL A   1      43.040  22.679  28.915  1.00  0.00     0.010 A 
ATOM     43  C   UNL A   1      43.733  23.984  26.987  1.00  0.00     0.010 A 
ATOM     44  C   UNL A   1      43.293  23.915  28.313  1.00  0.00    -0.014 A 
BRANCH  44  45
ATOM     45  C   UNL A   1      42.949  25.172  28.971  1.00  0.00     0.031 A 
ATOM     46  C   UNL A   1      41.774  25.943  28.536  1.00  0.00     0.074 A 
ATOM     47  C   UNL A   1      43.731  25.700  29.941  1.00  0.00     0.049 A 
ATOM     48  N   UNL A   1      41.747  27.235  28.476  1.00  0.00    -0.248 NA
ATOM     49  C   UNL A   1      40.543  25.305  28.097  1.00  0.00     0.031 C 
ATOM     50  C   UNL A   1      43.436  26.877  30.756  1.00  0.00     0.029 A 
ATOM     51  N   UNL A   1      45.072  25.432  30.214  1.00  0.00    -0.354 N 
ATOM     52  C   UNL A   1      40.433  27.594  28.310  1.00  0.00     0.074 A 
ATOM     53  C   UNL A   1      39.742  26.367  27.971  1.00  0.00     0.031 C 
ATOM     54  C   UNL A   1      44.596  27.424  31.148  1.00  0.00     0.029 A 
ATOM     55  C   UNL A   1      45.671  26.663  30.536  1.00  0.00     0.049 A 
ATOM     56  H   UNL A   1      45.514  24.553  30.186  1.00  0.00     0.167 HD
ATOM     57  C   UNL A   1      40.014  28.849  28.638  1.00  0.00     0.031 A 
ATOM     58  C   UNL A   1      46.757  27.171  29.890  1.00  0.00     0.031 A 
ATOM     59  C   UNL A   1      41.091  29.704  29.137  1.00  0.00     0.049 A 
ATOM     60  C   UNL A   1      46.517  28.531  29.264  1.00  0.00     0.074 A 
ATOM     61  C   UNL A   1      41.434  30.180  30.394  1.00  0.00     0.029 A 
ATOM     62  N   UNL A   1      42.170  29.996  28.315  1.00  0.00    -0.354 N 
ATOM     63  N   UNL A   1      45.400  29.197  29.340  1.00  0.00    -0.248 NA
ATOM     64  C   UNL A   1      47.485  29.181  28.379  1.00  0.00     0.031 C 
ATOM     65  C   UNL A   1      42.716  30.788  30.312  1.00  0.00     0.029 A 
ATOM     66  C   UNL A   1      43.155  30.678  29.008  1.00  0.00     0.049 A 
ATOM     67  H   UNL A   1      42.227  29.749  27.364  1.00  0.00     0.167 HD
ATOM     68  C   UNL A   1      45.446  30.279  28.495  1.00  0.00     0.074 A 
ATOM     69  C   UNL A   1      46.776  30.226  27.919  1.00  0.00     0.031 C 
ATOM     70  C   UNL A   1      44.361  31.089  28.302  1.00  0.00     0.031 A 
BRANCH  57  71
ATOM     71  C   UNL A   1      38.549  29.180  28.780  1.00  0.00    -0.014 A 
ATOM     72  C   UNL A   1      37.826  29.673  27.679  1.00  0.00     0.009 A 
ATOM     73  C   UNL A   1      37.837  29.075  29.988  1.00  0.00     0.009 A 
ATOM     74  C   UNL A   1      36.519  30.158  27.807  1.00  0.00     0.001 A 
ATOM     75  C   UNL A   1      36.548  29.604  30.137  1.00  0.00     0.001 A 
ATOM     76  C   UNL A   1      35.894  30.162  29.047  1.00  0.00     0.000 A 
ENDBRANCH  57  71
BRANCH  58  77
ATOM     77  C   UNL A   1      47.659  26.129  29.333  1.00  0.00    -0.014 A 
ATOM     78  C   UNL A   1      47.377  25.643  28.040  1.00  0.00     0.009 A 
ATOM     79  C   UNL A   1      48.936  25.922  29.869  1.00  0.00     0.009 A 
ATOM     80  C   UNL A   1      48.388  25.083  27.255  1.00  0.00     0.001 A 
ATOM     81  C   UNL A   1      49.939  25.347  29.083  1.00  0.00     0.001 A 
ATOM     82  C   UNL A   1      49.677  24.967  27.766  1.00  0.00     0.000 A 
ENDBRANCH  58  77
BRANCH  70  83
ATOM     83  C   UNL A   1      44.289  32.319  27.418  1.00  0.00    -0.014 A 
ATOM     84  C   UNL A   1      44.291  32.301  26.018  1.00  0.00     0.009 A 
ATOM     85  C   UNL A   1      44.309  33.601  28.019  1.00  0.00     0.009 A 
ATOM     86  C   UNL A   1      44.226  33.485  25.266  1.00  0.00     0.001 A 
ATOM     87  C   UNL A   1      44.267  34.784  27.276  1.00  0.00     0.001 A 
ATOM     88  C   UNL A   1      44.208  34.725  25.894  1.00  0.00     0.000 A 
ENDBRANCH  70  83
ENDBRANCH  44  45
ENDBRANCH  36  39
ENDBRANCH  34  35
ENDBRANCH  33  34
ENDBRANCH  32  33
ENDBRANCH   3  32
TORSDOF 16
ENDMDL
MODEL 2
REMARK VINA RESULT:     -12.9      3.584      8.837
REMARK SMILES Cc1cc(C(=O)NCCCNC(=O)c2ccc(-c3c4nc(c(-c5ccccc5)c5ccc([nH]5)c(-c5ccccc5)c5nc(c(-c6ccccc6)c6ccc3[nH]6)C=C5)C=C4)cc2)ccc1NC(=O)c1ccc(=O)n(CCOc2ccccc2)n1
REMARK SMILES IDX 5 1 6 2 7 3 4 5 1 6 2 7 3 8 64 9 63 10 62 11 65 12 66 13
REMARK SMILES IDX 67 15 68 16 69 17 83 18 70 19 73 20 71 21 72 22 74 23 75 24
REMARK SMILES IDX 76 25 77 26 78 27 82 28 79 29 81 30 80 31 8 32 9 33 10 34
REMARK SMILES IDX 11 35 12 36 13 38 14 39 15 40 61 41 16 42 60 43 17 44 18 45
REMARK SMILES IDX 19 46 54 47 20 48 59 49 53 50 55 51 21 52 58 53 52 54 51 55
REMARK SMILES IDX 22 57 44 58 29 59 43 60 30 61 33 62 42 63 56 64 31 65 32 66
REMARK SMILES IDX 41 68 57 69 34 70 23 71 24 72 28 73 25 74 27 75 26 76 45 77
REMARK SMILES IDX 46 78 50 79 47 80 49 81 48 82 35 83 36 84 40 85 37 86 39 87
REMARK SMILES IDX 38 88
REMARK H PARENT 7 4 65 14 11 37 55 56 33 67
REMARK Flexibility Score: inf
ROOT
ATOM      1  C   UNL A   1      31.834  28.405  26.962  1.00  0.00     0.251 C 
ATOM      2  O   UNL A   1      31.444  27.447  27.629  1.00  0.00    -0.269 OA
ATOM      3  N   UNL A   1      32.060  29.613  27.592  1.00  0.00    -0.352 N 
ATOM      4  H   UNL A   1      31.736  29.656  28.521  1.00  0.00     0.163 HD
ENDROOT
BRANCH   1   5
ATOM      5  C   UNL A   1      32.079  28.209  25.508  1.00  0.00     0.040 A 
ATOM      6  C   UNL A   1      30.044  28.373  22.302  1.00  0.00     0.046 C 
ATOM      7  C   UNL A   1      31.200  28.060  23.212  1.00  0.00    -0.027 A 
ATOM      8  C   UNL A   1      31.019  28.317  24.598  1.00  0.00     0.019 A 
ATOM      9  C   UNL A   1      32.453  27.611  22.763  1.00  0.00     0.044 A 
ATOM     10  C   UNL A   1      33.527  27.757  23.639  1.00  0.00     0.027 A 
ATOM     11  C   UNL A   1      33.352  28.043  24.992  1.00  0.00     0.016 A 
BRANCH   9  12
ATOM     12  N   UNL A   1      32.605  27.037  21.487  1.00  0.00    -0.320 N 
ATOM     13  C   UNL A   1      32.865  25.708  21.121  1.00  0.00     0.276 C 
ATOM     14  H   UNL A   1      32.515  27.666  20.735  1.00  0.00     0.170 HD
ATOM     15  O   UNL A   1      32.972  25.370  19.958  1.00  0.00    -0.267 OA
BRANCH  13  16
ATOM     16  C   UNL A   1      33.016  24.661  22.202  1.00  0.00     0.149 A 
ATOM     17  C   UNL A   1      31.744  24.184  22.786  1.00  0.00     0.042 A 
ATOM     18  N   UNL A   1      34.194  24.207  22.517  1.00  0.00    -0.164 NA
ATOM     19  C   UNL A   1      31.789  22.961  23.317  1.00  0.00     0.076 A 
ATOM     20  N   UNL A   1      34.205  23.035  23.271  1.00  0.00    -0.226 N 
ATOM     21  C   UNL A   1      33.077  22.230  23.355  1.00  0.00     0.266 A 
ATOM     22  O   UNL A   1      33.069  21.011  23.472  1.00  0.00    -0.268 OA
BRANCH  20  23
ATOM     23  C   UNL A   1      35.508  22.539  23.726  1.00  0.00     0.190 C 
BRANCH  23  24
ATOM     24  C   UNL A   1      36.195  23.510  24.705  1.00  0.00     0.253 C 
BRANCH  24  25
ATOM     25  O   UNL A   1      35.923  23.162  26.078  1.00  0.00    -0.492 OA
BRANCH  25  26
ATOM     26  C   UNL A   1      34.616  23.370  26.418  1.00  0.00     0.119 A 
ATOM     27  C   UNL A   1      33.951  24.552  26.109  1.00  0.00     0.046 A 
ATOM     28  C   UNL A   1      33.966  22.383  27.150  1.00  0.00     0.046 A 
ATOM     29  C   UNL A   1      32.598  24.684  26.433  1.00  0.00     0.004 A 
ATOM     30  C   UNL A   1      32.603  22.480  27.414  1.00  0.00     0.004 A 
ATOM     31  C   UNL A   1      31.914  23.632  27.046  1.00  0.00     0.000 A 
ENDBRANCH  25  26
ENDBRANCH  24  25
ENDBRANCH  23  24
ENDBRANCH  20  23
ENDBRANCH  13  16
ENDBRANCH   9  12
ENDBRANCH   1   5
BRANCH   3  32
ATOM     32  C   UNL A   1      32.696  30.837  27.114  1.00  0.00     0.118 C 
BRANCH  32  33
ATOM     33  C   UNL A   1      34.213  30.817  27.300  1.00  0.00     0.042 C 
BRANCH  33  34
ATOM     34  C   UNL A   1      34.807  32.073  27.917  1.00  0.00     0.118 C 
BRANCH  34  35
ATOM     35  N   UNL A   1      33.824  32.959  28.552  1.00  0.00    -0.352 N 
ATOM     36  C   UNL A   1      34.052  33.889  29.555  1.00  0.00     0.251 C 
ATOM     37  H   UNL A   1      32.897  32.884  28.230  1.00  0.00     0.163 HD
ATOM     38  O   UNL A   1      33.185  34.662  29.941  1.00  0.00    -0.269 OA
BRANCH  36  39
ATOM     39  C   UNL A   1      35.431  33.989  30.078  1.00  0.00     0.039 A 
ATOM     40  C   UNL A   1      36.400  34.517  29.225  1.00  0.00     0.014 A 
ATOM     41  C   UNL A   1      35.780  33.218  31.185  1.00  0.00     0.014 A 
ATOM     42  C   UNL A   1      37.698  34.027  29.311  1.00  0.00     0.010 A 
ATOM     43  C   UNL A   1      37.045  32.661  31.211  1.00  0.00     0.010 A 
ATOM     44  C   UNL A   1      37.970  32.997  30.217  1.00  0.00    -0.014 A 
BRANCH  44  45
ATOM     45  C   UNL A   1      39.132  32.126  30.062  1.00  0.00     0.031 A 
ATOM     46  C   UNL A   1      38.965  30.733  29.621  1.00  0.00     0.074 A 
ATOM     47  C   UNL A   1      40.378  32.545  30.385  1.00  0.00     0.049 A 
ATOM     48  N   UNL A   1      39.659  29.745  30.086  1.00  0.00    -0.248 NA
ATOM     49  C   UNL A   1      37.966  30.341  28.639  1.00  0.00     0.031 C 
ATOM     50  C   UNL A   1      41.627  31.820  30.161  1.00  0.00     0.029 A 
ATOM     51  N   UNL A   1      40.748  33.601  31.216  1.00  0.00    -0.354 N 
ATOM     52  C   UNL A   1      39.431  28.677  29.255  1.00  0.00     0.074 A 
ATOM     53  C   UNL A   1      38.295  29.062  28.443  1.00  0.00     0.031 C 
ATOM     54  C   UNL A   1      42.520  32.221  31.079  1.00  0.00     0.029 A 
ATOM     55  C   UNL A   1      41.852  33.156  31.965  1.00  0.00     0.049 A 
ATOM     56  H   UNL A   1      40.320  34.487  31.269  1.00  0.00     0.167 HD
ATOM     57  C   UNL A   1      40.316  27.643  29.205  1.00  0.00     0.031 A 
ATOM     58  C   UNL A   1      41.893  33.153  33.326  1.00  0.00     0.031 A 
ATOM     59  C   UNL A   1      41.451  27.810  30.111  1.00  0.00     0.049 A 
ATOM     60  C   UNL A   1      42.136  31.783  33.929  1.00  0.00     0.074 A 
ATOM     61  C   UNL A   1      42.789  28.127  29.925  1.00  0.00     0.029 A 
ATOM     62  N   UNL A   1      41.229  27.896  31.478  1.00  0.00    -0.354 N 
ATOM     63  N   UNL A   1      42.320  30.692  33.242  1.00  0.00    -0.248 NA
ATOM     64  C   UNL A   1      42.046  31.520  35.366  1.00  0.00     0.031 C 
ATOM     65  C   UNL A   1      43.376  28.373  31.196  1.00  0.00     0.029 A 
ATOM     66  C   UNL A   1      42.395  28.212  32.154  1.00  0.00     0.049 A 
ATOM     67  H   UNL A   1      40.356  27.752  31.910  1.00  0.00     0.167 HD
ATOM     68  C   UNL A   1      42.297  29.605  34.083  1.00  0.00     0.074 A 
ATOM     69  C   UNL A   1      42.126  30.179  35.404  1.00  0.00     0.031 C 
ATOM     70  C   UNL A   1      42.363  28.325  33.606  1.00  0.00     0.031 A 
BRANCH  57  71
ATOM     71  C   UNL A   1      40.277  26.625  28.091  1.00  0.00    -0.014 A 
ATOM     72  C   UNL A   1      39.624  25.394  28.281  1.00  0.00     0.009 A 
ATOM     73  C   UNL A   1      40.911  26.802  26.848  1.00  0.00     0.009 A 
ATOM     74  C   UNL A   1      39.714  24.355  27.346  1.00  0.00     0.001 A 
ATOM     75  C   UNL A   1      41.048  25.752  25.931  1.00  0.00     0.001 A 
ATOM     76  C   UNL A   1      40.461  24.521  26.188  1.00  0.00     0.000 A 
ENDBRANCH  57  71
BRANCH  58  77
ATOM     77  C   UNL A   1      41.065  34.219  33.949  1.00  0.00    -0.014 A 
ATOM     78  C   UNL A   1      39.766  33.874  34.374  1.00  0.00     0.009 A 
ATOM     79  C   UNL A   1      41.654  35.384  34.457  1.00  0.00     0.009 A 
ATOM     80  C   UNL A   1      39.129  34.603  35.380  1.00  0.00     0.001 A 
ATOM     81  C   UNL A   1      41.004  36.119  35.453  1.00  0.00     0.001 A 
ATOM     82  C   UNL A   1      39.765  35.706  35.943  1.00  0.00     0.000 A 
ENDBRANCH  58  77
BRANCH  70  83
ATOM     83  C   UNL A   1      42.367  27.049  34.425  1.00  0.00    -0.014 A 
ATOM     84  C   UNL A   1      41.413  26.715  35.394  1.00  0.00     0.009 A 
ATOM     85  C   UNL A   1      43.448  26.146  34.286  1.00  0.00     0.009 A 
ATOM     86  C   UNL A   1      41.486  25.513  36.117  1.00  0.00     0.001 A 
ATOM     87  C   UNL A   1      43.540  24.958  35.018  1.00  0.00     0.001 A 
ATOM     88  C   UNL A   1      42.545  24.632  35.924  1.00  0.00     0.000 A 
ENDBRANCH  70  83
ENDBRANCH  44  45
ENDBRANCH  36  39
ENDBRANCH  34  35
ENDBRANCH  33  34
ENDBRANCH  32  33
ENDBRANCH   3  32
TORSDOF 16
ENDMDL
MODEL 3
REMARK VINA RESULT:     -12.7      2.331      3.886
REMARK SMILES Cc1cc(C(=O)NCCCNC(=O)c2ccc(-c3c4nc(c(-c5ccccc5)c5ccc([nH]5)c(-c5ccccc5)c5nc(c(-c6ccccc6)c6ccc3[nH]6)C=C5)C=C4)cc2)ccc1NC(=O)c1ccc(=O)n(CCOc2ccccc2)n1
REMARK SMILES IDX 5 1 6 2 7 3 4 5 1 6 2 7 3 8 64 9 63 10 62 11 65 12 66 13
REMARK SMILES IDX 67 15 68 16 69 17 83 18 70 19 73 20 71 21 72 22 74 23 75 24
REMARK SMILES IDX 76 25 77 26 78 27 82 28 79 29 81 30 80 31 8 32 9 33 10 34
REMARK SMILES IDX 11 35 12 36 13 38 14 39 15 40 61 41 16 42 60 43 17 44 18 45
REMARK SMILES IDX 19 46 54 47 20 48 59 49 53 50 55 51 21 52 58 53 52 54 51 55
REMARK SMILES IDX 22 57 44 58 29 59 43 60 30 61 33 62 42 63 56 64 31 65 32 66
REMARK SMILES IDX 41 68 57 69 34 70 23 71 24 72 28 73 25 74 27 75 26 76 45 77
REMARK SMILES IDX 46 78 50 79 47 80 49 81 48 82 35 83 36 84 40 85 37 86 39 87
REMARK SMILES IDX 38 88
REMARK H PARENT 7 4 65 14 11 37 55 56 33 67
REMARK Flexibility Score: inf
ROOT
ATOM      1  C   UNL A   1      36.421  22.582  24.047  1.00  0.00     0.251 C 
ATOM      2  O   UNL A   1      36.356  23.423  23.150  1.00  0.00    -0.269 OA
ATOM      3  N   UNL A   1      37.587  21.860  24.205  1.00  0.00    -0.352 N 
ATOM      4  H   UNL A   1      38.238  21.968  23.473  1.00  0.00     0.163 HD
ENDROOT
BRANCH   1   5
ATOM      5  C   UNL A   1      35.248  22.406  24.945  1.00  0.00     0.040 A 
ATOM      6  C   UNL A   1      32.512  19.820  25.463  1.00  0.00     0.046 C 
ATOM      7  C   UNL A   1      33.240  21.130  25.582  1.00  0.00    -0.027 A 
ATOM      8  C   UNL A   1      34.412  21.292  24.793  1.00  0.00     0.019 A 
ATOM      9  C   UNL A   1      32.876  22.151  26.474  1.00  0.00     0.044 A 
ATOM     10  C   UNL A   1      33.847  23.105  26.773  1.00  0.00     0.027 A 
ATOM     11  C   UNL A   1      35.013  23.242  26.021  1.00  0.00     0.016 A 
BRANCH   9  12
ATOM     12  N   UNL A   1      31.585  22.205  27.031  1.00  0.00    -0.320 N 
ATOM     13  C   UNL A   1      30.582  23.176  26.894  1.00  0.00     0.276 C 
ATOM     14  H   UNL A   1      31.348  21.441  27.605  1.00  0.00     0.170 HD
ATOM     15  O   UNL A   1      29.506  23.074  27.451  1.00  0.00    -0.267 OA
BRANCH  13  16
ATOM     16  C   UNL A   1      30.843  24.389  26.028  1.00  0.00     0.149 A 
ATOM     17  C   UNL A   1      30.657  24.167  24.578  1.00  0.00     0.042 A 
ATOM     18  N   UNL A   1      31.149  25.531  26.572  1.00  0.00    -0.164 NA
ATOM     19  C   UNL A   1      30.366  25.261  23.872  1.00  0.00     0.076 A 
ATOM     20  N   UNL A   1      31.048  26.641  25.736  1.00  0.00    -0.226 N 
ATOM     21  C   UNL A   1      30.330  26.577  24.549  1.00  0.00     0.266 A 
ATOM     22  O   UNL A   1      29.709  27.498  24.033  1.00  0.00    -0.268 OA
BRANCH  20  23
ATOM     23  C   UNL A   1      31.472  27.935  26.280  1.00  0.00     0.190 C 
BRANCH  23  24
ATOM     24  C   UNL A   1      32.947  27.930  26.722  1.00  0.00     0.253 C 
BRANCH  24  25
ATOM     25  O   UNL A   1      33.814  28.444  25.690  1.00  0.00    -0.492 OA
BRANCH  25  26
ATOM     26  C   UNL A   1      33.744  27.710  24.540  1.00  0.00     0.119 A 
ATOM     27  C   UNL A   1      34.029  26.348  24.513  1.00  0.00     0.046 A 
ATOM     28  C   UNL A   1      33.439  28.375  23.357  1.00  0.00     0.046 A 
ATOM     29  C   UNL A   1      33.886  25.640  23.317  1.00  0.00     0.004 A 
ATOM     30  C   UNL A   1      33.228  27.663  22.179  1.00  0.00     0.004 A 
ATOM     31  C   UNL A   1      33.444  26.289  22.162  1.00  0.00     0.000 A 
ENDBRANCH  25  26
ENDBRANCH  24  25
ENDBRANCH  23  24
ENDBRANCH  20  23
ENDBRANCH  13  16
ENDBRANCH   9  12
ENDBRANCH   1   5
BRANCH   3  32
ATOM     32  C   UNL A   1      38.019  20.962  25.273  1.00  0.00     0.118 C 
BRANCH  32  33
ATOM     33  C   UNL A   1      39.401  21.324  25.815  1.00  0.00     0.042 C 
BRANCH  33  34
ATOM     34  C   UNL A   1      39.485  22.658  26.539  1.00  0.00     0.118 C 
BRANCH  34  35
ATOM     35  N   UNL A   1      40.829  23.004  27.015  1.00  0.00    -0.352 N 
ATOM     36  C   UNL A   1      41.268  24.236  27.477  1.00  0.00     0.251 C 
ATOM     37  H   UNL A   1      41.496  22.279  27.005  1.00  0.00     0.163 HD
ATOM     38  O   UNL A   1      42.381  24.395  27.960  1.00  0.00    -0.269 OA
BRANCH  36  39
ATOM     39  C   UNL A   1      40.292  25.345  27.464  1.00  0.00     0.039 A 
ATOM     40  C   UNL A   1      40.658  26.510  26.789  1.00  0.00     0.014 A 
ATOM     41  C   UNL A   1      39.274  25.347  28.417  1.00  0.00     0.014 A 
ATOM     42  C   UNL A   1      40.210  27.730  27.281  1.00  0.00     0.010 A 
ATOM     43  C   UNL A   1      38.904  26.562  28.963  1.00  0.00     0.010 A 
ATOM     44  C   UNL A   1      39.448  27.745  28.453  1.00  0.00    -0.014 A 
BRANCH  44  45
ATOM     45  C   UNL A   1      39.332  28.945  29.276  1.00  0.00     0.031 A 
ATOM     46  C   UNL A   1      38.364  29.997  28.929  1.00  0.00     0.074 A 
ATOM     47  C   UNL A   1      40.152  29.160  30.332  1.00  0.00     0.049 A 
ATOM     48  N   UNL A   1      38.604  31.262  29.055  1.00  0.00    -0.248 NA
ATOM     49  C   UNL A   1      37.054  29.697  28.372  1.00  0.00     0.031 C 
ATOM     50  C   UNL A   1      40.058  30.251  31.301  1.00  0.00     0.029 A 
ATOM     51  N   UNL A   1      41.393  28.583  30.596  1.00  0.00    -0.354 N 
ATOM     52  C   UNL A   1      37.401  31.907  28.910  1.00  0.00     0.074 A 
ATOM     53  C   UNL A   1      36.495  30.910  28.381  1.00  0.00     0.031 C 
ATOM     54  C   UNL A   1      41.283  30.483  31.796  1.00  0.00     0.029 A 
ATOM     55  C   UNL A   1      42.211  29.605  31.108  1.00  0.00     0.049 A 
ATOM     56  H   UNL A   1      41.647  27.642  30.452  1.00  0.00     0.167 HD
ATOM     57  C   UNL A   1      37.230  33.165  29.406  1.00  0.00     0.031 A 
ATOM     58  C   UNL A   1      43.411  29.958  30.569  1.00  0.00     0.031 A 
ATOM     59  C   UNL A   1      38.430  33.699  30.050  1.00  0.00     0.049 A 
ATOM     60  C   UNL A   1      43.488  31.410  30.140  1.00  0.00     0.074 A 
ATOM     61  C   UNL A   1      38.794  33.917  31.371  1.00  0.00     0.029 A 
ATOM     62  N   UNL A   1      39.589  33.868  29.306  1.00  0.00    -0.354 N 
ATOM     63  N   UNL A   1      42.528  32.279  30.284  1.00  0.00    -0.248 NA
ATOM     64  C   UNL A   1      44.615  31.958  29.383  1.00  0.00     0.031 C 
ATOM     65  C   UNL A   1      40.176  34.249  31.409  1.00  0.00     0.029 A 
ATOM     66  C   UNL A   1      40.653  34.228  30.114  1.00  0.00     0.049 A 
ATOM     67  H   UNL A   1      39.646  33.747  28.330  1.00  0.00     0.167 HD
ATOM     68  C   UNL A   1      42.839  33.432  29.606  1.00  0.00     0.074 A 
ATOM     69  C   UNL A   1      44.160  33.181  29.061  1.00  0.00     0.031 C 
ATOM     70  C   UNL A   1      41.954  34.470  29.506  1.00  0.00     0.031 A 
BRANCH  57  71
ATOM     71  C   UNL A   1      35.857  33.773  29.558  1.00  0.00    -0.014 A 
ATOM     72  C   UNL A   1      35.196  34.312  28.440  1.00  0.00     0.009 A 
ATOM     73  C   UNL A   1      35.187  33.891  30.788  1.00  0.00     0.009 A 
ATOM     74  C   UNL A   1      34.006  35.040  28.563  1.00  0.00     0.001 A 
ATOM     75  C   UNL A   1      34.024  34.660  30.927  1.00  0.00     0.001 A 
ATOM     76  C   UNL A   1      33.442  35.250  29.814  1.00  0.00     0.000 A 
ENDBRANCH  57  71
BRANCH  58  77
ATOM     77  C   UNL A   1      44.111  28.836  29.889  1.00  0.00    -0.014 A 
ATOM     78  C   UNL A   1      44.723  27.859  30.701  1.00  0.00     0.009 A 
ATOM     79  C   UNL A   1      43.848  28.531  28.547  1.00  0.00     0.009 A 
ATOM     80  C   UNL A   1      44.943  26.568  30.216  1.00  0.00     0.001 A 
ATOM     81  C   UNL A   1      44.086  27.241  28.064  1.00  0.00     0.001 A 
ATOM     82  C   UNL A   1      44.592  26.251  28.907  1.00  0.00     0.000 A 
ENDBRANCH  58  77
BRANCH  70  83
ATOM     83  C   UNL A   1      42.183  35.796  28.807  1.00  0.00    -0.014 A 
ATOM     84  C   UNL A   1      41.658  36.144  27.556  1.00  0.00     0.009 A 
ATOM     85  C   UNL A   1      43.056  36.742  29.395  1.00  0.00     0.009 A 
ATOM     86  C   UNL A   1      41.918  37.393  26.969  1.00  0.00     0.001 A 
ATOM     87  C   UNL A   1      43.338  37.979  28.806  1.00  0.00     0.001 A 
ATOM     88  C   UNL A   1      42.752  38.312  27.597  1.00  0.00     0.000 A 
ENDBRANCH  70  83
ENDBRANCH  44  45
ENDBRANCH  36  39
ENDBRANCH  34  35
ENDBRANCH  33  34
ENDBRANCH  32  33
ENDBRANCH   3  32
TORSDOF 16
ENDMDL
