MODEL 1
REMARK VINA RESULT:     -12.1      0.000      0.000
REMARK SMILES C[C@H]1N=N[C@H](S/C(=C/c2ccc(-c3cccc(Cl)c3)o2)C(=O)NCCCNC(=O)c2ccc(-c3c4nc(c(-c5ccccc5)c5ccc([nH]5)c(-c5ccccc5)c5nc(c(-c6ccccc6)c6ccc3[nH]6)C=C5)C=C4)cc2)[NH2+]1
REMARK SMILES IDX 25 1 24 2 23 3 21 4 22 5 7 7 8 8 6 9 5 10 1 11 2 12 3 13
REMARK SMILES IDX 78 14 4 15 9 18 10 19 20 20 11 21 12 22 13 23 14 24 19 25
REMARK SMILES IDX 15 26 17 27 16 28 18 29 26 30 27 31 28 32 29 34 30 35 31 36
REMARK SMILES IDX 77 37 32 38 76 39 33 40 34 41 35 42 70 43 36 44 75 45 69 46
REMARK SMILES IDX 71 47 37 48 74 49 68 50 67 51 38 53 60 54 45 55 59 56 46 57
REMARK SMILES IDX 49 58 58 59 72 60 47 61 48 62 57 64 73 65 50 66 39 67 40 68
REMARK SMILES IDX 44 69 41 70 43 71 42 72 61 73 62 74 66 75 63 76 65 77 64 78
REMARK SMILES IDX 51 79 52 80 56 81 53 82 55 83 54 84
REMARK H PARENT 23 6 78 16 78 17 27 33 71 52 49 63
REMARK Flexibility Score: inf
ROOT
ATOM      1  C   UNL A   1      32.362  28.204  27.493  1.00  0.00     0.042 C 
ENDROOT
BRANCH   1   2
ATOM      2  C   UNL A   1      32.197  26.935  26.700  1.00  0.00     0.118 C 
BRANCH   2   3
ATOM      3  N   UNL A   1      30.933  26.662  26.073  1.00  0.00    -0.352 N 
ATOM      4  C   UNL A   1      30.706  26.538  24.725  1.00  0.00     0.258 C 
ATOM      5  O   UNL A   1      29.653  26.001  24.372  1.00  0.00    -0.269 OA
ATOM      6  H   UNL A   1      30.155  26.554  26.668  1.00  0.00     0.163 HD
BRANCH   4   7
ATOM      7  C   UNL A   1      31.638  27.160  23.693  1.00  0.00     0.084 C 
ATOM      8  C   UNL A   1      32.626  26.573  22.984  1.00  0.00     0.068 C 
BRANCH   7   9
ATOM      9  S   UNL A   1      31.324  28.897  23.582  1.00  0.00    -0.030 SA
BRANCH   9  10
ATOM     10  C   UNL A   1      30.025  29.096  22.328  1.00  0.00     0.393 C 
ATOM     11  C   UNL A   1      28.329  32.081  21.420  1.00  0.00     0.106 C 
ATOM     12  C   UNL A   1      28.990  31.080  22.357  1.00  0.00     0.324 C 
ATOM     13  N   UNL A   1      28.029  30.028  22.725  1.00  0.00    -0.126 NA
ATOM     14  N   UNL A   1      30.137  30.429  21.726  1.00  0.00    -0.293 N 
ATOM     15  N   UNL A   1      28.623  28.921  22.755  1.00  0.00    -0.115 NA
ATOM     16  H   UNL A   1      31.016  30.885  21.974  1.00  0.00     0.350 HD
ATOM     17  H   UNL A   1      30.137  30.446  20.706  1.00  0.00     0.350 HD
ENDBRANCH   9  10
ENDBRANCH   7   9
BRANCH   8  18
ATOM     18  C   UNL A   1      33.070  25.228  23.098  1.00  0.00     0.128 A 
ATOM     19  C   UNL A   1      32.451  24.013  22.837  1.00  0.00     0.051 A 
ATOM     20  O   UNL A   1      34.328  24.944  23.603  1.00  0.00    -0.457 OA
ATOM     21  C   UNL A   1      33.329  22.979  23.266  1.00  0.00     0.051 A 
ATOM     22  C   UNL A   1      34.452  23.596  23.775  1.00  0.00     0.134 A 
BRANCH  22  23
ATOM     23  C   UNL A   1      35.643  23.129  24.488  1.00  0.00     0.019 A 
ATOM     24  C   UNL A   1      36.417  24.026  25.239  1.00  0.00     0.012 A 
ATOM     25  C   UNL A   1      36.085  21.799  24.387  1.00  0.00     0.032 A 
ATOM     26  C   UNL A   1      37.592  23.613  25.878  1.00  0.00     0.002 A 
ATOM     27  C   UNL A   1      37.270  21.394  25.011  1.00  0.00     0.041 A 
ATOM     28  C   UNL A   1      38.023  22.295  25.759  1.00  0.00     0.020 A 
ATOM     29  Cl  UNL A   1      37.816  19.769  24.842  1.00  0.00    -0.084 Cl
ENDBRANCH  22  23
ENDBRANCH   8  18
ENDBRANCH   4   7
ENDBRANCH   2   3
ENDBRANCH   1   2
BRANCH   1  30
ATOM     30  C   UNL A   1      33.384  29.191  26.957  1.00  0.00     0.118 C 
BRANCH  30  31
ATOM     31  N   UNL A   1      33.530  30.433  27.718  1.00  0.00    -0.352 N 
ATOM     32  C   UNL A   1      34.560  30.991  28.448  1.00  0.00     0.251 C 
ATOM     33  H   UNL A   1      32.718  30.990  27.708  1.00  0.00     0.163 HD
ATOM     34  O   UNL A   1      34.365  32.051  29.029  1.00  0.00    -0.269 OA
BRANCH  32  35
ATOM     35  C   UNL A   1      35.880  30.323  28.582  1.00  0.00     0.039 A 
ATOM     36  C   UNL A   1      36.787  30.366  27.515  1.00  0.00     0.014 A 
ATOM     37  C   UNL A   1      36.243  29.647  29.740  1.00  0.00     0.014 A 
ATOM     38  C   UNL A   1      38.073  29.829  27.664  1.00  0.00     0.010 A 
ATOM     39  C   UNL A   1      37.564  29.286  29.953  1.00  0.00     0.010 A 
ATOM     40  C   UNL A   1      38.494  29.340  28.910  1.00  0.00    -0.014 A 
BRANCH  40  41
ATOM     41  C   UNL A   1      39.872  28.837  29.158  1.00  0.00     0.031 A 
ATOM     42  C   UNL A   1      40.916  29.759  29.742  1.00  0.00     0.074 A 
ATOM     43  C   UNL A   1      40.219  27.595  28.762  1.00  0.00     0.049 A 
ATOM     44  N   UNL A   1      42.200  29.557  29.911  1.00  0.00    -0.248 NA
ATOM     45  C   UNL A   1      40.471  31.105  30.144  1.00  0.00     0.031 C 
ATOM     46  C   UNL A   1      39.329  26.624  28.123  1.00  0.00     0.029 A 
ATOM     47  N   UNL A   1      41.426  26.944  28.824  1.00  0.00    -0.354 N 
ATOM     48  C   UNL A   1      42.708  30.755  30.399  1.00  0.00     0.074 A 
ATOM     49  C   UNL A   1      41.618  31.702  30.423  1.00  0.00     0.031 C 
ATOM     50  C   UNL A   1      40.008  25.492  27.882  1.00  0.00     0.029 A 
ATOM     51  C   UNL A   1      41.393  25.671  28.304  1.00  0.00     0.049 A 
ATOM     52  H   UNL A   1      42.238  27.349  29.203  1.00  0.00     0.167 HD
ATOM     53  C   UNL A   1      43.960  31.038  30.829  1.00  0.00     0.031 A 
ATOM     54  C   UNL A   1      42.369  24.754  28.176  1.00  0.00     0.031 A 
ATOM     55  C   UNL A   1      45.036  30.086  30.842  1.00  0.00     0.049 A 
ATOM     56  C   UNL A   1      43.750  25.084  28.669  1.00  0.00     0.074 A 
ATOM     57  C   UNL A   1      46.321  30.242  31.332  1.00  0.00     0.029 A 
ATOM     58  N   UNL A   1      44.948  28.795  30.346  1.00  0.00    -0.354 N 
ATOM     59  N   UNL A   1      44.193  26.196  29.207  1.00  0.00    -0.248 NA
ATOM     60  C   UNL A   1      44.761  24.023  28.558  1.00  0.00     0.031 C 
ATOM     61  C   UNL A   1      47.026  29.060  31.084  1.00  0.00     0.029 A 
ATOM     62  C   UNL A   1      46.161  28.147  30.500  1.00  0.00     0.049 A 
ATOM     63  H   UNL A   1      44.142  28.397  29.943  1.00  0.00     0.167 HD
ATOM     64  C   UNL A   1      45.521  25.953  29.536  1.00  0.00     0.074 A 
ATOM     65  C   UNL A   1      45.806  24.587  29.148  1.00  0.00     0.031 C 
ATOM     66  C   UNL A   1      46.422  26.785  30.112  1.00  0.00     0.031 A 
BRANCH  53  67
ATOM     67  C   UNL A   1      44.224  32.433  31.332  1.00  0.00    -0.014 A 
ATOM     68  C   UNL A   1      44.665  33.450  30.468  1.00  0.00     0.009 A 
ATOM     69  C   UNL A   1      44.010  32.742  32.684  1.00  0.00     0.009 A 
ATOM     70  C   UNL A   1      44.932  34.731  30.957  1.00  0.00     0.001 A 
ATOM     71  C   UNL A   1      44.243  34.033  33.162  1.00  0.00     0.001 A 
ATOM     72  C   UNL A   1      44.716  35.023  32.302  1.00  0.00     0.000 A 
ENDBRANCH  53  67
BRANCH  54  73
ATOM     73  C   UNL A   1      42.069  23.422  27.586  1.00  0.00    -0.014 A 
ATOM     74  C   UNL A   1      42.338  23.167  26.232  1.00  0.00     0.009 A 
ATOM     75  C   UNL A   1      41.510  22.399  28.368  1.00  0.00     0.009 A 
ATOM     76  C   UNL A   1      42.026  21.928  25.666  1.00  0.00     0.001 A 
ATOM     77  C   UNL A   1      41.228  21.150  27.808  1.00  0.00     0.001 A 
ATOM     78  C   UNL A   1      41.476  20.920  26.456  1.00  0.00     0.000 A 
ENDBRANCH  54  73
BRANCH  66  79
ATOM     79  C   UNL A   1      47.784  26.223  30.408  1.00  0.00    -0.014 A 
ATOM     80  C   UNL A   1      48.126  25.756  31.686  1.00  0.00     0.009 A 
ATOM     81  C   UNL A   1      48.730  26.131  29.373  1.00  0.00     0.009 A 
ATOM     82  C   UNL A   1      49.402  25.247  31.932  1.00  0.00     0.001 A 
ATOM     83  C   UNL A   1      49.993  25.589  29.614  1.00  0.00     0.001 A 
ATOM     84  C   UNL A   1      50.332  25.159  30.895  1.00  0.00     0.000 A 
ENDBRANCH  66  79
ENDBRANCH  40  41
ENDBRANCH  32  35
ENDBRANCH  30  31
ENDBRANCH   1  30
TORSDOF 14
ENDMDL
MODEL 2
REMARK VINA RESULT:     -12.0      3.588      8.577
REMARK SMILES C[C@H]1N=N[C@H](S/C(=C/c2ccc(-c3cccc(Cl)c3)o2)C(=O)NCCCNC(=O)c2ccc(-c3c4nc(c(-c5ccccc5)c5ccc([nH]5)c(-c5ccccc5)c5nc(c(-c6ccccc6)c6ccc3[nH]6)C=C5)C=C4)cc2)[NH2+]1
REMARK SMILES IDX 25 1 24 2 23 3 21 4 22 5 7 7 8 8 6 9 5 10 1 11 2 12 3 13
REMARK SMILES IDX 78 14 4 15 9 18 10 19 20 20 11 21 12 22 13 23 14 24 19 25
REMARK SMILES IDX 15 26 17 27 16 28 18 29 26 30 27 31 28 32 29 34 30 35 31 36
REMARK SMILES IDX 77 37 32 38 76 39 33 40 34 41 35 42 70 43 36 44 75 45 69 46
REMARK SMILES IDX 71 47 37 48 74 49 68 50 67 51 38 53 60 54 45 55 59 56 46 57
REMARK SMILES IDX 49 58 58 59 72 60 47 61 48 62 57 64 73 65 50 66 39 67 40 68
REMARK SMILES IDX 44 69 41 70 43 71 42 72 61 73 62 74 66 75 63 76 65 77 64 78
REMARK SMILES IDX 51 79 52 80 56 81 53 82 55 83 54 84
REMARK H PARENT 23 6 78 16 78 17 27 33 71 52 49 63
REMARK Flexibility Score: inf
ROOT
ATOM      1  C   UNL A   1      36.621  23.341  24.127  1.00  0.00     0.042 C 
ENDROOT
BRANCH   1   2
ATOM      2  C   UNL A   1      35.249  23.951  24.023  1.00  0.00     0.118 C 
BRANCH   2   3
ATOM      3  N   UNL A   1      34.233  23.262  23.276  1.00  0.00    -0.352 N 
ATOM      4  C   UNL A   1      33.063  22.749  23.780  1.00  0.00     0.258 C 
ATOM      5  O   UNL A   1      32.170  22.474  22.975  1.00  0.00    -0.269 OA
ATOM      6  H   UNL A   1      34.392  23.145  22.311  1.00  0.00     0.163 HD
BRANCH   4   7
ATOM      7  C   UNL A   1      32.910  22.396  25.253  1.00  0.00     0.084 C 
ATOM      8  C   UNL A   1      32.312  23.106  26.234  1.00  0.00     0.068 C 
BRANCH   7   9
ATOM      9  S   UNL A   1      33.749  20.877  25.589  1.00  0.00    -0.030 SA
BRANCH   9  10
ATOM     10  C   UNL A   1      32.537  19.555  25.300  1.00  0.00     0.393 C 
ATOM     11  C   UNL A   1      33.028  16.053  25.626  1.00  0.00     0.106 C 
ATOM     12  C   UNL A   1      33.392  17.487  25.268  1.00  0.00     0.324 C 
ATOM     13  N   UNL A   1      32.877  17.817  23.930  1.00  0.00    -0.126 NA
ATOM     14  N   UNL A   1      32.812  18.441  26.213  1.00  0.00    -0.293 N 
ATOM     15  N   UNL A   1      32.440  18.995  23.937  1.00  0.00    -0.115 NA
ATOM     16  H   UNL A   1      33.474  18.703  26.943  1.00  0.00     0.350 HD
ATOM     17  H   UNL A   1      32.004  18.097  26.733  1.00  0.00     0.350 HD
ENDBRANCH   9  10
ENDBRANCH   7   9
BRANCH   8  18
ATOM     18  C   UNL A   1      31.740  24.402  26.119  1.00  0.00     0.128 A 
ATOM     19  C   UNL A   1      30.557  24.855  25.551  1.00  0.00     0.051 A 
ATOM     20  O   UNL A   1      32.424  25.515  26.579  1.00  0.00    -0.457 OA
ATOM     21  C   UNL A   1      30.569  26.277  25.605  1.00  0.00     0.051 A 
ATOM     22  C   UNL A   1      31.757  26.643  26.202  1.00  0.00     0.134 A 
BRANCH  22  23
ATOM     23  C   UNL A   1      32.438  27.919  26.429  1.00  0.00     0.019 A 
ATOM     24  C   UNL A   1      33.806  27.947  26.741  1.00  0.00     0.012 A 
ATOM     25  C   UNL A   1      31.740  29.138  26.412  1.00  0.00     0.032 A 
ATOM     26  C   UNL A   1      34.462  29.151  27.022  1.00  0.00     0.002 A 
ATOM     27  C   UNL A   1      32.394  30.338  26.711  1.00  0.00     0.041 A 
ATOM     28  C   UNL A   1      33.753  30.349  27.012  1.00  0.00     0.020 A 
ATOM     29  Cl  UNL A   1      31.512  31.817  26.725  1.00  0.00    -0.084 Cl
ENDBRANCH  22  23
ENDBRANCH   8  18
ENDBRANCH   4   7
ENDBRANCH   2   3
ENDBRANCH   1   2
BRANCH   1  30
ATOM     30  C   UNL A   1      37.057  22.923  25.520  1.00  0.00     0.118 C 
BRANCH  30  31
ATOM     31  N   UNL A   1      38.403  22.356  25.624  1.00  0.00    -0.352 N 
ATOM     32  C   UNL A   1      39.594  22.813  26.153  1.00  0.00     0.251 C 
ATOM     33  H   UNL A   1      38.474  21.457  25.232  1.00  0.00     0.163 HD
ATOM     34  O   UNL A   1      40.592  22.112  26.047  1.00  0.00    -0.269 OA
BRANCH  32  35
ATOM     35  C   UNL A   1      39.706  24.142  26.805  1.00  0.00     0.039 A 
ATOM     36  C   UNL A   1      39.180  24.327  28.090  1.00  0.00     0.014 A 
ATOM     37  C   UNL A   1      40.316  25.218  26.173  1.00  0.00     0.014 A 
ATOM     38  C   UNL A   1      39.368  25.544  28.758  1.00  0.00     0.010 A 
ATOM     39  C   UNL A   1      40.664  26.348  26.896  1.00  0.00     0.010 A 
ATOM     40  C   UNL A   1      40.169  26.545  28.189  1.00  0.00    -0.014 A 
BRANCH  40  41
ATOM     41  C   UNL A   1      40.480  27.825  28.883  1.00  0.00     0.031 A 
ATOM     42  C   UNL A   1      41.785  27.979  29.627  1.00  0.00     0.074 A 
ATOM     43  C   UNL A   1      39.554  28.803  28.940  1.00  0.00     0.049 A 
ATOM     44  N   UNL A   1      42.187  28.957  30.401  1.00  0.00    -0.248 NA
ATOM     45  C   UNL A   1      42.747  26.868  29.530  1.00  0.00     0.031 C 
ATOM     46  C   UNL A   1      38.227  28.759  28.323  1.00  0.00     0.029 A 
ATOM     47  N   UNL A   1      39.586  30.026  29.564  1.00  0.00    -0.354 N 
ATOM     48  C   UNL A   1      43.420  28.557  30.903  1.00  0.00     0.074 A 
ATOM     49  C   UNL A   1      43.664  27.220  30.416  1.00  0.00     0.031 C 
ATOM     50  C   UNL A   1      37.584  29.911  28.572  1.00  0.00     0.029 A 
ATOM     51  C   UNL A   1      38.432  30.757  29.404  1.00  0.00     0.049 A 
ATOM     52  H   UNL A   1      40.360  30.348  30.079  1.00  0.00     0.167 HD
ATOM     53  C   UNL A   1      44.295  29.250  31.669  1.00  0.00     0.031 A 
ATOM     54  C   UNL A   1      38.093  31.969  29.879  1.00  0.00     0.031 A 
ATOM     55  C   UNL A   1      44.070  30.595  32.122  1.00  0.00     0.049 A 
ATOM     56  C   UNL A   1      39.082  32.727  30.719  1.00  0.00     0.074 A 
ATOM     57  C   UNL A   1      44.924  31.421  32.834  1.00  0.00     0.029 A 
ATOM     58  N   UNL A   1      42.906  31.314  31.901  1.00  0.00    -0.354 N 
ATOM     59  N   UNL A   1      40.281  32.367  31.114  1.00  0.00    -0.248 NA
ATOM     60  C   UNL A   1      38.682  34.071  31.160  1.00  0.00     0.031 C 
ATOM     61  C   UNL A   1      44.255  32.621  33.088  1.00  0.00     0.029 A 
ATOM     62  C   UNL A   1      43.010  32.568  32.479  1.00  0.00     0.049 A 
ATOM     63  H   UNL A   1      42.122  30.983  31.407  1.00  0.00     0.167 HD
ATOM     64  C   UNL A   1      40.791  33.453  31.814  1.00  0.00     0.074 A 
ATOM     65  C   UNL A   1      39.778  34.488  31.777  1.00  0.00     0.031 C 
ATOM     66  C   UNL A   1      41.993  33.585  32.426  1.00  0.00     0.031 A 
BRANCH  53  67
ATOM     67  C   UNL A   1      45.580  28.564  32.051  1.00  0.00    -0.014 A 
ATOM     68  C   UNL A   1      45.687  27.823  33.240  1.00  0.00     0.009 A 
ATOM     69  C   UNL A   1      46.695  28.642  31.202  1.00  0.00     0.009 A 
ATOM     70  C   UNL A   1      46.895  27.217  33.593  1.00  0.00     0.001 A 
ATOM     71  C   UNL A   1      47.890  28.004  31.539  1.00  0.00     0.001 A 
ATOM     72  C   UNL A   1      47.994  27.304  32.740  1.00  0.00     0.000 A 
ENDBRANCH  53  67
BRANCH  54  73
ATOM     73  C   UNL A   1      36.770  32.559  29.543  1.00  0.00    -0.014 A 
ATOM     74  C   UNL A   1      35.696  32.455  30.441  1.00  0.00     0.009 A 
ATOM     75  C   UNL A   1      36.569  33.226  28.325  1.00  0.00     0.009 A 
ATOM     76  C   UNL A   1      34.442  32.978  30.114  1.00  0.00     0.001 A 
ATOM     77  C   UNL A   1      35.322  33.776  28.013  1.00  0.00     0.001 A 
ATOM     78  C   UNL A   1      34.259  33.642  28.902  1.00  0.00     0.000 A 
ENDBRANCH  54  73
BRANCH  66  79
ATOM     79  C   UNL A   1      42.299  34.913  33.059  1.00  0.00    -0.014 A 
ATOM     80  C   UNL A   1      41.812  35.252  34.331  1.00  0.00     0.009 A 
ATOM     81  C   UNL A   1      43.119  35.828  32.377  1.00  0.00     0.009 A 
ATOM     82  C   UNL A   1      42.107  36.497  34.888  1.00  0.00     0.001 A 
ATOM     83  C   UNL A   1      43.441  37.057  32.953  1.00  0.00     0.001 A 
ATOM     84  C   UNL A   1      42.924  37.396  34.201  1.00  0.00     0.000 A 
ENDBRANCH  66  79
ENDBRANCH  40  41
ENDBRANCH  32  35
ENDBRANCH  30  31
ENDBRANCH   1  30
TORSDOF 14
ENDMDL
MODEL 3
REMARK VINA RESULT:     -11.9      0.360      5.824
REMARK SMILES C[C@H]1N=N[C@H](S/C(=C/c2ccc(-c3cccc(Cl)c3)o2)C(=O)NCCCNC(=O)c2ccc(-c3c4nc(c(-c5ccccc5)c5ccc([nH]5)c(-c5ccccc5)c5nc(c(-c6ccccc6)c6ccc3[nH]6)C=C5)C=C4)cc2)[NH2+]1
REMARK SMILES IDX 25 1 24 2 23 3 21 4 22 5 7 7 8 8 6 9 5 10 1 11 2 12 3 13
REMARK SMILES IDX 78 14 4 15 9 18 10 19 20 20 11 21 12 22 13 23 14 24 19 25
REMARK SMILES IDX 15 26 17 27 16 28 18 29 26 30 27 31 28 32 29 34 30 35 31 36
REMARK SMILES IDX 77 37 32 38 76 39 33 40 34 41 35 42 70 43 36 44 75 45 69 46
REMARK SMILES IDX 71 47 37 48 74 49 68 50 67 51 38 53 60 54 45 55 59 56 46 57
REMARK SMILES IDX 49 58 58 59 72 60 47 61 48 62 57 64 73 65 50 66 39 67 40 68
REMARK SMILES IDX 44 69 41 70 43 71 42 72 61 73 62 74 66 75 63 76 65 77 64 78
REMARK SMILES IDX 51 79 52 80 56 81 53 82 55 83 54 84
REMARK H PARENT 23 6 78 16 78 17 27 33 71 52 49 63
REMARK Flexibility Score: inf
ROOT
ATOM      1  C   UNL A   1      31.979  28.009  27.253  1.00  0.00     0.042 C 
ENDROOT
BRANCH   1   2
ATOM      2  C   UNL A   1      31.822  26.664  26.593  1.00  0.00     0.118 C 
BRANCH   2   3
ATOM      3  N   UNL A   1      30.648  26.406  25.805  1.00  0.00    -0.352 N 
ATOM      4  C   UNL A   1      30.579  26.394  24.434  1.00  0.00     0.258 C 
ATOM      5  O   UNL A   1      29.596  25.855  23.919  1.00  0.00    -0.269 OA
ATOM      6  H   UNL A   1      29.815  26.220  26.296  1.00  0.00     0.163 HD
BRANCH   4   7
ATOM      7  C   UNL A   1      31.592  27.136  23.572  1.00  0.00     0.084 C 
ATOM      8  C   UNL A   1      32.677  26.647  22.934  1.00  0.00     0.068 C 
BRANCH   7   9
ATOM      9  S   UNL A   1      31.219  28.864  23.573  1.00  0.00    -0.030 SA
BRANCH   9  10
ATOM     10  C   UNL A   1      29.919  29.101  22.327  1.00  0.00     0.393 C 
ATOM     11  C   UNL A   1      28.321  32.137  21.412  1.00  0.00     0.106 C 
ATOM     12  C   UNL A   1      28.954  31.120  22.351  1.00  0.00     0.324 C 
ATOM     13  N   UNL A   1      27.959  30.105  22.733  1.00  0.00    -0.126 NA
ATOM     14  N   UNL A   1      30.073  30.425  21.716  1.00  0.00    -0.293 N 
ATOM     15  N   UNL A   1      28.514  28.978  22.765  1.00  0.00    -0.115 NA
ATOM     16  H   UNL A   1      30.969  30.852  21.955  1.00  0.00     0.350 HD
ATOM     17  H   UNL A   1      30.066  30.435  20.696  1.00  0.00     0.350 HD
ENDBRANCH   9  10
ENDBRANCH   7   9
BRANCH   8  18
ATOM     18  C   UNL A   1      33.163  25.312  22.984  1.00  0.00     0.128 A 
ATOM     19  C   UNL A   1      32.617  24.102  22.577  1.00  0.00     0.051 A 
ATOM     20  O   UNL A   1      34.383  25.030  23.575  1.00  0.00    -0.457 OA
ATOM     21  C   UNL A   1      33.496  23.066  23.002  1.00  0.00     0.051 A 
ATOM     22  C   UNL A   1      34.545  23.678  23.654  1.00  0.00     0.134 A 
BRANCH  22  23
ATOM     23  C   UNL A   1      35.689  23.195  24.430  1.00  0.00     0.019 A 
ATOM     24  C   UNL A   1      36.408  24.074  25.255  1.00  0.00     0.012 A 
ATOM     25  C   UNL A   1      36.142  21.869  24.324  1.00  0.00     0.032 A 
ATOM     26  C   UNL A   1      37.540  23.647  25.958  1.00  0.00     0.002 A 
ATOM     27  C   UNL A   1      37.285  21.450  25.014  1.00  0.00     0.041 A 
ATOM     28  C   UNL A   1      37.983  22.333  25.833  1.00  0.00     0.020 A 
ATOM     29  Cl  UNL A   1      37.848  19.832  24.839  1.00  0.00    -0.084 Cl
ENDBRANCH  22  23
ENDBRANCH   8  18
ENDBRANCH   4   7
ENDBRANCH   2   3
ENDBRANCH   1   2
BRANCH   1  30
ATOM     30  C   UNL A   1      33.369  28.617  27.193  1.00  0.00     0.118 C 
BRANCH  30  31
ATOM     31  N   UNL A   1      33.492  29.979  27.715  1.00  0.00    -0.352 N 
ATOM     32  C   UNL A   1      34.536  30.707  28.251  1.00  0.00     0.251 C 
ATOM     33  H   UNL A   1      32.649  30.485  27.677  1.00  0.00     0.163 HD
ATOM     34  O   UNL A   1      34.316  31.842  28.655  1.00  0.00    -0.269 OA
BRANCH  32  35
ATOM     35  C   UNL A   1      35.901  30.139  28.389  1.00  0.00     0.039 A 
ATOM     36  C   UNL A   1      36.789  30.207  27.308  1.00  0.00     0.014 A 
ATOM     37  C   UNL A   1      36.325  29.532  29.564  1.00  0.00     0.014 A 
ATOM     38  C   UNL A   1      38.112  29.767  27.457  1.00  0.00     0.010 A 
ATOM     39  C   UNL A   1      37.671  29.273  29.771  1.00  0.00     0.010 A 
ATOM     40  C   UNL A   1      38.581  29.354  28.712  1.00  0.00    -0.014 A 
BRANCH  40  41
ATOM     41  C   UNL A   1      39.995  28.958  28.957  1.00  0.00     0.031 A 
ATOM     42  C   UNL A   1      40.466  27.576  28.573  1.00  0.00     0.074 A 
ATOM     43  C   UNL A   1      40.824  29.790  29.620  1.00  0.00     0.049 A 
ATOM     44  N   UNL A   1      41.614  26.992  28.819  1.00  0.00    -0.248 NA
ATOM     45  C   UNL A   1      39.507  26.715  27.859  1.00  0.00     0.031 C 
ATOM     46  C   UNL A   1      40.479  31.127  30.109  1.00  0.00     0.029 A 
ATOM     47  N   UNL A   1      42.129  29.623  30.013  1.00  0.00    -0.354 N 
ATOM     48  C   UNL A   1      41.492  25.699  28.327  1.00  0.00     0.074 A 
ATOM     49  C   UNL A   1      40.139  25.553  27.842  1.00  0.00     0.031 C 
ATOM     50  C   UNL A   1      41.551  31.671  30.706  1.00  0.00     0.029 A 
ATOM     51  C   UNL A   1      42.645  30.705  30.686  1.00  0.00     0.049 A 
ATOM     52  H   UNL A   1      42.646  28.806  29.831  1.00  0.00     0.167 HD
ATOM     53  C   UNL A   1      42.429  24.725  28.245  1.00  0.00     0.031 A 
ATOM     54  C   UNL A   1      43.860  30.897  31.231  1.00  0.00     0.031 A 
ATOM     55  C   UNL A   1      43.786  24.882  28.691  1.00  0.00     0.049 A 
ATOM     56  C   UNL A   1      44.890  29.808  31.120  1.00  0.00     0.074 A 
ATOM     57  C   UNL A   1      44.839  23.990  28.581  1.00  0.00     0.029 A 
ATOM     58  N   UNL A   1      44.278  26.010  29.328  1.00  0.00    -0.354 N 
ATOM     59  N   UNL A   1      44.783  28.620  30.574  1.00  0.00    -0.248 NA
ATOM     60  C   UNL A   1      46.218  30.096  31.680  1.00  0.00     0.031 C 
ATOM     61  C   UNL A   1      45.956  24.560  29.199  1.00  0.00     0.029 A 
ATOM     62  C   UNL A   1      45.615  25.831  29.635  1.00  0.00     0.049 A 
ATOM     63  H   UNL A   1      43.754  26.818  29.532  1.00  0.00     0.167 HD
ATOM     64  C   UNL A   1      46.038  28.036  30.689  1.00  0.00     0.074 A 
ATOM     65  C   UNL A   1      46.892  29.006  31.344  1.00  0.00     0.031 C 
ATOM     66  C   UNL A   1      46.449  26.810  30.283  1.00  0.00     0.031 A 
BRANCH  53  67
ATOM     67  C   UNL A   1      42.015  23.411  27.636  1.00  0.00    -0.014 A 
ATOM     68  C   UNL A   1      41.396  22.413  28.408  1.00  0.00     0.009 A 
ATOM     69  C   UNL A   1      42.228  23.173  26.270  1.00  0.00     0.009 A 
ATOM     70  C   UNL A   1      41.043  21.188  27.834  1.00  0.00     0.001 A 
ATOM     71  C   UNL A   1      41.842  21.963  25.692  1.00  0.00     0.001 A 
ATOM     72  C   UNL A   1      41.263  20.966  26.476  1.00  0.00     0.000 A 
ENDBRANCH  53  67
BRANCH  54  73
ATOM     73  C   UNL A   1      44.183  32.186  31.900  1.00  0.00    -0.014 A 
ATOM     74  C   UNL A   1      44.715  33.256  31.163  1.00  0.00     0.009 A 
ATOM     75  C   UNL A   1      43.965  32.356  33.276  1.00  0.00     0.009 A 
ATOM     76  C   UNL A   1      45.052  34.456  31.794  1.00  0.00     0.001 A 
ATOM     77  C   UNL A   1      44.272  33.568  33.899  1.00  0.00     0.001 A 
ATOM     78  C   UNL A   1      44.826  34.612  33.161  1.00  0.00     0.000 A 
ENDBRANCH  54  73
BRANCH  66  79
ATOM     79  C   UNL A   1      47.899  26.470  30.487  1.00  0.00    -0.014 A 
ATOM     80  C   UNL A   1      48.876  26.814  29.541  1.00  0.00     0.009 A 
ATOM     81  C   UNL A   1      48.293  25.820  31.669  1.00  0.00     0.009 A 
ATOM     82  C   UNL A   1      50.213  26.476  29.755  1.00  0.00     0.001 A 
ATOM     83  C   UNL A   1      49.635  25.516  31.896  1.00  0.00     0.001 A 
ATOM     84  C   UNL A   1      50.592  25.832  30.934  1.00  0.00     0.000 A 
ENDBRANCH  66  79
ENDBRANCH  40  41
ENDBRANCH  32  35
ENDBRANCH  30  31
ENDBRANCH   1  30
TORSDOF 14
ENDMDL
