MODEL 1
REMARK VINA RESULT:     -11.5      0.000      0.000
REMARK SMILES Cc1ccc(S(=O)(=O)N[C@H]2C=C[C@@H](C(=O)NCCCNC(=O)c3ccc(-c4c5nc(c(-c6ccccc6)c6ccc([nH]6)c(-c6ccccc6)c6nc(c(-c7ccccc7)c7ccc4[nH]7)C=C6)C=C5)cc3)C2)c(C)c1
REMARK SMILES IDX 17 1 16 2 14 3 15 4 13 6 10 7 11 8 71 9 12 10 9 11 6 13 7 14
REMARK SMILES IDX 8 15 5 16 1 17 2 18 3 19 74 20 4 21 72 22 73 23 18 24 19 25
REMARK SMILES IDX 20 26 21 27 22 29 23 30 24 31 70 32 25 33 69 34 26 35 27 36
REMARK SMILES IDX 28 37 63 38 29 39 68 40 62 41 64 42 30 43 67 44 61 45 60 46
REMARK SMILES IDX 31 48 53 49 38 50 52 51 39 52 42 53 51 54 65 55 40 56 41 57
REMARK SMILES IDX 50 59 66 60 43 61 32 62 33 63 37 64 34 65 36 66 35 67 54 68
REMARK SMILES IDX 55 69 59 70 56 71 58 72 57 73 44 74 45 75 49 76 46 77 48 78
REMARK SMILES IDX 47 79
REMARK H PARENT 16 5 9 12 20 28 64 47 42 58
REMARK Flexibility Score: inf
ROOT
ATOM      1  C   UNL A   1      32.498  28.405  24.956  1.00  0.00     0.117 C 
ENDROOT
BRANCH   1   2
ATOM      2  N   UNL A   1      31.586  29.330  24.303  1.00  0.00    -0.356 N 
ATOM      3  C   UNL A   1      30.505  29.118  23.507  1.00  0.00     0.226 C 
ATOM      4  O   UNL A   1      29.908  30.119  23.098  1.00  0.00    -0.274 OA
ATOM      5  H   UNL A   1      31.787  30.280  24.467  1.00  0.00     0.163 HD
BRANCH   3   6
ATOM      6  C   UNL A   1      30.018  27.724  23.105  1.00  0.00     0.103 C 
ATOM      7  C   UNL A   1      31.076  25.501  22.918  1.00  0.00     0.093 C 
ATOM      8  C   UNL A   1      30.266  25.642  24.158  1.00  0.00    -0.011 C 
ATOM      9  C   UNL A   1      31.016  26.906  22.282  1.00  0.00     0.042 C 
ATOM     10  C   UNL A   1      29.684  26.841  24.262  1.00  0.00    -0.016 C 
BRANCH   7  11
ATOM     11  N   UNL A   1      32.475  25.147  23.131  1.00  0.00    -0.204 NA
ATOM     12  H   UNL A   1      33.005  25.808  22.563  1.00  0.00     0.142 HD
BRANCH  11  13
ATOM     13  S   UNL A   1      33.175  23.656  22.836  1.00  0.00     0.241 S 
ATOM     14  O   UNL A   1      33.497  23.605  21.427  1.00  0.00    -0.207 OA
ATOM     15  O   UNL A   1      32.277  22.696  23.442  1.00  0.00    -0.207 OA
BRANCH  13  16
ATOM     16  C   UNL A   1      34.690  23.607  23.774  1.00  0.00     0.085 A 
ATOM     17  C   UNL A   1      38.285  23.044  26.088  1.00  0.00     0.044 C 
ATOM     18  C   UNL A   1      37.046  23.255  25.267  1.00  0.00    -0.051 A 
ATOM     19  C   UNL A   1      37.002  22.871  23.928  1.00  0.00     0.005 A 
ATOM     20  C   UNL A   1      35.929  23.884  25.832  1.00  0.00     0.008 A 
ATOM     21  C   UNL A   1      35.835  23.055  23.184  1.00  0.00     0.022 A 
ATOM     22  C   UNL A   1      34.746  24.088  25.096  1.00  0.00    -0.031 A 
ATOM     23  C   UNL A   1      33.634  24.833  25.784  1.00  0.00     0.046 C 
ENDBRANCH  13  16
ENDBRANCH  11  13
ENDBRANCH   7  11
ENDBRANCH   3   6
ENDBRANCH   1   2
BRANCH   1  24
ATOM     24  C   UNL A   1      32.296  28.374  26.467  1.00  0.00     0.042 C 
BRANCH  24  25
ATOM     25  C   UNL A   1      33.547  28.722  27.265  1.00  0.00     0.118 C 
BRANCH  25  26
ATOM     26  N   UNL A   1      33.589  30.120  27.673  1.00  0.00    -0.352 N 
ATOM     27  C   UNL A   1      34.592  30.821  28.297  1.00  0.00     0.251 C 
ATOM     28  H   UNL A   1      32.777  30.639  27.473  1.00  0.00     0.163 HD
ATOM     29  O   UNL A   1      34.389  31.960  28.705  1.00  0.00    -0.269 OA
BRANCH  27  30
ATOM     30  C   UNL A   1      35.915  30.194  28.498  1.00  0.00     0.039 A 
ATOM     31  C   UNL A   1      36.835  30.201  27.446  1.00  0.00     0.014 A 
ATOM     32  C   UNL A   1      36.248  29.603  29.720  1.00  0.00     0.014 A 
ATOM     33  C   UNL A   1      38.118  29.685  27.645  1.00  0.00     0.010 A 
ATOM     34  C   UNL A   1      37.545  29.154  29.938  1.00  0.00     0.010 A 
ATOM     35  C   UNL A   1      38.496  29.195  28.905  1.00  0.00    -0.014 A 
BRANCH  35  36
ATOM     36  C   UNL A   1      39.879  28.733  29.180  1.00  0.00     0.031 A 
ATOM     37  C   UNL A   1      40.884  29.676  29.778  1.00  0.00     0.074 A 
ATOM     38  C   UNL A   1      40.259  27.498  28.798  1.00  0.00     0.049 A 
ATOM     39  N   UNL A   1      42.167  29.504  29.971  1.00  0.00    -0.248 NA
ATOM     40  C   UNL A   1      40.387  31.001  30.183  1.00  0.00     0.031 C 
ATOM     41  C   UNL A   1      39.393  26.499  28.169  1.00  0.00     0.029 A 
ATOM     42  N   UNL A   1      41.484  26.881  28.865  1.00  0.00    -0.354 N 
ATOM     43  C   UNL A   1      42.635  30.706  30.488  1.00  0.00     0.074 A 
ATOM     44  C   UNL A   1      41.507  31.610  30.545  1.00  0.00     0.031 C 
ATOM     45  C   UNL A   1      40.110  25.392  27.919  1.00  0.00     0.029 A 
ATOM     46  C   UNL A   1      41.492  25.617  28.329  1.00  0.00     0.049 A 
ATOM     47  H   UNL A   1      42.280  27.305  29.260  1.00  0.00     0.167 HD
ATOM     48  C   UNL A   1      43.889  31.024  30.889  1.00  0.00     0.031 A 
ATOM     49  C   UNL A   1      42.501  24.740  28.170  1.00  0.00     0.031 A 
ATOM     50  C   UNL A   1      45.006  30.119  30.854  1.00  0.00     0.049 A 
ATOM     51  C   UNL A   1      43.881  25.113  28.633  1.00  0.00     0.074 A 
ATOM     52  C   UNL A   1      46.297  30.326  31.306  1.00  0.00     0.029 A 
ATOM     53  N   UNL A   1      44.963  28.835  30.337  1.00  0.00    -0.354 N 
ATOM     54  N   UNL A   1      44.294  26.230  29.178  1.00  0.00    -0.248 NA
ATOM     55  C   UNL A   1      44.931  24.097  28.467  1.00  0.00     0.031 C 
ATOM     56  C   UNL A   1      47.048  29.181  31.020  1.00  0.00     0.029 A 
ATOM     57  C   UNL A   1      46.211  28.244  30.437  1.00  0.00     0.049 A 
ATOM     58  H   UNL A   1      44.164  28.405  29.955  1.00  0.00     0.167 HD
ATOM     59  C   UNL A   1      45.644  26.044  29.445  1.00  0.00     0.074 A 
ATOM     60  C   UNL A   1      45.977  24.703  29.011  1.00  0.00     0.031 C 
ATOM     61  C   UNL A   1      46.527  26.907  30.003  1.00  0.00     0.031 A 
BRANCH  48  62
ATOM     62  C   UNL A   1      44.118  32.423  31.390  1.00  0.00    -0.014 A 
ATOM     63  C   UNL A   1      44.030  32.733  32.756  1.00  0.00     0.009 A 
ATOM     64  C   UNL A   1      44.454  33.440  30.483  1.00  0.00     0.009 A 
ATOM     65  C   UNL A   1      44.233  34.042  33.198  1.00  0.00     0.001 A 
ATOM     66  C   UNL A   1      44.685  34.742  30.930  1.00  0.00     0.001 A 
ATOM     67  C   UNL A   1      44.563  35.044  32.287  1.00  0.00     0.000 A 
ENDBRANCH  48  62
BRANCH  49  68
ATOM     68  C   UNL A   1      42.240  23.417  27.549  1.00  0.00    -0.014 A 
ATOM     69  C   UNL A   1      42.488  23.210  26.184  1.00  0.00     0.009 A 
ATOM     70  C   UNL A   1      41.752  22.350  28.321  1.00  0.00     0.009 A 
ATOM     71  C   UNL A   1      42.233  21.967  25.598  1.00  0.00     0.001 A 
ATOM     72  C   UNL A   1      41.523  21.101  27.738  1.00  0.00     0.001 A 
ATOM     73  C   UNL A   1      41.756  20.914  26.377  1.00  0.00     0.000 A 
ENDBRANCH  49  68
BRANCH  61  74
ATOM     74  C   UNL A   1      47.931  26.417  30.211  1.00  0.00    -0.014 A 
ATOM     75  C   UNL A   1      48.906  26.552  29.210  1.00  0.00     0.009 A 
ATOM     76  C   UNL A   1      48.294  25.857  31.445  1.00  0.00     0.009 A 
ATOM     77  C   UNL A   1      50.210  26.109  29.434  1.00  0.00     0.001 A 
ATOM     78  C   UNL A   1      49.605  25.438  31.676  1.00  0.00     0.001 A 
ATOM     79  C   UNL A   1      50.560  25.558  30.667  1.00  0.00     0.000 A 
ENDBRANCH  61  74
ENDBRANCH  35  36
ENDBRANCH  27  30
ENDBRANCH  25  26
ENDBRANCH  24  25
ENDBRANCH   1  24
TORSDOF 13
ENDMDL
MODEL 2
REMARK VINA RESULT:     -11.4      2.753      7.917
REMARK SMILES Cc1ccc(S(=O)(=O)N[C@H]2C=C[C@@H](C(=O)NCCCNC(=O)c3ccc(-c4c5nc(c(-c6ccccc6)c6ccc([nH]6)c(-c6ccccc6)c6nc(c(-c7ccccc7)c7ccc4[nH]7)C=C6)C=C5)cc3)C2)c(C)c1
REMARK SMILES IDX 17 1 16 2 14 3 15 4 13 6 10 7 11 8 71 9 12 10 9 11 6 13 7 14
REMARK SMILES IDX 8 15 5 16 1 17 2 18 3 19 74 20 4 21 72 22 73 23 18 24 19 25
REMARK SMILES IDX 20 26 21 27 22 29 23 30 24 31 70 32 25 33 69 34 26 35 27 36
REMARK SMILES IDX 28 37 63 38 29 39 68 40 62 41 64 42 30 43 67 44 61 45 60 46
REMARK SMILES IDX 31 48 53 49 38 50 52 51 39 52 42 53 51 54 65 55 40 56 41 57
REMARK SMILES IDX 50 59 66 60 43 61 32 62 33 63 37 64 34 65 36 66 35 67 54 68
REMARK SMILES IDX 55 69 59 70 56 71 58 72 57 73 44 74 45 75 49 76 46 77 48 78
REMARK SMILES IDX 47 79
REMARK H PARENT 16 5 9 12 20 28 64 47 42 58
REMARK Flexibility Score: inf
ROOT
ATOM      1  C   UNL A   1      34.858  22.742  25.399  1.00  0.00     0.117 C 
ENDROOT
BRANCH   1   2
ATOM      2  N   UNL A   1      34.806  21.298  25.244  1.00  0.00    -0.356 N 
ATOM      3  C   UNL A   1      33.829  20.476  24.777  1.00  0.00     0.226 C 
ATOM      4  O   UNL A   1      34.080  19.266  24.755  1.00  0.00    -0.274 OA
ATOM      5  H   UNL A   1      35.625  20.830  25.527  1.00  0.00     0.163 HD
BRANCH   3   6
ATOM      6  C   UNL A   1      32.465  20.979  24.299  1.00  0.00     0.103 C 
ATOM      7  C   UNL A   1      31.177  23.063  24.607  1.00  0.00     0.093 C 
ATOM      8  C   UNL A   1      31.839  22.996  23.276  1.00  0.00    -0.011 C 
ATOM      9  C   UNL A   1      31.683  21.797  25.329  1.00  0.00     0.042 C 
ATOM     10  C   UNL A   1      32.533  21.867  23.100  1.00  0.00    -0.016 C 
BRANCH   7  11
ATOM     11  N   UNL A   1      31.525  24.228  25.411  1.00  0.00    -0.204 NA
ATOM     12  H   UNL A   1      31.553  23.888  26.373  1.00  0.00     0.142 HD
BRANCH  11  13
ATOM     13  S   UNL A   1      30.681  25.671  25.482  1.00  0.00     0.241 S 
ATOM     14  O   UNL A   1      29.619  25.498  26.450  1.00  0.00    -0.207 OA
ATOM     15  O   UNL A   1      30.399  26.007  24.103  1.00  0.00    -0.207 OA
BRANCH  13  16
ATOM     16  C   UNL A   1      31.818  26.901  26.090  1.00  0.00     0.085 A 
ATOM     17  C   UNL A   1      34.310  30.184  27.355  1.00  0.00     0.044 C 
ATOM     18  C   UNL A   1      33.445  29.032  26.937  1.00  0.00    -0.051 A 
ATOM     19  C   UNL A   1      32.222  28.792  27.563  1.00  0.00     0.005 A 
ATOM     20  C   UNL A   1      33.880  28.154  25.936  1.00  0.00     0.008 A 
ATOM     21  C   UNL A   1      31.419  27.728  27.150  1.00  0.00     0.022 A 
ATOM     22  C   UNL A   1      33.090  27.069  25.511  1.00  0.00    -0.031 A 
ATOM     23  C   UNL A   1      33.686  26.153  24.476  1.00  0.00     0.046 C 
ENDBRANCH  13  16
ENDBRANCH  11  13
ENDBRANCH   7  11
ENDBRANCH   3   6
ENDBRANCH   1   2
BRANCH   1  24
ATOM     24  C   UNL A   1      36.120  23.194  26.125  1.00  0.00     0.042 C 
BRANCH  24  25
ATOM     25  C   UNL A   1      37.307  23.444  25.202  1.00  0.00     0.118 C 
BRANCH  25  26
ATOM     26  N   UNL A   1      38.455  22.602  25.513  1.00  0.00    -0.352 N 
ATOM     27  C   UNL A   1      39.619  22.916  26.171  1.00  0.00     0.251 C 
ATOM     28  H   UNL A   1      38.386  21.670  25.205  1.00  0.00     0.163 HD
ATOM     29  O   UNL A   1      40.546  22.114  26.206  1.00  0.00    -0.269 OA
BRANCH  27  30
ATOM     30  C   UNL A   1      39.766  24.235  26.822  1.00  0.00     0.039 A 
ATOM     31  C   UNL A   1      39.243  24.420  28.105  1.00  0.00     0.014 A 
ATOM     32  C   UNL A   1      40.418  25.285  26.170  1.00  0.00     0.014 A 
ATOM     33  C   UNL A   1      39.443  25.634  28.766  1.00  0.00     0.010 A 
ATOM     34  C   UNL A   1      40.678  26.467  26.855  1.00  0.00     0.010 A 
ATOM     35  C   UNL A   1      40.197  26.652  28.162  1.00  0.00    -0.014 A 
BRANCH  35  36
ATOM     36  C   UNL A   1      40.516  27.915  28.875  1.00  0.00     0.031 A 
ATOM     37  C   UNL A   1      41.807  28.048  29.633  1.00  0.00     0.074 A 
ATOM     38  C   UNL A   1      39.600  28.902  28.924  1.00  0.00     0.049 A 
ATOM     39  N   UNL A   1      42.206  29.014  30.421  1.00  0.00    -0.248 NA
ATOM     40  C   UNL A   1      42.760  26.933  29.514  1.00  0.00     0.031 C 
ATOM     41  C   UNL A   1      38.292  28.882  28.268  1.00  0.00     0.029 A 
ATOM     42  N   UNL A   1      39.626  30.109  29.578  1.00  0.00    -0.354 N 
ATOM     43  C   UNL A   1      43.439  28.608  30.916  1.00  0.00     0.074 A 
ATOM     44  C   UNL A   1      43.705  27.295  30.369  1.00  0.00     0.031 C 
ATOM     45  C   UNL A   1      37.646  30.026  28.542  1.00  0.00     0.029 A 
ATOM     46  C   UNL A   1      38.473  30.840  29.426  1.00  0.00     0.049 A 
ATOM     47  H   UNL A   1      40.397  30.420  30.106  1.00  0.00     0.167 HD
ATOM     48  C   UNL A   1      44.280  29.274  31.743  1.00  0.00     0.031 A 
ATOM     49  C   UNL A   1      38.114  32.026  29.951  1.00  0.00     0.031 A 
ATOM     50  C   UNL A   1      44.027  30.589  32.270  1.00  0.00     0.049 A 
ATOM     51  C   UNL A   1      39.068  32.751  30.858  1.00  0.00     0.074 A 
ATOM     52  C   UNL A   1      44.850  31.375  33.057  1.00  0.00     0.029 A 
ATOM     53  N   UNL A   1      42.863  31.310  32.061  1.00  0.00    -0.354 N 
ATOM     54  N   UNL A   1      40.257  32.384  31.266  1.00  0.00    -0.248 NA
ATOM     55  C   UNL A   1      38.632  34.059  31.367  1.00  0.00     0.031 C 
ATOM     56  C   UNL A   1      44.164  32.555  33.362  1.00  0.00     0.029 A 
ATOM     57  C   UNL A   1      42.935  32.524  32.723  1.00  0.00     0.049 A 
ATOM     58  H   UNL A   1      42.097  31.005  31.523  1.00  0.00     0.167 HD
ATOM     59  C   UNL A   1      40.724  33.424  32.058  1.00  0.00     0.074 A 
ATOM     60  C   UNL A   1      39.693  34.442  32.063  1.00  0.00     0.031 C 
ATOM     61  C   UNL A   1      41.902  33.527  32.718  1.00  0.00     0.031 A 
BRANCH  48  62
ATOM     62  C   UNL A   1      45.551  28.578  32.142  1.00  0.00    -0.014 A 
ATOM     63  C   UNL A   1      45.609  27.757  33.278  1.00  0.00     0.009 A 
ATOM     64  C   UNL A   1      46.702  28.726  31.352  1.00  0.00     0.009 A 
ATOM     65  C   UNL A   1      46.804  27.131  33.639  1.00  0.00     0.001 A 
ATOM     66  C   UNL A   1      47.888  28.076  31.698  1.00  0.00     0.001 A 
ATOM     67  C   UNL A   1      47.941  27.287  32.848  1.00  0.00     0.000 A 
ENDBRANCH  48  62
BRANCH  49  68
ATOM     68  C   UNL A   1      36.788  32.608  29.623  1.00  0.00    -0.014 A 
ATOM     69  C   UNL A   1      36.600  33.321  28.429  1.00  0.00     0.009 A 
ATOM     70  C   UNL A   1      35.700  32.445  30.496  1.00  0.00     0.009 A 
ATOM     71  C   UNL A   1      35.354  33.877  28.125  1.00  0.00     0.001 A 
ATOM     72  C   UNL A   1      34.449  32.979  30.177  1.00  0.00     0.001 A 
ATOM     73  C   UNL A   1      34.281  33.701  28.997  1.00  0.00     0.000 A 
ENDBRANCH  49  68
BRANCH  61  74
ATOM     74  C   UNL A   1      42.159  34.800  33.473  1.00  0.00    -0.014 A 
ATOM     75  C   UNL A   1      42.908  35.844  32.909  1.00  0.00     0.009 A 
ATOM     76  C   UNL A   1      41.601  34.972  34.750  1.00  0.00     0.009 A 
ATOM     77  C   UNL A   1      43.115  37.026  33.622  1.00  0.00     0.001 A 
ATOM     78  C   UNL A   1      41.788  36.165  35.449  1.00  0.00     0.001 A 
ATOM     79  C   UNL A   1      42.552  37.188  34.888  1.00  0.00     0.000 A 
ENDBRANCH  61  74
ENDBRANCH  35  36
ENDBRANCH  27  30
ENDBRANCH  25  26
ENDBRANCH  24  25
ENDBRANCH   1  24
TORSDOF 13
ENDMDL
MODEL 3
REMARK VINA RESULT:     -11.2      1.487      6.195
REMARK SMILES Cc1ccc(S(=O)(=O)N[C@H]2C=C[C@@H](C(=O)NCCCNC(=O)c3ccc(-c4c5nc(c(-c6ccccc6)c6ccc([nH]6)c(-c6ccccc6)c6nc(c(-c7ccccc7)c7ccc4[nH]7)C=C6)C=C5)cc3)C2)c(C)c1
REMARK SMILES IDX 17 1 16 2 14 3 15 4 13 6 10 7 11 8 71 9 12 10 9 11 6 13 7 14
REMARK SMILES IDX 8 15 5 16 1 17 2 18 3 19 74 20 4 21 72 22 73 23 18 24 19 25
REMARK SMILES IDX 20 26 21 27 22 29 23 30 24 31 70 32 25 33 69 34 26 35 27 36
REMARK SMILES IDX 28 37 63 38 29 39 68 40 62 41 64 42 30 43 67 44 61 45 60 46
REMARK SMILES IDX 31 48 53 49 38 50 52 51 39 52 42 53 51 54 65 55 40 56 41 57
REMARK SMILES IDX 50 59 66 60 43 61 32 62 33 63 37 64 34 65 36 66 35 67 54 68
REMARK SMILES IDX 55 69 59 70 56 71 58 72 57 73 44 74 45 75 49 76 46 77 48 78
REMARK SMILES IDX 47 79
REMARK H PARENT 16 5 9 12 20 28 64 47 42 58
REMARK Flexibility Score: inf
ROOT
ATOM      1  C   UNL A   1      33.079  28.968  24.849  1.00  0.00     0.117 C 
ENDROOT
BRANCH   1   2
ATOM      2  N   UNL A   1      33.794  28.847  23.589  1.00  0.00    -0.356 N 
ATOM      3  C   UNL A   1      33.557  28.090  22.486  1.00  0.00     0.226 C 
ATOM      4  O   UNL A   1      34.349  28.208  21.546  1.00  0.00    -0.274 OA
ATOM      5  H   UNL A   1      34.595  29.417  23.522  1.00  0.00     0.163 HD
BRANCH   3   6
ATOM      6  C   UNL A   1      32.380  27.118  22.373  1.00  0.00     0.103 C 
ATOM      7  C   UNL A   1      31.257  25.560  23.924  1.00  0.00     0.093 C 
ATOM      8  C   UNL A   1      30.490  26.820  23.731  1.00  0.00    -0.011 C 
ATOM      9  C   UNL A   1      32.558  25.800  23.130  1.00  0.00     0.042 C 
ATOM     10  C   UNL A   1      31.089  27.666  22.886  1.00  0.00    -0.016 C 
BRANCH   7  11
ATOM     11  N   UNL A   1      31.607  25.256  25.307  1.00  0.00    -0.204 NA
ATOM     12  H   UNL A   1      32.470  25.771  25.482  1.00  0.00     0.142 HD
BRANCH  11  13
ATOM     13  S   UNL A   1      31.866  23.734  25.952  1.00  0.00     0.241 S 
ATOM     14  O   UNL A   1      31.283  22.777  25.037  1.00  0.00    -0.207 OA
ATOM     15  O   UNL A   1      31.426  23.831  27.327  1.00  0.00    -0.207 OA
BRANCH  13  16
ATOM     16  C   UNL A   1      33.631  23.489  25.993  1.00  0.00     0.085 A 
ATOM     17  C   UNL A   1      37.891  22.924  25.645  1.00  0.00     0.044 C 
ATOM     18  C   UNL A   1      36.413  23.136  25.785  1.00  0.00    -0.051 A 
ATOM     19  C   UNL A   1      35.853  24.403  25.625  1.00  0.00     0.005 A 
ATOM     20  C   UNL A   1      35.579  22.062  26.123  1.00  0.00     0.008 A 
ATOM     21  C   UNL A   1      34.473  24.580  25.739  1.00  0.00     0.022 A 
ATOM     22  C   UNL A   1      34.186  22.221  26.252  1.00  0.00    -0.031 A 
ATOM     23  C   UNL A   1      33.397  21.014  26.683  1.00  0.00     0.046 C 
ENDBRANCH  13  16
ENDBRANCH  11  13
ENDBRANCH   7  11
ENDBRANCH   3   6
ENDBRANCH   1   2
BRANCH   1  24
ATOM     24  C   UNL A   1      33.761  28.193  25.971  1.00  0.00     0.042 C 
BRANCH  24  25
ATOM     25  C   UNL A   1      33.340  28.630  27.368  1.00  0.00     0.118 C 
BRANCH  25  26
ATOM     26  N   UNL A   1      33.392  30.075  27.550  1.00  0.00    -0.352 N 
ATOM     27  C   UNL A   1      34.404  30.859  28.048  1.00  0.00     0.251 C 
ATOM     28  H   UNL A   1      32.581  30.561  27.276  1.00  0.00     0.163 HD
ATOM     29  O   UNL A   1      34.210  32.050  28.273  1.00  0.00    -0.269 OA
BRANCH  27  30
ATOM     30  C   UNL A   1      35.725  30.264  28.337  1.00  0.00     0.039 A 
ATOM     31  C   UNL A   1      36.688  30.229  27.325  1.00  0.00     0.014 A 
ATOM     32  C   UNL A   1      36.014  29.744  29.601  1.00  0.00     0.014 A 
ATOM     33  C   UNL A   1      37.968  29.743  27.603  1.00  0.00     0.010 A 
ATOM     34  C   UNL A   1      37.307  29.327  29.896  1.00  0.00     0.010 A 
ATOM     35  C   UNL A   1      38.299  29.327  28.901  1.00  0.00    -0.014 A 
BRANCH  35  36
ATOM     36  C   UNL A   1      39.676  28.901  29.257  1.00  0.00     0.031 A 
ATOM     37  C   UNL A   1      40.195  27.568  28.799  1.00  0.00     0.074 A 
ATOM     38  C   UNL A   1      40.421  29.669  30.076  1.00  0.00     0.049 A 
ATOM     39  N   UNL A   1      41.313  26.964  29.113  1.00  0.00    -0.248 NA
ATOM     40  C   UNL A   1      39.328  26.797  27.894  1.00  0.00     0.031 C 
ATOM     41  C   UNL A   1      40.019  30.965  30.625  1.00  0.00     0.029 A 
ATOM     42  N   UNL A   1      41.669  29.456  30.608  1.00  0.00    -0.354 N 
ATOM     43  C   UNL A   1      41.268  25.732  28.472  1.00  0.00     0.074 A 
ATOM     44  C   UNL A   1      39.999  25.660  27.781  1.00  0.00     0.031 C 
ATOM     45  C   UNL A   1      41.004  31.436  31.405  1.00  0.00     0.029 A 
ATOM     46  C   UNL A   1      42.087  30.459  31.446  1.00  0.00     0.049 A 
ATOM     47  H   UNL A   1      42.211  28.659  30.406  1.00  0.00     0.167 HD
ATOM     48  C   UNL A   1      42.205  24.753  28.451  1.00  0.00     0.031 A 
ATOM     49  C   UNL A   1      43.210  30.575  32.180  1.00  0.00     0.031 A 
ATOM     50  C   UNL A   1      43.476  24.833  29.119  1.00  0.00     0.049 A 
ATOM     51  C   UNL A   1      44.238  29.481  32.132  1.00  0.00     0.074 A 
ATOM     52  C   UNL A   1      44.519  23.925  29.096  1.00  0.00     0.029 A 
ATOM     53  N   UNL A   1      43.876  25.884  29.928  1.00  0.00    -0.354 N 
ATOM     54  N   UNL A   1      44.210  28.351  31.470  1.00  0.00    -0.248 NA
ATOM     55  C   UNL A   1      45.460  29.686  32.925  1.00  0.00     0.031 C 
ATOM     56  C   UNL A   1      45.534  24.407  29.930  1.00  0.00     0.029 A 
ATOM     57  C   UNL A   1      45.142  25.637  30.430  1.00  0.00     0.049 A 
ATOM     58  H   UNL A   1      43.340  26.687  30.118  1.00  0.00     0.167 HD
ATOM     59  C   UNL A   1      45.416  27.721  31.744  1.00  0.00     0.074 A 
ATOM     60  C   UNL A   1      46.159  28.600  32.624  1.00  0.00     0.031 C 
ATOM     61  C   UNL A   1      45.869  26.523  31.303  1.00  0.00     0.031 A 
BRANCH  48  62
ATOM     62  C   UNL A   1      41.876  23.501  27.688  1.00  0.00    -0.014 A 
ATOM     63  C   UNL A   1      42.282  23.330  26.355  1.00  0.00     0.009 A 
ATOM     64  C   UNL A   1      41.173  22.465  28.321  1.00  0.00     0.009 A 
ATOM     65  C   UNL A   1      41.954  22.164  25.660  1.00  0.00     0.001 A 
ATOM     66  C   UNL A   1      40.871  21.288  27.633  1.00  0.00     0.001 A 
ATOM     67  C   UNL A   1      41.253  21.143  26.299  1.00  0.00     0.000 A 
ENDBRANCH  48  62
BRANCH  49  68
ATOM     68  C   UNL A   1      43.423  31.782  33.019  1.00  0.00    -0.014 A 
ATOM     69  C   UNL A   1      42.925  31.834  34.329  1.00  0.00     0.009 A 
ATOM     70  C   UNL A   1      44.136  32.883  32.518  1.00  0.00     0.009 A 
ATOM     71  C   UNL A   1      43.117  32.973  35.115  1.00  0.00     0.001 A 
ATOM     72  C   UNL A   1      44.350  34.010  33.315  1.00  0.00     0.001 A 
ATOM     73  C   UNL A   1      43.834  34.057  34.608  1.00  0.00     0.000 A 
ENDBRANCH  49  68
BRANCH  61  74
ATOM     74  C   UNL A   1      47.246  26.106  31.734  1.00  0.00    -0.014 A 
ATOM     75  C   UNL A   1      48.376  26.409  30.959  1.00  0.00     0.009 A 
ATOM     76  C   UNL A   1      47.417  25.441  32.959  1.00  0.00     0.009 A 
ATOM     77  C   UNL A   1      49.648  26.030  31.391  1.00  0.00     0.001 A 
ATOM     78  C   UNL A   1      48.692  25.087  33.400  1.00  0.00     0.001 A 
ATOM     79  C   UNL A   1      49.806  25.375  32.612  1.00  0.00     0.000 A 
ENDBRANCH  61  74
ENDBRANCH  35  36
ENDBRANCH  27  30
ENDBRANCH  25  26
ENDBRANCH  24  25
ENDBRANCH   1  24
TORSDOF 13
ENDMDL
