MODEL 1
REMARK VINA RESULT:     -10.0      0.000      0.000
REMARK SMILES Cc1cc(C(=O)N[C@H]2C=C[C@@H](C(=O)NCCCNC(=O)c3ccc(-c4c5nc(c(-c6ccccc6)c6ccc([nH]6)c(-c6ccccc6)c6nc(c(-c7ccccc7)c7ccc4[nH]7)C=C6)C=C5)cc3)C2)no1
REMARK SMILES IDX 16 1 15 2 14 3 12 4 13 5 11 7 8 8 9 9 69 10 10 11 7 12 5 13
REMARK SMILES IDX 6 14 4 16 1 17 2 18 3 19 71 20 70 21 17 22 18 23 19 24 20 26
REMARK SMILES IDX 21 27 22 28 68 29 23 30 67 31 24 32 25 33 26 34 61 35 27 36
REMARK SMILES IDX 66 37 60 38 62 39 28 40 65 41 59 42 58 43 29 45 51 46 36 47
REMARK SMILES IDX 50 48 37 49 40 50 49 51 63 52 38 53 39 54 48 56 64 57 41 58
REMARK SMILES IDX 30 59 31 60 35 61 32 62 34 63 33 64 52 65 53 66 57 67 54 68
REMARK SMILES IDX 56 69 55 70 42 71 43 72 47 73 44 74 46 75 45 76
REMARK H PARENT 14 6 7 15 18 25 62 44 40 55
REMARK Flexibility Score: inf
ROOT
ATOM      1  C   UNL A   1      44.628  18.717  25.211  1.00  0.00     0.042 C 
ENDROOT
BRANCH   1   2
ATOM      2  C   UNL A   1      45.449  19.982  25.003  1.00  0.00     0.117 C 
BRANCH   2   3
ATOM      3  N   UNL A   1      44.893  20.822  23.954  1.00  0.00    -0.356 N 
ATOM      4  C   UNL A   1      44.695  22.167  23.883  1.00  0.00     0.227 C 
ATOM      5  O   UNL A   1      44.173  22.605  22.853  1.00  0.00    -0.274 OA
ATOM      6  H   UNL A   1      44.606  20.329  23.152  1.00  0.00     0.163 HD
BRANCH   4   7
ATOM      7  C   UNL A   1      45.102  23.125  25.001  1.00  0.00     0.103 C 
ATOM      8  C   UNL A   1      46.847  24.812  25.397  1.00  0.00     0.106 C 
ATOM      9  C   UNL A   1      45.563  25.419  24.927  1.00  0.00    -0.006 C 
ATOM     10  C   UNL A   1      46.613  23.304  25.186  1.00  0.00     0.047 C 
ATOM     11  C   UNL A   1      44.600  24.511  24.759  1.00  0.00    -0.016 C 
BRANCH   8  12
ATOM     12  N   UNL A   1      47.991  25.297  24.652  1.00  0.00    -0.344 N 
ATOM     13  C   UNL A   1      48.480  26.577  24.489  1.00  0.00     0.273 C 
ATOM     14  O   UNL A   1      49.542  26.704  23.880  1.00  0.00    -0.267 OA
ATOM     15  H   UNL A   1      48.503  24.598  24.185  1.00  0.00     0.164 HD
BRANCH  13  16
ATOM     16  C   UNL A   1      47.695  27.714  24.969  1.00  0.00     0.171 A 
ATOM     17  C   UNL A   1      45.651  29.794  27.190  1.00  0.00     0.091 C 
ATOM     18  C   UNL A   1      46.480  29.087  26.200  1.00  0.00     0.134 A 
ATOM     19  C   UNL A   1      47.538  28.218  26.289  1.00  0.00     0.082 A 
ATOM     20  O   UNL A   1      46.135  29.235  24.895  1.00  0.00    -0.361 OA
ATOM     21  N   UNL A   1      46.907  28.395  24.118  1.00  0.00    -0.074 NA
ENDBRANCH  13  16
ENDBRANCH   8  12
ENDBRANCH   4   7
ENDBRANCH   2   3
ENDBRANCH   1   2
BRANCH   1  22
ATOM     22  C   UNL A   1      43.642  18.815  26.365  1.00  0.00     0.118 C 
BRANCH  22  23
ATOM     23  N   UNL A   1      42.259  18.672  25.934  1.00  0.00    -0.352 N 
ATOM     24  C   UNL A   1      41.203  19.534  26.090  1.00  0.00     0.251 C 
ATOM     25  H   UNL A   1      42.051  17.832  25.463  1.00  0.00     0.163 HD
ATOM     26  O   UNL A   1      40.065  19.167  25.811  1.00  0.00    -0.269 OA
BRANCH  24  27
ATOM     27  C   UNL A   1      41.431  20.898  26.610  1.00  0.00     0.039 A 
ATOM     28  C   UNL A   1      41.511  21.091  27.992  1.00  0.00     0.014 A 
ATOM     29  C   UNL A   1      41.554  21.985  25.741  1.00  0.00     0.014 A 
ATOM     30  C   UNL A   1      41.774  22.364  28.500  1.00  0.00     0.010 A 
ATOM     31  C   UNL A   1      41.892  23.237  26.243  1.00  0.00     0.010 A 
ATOM     32  C   UNL A   1      41.996  23.441  27.627  1.00  0.00    -0.014 A 
BRANCH  32  33
ATOM     33  C   UNL A   1      42.316  24.798  28.134  1.00  0.00     0.031 A 
ATOM     34  C   UNL A   1      43.715  25.117  28.585  1.00  0.00     0.074 A 
ATOM     35  C   UNL A   1      41.339  25.716  28.262  1.00  0.00     0.049 A 
ATOM     36  N   UNL A   1      44.172  26.202  29.156  1.00  0.00    -0.248 NA
ATOM     37  C   UNL A   1      44.728  24.066  28.396  1.00  0.00     0.031 C 
ATOM     38  C   UNL A   1      39.935  25.521  27.893  1.00  0.00     0.029 A 
ATOM     39  N   UNL A   1      41.380  26.996  28.751  1.00  0.00    -0.354 N 
ATOM     40  C   UNL A   1      45.511  25.951  29.425  1.00  0.00     0.074 A 
ATOM     41  C   UNL A   1      45.786  24.599  28.988  1.00  0.00     0.031 C 
ATOM     42  C   UNL A   1      39.254  26.651  28.147  1.00  0.00     0.029 A 
ATOM     43  C   UNL A   1      40.163  27.632  28.731  1.00  0.00     0.049 A 
ATOM     44  H   UNL A   1      42.204  27.421  29.085  1.00  0.00     0.167 HD
ATOM     45  C   UNL A   1      46.436  26.776  29.970  1.00  0.00     0.031 A 
ATOM     46  C   UNL A   1      39.816  28.866  29.144  1.00  0.00     0.031 A 
ATOM     47  C   UNL A   1      46.174  28.130  30.373  1.00  0.00     0.049 A 
ATOM     48  C   UNL A   1      40.863  29.767  29.733  1.00  0.00     0.074 A 
ATOM     49  C   UNL A   1      47.061  29.067  30.876  1.00  0.00     0.029 A 
ATOM     50  N   UNL A   1      44.933  28.743  30.313  1.00  0.00    -0.354 N 
ATOM     51  N   UNL A   1      42.137  29.532  29.933  1.00  0.00    -0.248 NA
ATOM     52  C   UNL A   1      40.424  31.108  30.146  1.00  0.00     0.031 C 
ATOM     53  C   UNL A   1      46.346  30.238  31.151  1.00  0.00     0.029 A 
ATOM     54  C   UNL A   1      45.026  30.041  30.782  1.00  0.00     0.049 A 
ATOM     55  H   UNL A   1      44.108  28.318  29.985  1.00  0.00     0.167 HD
ATOM     56  C   UNL A   1      42.657  30.703  30.469  1.00  0.00     0.074 A 
ATOM     57  C   UNL A   1      41.564  31.648  30.555  1.00  0.00     0.031 C 
ATOM     58  C   UNL A   1      43.928  30.969  30.854  1.00  0.00     0.031 A 
BRANCH  45  59
ATOM     59  C   UNL A   1      47.820  26.226  30.165  1.00  0.00    -0.014 A 
ATOM     60  C   UNL A   1      48.721  26.127  29.094  1.00  0.00     0.009 A 
ATOM     61  C   UNL A   1      48.236  25.822  31.443  1.00  0.00     0.009 A 
ATOM     62  C   UNL A   1      49.999  25.601  29.291  1.00  0.00     0.001 A 
ATOM     63  C   UNL A   1      49.523  25.321  31.643  1.00  0.00     0.001 A 
ATOM     64  C   UNL A   1      50.400  25.201  30.566  1.00  0.00     0.000 A 
ENDBRANCH  45  59
BRANCH  46  65
ATOM     65  C   UNL A   1      38.415  29.333  28.992  1.00  0.00    -0.014 A 
ATOM     66  C   UNL A   1      37.535  29.293  30.085  1.00  0.00     0.009 A 
ATOM     67  C   UNL A   1      37.950  29.819  27.761  1.00  0.00     0.009 A 
ATOM     68  C   UNL A   1      36.209  29.709  29.940  1.00  0.00     0.001 A 
ATOM     69  C   UNL A   1      36.631  30.259  27.627  1.00  0.00     0.001 A 
ATOM     70  C   UNL A   1      35.760  30.195  28.714  1.00  0.00     0.000 A 
ENDBRANCH  46  65
BRANCH  58  71
ATOM     71  C   UNL A   1      44.212  32.351  31.367  1.00  0.00    -0.014 A 
ATOM     72  C   UNL A   1      44.592  33.384  30.498  1.00  0.00     0.009 A 
ATOM     73  C   UNL A   1      44.053  32.630  32.733  1.00  0.00     0.009 A 
ATOM     74  C   UNL A   1      44.834  34.666  30.994  1.00  0.00     0.001 A 
ATOM     75  C   UNL A   1      44.272  33.917  33.222  1.00  0.00     0.001 A 
ATOM     76  C   UNL A   1      44.669  34.933  32.353  1.00  0.00     0.000 A 
ENDBRANCH  58  71
ENDBRANCH  32  33
ENDBRANCH  24  27
ENDBRANCH  22  23
ENDBRANCH   1  22
TORSDOF 12
ENDMDL
MODEL 2
REMARK VINA RESULT:      -9.7      4.048      7.247
REMARK SMILES Cc1cc(C(=O)N[C@H]2C=C[C@@H](C(=O)NCCCNC(=O)c3ccc(-c4c5nc(c(-c6ccccc6)c6ccc([nH]6)c(-c6ccccc6)c6nc(c(-c7ccccc7)c7ccc4[nH]7)C=C6)C=C5)cc3)C2)no1
REMARK SMILES IDX 16 1 15 2 14 3 12 4 13 5 11 7 8 8 9 9 69 10 10 11 7 12 5 13
REMARK SMILES IDX 6 14 4 16 1 17 2 18 3 19 71 20 70 21 17 22 18 23 19 24 20 26
REMARK SMILES IDX 21 27 22 28 68 29 23 30 67 31 24 32 25 33 26 34 61 35 27 36
REMARK SMILES IDX 66 37 60 38 62 39 28 40 65 41 59 42 58 43 29 45 51 46 36 47
REMARK SMILES IDX 50 48 37 49 40 50 49 51 63 52 38 53 39 54 48 56 64 57 41 58
REMARK SMILES IDX 30 59 31 60 35 61 32 62 34 63 33 64 52 65 53 66 57 67 54 68
REMARK SMILES IDX 56 69 55 70 42 71 43 72 47 73 44 74 46 75 45 76
REMARK H PARENT 14 6 7 15 18 25 62 44 40 55
REMARK Flexibility Score: inf
ROOT
ATOM      1  C   UNL A   1      38.072  19.674  24.986  1.00  0.00     0.042 C 
ENDROOT
BRANCH   1   2
ATOM      2  C   UNL A   1      37.031  20.767  24.790  1.00  0.00     0.117 C 
BRANCH   2   3
ATOM      3  N   UNL A   1      35.690  20.299  25.102  1.00  0.00    -0.356 N 
ATOM      4  C   UNL A   1      34.497  20.950  25.162  1.00  0.00     0.227 C 
ATOM      5  O   UNL A   1      33.507  20.283  25.480  1.00  0.00    -0.274 OA
ATOM      6  H   UNL A   1      35.637  19.338  25.308  1.00  0.00     0.163 HD
BRANCH   4   7
ATOM      7  C   UNL A   1      34.346  22.436  24.842  1.00  0.00     0.103 C 
ATOM      8  C   UNL A   1      32.692  24.216  25.224  1.00  0.00     0.106 C 
ATOM      9  C   UNL A   1      33.791  24.232  26.239  1.00  0.00    -0.006 C 
ATOM     10  C   UNL A   1      32.925  22.885  24.484  1.00  0.00     0.047 C 
ATOM     11  C   UNL A   1      34.716  23.298  26.005  1.00  0.00    -0.016 C 
BRANCH   8  12
ATOM     12  N   UNL A   1      31.379  24.280  25.832  1.00  0.00    -0.344 N 
ATOM     13  C   UNL A   1      30.584  25.365  26.140  1.00  0.00     0.273 C 
ATOM     14  O   UNL A   1      29.452  25.136  26.565  1.00  0.00    -0.267 OA
ATOM     15  H   UNL A   1      30.991  23.406  26.066  1.00  0.00     0.164 HD
BRANCH  13  16
ATOM     16  C   UNL A   1      31.133  26.716  26.022  1.00  0.00     0.171 A 
ATOM     17  C   UNL A   1      32.191  30.096  26.968  1.00  0.00     0.091 C 
ATOM     18  C   UNL A   1      31.838  28.766  26.445  1.00  0.00     0.134 A 
ATOM     19  C   UNL A   1      31.822  27.504  26.985  1.00  0.00     0.082 A 
ATOM     20  O   UNL A   1      31.355  28.714  25.178  1.00  0.00    -0.361 OA
ATOM     21  N   UNL A   1      30.933  27.429  24.900  1.00  0.00    -0.074 NA
ENDBRANCH  13  16
ENDBRANCH   8  12
ENDBRANCH   4   7
ENDBRANCH   2   3
ENDBRANCH   1   2
BRANCH   1  22
ATOM     22  C   UNL A   1      39.141  20.029  26.008  1.00  0.00     0.118 C 
BRANCH  22  23
ATOM     23  N   UNL A   1      40.346  19.225  25.861  1.00  0.00    -0.352 N 
ATOM     24  C   UNL A   1      41.662  19.593  25.993  1.00  0.00     0.251 C 
ATOM     25  H   UNL A   1      40.194  18.279  25.633  1.00  0.00     0.163 HD
ATOM     26  O   UNL A   1      42.552  18.815  25.663  1.00  0.00    -0.269 OA
BRANCH  24  27
ATOM     27  C   UNL A   1      42.007  20.930  26.516  1.00  0.00     0.039 A 
ATOM     28  C   UNL A   1      42.355  21.940  25.614  1.00  0.00     0.014 A 
ATOM     29  C   UNL A   1      42.002  21.187  27.889  1.00  0.00     0.014 A 
ATOM     30  C   UNL A   1      42.638  23.223  26.086  1.00  0.00     0.010 A 
ATOM     31  C   UNL A   1      42.208  22.482  28.352  1.00  0.00     0.010 A 
ATOM     32  C   UNL A   1      42.537  23.511  27.457  1.00  0.00    -0.014 A 
BRANCH  32  33
ATOM     33  C   UNL A   1      42.794  24.872  27.986  1.00  0.00     0.031 A 
ATOM     34  C   UNL A   1      44.181  25.256  28.423  1.00  0.00     0.074 A 
ATOM     35  C   UNL A   1      41.772  25.735  28.146  1.00  0.00     0.049 A 
ATOM     36  N   UNL A   1      44.589  26.352  29.009  1.00  0.00    -0.248 NA
ATOM     37  C   UNL A   1      45.244  24.263  28.198  1.00  0.00     0.031 C 
ATOM     38  C   UNL A   1      40.375  25.474  27.794  1.00  0.00     0.029 A 
ATOM     39  N   UNL A   1      41.754  27.007  28.660  1.00  0.00    -0.354 N 
ATOM     40  C   UNL A   1      45.944  26.166  29.253  1.00  0.00     0.074 A 
ATOM     41  C   UNL A   1      46.282  24.839  28.786  1.00  0.00     0.031 C 
ATOM     42  C   UNL A   1      39.640  26.561  28.080  1.00  0.00     0.029 A 
ATOM     43  C   UNL A   1      40.506  27.578  28.670  1.00  0.00     0.049 A 
ATOM     44  H   UNL A   1      42.560  27.467  28.990  1.00  0.00     0.167 HD
ATOM     45  C   UNL A   1      46.833  27.028  29.801  1.00  0.00     0.031 A 
ATOM     46  C   UNL A   1      40.101  28.784  29.112  1.00  0.00     0.031 A 
ATOM     47  C   UNL A   1      46.507  28.359  30.234  1.00  0.00     0.049 A 
ATOM     48  C   UNL A   1      41.109  29.727  29.704  1.00  0.00     0.074 A 
ATOM     49  C   UNL A   1      47.352  29.331  30.742  1.00  0.00     0.029 A 
ATOM     50  N   UNL A   1      45.235  28.907  30.204  1.00  0.00    -0.354 N 
ATOM     51  N   UNL A   1      42.396  29.555  29.880  1.00  0.00    -0.248 NA
ATOM     52  C   UNL A   1      40.608  31.035  30.149  1.00  0.00     0.031 C 
ATOM     53  C   UNL A   1      46.582  30.458  31.051  1.00  0.00     0.029 A 
ATOM     54  C   UNL A   1      45.267  30.199  30.697  1.00  0.00     0.049 A 
ATOM     55  H   UNL A   1      44.428  28.446  29.880  1.00  0.00     0.167 HD
ATOM     56  C   UNL A   1      42.863  30.741  30.432  1.00  0.00     0.074 A 
ATOM     57  C   UNL A   1      41.724  31.627  30.552  1.00  0.00     0.031 C 
ATOM     58  C   UNL A   1      44.124  31.067  30.804  1.00  0.00     0.031 A 
BRANCH  45  59
ATOM     59  C   UNL A   1      48.247  26.548  29.965  1.00  0.00    -0.014 A 
ATOM     60  C   UNL A   1      48.649  25.849  31.114  1.00  0.00     0.009 A 
ATOM     61  C   UNL A   1      49.184  26.778  28.947  1.00  0.00     0.009 A 
ATOM     62  C   UNL A   1      49.971  25.422  31.255  1.00  0.00     0.001 A 
ATOM     63  C   UNL A   1      50.498  26.327  29.079  1.00  0.00     0.001 A 
ATOM     64  C   UNL A   1      50.893  25.659  30.236  1.00  0.00     0.000 A 
ENDBRANCH  45  59
BRANCH  46  65
ATOM     65  C   UNL A   1      38.676  29.180  28.989  1.00  0.00    -0.014 A 
ATOM     66  C   UNL A   1      38.177  29.657  27.766  1.00  0.00     0.009 A 
ATOM     67  C   UNL A   1      37.808  29.084  30.087  1.00  0.00     0.009 A 
ATOM     68  C   UNL A   1      36.843  30.052  27.654  1.00  0.00     0.001 A 
ATOM     69  C   UNL A   1      36.467  29.457  29.964  1.00  0.00     0.001 A 
ATOM     70  C   UNL A   1      35.989  29.949  28.750  1.00  0.00     0.000 A 
ENDBRANCH  46  65
BRANCH  58  71
ATOM     71  C   UNL A   1      44.344  32.451  31.339  1.00  0.00    -0.014 A 
ATOM     72  C   UNL A   1      44.265  32.720  32.713  1.00  0.00     0.009 A 
ATOM     73  C   UNL A   1      44.680  33.491  30.457  1.00  0.00     0.009 A 
ATOM     74  C   UNL A   1      44.492  34.012  33.192  1.00  0.00     0.001 A 
ATOM     75  C   UNL A   1      44.929  34.775  30.941  1.00  0.00     0.001 A 
ATOM     76  C   UNL A   1      44.827  35.036  32.306  1.00  0.00     0.000 A 
ENDBRANCH  58  71
ENDBRANCH  32  33
ENDBRANCH  24  27
ENDBRANCH  22  23
ENDBRANCH   1  22
TORSDOF 12
ENDMDL
MODEL 3
REMARK VINA RESULT:      -9.7      4.545      9.383
REMARK SMILES Cc1cc(C(=O)N[C@H]2C=C[C@@H](C(=O)NCCCNC(=O)c3ccc(-c4c5nc(c(-c6ccccc6)c6ccc([nH]6)c(-c6ccccc6)c6nc(c(-c7ccccc7)c7ccc4[nH]7)C=C6)C=C5)cc3)C2)no1
REMARK SMILES IDX 16 1 15 2 14 3 12 4 13 5 11 7 8 8 9 9 69 10 10 11 7 12 5 13
REMARK SMILES IDX 6 14 4 16 1 17 2 18 3 19 71 20 70 21 17 22 18 23 19 24 20 26
REMARK SMILES IDX 21 27 22 28 68 29 23 30 67 31 24 32 25 33 26 34 61 35 27 36
REMARK SMILES IDX 66 37 60 38 62 39 28 40 65 41 59 42 58 43 29 45 51 46 36 47
REMARK SMILES IDX 50 48 37 49 40 50 49 51 63 52 38 53 39 54 48 56 64 57 41 58
REMARK SMILES IDX 30 59 31 60 35 61 32 62 34 63 33 64 52 65 53 66 57 67 54 68
REMARK SMILES IDX 56 69 55 70 42 71 43 72 47 73 44 74 46 75 45 76
REMARK H PARENT 14 6 7 15 18 25 62 44 40 55
REMARK Flexibility Score: inf
ROOT
ATOM      1  C   UNL A   1      37.498  19.959  24.982  1.00  0.00     0.042 C 
ENDROOT
BRANCH   1   2
ATOM      2  C   UNL A   1      36.250  20.782  25.270  1.00  0.00     0.117 C 
BRANCH   2   3
ATOM      3  N   UNL A   1      35.041  20.097  24.843  1.00  0.00    -0.356 N 
ATOM      4  C   UNL A   1      33.771  20.545  24.643  1.00  0.00     0.227 C 
ATOM      5  O   UNL A   1      32.929  19.712  24.293  1.00  0.00    -0.274 OA
ATOM      6  H   UNL A   1      35.162  19.136  24.670  1.00  0.00     0.163 HD
BRANCH   4   7
ATOM      7  C   UNL A   1      33.372  22.009  24.817  1.00  0.00     0.103 C 
ATOM      8  C   UNL A   1      32.908  23.947  23.375  1.00  0.00     0.106 C 
ATOM      9  C   UNL A   1      31.660  23.238  23.796  1.00  0.00    -0.006 C 
ATOM     10  C   UNL A   1      34.022  22.983  23.829  1.00  0.00     0.047 C 
ATOM     11  C   UNL A   1      31.905  22.216  24.618  1.00  0.00    -0.016 C 
BRANCH   8  12
ATOM     12  N   UNL A   1      32.948  24.195  21.949  1.00  0.00    -0.344 N 
ATOM     13  C   UNL A   1      32.786  25.365  21.235  1.00  0.00     0.273 C 
ATOM     14  O   UNL A   1      32.971  25.317  20.019  1.00  0.00    -0.267 OA
ATOM     15  H   UNL A   1      33.117  23.397  21.398  1.00  0.00     0.164 HD
BRANCH  13  16
ATOM     16  C   UNL A   1      32.337  26.573  21.927  1.00  0.00     0.171 A 
ATOM     17  C   UNL A   1      30.216  29.408  22.878  1.00  0.00     0.091 C 
ATOM     18  C   UNL A   1      31.162  28.310  22.621  1.00  0.00     0.134 A 
ATOM     19  C   UNL A   1      31.019  26.994  22.257  1.00  0.00     0.082 A 
ATOM     20  O   UNL A   1      32.484  28.614  22.679  1.00  0.00    -0.361 OA
ATOM     21  N   UNL A   1      33.224  27.524  22.267  1.00  0.00    -0.074 NA
ENDBRANCH  13  16
ENDBRANCH   8  12
ENDBRANCH   4   7
ENDBRANCH   2   3
ENDBRANCH   1   2
BRANCH   1  22
ATOM     22  C   UNL A   1      38.742  20.474  25.691  1.00  0.00     0.118 C 
BRANCH  22  23
ATOM     23  N   UNL A   1      39.811  19.487  25.734  1.00  0.00    -0.352 N 
ATOM     24  C   UNL A   1      41.135  19.648  26.057  1.00  0.00     0.251 C 
ATOM     25  H   UNL A   1      39.545  18.569  25.495  1.00  0.00     0.163 HD
ATOM     26  O   UNL A   1      41.929  18.730  25.872  1.00  0.00    -0.269 OA
BRANCH  24  27
ATOM     27  C   UNL A   1      41.610  20.932  26.611  1.00  0.00     0.039 A 
ATOM     28  C   UNL A   1      42.086  21.913  25.736  1.00  0.00     0.014 A 
ATOM     29  C   UNL A   1      41.600  21.167  27.989  1.00  0.00     0.014 A 
ATOM     30  C   UNL A   1      42.494  23.150  26.238  1.00  0.00     0.010 A 
ATOM     31  C   UNL A   1      41.934  22.424  28.480  1.00  0.00     0.010 A 
ATOM     32  C   UNL A   1      42.393  23.425  27.611  1.00  0.00    -0.014 A 
BRANCH  32  33
ATOM     33  C   UNL A   1      42.782  24.742  28.170  1.00  0.00     0.031 A 
ATOM     34  C   UNL A   1      41.734  25.798  28.396  1.00  0.00     0.074 A 
ATOM     35  C   UNL A   1      44.079  25.018  28.400  1.00  0.00     0.049 A 
ATOM     36  N   UNL A   1      41.882  27.042  28.772  1.00  0.00    -0.248 NA
ATOM     37  C   UNL A   1      40.338  25.411  28.135  1.00  0.00     0.031 C 
ATOM     38  C   UNL A   1      45.196  24.095  28.190  1.00  0.00     0.029 A 
ATOM     39  N   UNL A   1      44.678  26.167  28.853  1.00  0.00    -0.354 N 
ATOM     40  C   UNL A   1      40.608  27.593  28.760  1.00  0.00     0.074 A 
ATOM     41  C   UNL A   1      39.702  26.561  28.304  1.00  0.00     0.031 C 
ATOM     42  C   UNL A   1      46.341  24.705  28.537  1.00  0.00     0.029 A 
ATOM     43  C   UNL A   1      46.044  26.072  28.954  1.00  0.00     0.049 A 
ATOM     44  H   UNL A   1      44.176  26.982  29.084  1.00  0.00     0.167 HD
ATOM     45  C   UNL A   1      40.220  28.842  29.112  1.00  0.00     0.031 A 
ATOM     46  C   UNL A   1      46.956  26.986  29.335  1.00  0.00     0.031 A 
ATOM     47  C   UNL A   1      41.112  29.859  29.597  1.00  0.00     0.049 A 
ATOM     48  C   UNL A   1      46.500  28.360  29.734  1.00  0.00     0.074 A 
ATOM     49  C   UNL A   1      40.806  31.134  30.041  1.00  0.00     0.029 A 
ATOM     50  N   UNL A   1      42.486  29.713  29.708  1.00  0.00    -0.354 N 
ATOM     51  N   UNL A   1      45.285  28.849  29.765  1.00  0.00    -0.248 NA
ATOM     52  C   UNL A   1      47.543  29.306  30.158  1.00  0.00     0.031 C 
ATOM     53  C   UNL A   1      42.002  31.772  30.389  1.00  0.00     0.029 A 
ATOM     54  C   UNL A   1      43.045  30.879  30.199  1.00  0.00     0.049 A 
ATOM     55  H   UNL A   1      42.989  28.901  29.472  1.00  0.00     0.167 HD
ATOM     56  C   UNL A   1      45.413  30.149  30.237  1.00  0.00     0.074 A 
ATOM     57  C   UNL A   1      46.822  30.369  30.487  1.00  0.00     0.031 C 
ATOM     58  C   UNL A   1      44.449  31.077  30.447  1.00  0.00     0.031 A 
BRANCH  45  59
ATOM     59  C   UNL A   1      38.761  29.174  28.978  1.00  0.00    -0.014 A 
ATOM     60  C   UNL A   1      38.225  29.621  27.760  1.00  0.00     0.009 A 
ATOM     61  C   UNL A   1      37.907  29.018  30.079  1.00  0.00     0.009 A 
ATOM     62  C   UNL A   1      36.870  29.938  27.658  1.00  0.00     0.001 A 
ATOM     63  C   UNL A   1      36.547  29.310  29.968  1.00  0.00     0.001 A 
ATOM     64  C   UNL A   1      36.031  29.779  28.760  1.00  0.00     0.000 A 
ENDBRANCH  45  59
BRANCH  46  65
ATOM     65  C   UNL A   1      48.395  26.624  29.381  1.00  0.00    -0.014 A 
ATOM     66  C   UNL A   1      49.220  26.866  28.270  1.00  0.00     0.009 A 
ATOM     67  C   UNL A   1      48.952  26.038  30.527  1.00  0.00     0.009 A 
ATOM     68  C   UNL A   1      50.569  26.506  28.301  1.00  0.00     0.001 A 
ATOM     69  C   UNL A   1      50.307  25.702  30.563  1.00  0.00     0.001 A 
ATOM     70  C   UNL A   1      51.112  25.928  29.447  1.00  0.00     0.000 A 
ENDBRANCH  46  65
BRANCH  58  71
ATOM     71  C   UNL A   1      44.881  32.400  31.007  1.00  0.00    -0.014 A 
ATOM     72  C   UNL A   1      45.216  33.471  30.167  1.00  0.00     0.009 A 
ATOM     73  C   UNL A   1      44.908  32.588  32.398  1.00  0.00     0.009 A 
ATOM     74  C   UNL A   1      45.598  34.699  30.710  1.00  0.00     0.001 A 
ATOM     75  C   UNL A   1      45.267  33.822  32.938  1.00  0.00     0.001 A 
ATOM     76  C   UNL A   1      45.618  34.875  32.094  1.00  0.00     0.000 A 
ENDBRANCH  58  71
ENDBRANCH  32  33
ENDBRANCH  24  27
ENDBRANCH  22  23
ENDBRANCH   1  22
TORSDOF 12
ENDMDL
