MODEL 1
REMARK VINA RESULT:     -11.0      0.000      0.000
REMARK SMILES CCN(C(=O)N[C@@H]1CCOC1)[C@H]1COC[C@H]1C(=O)NCCCNC(=O)c1ccc(-c2c3nc(c(-c4ccccc4)c4ccc([nH]4)c(-c4ccccc4)c4nc(c(-c5ccccc5)c5ccc2[nH]5)C=C4)C=C3)cc1
REMARK SMILES IDX 20 1 19 2 17 3 18 4 16 6 12 7 13 8 14 9 15 10 3 11 2 12 1 13
REMARK SMILES IDX 4 14 5 15 6 16 7 18 8 19 11 20 9 21 10 22 21 23 22 24 23 25
REMARK SMILES IDX 24 26 25 28 26 29 27 30 73 31 28 32 72 33 29 34 30 35 31 36
REMARK SMILES IDX 66 37 32 38 71 39 65 40 67 41 33 42 70 43 64 44 63 45 34 47
REMARK SMILES IDX 56 48 41 49 55 50 42 51 45 52 54 53 68 54 43 55 44 56 53 58
REMARK SMILES IDX 69 59 46 60 35 61 36 62 40 63 37 64 39 65 38 66 57 67 58 68
REMARK SMILES IDX 62 69 59 70 61 71 60 72 47 73 48 74 52 75 49 76 51 77 50 78
REMARK H PARENT 19 5 6 17 23 27 67 46 45 57
REMARK Flexibility Score: inf
ROOT
ATOM      1  C   UNL A   1      31.454  30.943  25.901  1.00  0.00     0.117 C 
ENDROOT
BRANCH   1   2
ATOM      2  N   UNL A   1      32.558  30.185  26.454  1.00  0.00    -0.356 N 
ATOM      3  C   UNL A   1      32.752  28.872  26.709  1.00  0.00     0.227 C 
ATOM      4  O   UNL A   1      33.816  28.596  27.283  1.00  0.00    -0.275 OA
ATOM      5  H   UNL A   1      33.332  30.745  26.693  1.00  0.00     0.163 HD
BRANCH   3   6
ATOM      6  C   UNL A   1      31.838  27.744  26.284  1.00  0.00     0.129 C 
ATOM      7  C   UNL A   1      31.028  27.730  24.986  1.00  0.00     0.127 C 
ATOM      8  C   UNL A   1      30.419  26.322  25.127  1.00  0.00     0.186 C 
ATOM      9  O   UNL A   1      31.430  25.480  25.706  1.00  0.00    -0.378 OA
ATOM     10  C   UNL A   1      32.311  26.319  26.476  1.00  0.00     0.176 C 
BRANCH   7  11
ATOM     11  N   UNL A   1      31.689  28.062  23.689  1.00  0.00    -0.319 N 
BRANCH  11  12
ATOM     12  C   UNL A   1      33.086  27.661  23.451  1.00  0.00     0.118 C 
ATOM     13  C   UNL A   1      34.006  28.832  23.145  1.00  0.00     0.027 C 
ENDBRANCH  11  12
BRANCH  11  14
ATOM     14  C   UNL A   1      30.830  28.396  22.652  1.00  0.00     0.318 C 
ATOM     15  O   UNL A   1      30.656  27.680  21.665  1.00  0.00    -0.249 OA
ATOM     16  N   UNL A   1      30.324  29.660  22.607  1.00  0.00    -0.333 N 
ATOM     17  H   UNL A   1      30.905  30.360  22.230  1.00  0.00     0.165 HD
BRANCH  16  18
ATOM     18  C   UNL A   1      28.983  30.080  23.071  1.00  0.00     0.112 C 
ATOM     19  C   UNL A   1      28.029  30.112  21.890  1.00  0.00     0.056 C 
ATOM     20  C   UNL A   1      28.857  31.541  23.502  1.00  0.00     0.185 C 
ATOM     21  C   UNL A   1      28.395  31.429  21.232  1.00  0.00     0.162 C 
ATOM     22  O   UNL A   1      28.769  32.321  22.294  1.00  0.00    -0.379 OA
ENDBRANCH  16  18
ENDBRANCH  11  14
ENDBRANCH   7  11
ENDBRANCH   3   6
ENDBRANCH   1   2
BRANCH   1  23
ATOM     23  C   UNL A   1      31.333  32.318  26.545  1.00  0.00     0.042 C 
BRANCH  23  24
ATOM     24  C   UNL A   1      32.592  32.811  27.249  1.00  0.00     0.118 C 
BRANCH  24  25
ATOM     25  N   UNL A   1      32.476  34.203  27.630  1.00  0.00    -0.352 N 
ATOM     26  C   UNL A   1      33.040  34.925  28.653  1.00  0.00     0.251 C 
ATOM     27  H   UNL A   1      31.882  34.730  27.047  1.00  0.00     0.163 HD
ATOM     28  O   UNL A   1      32.555  36.040  28.903  1.00  0.00    -0.269 OA
BRANCH  26  29
ATOM     29  C   UNL A   1      34.185  34.451  29.471  1.00  0.00     0.039 A 
ATOM     30  C   UNL A   1      35.460  34.484  28.888  1.00  0.00     0.014 A 
ATOM     31  C   UNL A   1      34.039  33.842  30.720  1.00  0.00     0.014 A 
ATOM     32  C   UNL A   1      36.567  33.921  29.539  1.00  0.00     0.010 A 
ATOM     33  C   UNL A   1      35.157  33.343  31.404  1.00  0.00     0.010 A 
ATOM     34  C   UNL A   1      36.429  33.348  30.810  1.00  0.00    -0.014 A 
BRANCH  34  35
ATOM     35  C   UNL A   1      37.583  32.696  31.494  1.00  0.00     0.031 A 
ATOM     36  C   UNL A   1      38.277  31.512  30.863  1.00  0.00     0.074 A 
ATOM     37  C   UNL A   1      38.004  33.134  32.697  1.00  0.00     0.049 A 
ATOM     38  N   UNL A   1      39.244  30.767  31.343  1.00  0.00    -0.248 NA
ATOM     39  C   UNL A   1      37.819  31.106  29.525  1.00  0.00     0.031 C 
ATOM     40  C   UNL A   1      37.453  34.273  33.430  1.00  0.00     0.029 A 
ATOM     41  N   UNL A   1      38.998  32.660  33.520  1.00  0.00    -0.354 N 
ATOM     42  C   UNL A   1      39.489  29.793  30.380  1.00  0.00     0.074 A 
ATOM     43  C   UNL A   1      38.550  30.024  29.302  1.00  0.00     0.031 C 
ATOM     44  C   UNL A   1      38.111  34.409  34.593  1.00  0.00     0.029 A 
ATOM     45  C   UNL A   1      39.115  33.353  34.700  1.00  0.00     0.049 A 
ATOM     46  H   UNL A   1      39.571  31.895  33.286  1.00  0.00     0.167 HD
ATOM     47  C   UNL A   1      40.417  28.806  30.379  1.00  0.00     0.031 A 
ATOM     48  C   UNL A   1      39.927  33.162  35.757  1.00  0.00     0.031 A 
ATOM     49  C   UNL A   1      41.387  28.587  31.418  1.00  0.00     0.049 A 
ATOM     50  C   UNL A   1      40.926  32.041  35.746  1.00  0.00     0.074 A 
ATOM     51  C   UNL A   1      42.413  27.657  31.457  1.00  0.00     0.029 A 
ATOM     52  N   UNL A   1      41.456  29.306  32.599  1.00  0.00    -0.354 N 
ATOM     53  N   UNL A   1      41.169  31.160  34.807  1.00  0.00    -0.248 NA
ATOM     54  C   UNL A   1      41.771  31.895  36.942  1.00  0.00     0.031 C 
ATOM     55  C   UNL A   1      43.078  27.787  32.680  1.00  0.00     0.029 A 
ATOM     56  C   UNL A   1      42.489  28.823  33.385  1.00  0.00     0.049 A 
ATOM     57  H   UNL A   1      40.859  30.051  32.843  1.00  0.00     0.167 HD
ATOM     58  C   UNL A   1      42.213  30.378  35.285  1.00  0.00     0.074 A 
ATOM     59  C   UNL A   1      42.559  30.887  36.594  1.00  0.00     0.031 C 
ATOM     60  C   UNL A   1      42.832  29.334  34.684  1.00  0.00     0.031 A 
BRANCH  47  61
ATOM     61  C   UNL A   1      40.429  27.867  29.206  1.00  0.00    -0.014 A 
ATOM     62  C   UNL A   1      39.651  26.700  29.201  1.00  0.00     0.009 A 
ATOM     63  C   UNL A   1      41.185  28.189  28.067  1.00  0.00     0.009 A 
ATOM     64  C   UNL A   1      39.651  25.858  28.087  1.00  0.00     0.001 A 
ATOM     65  C   UNL A   1      41.168  27.355  26.949  1.00  0.00     0.001 A 
ATOM     66  C   UNL A   1      40.407  26.188  26.962  1.00  0.00     0.000 A 
ENDBRANCH  47  61
BRANCH  48  67
ATOM     67  C   UNL A   1      39.835  34.064  36.932  1.00  0.00    -0.014 A 
ATOM     68  C   UNL A   1      39.018  33.728  38.021  1.00  0.00     0.009 A 
ATOM     69  C   UNL A   1      40.550  35.271  36.961  1.00  0.00     0.009 A 
ATOM     70  C   UNL A   1      38.902  34.595  39.110  1.00  0.00     0.001 A 
ATOM     71  C   UNL A   1      40.450  36.126  38.060  1.00  0.00     0.001 A 
ATOM     72  C   UNL A   1      39.620  35.790  39.129  1.00  0.00     0.000 A 
ENDBRANCH  48  67
BRANCH  60  73
ATOM     73  C   UNL A   1      43.974  28.695  35.418  1.00  0.00    -0.014 A 
ATOM     74  C   UNL A   1      45.290  29.155  35.254  1.00  0.00     0.009 A 
ATOM     75  C   UNL A   1      43.725  27.645  36.314  1.00  0.00     0.009 A 
ATOM     76  C   UNL A   1      46.338  28.554  35.955  1.00  0.00     0.001 A 
ATOM     77  C   UNL A   1      44.771  27.060  37.028  1.00  0.00     0.001 A 
ATOM     78  C   UNL A   1      46.078  27.510  36.843  1.00  0.00     0.000 A 
ENDBRANCH  60  73
ENDBRANCH  34  35
ENDBRANCH  26  29
ENDBRANCH  24  25
ENDBRANCH  23  24
ENDBRANCH   1  23
TORSDOF 14
ENDMDL
MODEL 2
REMARK VINA RESULT:     -10.9      1.407      6.115
REMARK SMILES CCN(C(=O)N[C@@H]1CCOC1)[C@H]1COC[C@H]1C(=O)NCCCNC(=O)c1ccc(-c2c3nc(c(-c4ccccc4)c4ccc([nH]4)c(-c4ccccc4)c4nc(c(-c5ccccc5)c5ccc2[nH]5)C=C4)C=C3)cc1
REMARK SMILES IDX 20 1 19 2 17 3 18 4 16 6 12 7 13 8 14 9 15 10 3 11 2 12 1 13
REMARK SMILES IDX 4 14 5 15 6 16 7 18 8 19 11 20 9 21 10 22 21 23 22 24 23 25
REMARK SMILES IDX 24 26 25 28 26 29 27 30 73 31 28 32 72 33 29 34 30 35 31 36
REMARK SMILES IDX 66 37 32 38 71 39 65 40 67 41 33 42 70 43 64 44 63 45 34 47
REMARK SMILES IDX 56 48 41 49 55 50 42 51 45 52 54 53 68 54 43 55 44 56 53 58
REMARK SMILES IDX 69 59 46 60 35 61 36 62 40 63 37 64 39 65 38 66 57 67 58 68
REMARK SMILES IDX 62 69 59 70 61 71 60 72 47 73 48 74 52 75 49 76 51 77 50 78
REMARK H PARENT 19 5 6 17 23 27 67 46 45 57
REMARK Flexibility Score: inf
ROOT
ATOM      1  C   UNL A   1      31.126  30.994  26.227  1.00  0.00     0.117 C 
ENDROOT
BRANCH   1   2
ATOM      2  N   UNL A   1      32.401  30.344  25.998  1.00  0.00    -0.356 N 
ATOM      3  C   UNL A   1      32.791  29.051  25.940  1.00  0.00     0.227 C 
ATOM      4  O   UNL A   1      34.011  28.871  25.811  1.00  0.00    -0.275 OA
ATOM      5  H   UNL A   1      33.139  30.978  25.852  1.00  0.00     0.163 HD
BRANCH   3   6
ATOM      6  C   UNL A   1      31.871  27.849  25.934  1.00  0.00     0.129 C 
ATOM      7  C   UNL A   1      30.856  27.543  24.832  1.00  0.00     0.127 C 
ATOM      8  C   UNL A   1      30.346  26.195  25.378  1.00  0.00     0.186 C 
ATOM      9  O   UNL A   1      31.478  25.511  25.940  1.00  0.00    -0.378 OA
ATOM     10  C   UNL A   1      32.436  26.506  26.344  1.00  0.00     0.176 C 
BRANCH   7  11
ATOM     11  N   UNL A   1      31.274  27.584  23.399  1.00  0.00    -0.319 N 
BRANCH  11  12
ATOM     12  C   UNL A   1      31.235  26.359  22.585  1.00  0.00     0.118 C 
ATOM     13  C   UNL A   1      32.614  25.837  22.213  1.00  0.00     0.027 C 
ENDBRANCH  11  12
BRANCH  11  14
ATOM     14  C   UNL A   1      31.317  28.849  22.829  1.00  0.00     0.318 C 
ATOM     15  O   UNL A   1      32.336  29.327  22.328  1.00  0.00    -0.249 OA
ATOM     16  N   UNL A   1      30.259  29.685  23.019  1.00  0.00    -0.333 N 
ATOM     17  H   UNL A   1      30.224  30.173  23.873  1.00  0.00     0.165 HD
BRANCH  16  18
ATOM     18  C   UNL A   1      29.158  29.932  22.061  1.00  0.00     0.112 C 
ATOM     19  C   UNL A   1      28.846  31.418  22.023  1.00  0.00     0.056 C 
ATOM     20  C   UNL A   1      27.781  29.423  22.487  1.00  0.00     0.185 C 
ATOM     21  C   UNL A   1      28.013  31.591  23.279  1.00  0.00     0.162 C 
ATOM     22  O   UNL A   1      27.268  30.373  23.440  1.00  0.00    -0.379 OA
ENDBRANCH  16  18
ENDBRANCH  11  14
ENDBRANCH   7  11
ENDBRANCH   3   6
ENDBRANCH   1   2
BRANCH   1  23
ATOM     23  C   UNL A   1      31.290  32.484  26.491  1.00  0.00     0.042 C 
BRANCH  23  24
ATOM     24  C   UNL A   1      32.609  32.880  27.147  1.00  0.00     0.118 C 
BRANCH  24  25
ATOM     25  N   UNL A   1      32.535  34.203  27.730  1.00  0.00    -0.352 N 
ATOM     26  C   UNL A   1      33.200  34.781  28.783  1.00  0.00     0.251 C 
ATOM     27  H   UNL A   1      31.887  34.800  27.290  1.00  0.00     0.163 HD
ATOM     28  O   UNL A   1      32.745  35.843  29.235  1.00  0.00    -0.269 OA
BRANCH  26  29
ATOM     29  C   UNL A   1      34.420  34.209  29.409  1.00  0.00     0.039 A 
ATOM     30  C   UNL A   1      35.621  34.292  28.689  1.00  0.00     0.014 A 
ATOM     31  C   UNL A   1      34.404  33.471  30.594  1.00  0.00     0.014 A 
ATOM     32  C   UNL A   1      36.782  33.651  29.143  1.00  0.00     0.010 A 
ATOM     33  C   UNL A   1      35.582  32.889  31.087  1.00  0.00     0.010 A 
ATOM     34  C   UNL A   1      36.777  32.945  30.354  1.00  0.00    -0.014 A 
BRANCH  34  35
ATOM     35  C   UNL A   1      37.987  32.211  30.826  1.00  0.00     0.031 A 
ATOM     36  C   UNL A   1      38.814  32.753  31.968  1.00  0.00     0.074 A 
ATOM     37  C   UNL A   1      38.376  31.071  30.221  1.00  0.00     0.049 A 
ATOM     38  N   UNL A   1      39.939  32.299  32.463  1.00  0.00    -0.248 NA
ATOM     39  C   UNL A   1      38.317  33.969  32.632  1.00  0.00     0.031 C 
ATOM     40  C   UNL A   1      37.680  30.410  29.119  1.00  0.00     0.029 A 
ATOM     41  N   UNL A   1      39.469  30.271  30.451  1.00  0.00    -0.354 N 
ATOM     42  C   UNL A   1      40.296  33.185  33.475  1.00  0.00     0.074 A 
ATOM     43  C   UNL A   1      39.284  34.219  33.503  1.00  0.00     0.031 C 
ATOM     44  C   UNL A   1      38.361  29.307  28.766  1.00  0.00     0.029 A 
ATOM     45  C   UNL A   1      39.555  29.196  29.600  1.00  0.00     0.049 A 
ATOM     46  H   UNL A   1      40.130  30.450  31.159  1.00  0.00     0.167 HD
ATOM     47  C   UNL A   1      41.357  33.140  34.316  1.00  0.00     0.031 A 
ATOM     48  C   UNL A   1      40.489  28.232  29.489  1.00  0.00     0.031 A 
ATOM     49  C   UNL A   1      42.350  32.098  34.334  1.00  0.00     0.049 A 
ATOM     50  C   UNL A   1      41.673  28.221  30.413  1.00  0.00     0.074 A 
ATOM     51  C   UNL A   1      43.414  31.938  35.207  1.00  0.00     0.029 A 
ATOM     52  N   UNL A   1      42.401  31.040  33.443  1.00  0.00    -0.354 N 
ATOM     53  N   UNL A   1      41.967  29.044  31.388  1.00  0.00    -0.248 NA
ATOM     54  C   UNL A   1      42.652  27.139  30.221  1.00  0.00     0.031 C 
ATOM     55  C   UNL A   1      44.132  30.802  34.819  1.00  0.00     0.029 A 
ATOM     56  C   UNL A   1      43.493  30.237  33.729  1.00  0.00     0.049 A 
ATOM     57  H   UNL A   1      41.756  30.882  32.716  1.00  0.00     0.167 HD
ATOM     58  C   UNL A   1      43.144  28.561  31.947  1.00  0.00     0.074 A 
ATOM     59  C   UNL A   1      43.510  27.375  31.204  1.00  0.00     0.031 C 
ATOM     60  C   UNL A   1      43.851  29.058  32.990  1.00  0.00     0.031 A 
BRANCH  47  61
ATOM     61  C   UNL A   1      41.510  34.264  35.300  1.00  0.00    -0.014 A 
ATOM     62  C   UNL A   1      41.037  34.149  36.615  1.00  0.00     0.009 A 
ATOM     63  C   UNL A   1      42.193  35.431  34.919  1.00  0.00     0.009 A 
ATOM     64  C   UNL A   1      41.219  35.194  37.523  1.00  0.00     0.001 A 
ATOM     65  C   UNL A   1      42.391  36.465  35.836  1.00  0.00     0.001 A 
ATOM     66  C   UNL A   1      41.898  36.348  37.135  1.00  0.00     0.000 A 
ENDBRANCH  47  61
BRANCH  48  67
ATOM     67  C   UNL A   1      40.343  27.178  28.454  1.00  0.00    -0.014 A 
ATOM     68  C   UNL A   1      39.657  25.990  28.744  1.00  0.00     0.009 A 
ATOM     69  C   UNL A   1      40.904  27.350  27.180  1.00  0.00     0.009 A 
ATOM     70  C   UNL A   1      39.553  24.983  27.783  1.00  0.00     0.001 A 
ATOM     71  C   UNL A   1      40.780  26.350  26.213  1.00  0.00     0.001 A 
ATOM     72  C   UNL A   1      40.111  25.165  26.519  1.00  0.00     0.000 A 
ENDBRANCH  48  67
BRANCH  60  73
ATOM     73  C   UNL A   1      45.074  28.299  33.416  1.00  0.00    -0.014 A 
ATOM     74  C   UNL A   1      44.990  27.250  34.344  1.00  0.00     0.009 A 
ATOM     75  C   UNL A   1      46.320  28.613  32.852  1.00  0.00     0.009 A 
ATOM     76  C   UNL A   1      46.138  26.549  34.720  1.00  0.00     0.001 A 
ATOM     77  C   UNL A   1      47.461  27.896  33.214  1.00  0.00     0.001 A 
ATOM     78  C   UNL A   1      47.371  26.869  34.153  1.00  0.00     0.000 A 
ENDBRANCH  60  73
ENDBRANCH  34  35
ENDBRANCH  26  29
ENDBRANCH  24  25
ENDBRANCH  23  24
ENDBRANCH   1  23
TORSDOF 14
ENDMDL
MODEL 3
REMARK VINA RESULT:     -10.8      3.751      7.669
REMARK SMILES CCN(C(=O)N[C@@H]1CCOC1)[C@H]1COC[C@H]1C(=O)NCCCNC(=O)c1ccc(-c2c3nc(c(-c4ccccc4)c4ccc([nH]4)c(-c4ccccc4)c4nc(c(-c5ccccc5)c5ccc2[nH]5)C=C4)C=C3)cc1
REMARK SMILES IDX 20 1 19 2 17 3 18 4 16 6 12 7 13 8 14 9 15 10 3 11 2 12 1 13
REMARK SMILES IDX 4 14 5 15 6 16 7 18 8 19 11 20 9 21 10 22 21 23 22 24 23 25
REMARK SMILES IDX 24 26 25 28 26 29 27 30 73 31 28 32 72 33 29 34 30 35 31 36
REMARK SMILES IDX 66 37 32 38 71 39 65 40 67 41 33 42 70 43 64 44 63 45 34 47
REMARK SMILES IDX 56 48 41 49 55 50 42 51 45 52 54 53 68 54 43 55 44 56 53 58
REMARK SMILES IDX 69 59 46 60 35 61 36 62 40 63 37 64 39 65 38 66 57 67 58 68
REMARK SMILES IDX 62 69 59 70 61 71 60 72 47 73 48 74 52 75 49 76 51 77 50 78
REMARK H PARENT 19 5 6 17 23 27 67 46 45 57
REMARK Flexibility Score: inf
ROOT
ATOM      1  C   UNL A   1      32.741  27.323  26.657  1.00  0.00     0.117 C 
ENDROOT
BRANCH   1   2
ATOM      2  N   UNL A   1      31.465  26.649  26.791  1.00  0.00    -0.356 N 
ATOM      3  C   UNL A   1      30.708  25.911  25.949  1.00  0.00     0.227 C 
ATOM      4  O   UNL A   1      29.605  25.563  26.396  1.00  0.00    -0.275 OA
ATOM      5  H   UNL A   1      31.065  26.749  27.685  1.00  0.00     0.163 HD
BRANCH   3   6
ATOM      6  C   UNL A   1      31.129  25.421  24.581  1.00  0.00     0.129 C 
ATOM      7  C   UNL A   1      31.104  26.274  23.312  1.00  0.00     0.127 C 
ATOM      8  C   UNL A   1      31.715  25.241  22.345  1.00  0.00     0.186 C 
ATOM      9  O   UNL A   1      32.727  24.527  23.075  1.00  0.00    -0.378 OA
ATOM     10  C   UNL A   1      32.377  24.573  24.470  1.00  0.00     0.176 C 
BRANCH   7  11
ATOM     11  N   UNL A   1      31.706  27.641  23.319  1.00  0.00    -0.319 N 
BRANCH  11  12
ATOM     12  C   UNL A   1      32.930  27.911  22.547  1.00  0.00     0.118 C 
ATOM     13  C   UNL A   1      34.050  28.512  23.382  1.00  0.00     0.027 C 
ENDBRANCH  11  12
BRANCH  11  14
ATOM     14  C   UNL A   1      30.867  28.658  23.752  1.00  0.00     0.318 C 
ATOM     15  O   UNL A   1      31.240  29.569  24.493  1.00  0.00    -0.249 OA
ATOM     16  N   UNL A   1      29.528  28.535  23.534  1.00  0.00    -0.333 N 
ATOM     17  H   UNL A   1      29.023  27.975  24.166  1.00  0.00     0.165 HD
BRANCH  16  18
ATOM     18  C   UNL A   1      28.761  29.166  22.437  1.00  0.00     0.112 C 
ATOM     19  C   UNL A   1      29.089  30.648  22.380  1.00  0.00     0.056 C 
ATOM     20  C   UNL A   1      27.252  29.278  22.661  1.00  0.00     0.185 C 
ATOM     21  C   UNL A   1      28.241  31.197  23.511  1.00  0.00     0.162 C 
ATOM     22  O   UNL A   1      27.050  30.394  23.549  1.00  0.00    -0.379 OA
ENDBRANCH  16  18
ENDBRANCH  11  14
ENDBRANCH   7  11
ENDBRANCH   3   6
ENDBRANCH   1   2
BRANCH   1  23
ATOM     23  C   UNL A   1      32.796  28.600  27.485  1.00  0.00     0.042 C 
BRANCH  23  24
ATOM     24  C   UNL A   1      33.652  29.714  26.892  1.00  0.00     0.118 C 
BRANCH  24  25
ATOM     25  N   UNL A   1      33.794  30.821  27.813  1.00  0.00    -0.352 N 
ATOM     26  C   UNL A   1      34.756  31.122  28.746  1.00  0.00     0.251 C 
ATOM     27  H   UNL A   1      33.065  31.481  27.763  1.00  0.00     0.163 HD
ATOM     28  O   UNL A   1      34.487  31.995  29.586  1.00  0.00    -0.269 OA
BRANCH  26  29
ATOM     29  C   UNL A   1      36.087  30.466  28.808  1.00  0.00     0.039 A 
ATOM     30  C   UNL A   1      36.456  29.854  30.014  1.00  0.00     0.014 A 
ATOM     31  C   UNL A   1      37.037  30.556  27.788  1.00  0.00     0.014 A 
ATOM     32  C   UNL A   1      37.748  29.341  30.199  1.00  0.00     0.010 A 
ATOM     33  C   UNL A   1      38.307  29.979  27.945  1.00  0.00     0.010 A 
ATOM     34  C   UNL A   1      38.689  29.393  29.162  1.00  0.00    -0.014 A 
BRANCH  34  35
ATOM     35  C   UNL A   1      40.084  28.903  29.358  1.00  0.00     0.031 A 
ATOM     36  C   UNL A   1      41.128  29.795  29.986  1.00  0.00     0.074 A 
ATOM     37  C   UNL A   1      40.439  27.668  28.951  1.00  0.00     0.049 A 
ATOM     38  N   UNL A   1      42.407  29.573  30.165  1.00  0.00    -0.248 NA
ATOM     39  C   UNL A   1      40.678  31.111  30.466  1.00  0.00     0.031 C 
ATOM     40  C   UNL A   1      39.548  26.681  28.343  1.00  0.00     0.029 A 
ATOM     41  N   UNL A   1      41.660  27.037  28.983  1.00  0.00    -0.354 N 
ATOM     42  C   UNL A   1      42.917  30.727  30.751  1.00  0.00     0.074 A 
ATOM     43  C   UNL A   1      41.815  31.658  30.870  1.00  0.00     0.031 C 
ATOM     44  C   UNL A   1      40.249  25.571  28.058  1.00  0.00     0.029 A 
ATOM     45  C   UNL A   1      41.644  25.776  28.438  1.00  0.00     0.049 A 
ATOM     46  H   UNL A   1      42.470  27.450  29.360  1.00  0.00     0.167 HD
ATOM     47  C   UNL A   1      44.179  30.988  31.168  1.00  0.00     0.031 A 
ATOM     48  C   UNL A   1      42.636  24.884  28.254  1.00  0.00     0.031 A 
ATOM     49  C   UNL A   1      45.278  30.062  31.100  1.00  0.00     0.049 A 
ATOM     50  C   UNL A   1      44.034  25.210  28.696  1.00  0.00     0.074 A 
ATOM     51  C   UNL A   1      46.570  30.222  31.571  1.00  0.00     0.029 A 
ATOM     52  N   UNL A   1      45.215  28.803  30.527  1.00  0.00    -0.354 N 
ATOM     53  N   UNL A   1      44.483  26.290  29.286  1.00  0.00    -0.248 NA
ATOM     54  C   UNL A   1      45.061  24.185  28.451  1.00  0.00     0.031 C 
ATOM     55  C   UNL A   1      47.301  29.074  31.249  1.00  0.00     0.029 A 
ATOM     56  C   UNL A   1      46.452  28.186  30.610  1.00  0.00     0.049 A 
ATOM     57  H   UNL A   1      44.410  28.406  30.122  1.00  0.00     0.167 HD
ATOM     58  C   UNL A   1      45.835  26.061  29.511  1.00  0.00     0.074 A 
ATOM     59  C   UNL A   1      46.133  24.742  28.998  1.00  0.00     0.031 C 
ATOM     60  C   UNL A   1      46.744  26.874  30.101  1.00  0.00     0.031 A 
BRANCH  47  61
ATOM     61  C   UNL A   1      44.452  32.350  31.740  1.00  0.00    -0.014 A 
ATOM     62  C   UNL A   1      44.299  32.607  33.111  1.00  0.00     0.009 A 
ATOM     63  C   UNL A   1      44.927  33.373  30.902  1.00  0.00     0.009 A 
ATOM     64  C   UNL A   1      44.591  33.871  33.627  1.00  0.00     0.001 A 
ATOM     65  C   UNL A   1      45.236  34.629  31.425  1.00  0.00     0.001 A 
ATOM     66  C   UNL A   1      45.061  34.879  32.786  1.00  0.00     0.000 A 
ENDBRANCH  47  61
BRANCH  48  67
ATOM     67  C   UNL A   1      42.344  23.576  27.616  1.00  0.00    -0.014 A 
ATOM     68  C   UNL A   1      41.875  22.501  28.385  1.00  0.00     0.009 A 
ATOM     69  C   UNL A   1      42.549  23.394  26.240  1.00  0.00     0.009 A 
ATOM     70  C   UNL A   1      41.636  21.260  27.792  1.00  0.00     0.001 A 
ATOM     71  C   UNL A   1      42.288  22.158  25.645  1.00  0.00     0.001 A 
ATOM     72  C   UNL A   1      41.840  21.091  26.423  1.00  0.00     0.000 A 
ENDBRANCH  48  67
BRANCH  60  73
ATOM     73  C   UNL A   1      48.140  26.347  30.257  1.00  0.00    -0.014 A 
ATOM     74  C   UNL A   1      48.539  25.688  31.430  1.00  0.00     0.009 A 
ATOM     75  C   UNL A   1      49.056  26.479  29.203  1.00  0.00     0.009 A 
ATOM     76  C   UNL A   1      49.840  25.195  31.552  1.00  0.00     0.001 A 
ATOM     77  C   UNL A   1      50.349  25.967  29.320  1.00  0.00     0.001 A 
ATOM     78  C   UNL A   1      50.743  25.331  30.497  1.00  0.00     0.000 A 
ENDBRANCH  60  73
ENDBRANCH  34  35
ENDBRANCH  26  29
ENDBRANCH  24  25
ENDBRANCH  23  24
ENDBRANCH   1  23
TORSDOF 14
ENDMDL
