MODEL 1
REMARK VINA RESULT:     -10.9      0.000      0.000
REMARK SMILES CCN(Cc1ccccn1)c1nc(C)cc(C)c1C(=O)NCCCNC(=O)c1ccc(-c2c3nc(c(-c4ccccc4)c4ccc([nH]4)c(-c4ccccc4)c4nc(c(-c5ccccc5)c5ccc2[nH]5)C=C4)C=C3)cc1
REMARK SMILES IDX 22 1 21 2 19 3 20 4 18 6 11 7 12 8 13 9 16 10 14 11 15 12
REMARK SMILES IDX 17 13 3 14 2 15 1 16 4 17 5 18 6 19 10 20 7 21 9 22 8 23
REMARK SMILES IDX 23 24 24 25 25 26 26 27 27 29 28 30 29 31 75 32 30 33 74 34
REMARK SMILES IDX 31 35 32 36 33 37 68 38 34 39 73 40 67 41 69 42 35 43 72 44
REMARK SMILES IDX 66 45 65 46 36 48 58 49 43 50 57 51 44 52 47 53 56 54 70 55
REMARK SMILES IDX 45 56 46 57 55 59 71 60 48 61 37 62 38 63 42 64 39 65 41 66
REMARK SMILES IDX 40 67 59 68 60 69 64 70 61 71 63 72 62 73 49 74 50 75 54 76
REMARK SMILES IDX 51 77 53 78 52 79
REMARK H PARENT 21 5 25 28 69 47 47 58
REMARK Flexibility Score: inf
ROOT
ATOM      1  C   UNL A   1      31.156  30.689  25.284  1.00  0.00     0.118 C 
ENDROOT
BRANCH   1   2
ATOM      2  N   UNL A   1      32.460  30.080  25.157  1.00  0.00    -0.352 N 
ATOM      3  C   UNL A   1      32.670  29.070  24.246  1.00  0.00     0.255 C 
ATOM      4  O   UNL A   1      32.989  29.348  23.094  1.00  0.00    -0.269 OA
ATOM      5  H   UNL A   1      33.202  30.390  25.725  1.00  0.00     0.163 HD
BRANCH   3   6
ATOM      6  C   UNL A   1      32.624  27.666  24.723  1.00  0.00     0.085 A 
ATOM      7  C   UNL A   1      31.670  26.820  24.124  1.00  0.00     0.142 A 
ATOM      8  N   UNL A   1      31.349  25.642  24.707  1.00  0.00    -0.235 NA
ATOM      9  C   UNL A   1      31.941  25.249  25.847  1.00  0.00     0.040 A 
ATOM     10  C   UNL A   1      33.310  27.214  25.878  1.00  0.00    -0.033 A 
ATOM     11  C   UNL A   1      31.397  24.018  26.499  1.00  0.00     0.067 C 
ATOM     12  C   UNL A   1      32.953  25.980  26.429  1.00  0.00     0.028 A 
ATOM     13  C   UNL A   1      34.371  27.971  26.613  1.00  0.00     0.045 C 
BRANCH   7  14
ATOM     14  N   UNL A   1      31.012  27.123  22.931  1.00  0.00    -0.350 N 
BRANCH  14  15
ATOM     15  C   UNL A   1      31.430  26.393  21.734  1.00  0.00     0.115 C 
ATOM     16  C   UNL A   1      32.938  26.174  21.720  1.00  0.00     0.027 C 
ENDBRANCH  14  15
BRANCH  14  17
ATOM     17  C   UNL A   1      29.574  27.432  23.042  1.00  0.00     0.174 C 
BRANCH  17  18
ATOM     18  C   UNL A   1      29.162  28.871  22.724  1.00  0.00     0.060 A 
ATOM     19  C   UNL A   1      28.124  29.450  23.459  1.00  0.00     0.026 A 
ATOM     20  N   UNL A   1      29.784  29.534  21.709  1.00  0.00    -0.259 NA
ATOM     21  C   UNL A   1      27.648  30.705  23.092  1.00  0.00     0.004 A 
ATOM     22  C   UNL A   1      29.266  30.729  21.348  1.00  0.00     0.111 A 
ATOM     23  C   UNL A   1      28.211  31.348  21.998  1.00  0.00     0.020 A 
ENDBRANCH  17  18
ENDBRANCH  14  17
ENDBRANCH   7  14
ENDBRANCH   3   6
ENDBRANCH   1   2
BRANCH   1  24
ATOM     24  C   UNL A   1      31.085  31.584  26.510  1.00  0.00     0.042 C 
BRANCH  24  25
ATOM     25  C   UNL A   1      32.446  32.157  26.861  1.00  0.00     0.118 C 
BRANCH  25  26
ATOM     26  N   UNL A   1      32.343  33.542  27.313  1.00  0.00    -0.352 N 
ATOM     27  C   UNL A   1      33.070  34.232  28.247  1.00  0.00     0.251 C 
ATOM     28  H   UNL A   1      31.632  34.066  26.876  1.00  0.00     0.163 HD
ATOM     29  O   UNL A   1      32.658  35.305  28.671  1.00  0.00    -0.269 OA
BRANCH  27  30
ATOM     30  C   UNL A   1      34.344  33.680  28.742  1.00  0.00     0.039 A 
ATOM     31  C   UNL A   1      34.355  32.966  29.942  1.00  0.00     0.014 A 
ATOM     32  C   UNL A   1      35.529  33.886  28.034  1.00  0.00     0.014 A 
ATOM     33  C   UNL A   1      35.548  32.411  30.400  1.00  0.00     0.010 A 
ATOM     34  C   UNL A   1      36.689  33.237  28.427  1.00  0.00     0.010 A 
ATOM     35  C   UNL A   1      36.715  32.512  29.625  1.00  0.00    -0.014 A 
BRANCH  35  36
ATOM     36  C   UNL A   1      37.987  31.889  30.056  1.00  0.00     0.031 A 
ATOM     37  C   UNL A   1      38.890  32.623  31.008  1.00  0.00     0.074 A 
ATOM     38  C   UNL A   1      38.359  30.708  29.529  1.00  0.00     0.049 A 
ATOM     39  N   UNL A   1      40.081  32.292  31.437  1.00  0.00    -0.248 NA
ATOM     40  C   UNL A   1      38.410  33.920  31.520  1.00  0.00     0.031 C 
ATOM     41  C   UNL A   1      37.586  29.928  28.558  1.00  0.00     0.029 A 
ATOM     42  N   UNL A   1      39.488  29.957  29.734  1.00  0.00    -0.354 N 
ATOM     43  C   UNL A   1      40.497  33.346  32.241  1.00  0.00     0.074 A 
ATOM     44  C   UNL A   1      39.463  34.353  32.195  1.00  0.00     0.031 C 
ATOM     45  C   UNL A   1      38.248  28.793  28.279  1.00  0.00     0.029 A 
ATOM     46  C   UNL A   1      39.509  28.789  29.012  1.00  0.00     0.049 A 
ATOM     47  H   UNL A   1      40.214  30.229  30.341  1.00  0.00     0.167 HD
ATOM     48  C   UNL A   1      41.630  33.453  32.975  1.00  0.00     0.031 A 
ATOM     49  C   UNL A   1      40.445  27.825  28.944  1.00  0.00     0.031 A 
ATOM     50  C   UNL A   1      42.643  32.436  33.033  1.00  0.00     0.049 A 
ATOM     51  C   UNL A   1      41.694  27.970  29.769  1.00  0.00     0.074 A 
ATOM     52  C   UNL A   1      43.798  32.414  33.793  1.00  0.00     0.029 A 
ATOM     53  N   UNL A   1      42.617  31.258  32.303  1.00  0.00    -0.354 N 
ATOM     54  N   UNL A   1      42.040  28.938  30.581  1.00  0.00    -0.248 NA
ATOM     55  C   UNL A   1      42.676  26.881  29.674  1.00  0.00     0.031 C 
ATOM     56  C   UNL A   1      44.500  31.246  33.482  1.00  0.00     0.029 A 
ATOM     57  C   UNL A   1      43.751  30.512  32.576  1.00  0.00     0.049 A 
ATOM     58  H   UNL A   1      41.901  30.992  31.682  1.00  0.00     0.167 HD
ATOM     59  C   UNL A   1      43.263  28.561  31.120  1.00  0.00     0.074 A 
ATOM     60  C   UNL A   1      43.589  27.268  30.554  1.00  0.00     0.031 C 
ATOM     61  C   UNL A   1      44.049  29.224  32.004  1.00  0.00     0.031 A 
BRANCH  48  62
ATOM     62  C   UNL A   1      41.828  34.715  33.769  1.00  0.00    -0.014 A 
ATOM     63  C   UNL A   1      41.317  34.847  35.070  1.00  0.00     0.009 A 
ATOM     64  C   UNL A   1      42.566  35.776  33.220  1.00  0.00     0.009 A 
ATOM     65  C   UNL A   1      41.508  36.028  35.791  1.00  0.00     0.001 A 
ATOM     66  C   UNL A   1      42.784  36.942  33.955  1.00  0.00     0.001 A 
ATOM     67  C   UNL A   1      42.248  37.071  35.235  1.00  0.00     0.000 A 
ENDBRANCH  48  62
BRANCH  49  68
ATOM     68  C   UNL A   1      40.233  26.634  28.081  1.00  0.00    -0.014 A 
ATOM     69  C   UNL A   1      40.778  26.584  26.789  1.00  0.00     0.009 A 
ATOM     70  C   UNL A   1      39.478  25.543  28.540  1.00  0.00     0.009 A 
ATOM     71  C   UNL A   1      40.541  25.483  25.962  1.00  0.00     0.001 A 
ATOM     72  C   UNL A   1      39.270  24.429  27.723  1.00  0.00     0.001 A 
ATOM     73  C   UNL A   1      39.792  24.406  26.431  1.00  0.00     0.000 A 
ENDBRANCH  49  68
BRANCH  61  74
ATOM     74  C   UNL A   1      45.311  28.541  32.446  1.00  0.00    -0.014 A 
ATOM     75  C   UNL A   1      45.324  27.662  33.540  1.00  0.00     0.009 A 
ATOM     76  C   UNL A   1      46.497  28.747  31.723  1.00  0.00     0.009 A 
ATOM     77  C   UNL A   1      46.509  27.031  33.921  1.00  0.00     0.001 A 
ATOM     78  C   UNL A   1      47.672  28.090  32.087  1.00  0.00     0.001 A 
ATOM     79  C   UNL A   1      47.680  27.241  33.192  1.00  0.00     0.000 A 
ENDBRANCH  61  74
ENDBRANCH  35  36
ENDBRANCH  27  30
ENDBRANCH  25  26
ENDBRANCH  24  25
ENDBRANCH   1  24
TORSDOF 14
ENDMDL
MODEL 2
REMARK VINA RESULT:     -10.7      0.835      5.990
REMARK SMILES CCN(Cc1ccccn1)c1nc(C)cc(C)c1C(=O)NCCCNC(=O)c1ccc(-c2c3nc(c(-c4ccccc4)c4ccc([nH]4)c(-c4ccccc4)c4nc(c(-c5ccccc5)c5ccc2[nH]5)C=C4)C=C3)cc1
REMARK SMILES IDX 22 1 21 2 19 3 20 4 18 6 11 7 12 8 13 9 16 10 14 11 15 12
REMARK SMILES IDX 17 13 3 14 2 15 1 16 4 17 5 18 6 19 10 20 7 21 9 22 8 23
REMARK SMILES IDX 23 24 24 25 25 26 26 27 27 29 28 30 29 31 75 32 30 33 74 34
REMARK SMILES IDX 31 35 32 36 33 37 68 38 34 39 73 40 67 41 69 42 35 43 72 44
REMARK SMILES IDX 66 45 65 46 36 48 58 49 43 50 57 51 44 52 47 53 56 54 70 55
REMARK SMILES IDX 45 56 46 57 55 59 71 60 48 61 37 62 38 63 42 64 39 65 41 66
REMARK SMILES IDX 40 67 59 68 60 69 64 70 61 71 63 72 62 73 49 74 50 75 54 76
REMARK SMILES IDX 51 77 53 78 52 79
REMARK H PARENT 21 5 25 28 69 47 47 58
REMARK Flexibility Score: inf
ROOT
ATOM      1  C   UNL A   1      31.029  30.568  25.175  1.00  0.00     0.118 C 
ENDROOT
BRANCH   1   2
ATOM      2  N   UNL A   1      32.372  30.041  25.116  1.00  0.00    -0.352 N 
ATOM      3  C   UNL A   1      32.687  29.039  24.227  1.00  0.00     0.255 C 
ATOM      4  O   UNL A   1      33.042  29.326  23.088  1.00  0.00    -0.269 OA
ATOM      5  H   UNL A   1      33.067  30.402  25.713  1.00  0.00     0.163 HD
BRANCH   3   6
ATOM      6  C   UNL A   1      32.707  27.639  24.717  1.00  0.00     0.085 A 
ATOM      7  C   UNL A   1      31.749  26.760  24.175  1.00  0.00     0.142 A 
ATOM      8  N   UNL A   1      31.493  25.579  24.784  1.00  0.00    -0.235 NA
ATOM      9  C   UNL A   1      32.154  25.214  25.895  1.00  0.00     0.040 A 
ATOM     10  C   UNL A   1      33.464  27.218  25.838  1.00  0.00    -0.033 A 
ATOM     11  C   UNL A   1      31.680  23.975  26.584  1.00  0.00     0.067 C 
ATOM     12  C   UNL A   1      33.172  25.980  26.418  1.00  0.00     0.028 A 
ATOM     13  C   UNL A   1      34.539  28.013  26.512  1.00  0.00     0.045 C 
BRANCH   7  14
ATOM     14  N   UNL A   1      31.022  27.032  23.016  1.00  0.00    -0.350 N 
BRANCH  14  15
ATOM     15  C   UNL A   1      31.445  26.356  21.788  1.00  0.00     0.115 C 
ATOM     16  C   UNL A   1      32.953  26.142  21.769  1.00  0.00     0.027 C 
ENDBRANCH  14  15
BRANCH  14  17
ATOM     17  C   UNL A   1      29.570  27.228  23.188  1.00  0.00     0.174 C 
BRANCH  17  18
ATOM     18  C   UNL A   1      29.011  28.584  22.750  1.00  0.00     0.060 A 
ATOM     19  C   UNL A   1      29.815  29.421  21.972  1.00  0.00     0.026 A 
ATOM     20  N   UNL A   1      27.767  28.957  23.161  1.00  0.00    -0.259 NA
ATOM     21  C   UNL A   1      29.375  30.709  21.681  1.00  0.00     0.004 A 
ATOM     22  C   UNL A   1      27.391  30.229  22.902  1.00  0.00     0.111 A 
ATOM     23  C   UNL A   1      28.151  31.133  22.177  1.00  0.00     0.020 A 
ENDBRANCH  17  18
ENDBRANCH  14  17
ENDBRANCH   7  14
ENDBRANCH   3   6
ENDBRANCH   1   2
BRANCH   1  24
ATOM     24  C   UNL A   1      30.893  31.602  26.281  1.00  0.00     0.042 C 
BRANCH  24  25
ATOM     25  C   UNL A   1      32.247  32.105  26.743  1.00  0.00     0.118 C 
BRANCH  25  26
ATOM     26  N   UNL A   1      32.179  33.494  27.190  1.00  0.00    -0.352 N 
ATOM     27  C   UNL A   1      32.920  34.167  28.124  1.00  0.00     0.251 C 
ATOM     28  H   UNL A   1      31.484  34.035  26.748  1.00  0.00     0.163 HD
ATOM     29  O   UNL A   1      32.534  35.253  28.543  1.00  0.00    -0.269 OA
BRANCH  27  30
ATOM     30  C   UNL A   1      34.177  33.584  28.627  1.00  0.00     0.039 A 
ATOM     31  C   UNL A   1      35.388  33.983  28.057  1.00  0.00     0.014 A 
ATOM     32  C   UNL A   1      34.158  32.628  29.644  1.00  0.00     0.014 A 
ATOM     33  C   UNL A   1      36.584  33.463  28.549  1.00  0.00     0.010 A 
ATOM     34  C   UNL A   1      35.349  32.200  30.210  1.00  0.00     0.010 A 
ATOM     35  C   UNL A   1      36.572  32.597  29.654  1.00  0.00    -0.014 A 
BRANCH  35  36
ATOM     36  C   UNL A   1      37.826  32.067  30.236  1.00  0.00     0.031 A 
ATOM     37  C   UNL A   1      38.417  30.793  29.697  1.00  0.00     0.074 A 
ATOM     38  C   UNL A   1      38.381  32.689  31.293  1.00  0.00     0.049 A 
ATOM     39  N   UNL A   1      39.454  30.120  30.123  1.00  0.00    -0.248 NA
ATOM     40  C   UNL A   1      37.730  30.171  28.550  1.00  0.00     0.031 C 
ATOM     41  C   UNL A   1      37.868  33.903  31.932  1.00  0.00     0.029 A 
ATOM     42  N   UNL A   1      39.501  32.379  32.021  1.00  0.00    -0.354 N 
ATOM     43  C   UNL A   1      39.526  28.991  29.317  1.00  0.00     0.074 A 
ATOM     44  C   UNL A   1      38.397  29.035  28.418  1.00  0.00     0.031 C 
ATOM     45  C   UNL A   1      38.690  34.254  32.934  1.00  0.00     0.029 A 
ATOM     46  C   UNL A   1      39.757  33.266  33.038  1.00  0.00     0.049 A 
ATOM     47  H   UNL A   1      40.067  31.595  31.833  1.00  0.00     0.167 HD
ATOM     48  C   UNL A   1      40.465  28.016  29.310  1.00  0.00     0.031 A 
ATOM     49  C   UNL A   1      40.741  33.275  33.956  1.00  0.00     0.031 A 
ATOM     50  C   UNL A   1      41.599  27.991  30.194  1.00  0.00     0.049 A 
ATOM     51  C   UNL A   1      41.770  32.180  33.926  1.00  0.00     0.074 A 
ATOM     52  C   UNL A   1      42.643  27.086  30.229  1.00  0.00     0.029 A 
ATOM     53  N   UNL A   1      41.833  28.920  31.196  1.00  0.00    -0.354 N 
ATOM     54  N   UNL A   1      41.866  31.158  33.111  1.00  0.00    -0.248 NA
ATOM     55  C   UNL A   1      42.834  32.247  34.937  1.00  0.00     0.031 C 
ATOM     56  C   UNL A   1      43.484  27.436  31.290  1.00  0.00     0.029 A 
ATOM     57  C   UNL A   1      42.996  28.594  31.873  1.00  0.00     0.049 A 
ATOM     58  H   UNL A   1      41.259  29.694  31.397  1.00  0.00     0.167 HD
ATOM     59  C   UNL A   1      43.017  30.479  33.489  1.00  0.00     0.074 A 
ATOM     60  C   UNL A   1      43.593  31.216  34.595  1.00  0.00     0.031 C 
ATOM     61  C   UNL A   1      43.552  29.348  32.968  1.00  0.00     0.031 A 
BRANCH  48  62
ATOM     62  C   UNL A   1      40.301  26.898  28.316  1.00  0.00    -0.014 A 
ATOM     63  C   UNL A   1      39.492  25.785  28.597  1.00  0.00     0.009 A 
ATOM     64  C   UNL A   1      40.939  26.976  27.069  1.00  0.00     0.009 A 
ATOM     65  C   UNL A   1      39.355  24.755  27.663  1.00  0.00     0.001 A 
ATOM     66  C   UNL A   1      40.772  25.961  26.124  1.00  0.00     0.001 A 
ATOM     67  C   UNL A   1      39.989  24.848  26.425  1.00  0.00     0.000 A 
ENDBRANCH  48  62
BRANCH  49  68
ATOM     68  C   UNL A   1      40.811  34.362  34.967  1.00  0.00    -0.014 A 
ATOM     69  C   UNL A   1      40.154  34.232  36.201  1.00  0.00     0.009 A 
ATOM     70  C   UNL A   1      41.526  35.540  34.703  1.00  0.00     0.009 A 
ATOM     71  C   UNL A   1      40.184  35.272  37.133  1.00  0.00     0.001 A 
ATOM     72  C   UNL A   1      41.582  36.566  35.650  1.00  0.00     0.001 A 
ATOM     73  C   UNL A   1      40.901  36.435  36.859  1.00  0.00     0.000 A 
ENDBRANCH  49  68
BRANCH  61  74
ATOM     74  C   UNL A   1      44.845  28.865  33.560  1.00  0.00    -0.014 A 
ATOM     75  C   UNL A   1      44.868  27.947  34.621  1.00  0.00     0.009 A 
ATOM     76  C   UNL A   1      46.061  29.303  33.011  1.00  0.00     0.009 A 
ATOM     77  C   UNL A   1      46.084  27.506  35.144  1.00  0.00     0.001 A 
ATOM     78  C   UNL A   1      47.274  28.836  33.514  1.00  0.00     0.001 A 
ATOM     79  C   UNL A   1      47.286  27.946  34.587  1.00  0.00     0.000 A 
ENDBRANCH  61  74
ENDBRANCH  35  36
ENDBRANCH  27  30
ENDBRANCH  25  26
ENDBRANCH  24  25
ENDBRANCH   1  24
TORSDOF 14
ENDMDL
MODEL 3
REMARK VINA RESULT:     -10.7      2.483      3.743
REMARK SMILES CCN(Cc1ccccn1)c1nc(C)cc(C)c1C(=O)NCCCNC(=O)c1ccc(-c2c3nc(c(-c4ccccc4)c4ccc([nH]4)c(-c4ccccc4)c4nc(c(-c5ccccc5)c5ccc2[nH]5)C=C4)C=C3)cc1
REMARK SMILES IDX 22 1 21 2 19 3 20 4 18 6 11 7 12 8 13 9 16 10 14 11 15 12
REMARK SMILES IDX 17 13 3 14 2 15 1 16 4 17 5 18 6 19 10 20 7 21 9 22 8 23
REMARK SMILES IDX 23 24 24 25 25 26 26 27 27 29 28 30 29 31 75 32 30 33 74 34
REMARK SMILES IDX 31 35 32 36 33 37 68 38 34 39 73 40 67 41 69 42 35 43 72 44
REMARK SMILES IDX 66 45 65 46 36 48 58 49 43 50 57 51 44 52 47 53 56 54 70 55
REMARK SMILES IDX 45 56 46 57 55 59 71 60 48 61 37 62 38 63 42 64 39 65 41 66
REMARK SMILES IDX 40 67 59 68 60 69 64 70 61 71 63 72 62 73 49 74 50 75 54 76
REMARK SMILES IDX 51 77 53 78 52 79
REMARK H PARENT 21 5 25 28 69 47 47 58
REMARK Flexibility Score: inf
ROOT
ATOM      1  C   UNL A   1      32.103  26.985  26.594  1.00  0.00     0.118 C 
ENDROOT
BRANCH   1   2
ATOM      2  N   UNL A   1      33.393  26.547  26.115  1.00  0.00    -0.352 N 
ATOM      3  C   UNL A   1      33.626  26.419  24.765  1.00  0.00     0.255 C 
ATOM      4  O   UNL A   1      34.021  27.387  24.122  1.00  0.00    -0.269 OA
ATOM      5  H   UNL A   1      34.110  26.340  26.758  1.00  0.00     0.163 HD
BRANCH   3   6
ATOM      6  C   UNL A   1      33.511  25.073  24.151  1.00  0.00     0.085 A 
ATOM      7  C   UNL A   1      32.370  24.828  23.364  1.00  0.00     0.142 A 
ATOM      8  N   UNL A   1      32.031  23.558  23.038  1.00  0.00    -0.235 NA
ATOM      9  C   UNL A   1      32.781  22.518  23.438  1.00  0.00     0.040 A 
ATOM     10  C   UNL A   1      34.348  23.985  24.501  1.00  0.00    -0.033 A 
ATOM     11  C   UNL A   1      32.233  21.152  23.173  1.00  0.00     0.067 C 
ATOM     12  C   UNL A   1      33.962  22.695  24.123  1.00  0.00     0.028 A 
ATOM     13  C   UNL A   1      35.610  24.077  25.300  1.00  0.00     0.045 C 
BRANCH   7  14
ATOM     14  N   UNL A   1      31.535  25.837  22.879  1.00  0.00    -0.350 N 
BRANCH  14  15
ATOM     15  C   UNL A   1      31.449  25.992  21.427  1.00  0.00     0.115 C 
ATOM     16  C   UNL A   1      32.808  25.787  20.769  1.00  0.00     0.027 C 
ENDBRANCH  14  15
BRANCH  14  17
ATOM     17  C   UNL A   1      30.293  26.074  23.638  1.00  0.00     0.174 C 
BRANCH  17  18
ATOM     18  C   UNL A   1      29.617  27.431  23.427  1.00  0.00     0.060 A 
ATOM     19  C   UNL A   1      30.397  28.588  23.505  1.00  0.00     0.026 A 
ATOM     20  N   UNL A   1      28.273  27.480  23.213  1.00  0.00    -0.259 NA
ATOM     21  C   UNL A   1      29.776  29.832  23.451  1.00  0.00     0.004 A 
ATOM     22  C   UNL A   1      27.696  28.703  23.213  1.00  0.00     0.111 A 
ATOM     23  C   UNL A   1      28.395  29.893  23.329  1.00  0.00     0.020 A 
ENDBRANCH  17  18
ENDBRANCH  14  17
ENDBRANCH   7  14
ENDBRANCH   3   6
ENDBRANCH   1   2
BRANCH   1  24
ATOM     24  C   UNL A   1      32.160  28.422  27.089  1.00  0.00     0.042 C 
BRANCH  24  25
ATOM     25  C   UNL A   1      33.584  28.852  27.386  1.00  0.00     0.118 C 
BRANCH  25  26
ATOM     26  N   UNL A   1      33.648  30.259  27.776  1.00  0.00    -0.352 N 
ATOM     27  C   UNL A   1      34.619  30.956  28.445  1.00  0.00     0.251 C 
ATOM     28  H   UNL A   1      32.862  30.794  27.517  1.00  0.00     0.163 HD
ATOM     29  O   UNL A   1      34.367  32.062  28.907  1.00  0.00    -0.269 OA
BRANCH  27  30
ATOM     30  C   UNL A   1      35.962  30.371  28.612  1.00  0.00     0.039 A 
ATOM     31  C   UNL A   1      36.880  30.467  27.564  1.00  0.00     0.014 A 
ATOM     32  C   UNL A   1      36.305  29.710  29.792  1.00  0.00     0.014 A 
ATOM     33  C   UNL A   1      38.163  29.948  27.726  1.00  0.00     0.010 A 
ATOM     34  C   UNL A   1      37.613  29.299  29.995  1.00  0.00     0.010 A 
ATOM     35  C   UNL A   1      38.548  29.394  28.957  1.00  0.00    -0.014 A 
BRANCH  35  36
ATOM     36  C   UNL A   1      39.919  28.881  29.181  1.00  0.00     0.031 A 
ATOM     37  C   UNL A   1      40.964  29.783  29.778  1.00  0.00     0.074 A 
ATOM     38  C   UNL A   1      40.235  27.637  28.775  1.00  0.00     0.049 A 
ATOM     39  N   UNL A   1      42.237  29.554  29.972  1.00  0.00    -0.248 NA
ATOM     40  C   UNL A   1      40.532  31.135  30.175  1.00  0.00     0.031 C 
ATOM     41  C   UNL A   1      39.316  26.690  28.138  1.00  0.00     0.029 A 
ATOM     42  N   UNL A   1      41.424  26.956  28.834  1.00  0.00    -0.354 N 
ATOM     43  C   UNL A   1      42.756  30.736  30.486  1.00  0.00     0.074 A 
ATOM     44  C   UNL A   1      41.680  31.698  30.518  1.00  0.00     0.031 C 
ATOM     45  C   UNL A   1      39.966  25.540  27.898  1.00  0.00     0.029 A 
ATOM     46  C   UNL A   1      41.355  25.686  28.317  1.00  0.00     0.049 A 
ATOM     47  H   UNL A   1      42.249  27.342  29.210  1.00  0.00     0.167 HD
ATOM     48  C   UNL A   1      44.014  30.989  30.918  1.00  0.00     0.031 A 
ATOM     49  C   UNL A   1      42.309  24.746  28.191  1.00  0.00     0.031 A 
ATOM     50  C   UNL A   1      45.075  30.018  30.904  1.00  0.00     0.049 A 
ATOM     51  C   UNL A   1      43.698  25.053  28.678  1.00  0.00     0.074 A 
ATOM     52  C   UNL A   1      46.367  30.149  31.376  1.00  0.00     0.029 A 
ATOM     53  N   UNL A   1      44.959  28.735  30.391  1.00  0.00    -0.354 N 
ATOM     54  N   UNL A   1      44.156  26.151  29.229  1.00  0.00    -0.248 NA
ATOM     55  C   UNL A   1      44.698  23.986  28.535  1.00  0.00     0.031 C 
ATOM     56  C   UNL A   1      47.052  28.962  31.100  1.00  0.00     0.029 A 
ATOM     57  C   UNL A   1      46.166  28.071  30.514  1.00  0.00     0.049 A 
ATOM     58  H   UNL A   1      44.140  28.355  29.999  1.00  0.00     0.167 HD
ATOM     59  C   UNL A   1      45.488  25.896  29.529  1.00  0.00     0.074 A 
ATOM     60  C   UNL A   1      45.757  24.534  29.113  1.00  0.00     0.031 C 
ATOM     61  C   UNL A   1      46.408  26.713  30.098  1.00  0.00     0.031 A 
BRANCH  48  62
ATOM     62  C   UNL A   1      44.307  32.369  31.439  1.00  0.00    -0.014 A 
ATOM     63  C   UNL A   1      44.121  32.693  32.793  1.00  0.00     0.009 A 
ATOM     64  C   UNL A   1      44.808  33.351  30.570  1.00  0.00     0.009 A 
ATOM     65  C   UNL A   1      44.395  33.981  33.259  1.00  0.00     0.001 A 
ATOM     66  C   UNL A   1      45.113  34.629  31.045  1.00  0.00     0.001 A 
ATOM     67  C   UNL A   1      44.897  34.945  32.385  1.00  0.00     0.000 A 
ENDBRANCH  48  62
BRANCH  49  68
ATOM     68  C   UNL A   1      41.984  23.424  27.595  1.00  0.00    -0.014 A 
ATOM     69  C   UNL A   1      41.447  22.397  28.387  1.00  0.00     0.009 A 
ATOM     70  C   UNL A   1      42.217  23.176  26.233  1.00  0.00     0.009 A 
ATOM     71  C   UNL A   1      41.183  21.141  27.836  1.00  0.00     0.001 A 
ATOM     72  C   UNL A   1      41.922  21.929  25.677  1.00  0.00     0.001 A 
ATOM     73  C   UNL A   1      41.416  20.910  26.482  1.00  0.00     0.000 A 
ENDBRANCH  49  68
BRANCH  61  74
ATOM     74  C   UNL A   1      47.774  26.142  30.344  1.00  0.00    -0.014 A 
ATOM     75  C   UNL A   1      48.730  26.060  29.319  1.00  0.00     0.009 A 
ATOM     76  C   UNL A   1      48.125  25.723  31.637  1.00  0.00     0.009 A 
ATOM     77  C   UNL A   1      49.997  25.535  29.579  1.00  0.00     0.001 A 
ATOM     78  C   UNL A   1      49.402  25.229  31.901  1.00  0.00     0.001 A 
ATOM     79  C   UNL A   1      50.334  25.126  30.869  1.00  0.00     0.000 A 
ENDBRANCH  61  74
ENDBRANCH  35  36
ENDBRANCH  27  30
ENDBRANCH  25  26
ENDBRANCH  24  25
ENDBRANCH   1  24
TORSDOF 14
ENDMDL
