MODEL 1
REMARK VINA RESULT:     -10.9      0.000      0.000
REMARK SMILES CC(C)C[C@H](CNC(=O)Nc1ccccc1Br)C(=O)NCCCNC(=O)c1ccc(-c2c3nc(c(-c4ccccc4)c4ccc([nH]4)c(-c4ccccc4)c4nc(c(-c5ccccc5)c5ccc2[nH]5)C=C4)C=C3)cc1
REMARK SMILES IDX 21 1 20 2 18 3 19 4 5 6 4 7 2 8 1 9 3 10 6 11 7 12 8 13 9 15
REMARK SMILES IDX 10 16 11 18 12 19 16 20 13 21 15 22 17 23 14 24 22 25 23 26
REMARK SMILES IDX 24 27 25 28 26 30 27 31 28 32 74 33 29 34 73 35 30 36 31 37
REMARK SMILES IDX 32 38 67 39 33 40 72 41 66 42 68 43 34 44 71 45 65 46 64 47
REMARK SMILES IDX 35 49 57 50 42 51 56 52 43 53 46 54 55 55 69 56 44 57 45 58
REMARK SMILES IDX 54 60 70 61 47 62 36 63 37 64 41 65 38 66 40 67 39 68 58 69
REMARK SMILES IDX 59 70 63 71 60 72 62 73 61 74 48 75 49 76 53 77 50 78 52 79
REMARK SMILES IDX 51 80
REMARK H PARENT 20 5 7 14 10 17 24 29 68 48 46 59
REMARK Flexibility Score: inf
ROOT
ATOM      1  C   UNL A   1      36.082  20.329  25.023  1.00  0.00     0.117 C 
ENDROOT
BRANCH   1   2
ATOM      2  N   UNL A   1      36.259  21.691  25.486  1.00  0.00    -0.356 N 
ATOM      3  C   UNL A   1      35.358  22.691  25.652  1.00  0.00     0.224 C 
ATOM      4  O   UNL A   1      35.788  23.793  26.000  1.00  0.00    -0.275 OA
ATOM      5  H   UNL A   1      37.187  21.929  25.717  1.00  0.00     0.163 HD
BRANCH   3   6
ATOM      6  C   UNL A   1      33.871  22.481  25.407  1.00  0.00     0.098 C 
BRANCH   6   7
ATOM      7  C   UNL A   1      33.484  22.293  23.932  1.00  0.00     0.018 C 
BRANCH   7   8
ATOM      8  C   UNL A   1      32.278  21.350  23.722  1.00  0.00    -0.017 C 
ATOM      9  C   UNL A   1      32.057  21.015  22.246  1.00  0.00     0.007 C 
ATOM     10  C   UNL A   1      32.472  20.066  24.528  1.00  0.00     0.007 C 
ENDBRANCH   7   8
ENDBRANCH   6   7
BRANCH   6  11
ATOM     11  C   UNL A   1      33.068  23.490  26.239  1.00  0.00     0.131 C 
BRANCH  11  12
ATOM     12  N   UNL A   1      31.859  23.021  26.901  1.00  0.00    -0.337 N 
ATOM     13  C   UNL A   1      30.585  23.474  26.899  1.00  0.00     0.319 C 
ATOM     14  H   UNL A   1      31.995  22.220  27.457  1.00  0.00     0.165 HD
ATOM     15  O   UNL A   1      29.786  22.940  27.672  1.00  0.00    -0.249 OA
ATOM     16  N   UNL A   1      30.185  24.549  26.180  1.00  0.00    -0.307 N 
ATOM     17  H   UNL A   1      29.332  24.945  26.468  1.00  0.00     0.171 HD
BRANCH  16  18
ATOM     18  C   UNL A   1      30.792  25.189  25.090  1.00  0.00     0.057 A 
ATOM     19  C   UNL A   1      30.713  24.522  23.862  1.00  0.00     0.027 A 
ATOM     20  C   UNL A   1      31.367  26.470  25.149  1.00  0.00     0.041 A 
ATOM     21  C   UNL A   1      31.070  25.183  22.685  1.00  0.00     0.002 A 
ATOM     22  C   UNL A   1      31.740  27.118  23.969  1.00  0.00     0.018 A 
ATOM     23  Br  UNL A   1      31.717  27.359  26.793  1.00  0.00    -0.049 Br
ATOM     24  C   UNL A   1      31.562  26.487  22.737  1.00  0.00     0.001 A 
ENDBRANCH  16  18
ENDBRANCH  11  12
ENDBRANCH   6  11
ENDBRANCH   3   6
ENDBRANCH   1   2
BRANCH   1  25
ATOM     25  C   UNL A   1      37.407  19.612  24.820  1.00  0.00     0.042 C 
BRANCH  25  26
ATOM     26  C   UNL A   1      38.581  20.269  25.532  1.00  0.00     0.118 C 
BRANCH  26  27
ATOM     27  N   UNL A   1      39.715  19.370  25.680  1.00  0.00    -0.352 N 
ATOM     28  C   UNL A   1      41.014  19.628  26.037  1.00  0.00     0.251 C 
ATOM     29  H   UNL A   1      39.519  18.423  25.496  1.00  0.00     0.163 HD
ATOM     30  O   UNL A   1      41.862  18.753  25.899  1.00  0.00    -0.269 OA
BRANCH  28  31
ATOM     31  C   UNL A   1      41.401  20.947  26.582  1.00  0.00     0.039 A 
ATOM     32  C   UNL A   1      41.238  21.180  27.950  1.00  0.00     0.014 A 
ATOM     33  C   UNL A   1      41.861  21.972  25.750  1.00  0.00     0.014 A 
ATOM     34  C   UNL A   1      41.561  22.428  28.485  1.00  0.00     0.010 A 
ATOM     35  C   UNL A   1      42.270  23.184  26.298  1.00  0.00     0.010 A 
ATOM     36  C   UNL A   1      42.094  23.436  27.664  1.00  0.00    -0.014 A 
BRANCH  36  37
ATOM     37  C   UNL A   1      42.410  24.776  28.213  1.00  0.00     0.031 A 
ATOM     38  C   UNL A   1      43.824  25.115  28.604  1.00  0.00     0.074 A 
ATOM     39  C   UNL A   1      41.425  25.677  28.389  1.00  0.00     0.049 A 
ATOM     40  N   UNL A   1      44.300  26.229  29.099  1.00  0.00    -0.248 NA
ATOM     41  C   UNL A   1      44.832  24.053  28.444  1.00  0.00     0.031 C 
ATOM     42  C   UNL A   1      40.008  25.454  28.096  1.00  0.00     0.029 A 
ATOM     43  N   UNL A   1      41.471  26.968  28.851  1.00  0.00    -0.354 N 
ATOM     44  C   UNL A   1      45.650  25.993  29.330  1.00  0.00     0.074 A 
ATOM     45  C   UNL A   1      45.907  24.617  28.972  1.00  0.00     0.031 C 
ATOM     46  C   UNL A   1      39.326  26.582  28.350  1.00  0.00     0.029 A 
ATOM     47  C   UNL A   1      40.250  27.596  28.846  1.00  0.00     0.049 A 
ATOM     48  H   UNL A   1      42.300  27.400  29.159  1.00  0.00     0.167 HD
ATOM     49  C   UNL A   1      46.598  26.850  29.775  1.00  0.00     0.031 A 
ATOM     50  C   UNL A   1      39.918  28.854  29.189  1.00  0.00     0.031 A 
ATOM     51  C   UNL A   1      46.350  28.227  30.107  1.00  0.00     0.049 A 
ATOM     52  C   UNL A   1      40.996  29.800  29.641  1.00  0.00     0.074 A 
ATOM     53  C   UNL A   1      47.251  29.193  30.518  1.00  0.00     0.029 A 
ATOM     54  N   UNL A   1      45.104  28.834  30.055  1.00  0.00    -0.354 N 
ATOM     55  N   UNL A   1      42.280  29.580  29.791  1.00  0.00    -0.248 NA
ATOM     56  C   UNL A   1      40.579  31.175  29.945  1.00  0.00     0.031 C 
ATOM     57  C   UNL A   1      46.543  30.379  30.745  1.00  0.00     0.029 A 
ATOM     58  C   UNL A   1      45.212  30.162  30.430  1.00  0.00     0.049 A 
ATOM     59  H   UNL A   1      44.268  28.387  29.789  1.00  0.00     0.167 HD
ATOM     60  C   UNL A   1      42.828  30.795  30.176  1.00  0.00     0.074 A 
ATOM     61  C   UNL A   1      41.740  31.751  30.221  1.00  0.00     0.031 C 
ATOM     62  C   UNL A   1      44.118  31.096  30.464  1.00  0.00     0.031 A 
BRANCH  49  63
ATOM     63  C   UNL A   1      47.994  26.313  29.925  1.00  0.00    -0.014 A 
ATOM     64  C   UNL A   1      48.434  25.762  31.141  1.00  0.00     0.009 A 
ATOM     65  C   UNL A   1      48.878  26.345  28.836  1.00  0.00     0.009 A 
ATOM     66  C   UNL A   1      49.742  25.293  31.273  1.00  0.00     0.001 A 
ATOM     67  C   UNL A   1      50.177  25.848  28.963  1.00  0.00     0.001 A 
ATOM     68  C   UNL A   1      50.611  25.333  30.183  1.00  0.00     0.000 A 
ENDBRANCH  49  63
BRANCH  50  69
ATOM     69  C   UNL A   1      38.511  29.310  29.067  1.00  0.00    -0.014 A 
ATOM     70  C   UNL A   1      38.025  29.791  27.840  1.00  0.00     0.009 A 
ATOM     71  C   UNL A   1      37.647  29.270  30.171  1.00  0.00     0.009 A 
ATOM     72  C   UNL A   1      36.711  30.248  27.731  1.00  0.00     0.001 A 
ATOM     73  C   UNL A   1      36.326  29.706  30.052  1.00  0.00     0.001 A 
ATOM     74  C   UNL A   1      35.862  30.203  28.835  1.00  0.00     0.000 A 
ENDBRANCH  50  69
BRANCH  62  75
ATOM     75  C   UNL A   1      44.423  32.526  30.808  1.00  0.00    -0.014 A 
ATOM     76  C   UNL A   1      44.747  33.463  29.816  1.00  0.00     0.009 A 
ATOM     77  C   UNL A   1      44.365  32.942  32.147  1.00  0.00     0.009 A 
ATOM     78  C   UNL A   1      45.048  34.781  30.163  1.00  0.00     0.001 A 
ATOM     79  C   UNL A   1      44.639  34.266  32.489  1.00  0.00     0.001 A 
ATOM     80  C   UNL A   1      44.990  35.182  31.498  1.00  0.00     0.000 A 
ENDBRANCH  62  75
ENDBRANCH  36  37
ENDBRANCH  28  31
ENDBRANCH  26  27
ENDBRANCH  25  26
ENDBRANCH   1  25
TORSDOF 15
ENDMDL
MODEL 2
REMARK VINA RESULT:     -10.6      3.153      8.026
REMARK SMILES CC(C)C[C@H](CNC(=O)Nc1ccccc1Br)C(=O)NCCCNC(=O)c1ccc(-c2c3nc(c(-c4ccccc4)c4ccc([nH]4)c(-c4ccccc4)c4nc(c(-c5ccccc5)c5ccc2[nH]5)C=C4)C=C3)cc1
REMARK SMILES IDX 21 1 20 2 18 3 19 4 5 6 4 7 2 8 1 9 3 10 6 11 7 12 8 13 9 15
REMARK SMILES IDX 10 16 11 18 12 19 16 20 13 21 15 22 17 23 14 24 22 25 23 26
REMARK SMILES IDX 24 27 25 28 26 30 27 31 28 32 74 33 29 34 73 35 30 36 31 37
REMARK SMILES IDX 32 38 67 39 33 40 72 41 66 42 68 43 34 44 71 45 65 46 64 47
REMARK SMILES IDX 35 49 57 50 42 51 56 52 43 53 46 54 55 55 69 56 44 57 45 58
REMARK SMILES IDX 54 60 70 61 47 62 36 63 37 64 41 65 38 66 40 67 39 68 58 69
REMARK SMILES IDX 59 70 63 71 60 72 62 73 61 74 48 75 49 76 53 77 50 78 52 79
REMARK SMILES IDX 51 80
REMARK H PARENT 20 5 7 14 10 17 24 29 68 48 46 59
REMARK Flexibility Score: inf
ROOT
ATOM      1  C   UNL A   1      31.738  28.101  26.180  1.00  0.00     0.117 C 
ENDROOT
BRANCH   1   2
ATOM      2  N   UNL A   1      31.105  26.846  26.531  1.00  0.00    -0.356 N 
ATOM      3  C   UNL A   1      30.362  25.992  25.784  1.00  0.00     0.224 C 
ATOM      4  O   UNL A   1      29.877  25.011  26.353  1.00  0.00    -0.275 OA
ATOM      5  H   UNL A   1      31.237  26.567  27.467  1.00  0.00     0.163 HD
BRANCH   3   6
ATOM      6  C   UNL A   1      30.115  26.230  24.302  1.00  0.00     0.098 C 
BRANCH   6   7
ATOM      7  C   UNL A   1      28.684  26.666  23.952  1.00  0.00     0.018 C 
BRANCH   7   8
ATOM      8  C   UNL A   1      28.619  27.905  23.030  1.00  0.00    -0.017 C 
ATOM      9  C   UNL A   1      27.307  28.673  23.186  1.00  0.00     0.007 C 
ATOM     10  C   UNL A   1      29.804  28.828  23.311  1.00  0.00     0.007 C 
ENDBRANCH   7   8
ENDBRANCH   6   7
BRANCH   6  11
ATOM     11  C   UNL A   1      30.738  25.086  23.489  1.00  0.00     0.131 C 
BRANCH  11  12
ATOM     12  N   UNL A   1      31.492  25.431  22.292  1.00  0.00    -0.337 N 
ATOM     13  C   UNL A   1      32.685  25.011  21.815  1.00  0.00     0.319 C 
ATOM     14  H   UNL A   1      31.049  26.099  21.722  1.00  0.00     0.165 HD
ATOM     15  O   UNL A   1      33.139  25.585  20.823  1.00  0.00    -0.249 OA
ATOM     16  N   UNL A   1      33.442  24.077  22.439  1.00  0.00    -0.307 N 
ATOM     17  H   UNL A   1      34.386  24.059  22.162  1.00  0.00     0.171 HD
BRANCH  16  18
ATOM     18  C   UNL A   1      33.097  23.134  23.416  1.00  0.00     0.057 A 
ATOM     19  C   UNL A   1      32.478  21.966  22.953  1.00  0.00     0.027 A 
ATOM     20  C   UNL A   1      33.424  23.253  24.777  1.00  0.00     0.041 A 
ATOM     21  C   UNL A   1      32.318  20.875  23.809  1.00  0.00     0.002 A 
ATOM     22  C   UNL A   1      33.243  22.163  25.633  1.00  0.00     0.018 A 
ATOM     23  Br  UNL A   1      34.062  24.875  25.536  1.00  0.00    -0.049 Br
ATOM     24  C   UNL A   1      32.720  20.967  25.141  1.00  0.00     0.001 A 
ENDBRANCH  16  18
ENDBRANCH  11  12
ENDBRANCH   6  11
ENDBRANCH   3   6
ENDBRANCH   1   2
BRANCH   1  25
ATOM     25  C   UNL A   1      32.485  28.718  27.351  1.00  0.00     0.042 C 
BRANCH  25  26
ATOM     26  C   UNL A   1      33.710  29.525  26.948  1.00  0.00     0.118 C 
BRANCH  26  27
ATOM     27  N   UNL A   1      33.677  30.884  27.469  1.00  0.00    -0.352 N 
ATOM     28  C   UNL A   1      34.511  31.518  28.352  1.00  0.00     0.251 C 
ATOM     29  H   UNL A   1      32.936  31.437  27.131  1.00  0.00     0.163 HD
ATOM     30  O   UNL A   1      34.183  32.604  28.818  1.00  0.00    -0.269 OA
BRANCH  28  31
ATOM     31  C   UNL A   1      35.798  30.907  28.751  1.00  0.00     0.039 A 
ATOM     32  C   UNL A   1      35.782  29.856  29.672  1.00  0.00     0.014 A 
ATOM     33  C   UNL A   1      37.016  31.401  28.277  1.00  0.00     0.014 A 
ATOM     34  C   UNL A   1      36.985  29.286  30.093  1.00  0.00     0.010 A 
ATOM     35  C   UNL A   1      38.207  30.772  28.626  1.00  0.00     0.010 A 
ATOM     36  C   UNL A   1      38.206  29.730  29.563  1.00  0.00    -0.014 A 
BRANCH  36  37
ATOM     37  C   UNL A   1      39.491  29.156  30.026  1.00  0.00     0.031 A 
ATOM     38  C   UNL A   1      40.164  29.708  31.255  1.00  0.00     0.074 A 
ATOM     39  C   UNL A   1      40.070  28.161  29.327  1.00  0.00     0.049 A 
ATOM     40  N   UNL A   1      41.287  29.340  31.818  1.00  0.00    -0.248 NA
ATOM     41  C   UNL A   1      39.501  30.839  31.925  1.00  0.00     0.031 C 
ATOM     42  C   UNL A   1      39.546  27.573  28.092  1.00  0.00     0.029 A 
ATOM     43  N   UNL A   1      41.228  27.463  29.563  1.00  0.00    -0.354 N 
ATOM     44  C   UNL A   1      41.474  30.207  32.887  1.00  0.00     0.074 A 
ATOM     45  C   UNL A   1      40.380  31.151  32.864  1.00  0.00     0.031 C 
ATOM     46  C   UNL A   1      40.359  26.579  27.701  1.00  0.00     0.029 A 
ATOM     47  C   UNL A   1      41.471  26.477  28.640  1.00  0.00     0.049 A 
ATOM     48  H   UNL A   1      41.826  27.654  30.322  1.00  0.00     0.167 HD
ATOM     49  C   UNL A   1      42.453  30.205  33.822  1.00  0.00     0.031 A 
ATOM     50  C   UNL A   1      42.473  25.580  28.569  1.00  0.00     0.031 A 
ATOM     51  C   UNL A   1      43.528  29.250  33.862  1.00  0.00     0.049 A 
ATOM     52  C   UNL A   1      43.526  25.571  29.641  1.00  0.00     0.074 A 
ATOM     53  C   UNL A   1      44.542  29.130  34.795  1.00  0.00     0.029 A 
ATOM     54  N   UNL A   1      43.719  28.245  32.927  1.00  0.00    -0.354 N 
ATOM     55  N   UNL A   1      43.652  26.356  30.683  1.00  0.00    -0.248 NA
ATOM     56  C   UNL A   1      44.559  24.532  29.539  1.00  0.00     0.031 C 
ATOM     57  C   UNL A   1      45.366  28.067  34.407  1.00  0.00     0.029 A 
ATOM     58  C   UNL A   1      44.838  27.500  33.258  1.00  0.00     0.049 A 
ATOM     59  H   UNL A   1      43.144  28.083  32.144  1.00  0.00     0.167 HD
ATOM     60  C   UNL A   1      44.760  25.887  31.377  1.00  0.00     0.074 A 
ATOM     61  C   UNL A   1      45.258  24.740  30.645  1.00  0.00     0.031 C 
ATOM     62  C   UNL A   1      45.314  26.361  32.520  1.00  0.00     0.031 A 
BRANCH  49  63
ATOM     63  C   UNL A   1      42.399  31.273  34.878  1.00  0.00    -0.014 A 
ATOM     64  C   UNL A   1      43.039  32.510  34.693  1.00  0.00     0.009 A 
ATOM     65  C   UNL A   1      41.688  31.048  36.066  1.00  0.00     0.009 A 
ATOM     66  C   UNL A   1      43.003  33.482  35.695  1.00  0.00     0.001 A 
ATOM     67  C   UNL A   1      41.629  32.033  37.054  1.00  0.00     0.001 A 
ATOM     68  C   UNL A   1      42.295  33.244  36.872  1.00  0.00     0.000 A 
ENDBRANCH  49  63
BRANCH  50  69
ATOM     69  C   UNL A   1      42.498  24.582  27.471  1.00  0.00    -0.014 A 
ATOM     70  C   UNL A   1      43.256  24.821  26.313  1.00  0.00     0.009 A 
ATOM     71  C   UNL A   1      41.768  23.389  27.571  1.00  0.00     0.009 A 
ATOM     72  C   UNL A   1      43.257  23.896  25.266  1.00  0.00     0.001 A 
ATOM     73  C   UNL A   1      41.791  22.455  26.533  1.00  0.00     0.001 A 
ATOM     74  C   UNL A   1      42.528  22.714  25.378  1.00  0.00     0.000 A 
ENDBRANCH  50  69
BRANCH  62  75
ATOM     75  C   UNL A   1      46.493  25.609  33.068  1.00  0.00    -0.014 A 
ATOM     76  C   UNL A   1      46.328  24.561  33.986  1.00  0.00     0.009 A 
ATOM     77  C   UNL A   1      47.786  25.944  32.640  1.00  0.00     0.009 A 
ATOM     78  C   UNL A   1      47.441  23.891  34.496  1.00  0.00     0.001 A 
ATOM     79  C   UNL A   1      48.895  25.255  33.131  1.00  0.00     0.001 A 
ATOM     80  C   UNL A   1      48.722  24.236  34.067  1.00  0.00     0.000 A 
ENDBRANCH  62  75
ENDBRANCH  36  37
ENDBRANCH  28  31
ENDBRANCH  26  27
ENDBRANCH  25  26
ENDBRANCH   1  25
TORSDOF 15
ENDMDL
MODEL 3
REMARK VINA RESULT:     -10.6      2.395      6.936
REMARK SMILES CC(C)C[C@H](CNC(=O)Nc1ccccc1Br)C(=O)NCCCNC(=O)c1ccc(-c2c3nc(c(-c4ccccc4)c4ccc([nH]4)c(-c4ccccc4)c4nc(c(-c5ccccc5)c5ccc2[nH]5)C=C4)C=C3)cc1
REMARK SMILES IDX 21 1 20 2 18 3 19 4 5 6 4 7 2 8 1 9 3 10 6 11 7 12 8 13 9 15
REMARK SMILES IDX 10 16 11 18 12 19 16 20 13 21 15 22 17 23 14 24 22 25 23 26
REMARK SMILES IDX 24 27 25 28 26 30 27 31 28 32 74 33 29 34 73 35 30 36 31 37
REMARK SMILES IDX 32 38 67 39 33 40 72 41 66 42 68 43 34 44 71 45 65 46 64 47
REMARK SMILES IDX 35 49 57 50 42 51 56 52 43 53 46 54 55 55 69 56 44 57 45 58
REMARK SMILES IDX 54 60 70 61 47 62 36 63 37 64 41 65 38 66 40 67 39 68 58 69
REMARK SMILES IDX 59 70 63 71 60 72 62 73 61 74 48 75 49 76 53 77 50 78 52 79
REMARK SMILES IDX 51 80
REMARK H PARENT 20 5 7 14 10 17 24 29 68 48 46 59
REMARK Flexibility Score: inf
ROOT
ATOM      1  C   UNL A   1      35.628  22.269  24.022  1.00  0.00     0.117 C 
ENDROOT
BRANCH   1   2
ATOM      2  N   UNL A   1      34.824  23.074  23.123  1.00  0.00    -0.356 N 
ATOM      3  C   UNL A   1      33.481  23.118  22.940  1.00  0.00     0.224 C 
ATOM      4  O   UNL A   1      33.051  23.854  22.049  1.00  0.00    -0.275 OA
ATOM      5  H   UNL A   1      35.339  23.689  22.551  1.00  0.00     0.163 HD
BRANCH   3   6
ATOM      6  C   UNL A   1      32.528  22.285  23.785  1.00  0.00     0.098 C 
BRANCH   6   7
ATOM      7  C   UNL A   1      32.264  20.870  23.247  1.00  0.00     0.018 C 
BRANCH   7   8
ATOM      8  C   UNL A   1      32.969  19.757  24.055  1.00  0.00    -0.017 C 
ATOM      9  C   UNL A   1      32.953  20.036  25.558  1.00  0.00     0.007 C 
ATOM     10  C   UNL A   1      32.315  18.406  23.765  1.00  0.00     0.007 C 
ENDBRANCH   7   8
ENDBRANCH   6   7
BRANCH   6  11
ATOM     11  C   UNL A   1      31.318  23.141  24.185  1.00  0.00     0.131 C 
BRANCH  11  12
ATOM     12  N   UNL A   1      30.684  22.870  25.467  1.00  0.00    -0.337 N 
ATOM     13  C   UNL A   1      30.260  23.680  26.463  1.00  0.00     0.319 C 
ATOM     14  H   UNL A   1      30.537  21.913  25.644  1.00  0.00     0.165 HD
ATOM     15  O   UNL A   1      29.873  23.151  27.506  1.00  0.00    -0.249 OA
ATOM     16  N   UNL A   1      30.350  25.030  26.404  1.00  0.00    -0.307 N 
ATOM     17  H   UNL A   1      30.276  25.487  27.273  1.00  0.00     0.171 HD
BRANCH  16  18
ATOM     18  C   UNL A   1      30.532  25.881  25.306  1.00  0.00     0.057 A 
ATOM     19  C   UNL A   1      29.380  26.205  24.580  1.00  0.00     0.027 A 
ATOM     20  C   UNL A   1      31.756  26.485  24.971  1.00  0.00     0.041 A 
ATOM     21  C   UNL A   1      29.418  27.225  23.628  1.00  0.00     0.002 A 
ATOM     22  C   UNL A   1      31.791  27.492  24.002  1.00  0.00     0.018 A 
ATOM     23  Br  UNL A   1      33.406  25.949  25.747  1.00  0.00    -0.049 Br
ATOM     24  C   UNL A   1      30.618  27.882  23.356  1.00  0.00     0.001 A 
ENDBRANCH  16  18
ENDBRANCH  11  12
ENDBRANCH   6  11
ENDBRANCH   3   6
ENDBRANCH   1   2
BRANCH   1  25
ATOM     25  C   UNL A   1      35.799  22.924  25.383  1.00  0.00     0.042 C 
BRANCH  25  26
ATOM     26  C   UNL A   1      37.096  23.704  25.536  1.00  0.00     0.118 C 
BRANCH  26  27
ATOM     27  N   UNL A   1      38.252  22.835  25.698  1.00  0.00    -0.352 N 
ATOM     28  C   UNL A   1      39.499  23.100  26.203  1.00  0.00     0.251 C 
ATOM     29  H   UNL A   1      38.117  21.908  25.396  1.00  0.00     0.163 HD
ATOM     30  O   UNL A   1      40.396  22.276  26.057  1.00  0.00    -0.269 OA
BRANCH  28  31
ATOM     31  C   UNL A   1      39.774  24.364  26.919  1.00  0.00     0.039 A 
ATOM     32  C   UNL A   1      40.484  25.368  26.255  1.00  0.00     0.014 A 
ATOM     33  C   UNL A   1      39.398  24.544  28.253  1.00  0.00     0.014 A 
ATOM     34  C   UNL A   1      40.789  26.558  26.918  1.00  0.00     0.010 A 
ATOM     35  C   UNL A   1      39.621  25.764  28.883  1.00  0.00     0.010 A 
ATOM     36  C   UNL A   1      40.347  26.770  28.234  1.00  0.00    -0.014 A 
BRANCH  36  37
ATOM     37  C   UNL A   1      40.692  28.014  28.961  1.00  0.00     0.031 A 
ATOM     38  C   UNL A   1      39.671  29.111  29.104  1.00  0.00     0.074 A 
ATOM     39  C   UNL A   1      41.930  28.173  29.466  1.00  0.00     0.049 A 
ATOM     40  N   UNL A   1      39.781  30.270  29.703  1.00  0.00    -0.248 NA
ATOM     41  C   UNL A   1      38.362  28.890  28.467  1.00  0.00     0.031 C 
ATOM     42  C   UNL A   1      43.025  27.206  29.350  1.00  0.00     0.029 A 
ATOM     43  N   UNL A   1      42.473  29.208  30.184  1.00  0.00    -0.354 N 
ATOM     44  C   UNL A   1      38.571  30.920  29.494  1.00  0.00     0.074 A 
ATOM     45  C   UNL A   1      37.761  30.051  28.670  1.00  0.00     0.031 C 
ATOM     46  C   UNL A   1      44.096  27.677  30.010  1.00  0.00     0.029 A 
ATOM     47  C   UNL A   1      43.772  28.985  30.569  1.00  0.00     0.049 A 
ATOM     48  H   UNL A   1      41.979  30.030  30.402  1.00  0.00     0.167 HD
ATOM     49  C   UNL A   1      38.158  32.119  29.966  1.00  0.00     0.031 A 
ATOM     50  C   UNL A   1      44.604  29.746  31.305  1.00  0.00     0.031 A 
ATOM     51  C   UNL A   1      38.952  32.972  30.807  1.00  0.00     0.049 A 
ATOM     52  C   UNL A   1      44.108  31.055  31.852  1.00  0.00     0.074 A 
ATOM     53  C   UNL A   1      38.608  34.183  31.381  1.00  0.00     0.029 A 
ATOM     54  N   UNL A   1      40.251  32.694  31.203  1.00  0.00    -0.354 N 
ATOM     55  N   UNL A   1      42.937  31.625  31.700  1.00  0.00    -0.248 NA
ATOM     56  C   UNL A   1      45.044  31.812  32.695  1.00  0.00     0.031 C 
ATOM     57  C   UNL A   1      39.713  34.654  32.100  1.00  0.00     0.029 A 
ATOM     58  C   UNL A   1      40.726  33.713  32.010  1.00  0.00     0.049 A 
ATOM     59  H   UNL A   1      40.760  31.890  30.948  1.00  0.00     0.167 HD
ATOM     60  C   UNL A   1      42.984  32.791  32.453  1.00  0.00     0.074 A 
ATOM     61  C   UNL A   1      44.294  32.837  33.072  1.00  0.00     0.031 C 
ATOM     62  C   UNL A   1      42.029  33.738  32.620  1.00  0.00     0.031 A 
BRANCH  49  63
ATOM     63  C   UNL A   1      36.778  32.572  29.577  1.00  0.00    -0.014 A 
ATOM     64  C   UNL A   1      35.669  32.312  30.399  1.00  0.00     0.009 A 
ATOM     65  C   UNL A   1      36.585  33.281  28.381  1.00  0.00     0.009 A 
ATOM     66  C   UNL A   1      34.390  32.714  30.010  1.00  0.00     0.001 A 
ATOM     67  C   UNL A   1      35.308  33.709  28.010  1.00  0.00     0.001 A 
ATOM     68  C   UNL A   1      34.211  33.416  28.819  1.00  0.00     0.000 A 
ENDBRANCH  49  63
BRANCH  50  69
ATOM     69  C   UNL A   1      45.974  29.265  31.613  1.00  0.00    -0.014 A 
ATOM     70  C   UNL A   1      46.217  28.508  32.770  1.00  0.00     0.009 A 
ATOM     71  C   UNL A   1      47.045  29.560  30.756  1.00  0.00     0.009 A 
ATOM     72  C   UNL A   1      47.510  28.081  33.077  1.00  0.00     0.001 A 
ATOM     73  C   UNL A   1      48.333  29.109  31.053  1.00  0.00     0.001 A 
ATOM     74  C   UNL A   1      48.566  28.378  32.218  1.00  0.00     0.000 A 
ENDBRANCH  50  69
BRANCH  62  75
ATOM     75  C   UNL A   1      42.353  34.877  33.543  1.00  0.00    -0.014 A 
ATOM     76  C   UNL A   1      42.074  34.807  34.917  1.00  0.00     0.009 A 
ATOM     77  C   UNL A   1      42.966  36.030  33.030  1.00  0.00     0.009 A 
ATOM     78  C   UNL A   1      42.366  35.887  35.750  1.00  0.00     0.001 A 
ATOM     79  C   UNL A   1      43.282  37.098  33.870  1.00  0.00     0.001 A 
ATOM     80  C   UNL A   1      42.971  37.029  35.227  1.00  0.00     0.000 A 
ENDBRANCH  62  75
ENDBRANCH  36  37
ENDBRANCH  28  31
ENDBRANCH  26  27
ENDBRANCH  25  26
ENDBRANCH   1  25
TORSDOF 15
ENDMDL
