MODEL 1
REMARK VINA RESULT:      -9.5      0.000      0.000
REMARK SMILES CCCNC(=O)[C@H](C)[NH2+][C@H](C)[C@@H](C)C(=O)NCCCNC(=O)c1ccc(-c2c3nc(c(-c4ccccc4)c4ccc([nH]4)c(-c4ccccc4)c4nc(c(-c5ccccc5)c5ccc2[nH]5)C=C4)C=C3)cc1
REMARK SMILES IDX 14 1 15 2 16 3 12 5 13 6 10 7 11 8 9 9 7 12 8 13 5 14 4 15
REMARK SMILES IDX 6 17 3 18 2 19 1 20 17 21 18 22 19 23 20 24 21 25 22 27
REMARK SMILES IDX 23 28 24 29 70 30 25 31 69 32 26 33 27 34 28 35 63 36 29 37
REMARK SMILES IDX 68 38 62 39 64 40 30 41 67 42 61 43 60 44 31 46 53 47 38 48
REMARK SMILES IDX 52 49 39 50 42 51 51 52 65 53 40 54 41 55 50 57 66 58 43 59
REMARK SMILES IDX 32 60 33 61 37 62 34 63 36 64 35 65 54 66 55 67 59 68 56 69
REMARK SMILES IDX 58 70 57 71 44 72 45 73 49 74 46 75 48 76 47 77
REMARK H PARENT 16 4 9 10 9 11 4 16 20 26 64 45 42 56
REMARK Flexibility Score: inf
ROOT
ATOM      1  C   UNL A   1      31.095  25.262  26.150  1.00  0.00     0.228 C 
ATOM      2  O   UNL A   1      30.589  24.371  26.841  1.00  0.00    -0.275 OA
ATOM      3  N   UNL A   1      31.088  26.505  26.694  1.00  0.00    -0.356 N 
ATOM      4  H   UNL A   1      30.509  26.590  27.486  1.00  0.00     0.163 HD
ENDROOT
BRANCH   1   5
ATOM      5  C   UNL A   1      31.752  24.924  24.812  1.00  0.00     0.133 C 
ATOM      6  C   UNL A   1      30.614  24.582  23.838  1.00  0.00     0.024 C 
BRANCH   5   7
ATOM      7  C   UNL A   1      32.923  23.902  24.875  1.00  0.00     0.192 C 
ATOM      8  C   UNL A   1      34.171  24.502  25.544  1.00  0.00     0.076 C 
BRANCH   7   9
ATOM      9  N   UNL A   1      32.664  22.654  25.621  1.00  0.00    -0.333 N 
ATOM     10  H   UNL A   1      33.361  22.585  26.363  1.00  0.00     0.347 HD
ATOM     11  H   UNL A   1      31.701  22.732  25.952  1.00  0.00     0.347 HD
BRANCH   9  12
ATOM     12  C   UNL A   1      32.709  21.399  24.843  1.00  0.00     0.269 C 
ATOM     13  C   UNL A   1      32.913  21.752  23.369  1.00  0.00     0.086 C 
BRANCH  12  14
ATOM     14  C   UNL A   1      33.913  20.551  25.284  1.00  0.00     0.277 C 
ATOM     15  N   UNL A   1      33.847  19.191  25.212  1.00  0.00    -0.351 N 
ATOM     16  H   UNL A   1      34.679  18.714  25.432  1.00  0.00     0.163 HD
ATOM     17  O   UNL A   1      34.951  21.078  25.694  1.00  0.00    -0.268 OA
BRANCH  15  18
ATOM     18  C   UNL A   1      32.723  18.350  24.857  1.00  0.00     0.116 C 
BRANCH  18  19
ATOM     19  C   UNL A   1      32.820  17.829  23.427  1.00  0.00     0.018 C 
ATOM     20  C   UNL A   1      34.061  16.981  23.192  1.00  0.00     0.006 C 
ENDBRANCH  18  19
ENDBRANCH  15  18
ENDBRANCH  12  14
ENDBRANCH   9  12
ENDBRANCH   7   9
ENDBRANCH   5   7
ENDBRANCH   1   5
BRANCH   3  21
ATOM     21  C   UNL A   1      31.769  27.733  26.333  1.00  0.00     0.117 C 
BRANCH  21  22
ATOM     22  C   UNL A   1      33.207  27.813  26.838  1.00  0.00     0.042 C 
BRANCH  22  23
ATOM     23  C   UNL A   1      34.071  28.885  26.188  1.00  0.00     0.118 C 
BRANCH  23  24
ATOM     24  N   UNL A   1      33.801  30.225  26.683  1.00  0.00    -0.352 N 
ATOM     25  C   UNL A   1      34.455  30.978  27.626  1.00  0.00     0.251 C 
ATOM     26  H   UNL A   1      33.020  30.664  26.275  1.00  0.00     0.163 HD
ATOM     27  O   UNL A   1      33.953  32.029  28.011  1.00  0.00    -0.269 OA
BRANCH  25  28
ATOM     28  C   UNL A   1      35.740  30.526  28.202  1.00  0.00     0.039 A 
ATOM     29  C   UNL A   1      35.713  29.750  29.364  1.00  0.00     0.014 A 
ATOM     30  C   UNL A   1      36.964  30.883  27.633  1.00  0.00     0.014 A 
ATOM     31  C   UNL A   1      36.907  29.278  29.913  1.00  0.00     0.010 A 
ATOM     32  C   UNL A   1      38.148  30.343  28.131  1.00  0.00     0.010 A 
ATOM     33  C   UNL A   1      38.133  29.537  29.279  1.00  0.00    -0.014 A 
BRANCH  33  34
ATOM     34  C   UNL A   1      39.401  28.966  29.801  1.00  0.00     0.031 A 
ATOM     35  C   UNL A   1      40.120  29.622  30.948  1.00  0.00     0.074 A 
ATOM     36  C   UNL A   1      39.939  27.884  29.203  1.00  0.00     0.049 A 
ATOM     37  N   UNL A   1      41.254  29.288  31.512  1.00  0.00    -0.248 NA
ATOM     38  C   UNL A   1      39.496  30.824  31.524  1.00  0.00     0.031 C 
ATOM     39  C   UNL A   1      39.361  27.170  28.063  1.00  0.00     0.029 A 
ATOM     40  N   UNL A   1      41.095  27.195  29.473  1.00  0.00    -0.354 N 
ATOM     41  C   UNL A   1      41.488  30.247  32.490  1.00  0.00     0.074 A 
ATOM     42  C   UNL A   1      40.404  31.202  32.411  1.00  0.00     0.031 C 
ATOM     43  C   UNL A   1      40.144  26.123  27.757  1.00  0.00     0.029 A 
ATOM     44  C   UNL A   1      41.301  26.119  28.645  1.00  0.00     0.049 A 
ATOM     45  H   UNL A   1      41.718  27.448  30.193  1.00  0.00     0.167 HD
ATOM     46  C   UNL A   1      42.504  30.320  33.382  1.00  0.00     0.031 A 
ATOM     47  C   UNL A   1      42.310  25.229  28.600  1.00  0.00     0.031 A 
ATOM     48  C   UNL A   1      43.580  29.366  33.465  1.00  0.00     0.049 A 
ATOM     49  C   UNL A   1      43.443  25.351  29.581  1.00  0.00     0.074 A 
ATOM     50  C   UNL A   1      44.619  29.317  34.378  1.00  0.00     0.029 A 
ATOM     51  N   UNL A   1      43.759  28.301  32.596  1.00  0.00    -0.354 N 
ATOM     52  N   UNL A   1      43.609  26.219  30.550  1.00  0.00    -0.248 NA
ATOM     53  C   UNL A   1      44.523  24.361  29.467  1.00  0.00     0.031 C 
ATOM     54  C   UNL A   1      45.465  28.262  34.021  1.00  0.00     0.029 A 
ATOM     55  C   UNL A   1      44.914  27.610  32.929  1.00  0.00     0.049 A 
ATOM     56  H   UNL A   1      43.156  28.069  31.854  1.00  0.00     0.167 HD
ATOM     57  C   UNL A   1      44.793  25.860  31.180  1.00  0.00     0.074 A 
ATOM     58  C   UNL A   1      45.296  24.688  30.494  1.00  0.00     0.031 C 
ATOM     59  C   UNL A   1      45.407  26.447  32.236  1.00  0.00     0.031 A 
BRANCH  46  60
ATOM     60  C   UNL A   1      42.514  31.489  34.330  1.00  0.00    -0.014 A 
ATOM     61  C   UNL A   1      41.876  31.427  35.580  1.00  0.00     0.009 A 
ATOM     62  C   UNL A   1      43.200  32.662  33.979  1.00  0.00     0.009 A 
ATOM     63  C   UNL A   1      41.889  32.529  36.438  1.00  0.00     0.001 A 
ATOM     64  C   UNL A   1      43.240  33.751  34.852  1.00  0.00     0.001 A 
ATOM     65  C   UNL A   1      42.575  33.688  36.076  1.00  0.00     0.000 A 
ENDBRANCH  46  60
BRANCH  47  66
ATOM     66  C   UNL A   1      42.291  24.128  27.600  1.00  0.00    -0.014 A 
ATOM     67  C   UNL A   1      42.892  24.302  26.343  1.00  0.00     0.009 A 
ATOM     68  C   UNL A   1      41.670  22.903  27.891  1.00  0.00     0.009 A 
ATOM     69  C   UNL A   1      42.845  23.282  25.389  1.00  0.00     0.001 A 
ATOM     70  C   UNL A   1      41.653  21.875  26.947  1.00  0.00     0.001 A 
ATOM     71  C   UNL A   1      42.231  22.068  25.694  1.00  0.00     0.000 A 
ENDBRANCH  47  66
BRANCH  59  72
ATOM     72  C   UNL A   1      46.672  25.809  32.741  1.00  0.00    -0.014 A 
ATOM     73  C   UNL A   1      46.647  24.817  33.733  1.00  0.00     0.009 A 
ATOM     74  C   UNL A   1      47.906  26.183  32.185  1.00  0.00     0.009 A 
ATOM     75  C   UNL A   1      47.837  24.238  34.183  1.00  0.00     0.001 A 
ATOM     76  C   UNL A   1      49.089  25.580  32.611  1.00  0.00     0.001 A 
ATOM     77  C   UNL A   1      49.055  24.616  33.618  1.00  0.00     0.000 A 
ENDBRANCH  59  72
ENDBRANCH  33  34
ENDBRANCH  25  28
ENDBRANCH  23  24
ENDBRANCH  22  23
ENDBRANCH  21  22
ENDBRANCH   3  21
TORSDOF 16
ENDMDL
MODEL 2
REMARK VINA RESULT:      -9.5      3.846      8.000
REMARK SMILES CCCNC(=O)[C@H](C)[NH2+][C@H](C)[C@@H](C)C(=O)NCCCNC(=O)c1ccc(-c2c3nc(c(-c4ccccc4)c4ccc([nH]4)c(-c4ccccc4)c4nc(c(-c5ccccc5)c5ccc2[nH]5)C=C4)C=C3)cc1
REMARK SMILES IDX 14 1 15 2 16 3 12 5 13 6 10 7 11 8 9 9 7 12 8 13 5 14 4 15
REMARK SMILES IDX 6 17 3 18 2 19 1 20 17 21 18 22 19 23 20 24 21 25 22 27
REMARK SMILES IDX 23 28 24 29 70 30 25 31 69 32 26 33 27 34 28 35 63 36 29 37
REMARK SMILES IDX 68 38 62 39 64 40 30 41 67 42 61 43 60 44 31 46 53 47 38 48
REMARK SMILES IDX 52 49 39 50 42 51 51 52 65 53 40 54 41 55 50 57 66 58 43 59
REMARK SMILES IDX 32 60 33 61 37 62 34 63 36 64 35 65 54 66 55 67 59 68 56 69
REMARK SMILES IDX 58 70 57 71 44 72 45 73 49 74 46 75 48 76 47 77
REMARK H PARENT 16 4 9 10 9 11 4 16 20 26 64 45 42 56
REMARK Flexibility Score: inf
ROOT
ATOM      1  C   UNL A   1      34.032  20.566  24.763  1.00  0.00     0.228 C 
ATOM      2  O   UNL A   1      33.114  19.746  24.662  1.00  0.00    -0.275 OA
ATOM      3  N   UNL A   1      35.266  20.045  24.982  1.00  0.00    -0.356 N 
ATOM      4  H   UNL A   1      35.257  19.091  25.230  1.00  0.00     0.163 HD
ENDROOT
BRANCH   1   5
ATOM      5  C   UNL A   1      33.764  22.057  24.561  1.00  0.00     0.133 C 
ATOM      6  C   UNL A   1      33.297  22.607  25.917  1.00  0.00     0.024 C 
BRANCH   5   7
ATOM      7  C   UNL A   1      32.876  22.422  23.337  1.00  0.00     0.192 C 
ATOM      8  C   UNL A   1      31.474  22.887  23.766  1.00  0.00     0.076 C 
BRANCH   7   9
ATOM      9  N   UNL A   1      33.377  23.504  22.464  1.00  0.00    -0.333 N 
ATOM     10  H   UNL A   1      34.393  23.531  22.556  1.00  0.00     0.347 HD
ATOM     11  H   UNL A   1      33.044  23.270  21.528  1.00  0.00     0.347 HD
BRANCH   9  12
ATOM     12  C   UNL A   1      32.863  24.862  22.736  1.00  0.00     0.269 C 
ATOM     13  C   UNL A   1      33.918  25.626  23.537  1.00  0.00     0.086 C 
BRANCH  12  14
ATOM     14  C   UNL A   1      32.653  25.617  21.413  1.00  0.00     0.277 C 
ATOM     15  N   UNL A   1      31.778  26.662  21.361  1.00  0.00    -0.351 N 
ATOM     16  H   UNL A   1      31.753  27.151  20.508  1.00  0.00     0.163 HD
ATOM     17  O   UNL A   1      33.273  25.305  20.393  1.00  0.00    -0.268 OA
BRANCH  15  18
ATOM     18  C   UNL A   1      30.880  27.151  22.387  1.00  0.00     0.116 C 
BRANCH  18  19
ATOM     19  C   UNL A   1      31.273  28.538  22.884  1.00  0.00     0.018 C 
ATOM     20  C   UNL A   1      31.170  28.672  24.397  1.00  0.00     0.006 C 
ENDBRANCH  18  19
ENDBRANCH  15  18
ENDBRANCH  12  14
ENDBRANCH   9  12
ENDBRANCH   7   9
ENDBRANCH   5   7
ENDBRANCH   1   5
BRANCH   3  21
ATOM     21  C   UNL A   1      36.595  20.621  24.923  1.00  0.00     0.117 C 
BRANCH  21  22
ATOM     22  C   UNL A   1      37.718  19.597  25.066  1.00  0.00     0.042 C 
BRANCH  22  23
ATOM     23  C   UNL A   1      39.019  20.130  25.652  1.00  0.00     0.118 C 
BRANCH  23  24
ATOM     24  N   UNL A   1      40.055  19.118  25.774  1.00  0.00    -0.352 N 
ATOM     25  C   UNL A   1      41.399  19.241  26.027  1.00  0.00     0.251 C 
ATOM     26  H   UNL A   1      39.742  18.192  25.655  1.00  0.00     0.163 HD
ATOM     27  O   UNL A   1      42.124  18.257  25.923  1.00  0.00    -0.269 OA
BRANCH  25  28
ATOM     28  C   UNL A   1      41.987  20.547  26.396  1.00  0.00     0.039 A 
ATOM     29  C   UNL A   1      42.399  21.405  25.373  1.00  0.00     0.014 A 
ATOM     30  C   UNL A   1      42.166  20.919  27.730  1.00  0.00     0.014 A 
ATOM     31  C   UNL A   1      42.925  22.660  25.686  1.00  0.00     0.010 A 
ATOM     32  C   UNL A   1      42.611  22.202  28.041  1.00  0.00     0.010 A 
ATOM     33  C   UNL A   1      42.999  23.086  27.022  1.00  0.00    -0.014 A 
BRANCH  33  34
ATOM     34  C   UNL A   1      43.472  24.451  27.366  1.00  0.00     0.031 A 
ATOM     35  C   UNL A   1      42.498  25.510  27.806  1.00  0.00     0.074 A 
ATOM     36  C   UNL A   1      44.778  24.757  27.229  1.00  0.00     0.049 A 
ATOM     37  N   UNL A   1      42.722  26.764  28.111  1.00  0.00    -0.248 NA
ATOM     38  C   UNL A   1      41.082  25.116  27.893  1.00  0.00     0.031 C 
ATOM     39  C   UNL A   1      45.822  23.834  26.782  1.00  0.00     0.029 A 
ATOM     40  N   UNL A   1      45.449  25.934  27.451  1.00  0.00    -0.354 N 
ATOM     41  C   UNL A   1      41.479  27.311  28.403  1.00  0.00     0.074 A 
ATOM     42  C   UNL A   1      40.499  26.267  28.194  1.00  0.00     0.031 C 
ATOM     43  C   UNL A   1      47.006  24.467  26.801  1.00  0.00     0.029 A 
ATOM     44  C   UNL A   1      46.799  25.851  27.213  1.00  0.00     0.049 A 
ATOM     45  H   UNL A   1      45.005  26.759  27.753  1.00  0.00     0.167 HD
ATOM     46  C   UNL A   1      41.179  28.563  28.823  1.00  0.00     0.031 A 
ATOM     47  C   UNL A   1      47.765  26.784  27.310  1.00  0.00     0.031 A 
ATOM     48  C   UNL A   1      42.154  29.600  29.037  1.00  0.00     0.049 A 
ATOM     49  C   UNL A   1      47.401  28.177  27.747  1.00  0.00     0.074 A 
ATOM     50  C   UNL A   1      41.956  30.881  29.526  1.00  0.00     0.029 A 
ATOM     51  N   UNL A   1      43.508  29.479  28.769  1.00  0.00    -0.354 N 
ATOM     52  N   UNL A   1      46.231  28.655  28.095  1.00  0.00    -0.248 NA
ATOM     53  C   UNL A   1      48.496  29.154  27.814  1.00  0.00     0.031 C 
ATOM     54  C   UNL A   1      43.180  31.557  29.487  1.00  0.00     0.029 A 
ATOM     55  C   UNL A   1      44.153  30.675  29.044  1.00  0.00     0.049 A 
ATOM     56  H   UNL A   1      43.947  28.666  28.432  1.00  0.00     0.167 HD
ATOM     57  C   UNL A   1      46.455  29.978  28.452  1.00  0.00     0.074 A 
ATOM     58  C   UNL A   1      47.874  30.221  28.294  1.00  0.00     0.031 C 
ATOM     59  C   UNL A   1      45.565  30.907  28.878  1.00  0.00     0.031 A 
BRANCH  46  60
ATOM     60  C   UNL A   1      39.728  28.889  29.054  1.00  0.00    -0.014 A 
ATOM     61  C   UNL A   1      39.121  28.695  30.307  1.00  0.00     0.009 A 
ATOM     62  C   UNL A   1      38.962  29.431  28.010  1.00  0.00     0.009 A 
ATOM     63  C   UNL A   1      37.770  28.994  30.495  1.00  0.00     0.001 A 
ATOM     64  C   UNL A   1      37.620  29.761  28.210  1.00  0.00     0.001 A 
ATOM     65  C   UNL A   1      37.022  29.532  29.448  1.00  0.00     0.000 A 
ENDBRANCH  46  60
BRANCH  47  66
ATOM     66  C   UNL A   1      49.177  26.432  27.005  1.00  0.00    -0.014 A 
ATOM     67  C   UNL A   1      50.047  26.040  28.033  1.00  0.00     0.009 A 
ATOM     68  C   UNL A   1      49.665  26.492  25.690  1.00  0.00     0.009 A 
ATOM     69  C   UNL A   1      51.384  25.742  27.756  1.00  0.00     0.001 A 
ATOM     70  C   UNL A   1      50.993  26.163  25.411  1.00  0.00     0.001 A 
ATOM     71  C   UNL A   1      51.853  25.798  26.444  1.00  0.00     0.000 A 
ENDBRANCH  47  66
BRANCH  59  72
ATOM     72  C   UNL A   1      46.104  32.263  29.242  1.00  0.00    -0.014 A 
ATOM     73  C   UNL A   1      46.150  33.309  28.307  1.00  0.00     0.009 A 
ATOM     74  C   UNL A   1      46.536  32.507  30.556  1.00  0.00     0.009 A 
ATOM     75  C   UNL A   1      46.654  34.560  28.672  1.00  0.00     0.001 A 
ATOM     76  C   UNL A   1      47.007  33.767  30.926  1.00  0.00     0.001 A 
ATOM     77  C   UNL A   1      47.076  34.789  29.981  1.00  0.00     0.000 A 
ENDBRANCH  59  72
ENDBRANCH  33  34
ENDBRANCH  25  28
ENDBRANCH  23  24
ENDBRANCH  22  23
ENDBRANCH  21  22
ENDBRANCH   3  21
TORSDOF 16
ENDMDL
MODEL 3
REMARK VINA RESULT:      -9.4      2.923      7.795
REMARK SMILES CCCNC(=O)[C@H](C)[NH2+][C@H](C)[C@@H](C)C(=O)NCCCNC(=O)c1ccc(-c2c3nc(c(-c4ccccc4)c4ccc([nH]4)c(-c4ccccc4)c4nc(c(-c5ccccc5)c5ccc2[nH]5)C=C4)C=C3)cc1
REMARK SMILES IDX 14 1 15 2 16 3 12 5 13 6 10 7 11 8 9 9 7 12 8 13 5 14 4 15
REMARK SMILES IDX 6 17 3 18 2 19 1 20 17 21 18 22 19 23 20 24 21 25 22 27
REMARK SMILES IDX 23 28 24 29 70 30 25 31 69 32 26 33 27 34 28 35 63 36 29 37
REMARK SMILES IDX 68 38 62 39 64 40 30 41 67 42 61 43 60 44 31 46 53 47 38 48
REMARK SMILES IDX 52 49 39 50 42 51 51 52 65 53 40 54 41 55 50 57 66 58 43 59
REMARK SMILES IDX 32 60 33 61 37 62 34 63 36 64 35 65 54 66 55 67 59 68 56 69
REMARK SMILES IDX 58 70 57 71 44 72 45 73 49 74 46 75 48 76 47 77
REMARK H PARENT 16 4 9 10 9 11 4 16 20 26 64 45 42 56
REMARK Flexibility Score: inf
ROOT
ATOM      1  C   UNL A   1      35.166  23.061  23.612  1.00  0.00     0.228 C 
ATOM      2  O   UNL A   1      34.691  23.316  22.500  1.00  0.00    -0.275 OA
ATOM      3  N   UNL A   1      36.375  22.443  23.608  1.00  0.00    -0.356 N 
ATOM      4  H   UNL A   1      36.641  22.095  22.726  1.00  0.00     0.163 HD
ENDROOT
BRANCH   1   5
ATOM      5  C   UNL A   1      34.445  23.508  24.883  1.00  0.00     0.133 C 
ATOM      6  C   UNL A   1      33.796  22.252  25.485  1.00  0.00     0.024 C 
BRANCH   5   7
ATOM      7  C   UNL A   1      33.516  24.746  24.730  1.00  0.00     0.192 C 
ATOM      8  C   UNL A   1      32.911  25.177  26.077  1.00  0.00     0.076 C 
BRANCH   7   9
ATOM      9  N   UNL A   1      34.142  25.972  24.193  1.00  0.00    -0.333 N 
ATOM     10  H   UNL A   1      34.710  26.380  24.935  1.00  0.00     0.347 HD
ATOM     11  H   UNL A   1      34.670  25.669  23.374  1.00  0.00     0.347 HD
BRANCH   9  12
ATOM     12  C   UNL A   1      33.223  27.020  23.701  1.00  0.00     0.269 C 
ATOM     13  C   UNL A   1      33.958  28.360  23.731  1.00  0.00     0.086 C 
BRANCH  12  14
ATOM     14  C   UNL A   1      32.841  26.736  22.239  1.00  0.00     0.277 C 
ATOM     15  N   UNL A   1      31.588  27.042  21.795  1.00  0.00    -0.351 N 
ATOM     16  H   UNL A   1      31.436  26.911  20.832  1.00  0.00     0.163 HD
ATOM     17  O   UNL A   1      33.653  26.247  21.448  1.00  0.00    -0.268 OA
BRANCH  15  18
ATOM     18  C   UNL A   1      30.449  27.531  22.544  1.00  0.00     0.116 C 
BRANCH  18  19
ATOM     19  C   UNL A   1      30.150  28.997  22.249  1.00  0.00     0.018 C 
ATOM     20  C   UNL A   1      29.900  29.812  23.510  1.00  0.00     0.006 C 
ENDBRANCH  18  19
ENDBRANCH  15  18
ENDBRANCH  12  14
ENDBRANCH   9  12
ENDBRANCH   7   9
ENDBRANCH   5   7
ENDBRANCH   1   5
BRANCH   3  21
ATOM     21  C   UNL A   1      37.349  22.196  24.653  1.00  0.00     0.117 C 
BRANCH  21  22
ATOM     22  C   UNL A   1      37.832  20.750  24.716  1.00  0.00     0.042 C 
BRANCH  22  23
ATOM     23  C   UNL A   1      38.495  20.337  26.023  1.00  0.00     0.118 C 
BRANCH  23  24
ATOM     24  N   UNL A   1      39.636  19.456  25.841  1.00  0.00    -0.352 N 
ATOM     25  C   UNL A   1      40.980  19.690  25.994  1.00  0.00     0.251 C 
ATOM     26  H   UNL A   1      39.408  18.540  25.560  1.00  0.00     0.163 HD
ATOM     27  O   UNL A   1      41.786  18.843  25.624  1.00  0.00    -0.269 OA
BRANCH  25  28
ATOM     28  C   UNL A   1      41.469  20.961  26.573  1.00  0.00     0.039 A 
ATOM     29  C   UNL A   1      41.893  21.970  25.705  1.00  0.00     0.014 A 
ATOM     30  C   UNL A   1      41.545  21.155  27.954  1.00  0.00     0.014 A 
ATOM     31  C   UNL A   1      42.326  23.194  26.218  1.00  0.00     0.010 A 
ATOM     32  C   UNL A   1      41.896  22.404  28.463  1.00  0.00     0.010 A 
ATOM     33  C   UNL A   1      42.294  23.436  27.601  1.00  0.00    -0.014 A 
BRANCH  33  34
ATOM     34  C   UNL A   1      42.666  24.763  28.156  1.00  0.00     0.031 A 
ATOM     35  C   UNL A   1      41.619  25.820  28.378  1.00  0.00     0.074 A 
ATOM     36  C   UNL A   1      43.961  25.039  28.409  1.00  0.00     0.049 A 
ATOM     37  N   UNL A   1      41.762  27.045  28.818  1.00  0.00    -0.248 NA
ATOM     38  C   UNL A   1      40.231  25.463  28.039  1.00  0.00     0.031 C 
ATOM     39  C   UNL A   1      45.079  24.115  28.209  1.00  0.00     0.029 A 
ATOM     40  N   UNL A   1      44.555  26.179  28.890  1.00  0.00    -0.354 N 
ATOM     41  C   UNL A   1      40.492  27.609  28.789  1.00  0.00     0.074 A 
ATOM     42  C   UNL A   1      39.599  26.609  28.244  1.00  0.00     0.031 C 
ATOM     43  C   UNL A   1      46.217  24.710  28.601  1.00  0.00     0.029 A 
ATOM     44  C   UNL A   1      45.917  26.071  29.032  1.00  0.00     0.049 A 
ATOM     45  H   UNL A   1      44.053  26.996  29.111  1.00  0.00     0.167 HD
ATOM     46  C   UNL A   1      40.100  28.840  29.193  1.00  0.00     0.031 A 
ATOM     47  C   UNL A   1      46.827  26.968  29.458  1.00  0.00     0.031 A 
ATOM     48  C   UNL A   1      40.987  29.833  29.742  1.00  0.00     0.049 A 
ATOM     49  C   UNL A   1      46.370  28.340  29.871  1.00  0.00     0.074 A 
ATOM     50  C   UNL A   1      40.674  31.086  30.242  1.00  0.00     0.029 A 
ATOM     51  N   UNL A   1      42.361  29.690  29.854  1.00  0.00    -0.354 N 
ATOM     52  N   UNL A   1      45.154  28.830  29.910  1.00  0.00    -0.248 NA
ATOM     53  C   UNL A   1      47.413  29.279  30.307  1.00  0.00     0.031 C 
ATOM     54  C   UNL A   1      41.866  31.726  30.593  1.00  0.00     0.029 A 
ATOM     55  C   UNL A   1      42.915  30.847  30.379  1.00  0.00     0.049 A 
ATOM     56  H   UNL A   1      42.868  28.886  29.597  1.00  0.00     0.167 HD
ATOM     57  C   UNL A   1      45.284  30.121  30.406  1.00  0.00     0.074 A 
ATOM     58  C   UNL A   1      46.692  30.332  30.667  1.00  0.00     0.031 C 
ATOM     59  C   UNL A   1      44.319  31.047  30.630  1.00  0.00     0.031 A 
BRANCH  46  60
ATOM     60  C   UNL A   1      38.646  29.193  29.033  1.00  0.00    -0.014 A 
ATOM     61  C   UNL A   1      37.762  29.185  30.126  1.00  0.00     0.009 A 
ATOM     62  C   UNL A   1      38.157  29.574  27.773  1.00  0.00     0.009 A 
ATOM     63  C   UNL A   1      36.414  29.506  29.950  1.00  0.00     0.001 A 
ATOM     64  C   UNL A   1      36.816  29.926  27.606  1.00  0.00     0.001 A 
ATOM     65  C   UNL A   1      35.944  29.881  28.692  1.00  0.00     0.000 A 
ENDBRANCH  46  60
BRANCH  47  66
ATOM     66  C   UNL A   1      48.264  26.595  29.536  1.00  0.00    -0.014 A 
ATOM     67  C   UNL A   1      49.125  26.864  28.461  1.00  0.00     0.009 A 
ATOM     68  C   UNL A   1      48.783  25.964  30.677  1.00  0.00     0.009 A 
ATOM     69  C   UNL A   1      50.469  26.484  28.516  1.00  0.00     0.001 A 
ATOM     70  C   UNL A   1      50.132  25.613  30.743  1.00  0.00     0.001 A 
ATOM     71  C   UNL A   1      50.972  25.864  29.659  1.00  0.00     0.000 A 
ENDBRANCH  47  66
BRANCH  59  72
ATOM     72  C   UNL A   1      44.749  32.361  31.221  1.00  0.00    -0.014 A 
ATOM     73  C   UNL A   1      45.123  33.443  30.410  1.00  0.00     0.009 A 
ATOM     74  C   UNL A   1      44.741  32.529  32.616  1.00  0.00     0.009 A 
ATOM     75  C   UNL A   1      45.516  34.655  30.984  1.00  0.00     0.001 A 
ATOM     76  C   UNL A   1      45.101  33.750  33.186  1.00  0.00     0.001 A 
ATOM     77  C   UNL A   1      45.500  34.808  32.371  1.00  0.00     0.000 A 
ENDBRANCH  59  72
ENDBRANCH  33  34
ENDBRANCH  25  28
ENDBRANCH  23  24
ENDBRANCH  22  23
ENDBRANCH  21  22
ENDBRANCH   3  21
TORSDOF 16
ENDMDL
