MODEL 1
REMARK VINA RESULT:     -11.7      0.000      0.000
REMARK SMILES O=C(CNC(=O)[C@@H](CC1=c2ccccc2=NC1)N1C(=O)N=C2C=CC=C[C@H]2C1=O)NCCCNC(=O)c1ccc(-c2c3nc(c(-c4ccccc4)c4ccc([nH]4)c(-c4ccccc4)c4nc(c(-c5ccccc5)c5ccc2[nH]5)C=C4)C=C3)cc1
REMARK SMILES IDX 31 1 30 2 1 3 2 4 3 6 4 7 5 8 6 10 7 11 8 12 9 13 10 14
REMARK SMILES IDX 17 15 11 16 15 17 16 18 12 19 14 20 13 21 18 22 19 23 28 24
REMARK SMILES IDX 21 25 20 26 27 27 29 28 22 29 26 30 23 31 25 32 24 33 32 34
REMARK SMILES IDX 33 35 34 36 35 37 36 39 37 40 38 41 84 42 39 43 83 44 40 45
REMARK SMILES IDX 41 46 42 47 77 48 43 49 82 50 76 51 78 52 44 53 81 54 75 55
REMARK SMILES IDX 74 56 45 58 67 59 52 60 66 61 53 62 56 63 65 64 79 65 54 66
REMARK SMILES IDX 55 67 64 69 80 70 57 71 46 72 47 73 51 74 48 75 50 76 49 77
REMARK SMILES IDX 68 78 69 79 73 80 70 81 72 82 71 83 58 84 59 85 63 86 60 87
REMARK SMILES IDX 62 88 61 89
REMARK H PARENT 30 5 4 9 34 38 78 57 56 68
REMARK Flexibility Score: inf
ROOT
ATOM      1  C   UNL A   1      34.108  33.409  28.952  1.00  0.00     0.117 C 
ENDROOT
BRANCH   1   2
ATOM      2  N   UNL A   1      33.727  32.111  28.426  1.00  0.00    -0.355 N 
ATOM      3  O   UNL A   1      35.807  31.534  27.634  1.00  0.00    -0.273 OA
ATOM      4  C   UNL A   1      34.631  31.246  27.836  1.00  0.00     0.239 C 
ATOM      5  H   UNL A   1      32.785  31.834  28.492  1.00  0.00     0.163 HD
BRANCH   4   6
ATOM      6  C   UNL A   1      34.090  29.827  27.592  1.00  0.00     0.216 C 
BRANCH   6   7
ATOM      7  N   UNL A   1      32.708  29.825  27.115  1.00  0.00    -0.345 N 
ATOM      8  C   UNL A   1      32.050  28.620  26.977  1.00  0.00     0.244 C 
ATOM      9  H   UNL A   1      32.254  30.672  26.896  1.00  0.00     0.164 HD
ATOM     10  O   UNL A   1      31.781  27.954  27.975  1.00  0.00    -0.273 OA
BRANCH   8  11
ATOM     11  C   UNL A   1      31.401  28.384  25.601  1.00  0.00     0.188 C 
BRANCH  11  12
ATOM     12  C   UNL A   1      31.082  29.583  24.669  1.00  0.00     0.069 C 
BRANCH  12  13
ATOM     13  C   UNL A   1      30.003  29.680  23.626  1.00  0.00    -0.037 C 
ATOM     14  C   UNL A   1      29.406  30.828  23.290  1.00  0.00     0.001 A 
ATOM     15  C   UNL A   1      29.477  28.583  22.750  1.00  0.00     0.174 C 
ATOM     16  C   UNL A   1      29.423  32.161  23.806  1.00  0.00     0.010 A 
ATOM     17  C   UNL A   1      28.671  30.492  22.061  1.00  0.00     0.065 A 
ATOM     18  N   UNL A   1      28.683  29.253  21.686  1.00  0.00    -0.280 NA
ATOM     19  C   UNL A   1      28.776  33.124  23.128  1.00  0.00     0.001 A 
ATOM     20  C   UNL A   1      28.038  31.616  21.339  1.00  0.00     0.028 A 
ATOM     21  C   UNL A   1      28.114  32.850  21.864  1.00  0.00     0.002 A 
ENDBRANCH  12  13
ENDBRANCH  11  12
BRANCH  11  22
ATOM     22  N   UNL A   1      31.930  27.207  24.892  1.00  0.00    -0.249 N 
ATOM     23  C   UNL A   1      33.235  27.280  24.419  1.00  0.00     0.351 C 
ATOM     24  C   UNL A   1      31.136  26.084  24.761  1.00  0.00     0.244 C 
ATOM     25  N   UNL A   1      33.851  26.160  23.952  1.00  0.00    -0.197 NA
ATOM     26  O   UNL A   1      33.879  28.331  24.491  1.00  0.00    -0.246 OA
ATOM     27  C   UNL A   1      31.696  24.959  23.918  1.00  0.00     0.151 C 
ATOM     28  O   UNL A   1      29.998  26.024  25.226  1.00  0.00    -0.273 OA
ATOM     29  C   UNL A   1      33.193  25.066  23.767  1.00  0.00     0.062 C 
ATOM     30  C   UNL A   1      31.329  23.597  24.463  1.00  0.00    -0.007 C 
ATOM     31  C   UNL A   1      33.955  23.853  23.380  1.00  0.00     0.025 C 
ATOM     32  C   UNL A   1      32.151  22.541  24.354  1.00  0.00    -0.003 C 
ATOM     33  C   UNL A   1      33.425  22.664  23.685  1.00  0.00     0.002 C 
ENDBRANCH  11  22
ENDBRANCH   8  11
ENDBRANCH   6   7
ENDBRANCH   4   6
ENDBRANCH   1   2
BRANCH   1  34
ATOM     34  C   UNL A   1      33.164  34.537  28.552  1.00  0.00     0.042 C 
BRANCH  34  35
ATOM     35  C   UNL A   1      33.381  35.855  29.290  1.00  0.00     0.118 C 
BRANCH  35  36
ATOM     36  N   UNL A   1      32.487  36.063  30.418  1.00  0.00    -0.352 N 
ATOM     37  C   UNL A   1      32.618  35.702  31.740  1.00  0.00     0.251 C 
ATOM     38  H   UNL A   1      31.653  36.538  30.200  1.00  0.00     0.163 HD
ATOM     39  O   UNL A   1      31.680  35.895  32.509  1.00  0.00    -0.269 OA
BRANCH  37  40
ATOM     40  C   UNL A   1      33.848  35.046  32.249  1.00  0.00     0.039 A 
ATOM     41  C   UNL A   1      35.088  35.687  32.254  1.00  0.00     0.014 A 
ATOM     42  C   UNL A   1      33.742  33.750  32.768  1.00  0.00     0.014 A 
ATOM     43  C   UNL A   1      36.238  34.982  32.626  1.00  0.00     0.010 A 
ATOM     44  C   UNL A   1      34.886  33.067  33.194  1.00  0.00     0.010 A 
ATOM     45  C   UNL A   1      36.155  33.654  33.072  1.00  0.00    -0.014 A 
BRANCH  45  46
ATOM     46  C   UNL A   1      37.386  32.865  33.360  1.00  0.00     0.031 A 
ATOM     47  C   UNL A   1      38.142  33.082  34.648  1.00  0.00     0.074 A 
ATOM     48  C   UNL A   1      37.826  31.936  32.489  1.00  0.00     0.049 A 
ATOM     49  N   UNL A   1      39.249  32.515  35.062  1.00  0.00    -0.248 NA
ATOM     50  C   UNL A   1      37.584  34.061  35.596  1.00  0.00     0.031 C 
ATOM     51  C   UNL A   1      37.181  31.594  31.222  1.00  0.00     0.029 A 
ATOM     52  N   UNL A   1      38.917  31.102  32.545  1.00  0.00    -0.354 N 
ATOM     53  C   UNL A   1      39.526  33.077  36.302  1.00  0.00     0.074 A 
ATOM     54  C   UNL A   1      38.490  34.051  36.564  1.00  0.00     0.031 C 
ATOM     55  C   UNL A   1      37.870  30.603  30.634  1.00  0.00     0.029 A 
ATOM     56  C   UNL A   1      39.037  30.277  31.452  1.00  0.00     0.049 A 
ATOM     57  H   UNL A   1      39.553  31.096  33.296  1.00  0.00     0.167 HD
ATOM     58  C   UNL A   1      40.543  32.802  37.152  1.00  0.00     0.031 A 
ATOM     59  C   UNL A   1      39.985  29.375  31.127  1.00  0.00     0.031 A 
ATOM     60  C   UNL A   1      41.572  31.828  36.909  1.00  0.00     0.049 A 
ATOM     61  C   UNL A   1      41.150  29.147  32.049  1.00  0.00     0.074 A 
ATOM     62  C   UNL A   1      42.618  31.462  37.740  1.00  0.00     0.029 A 
ATOM     63  N   UNL A   1      41.692  31.071  35.755  1.00  0.00    -0.354 N 
ATOM     64  N   UNL A   1      41.384  29.675  33.225  1.00  0.00    -0.248 NA
ATOM     65  C   UNL A   1      42.186  28.205  31.598  1.00  0.00     0.031 C 
ATOM     66  C   UNL A   1      43.406  30.527  37.064  1.00  0.00     0.029 A 
ATOM     67  C   UNL A   1      42.816  30.265  35.839  1.00  0.00     0.049 A 
ATOM     68  H   UNL A   1      41.072  31.101  34.992  1.00  0.00     0.167 HD
ATOM     69  C   UNL A   1      42.583  29.121  33.659  1.00  0.00     0.074 A 
ATOM     70  C   UNL A   1      43.022  28.205  32.629  1.00  0.00     0.031 C 
ATOM     71  C   UNL A   1      43.255  29.358  34.811  1.00  0.00     0.031 A 
BRANCH  58  72
ATOM     72  C   UNL A   1      40.612  33.569  38.444  1.00  0.00    -0.014 A 
ATOM     73  C   UNL A   1      39.911  33.102  39.568  1.00  0.00     0.009 A 
ATOM     74  C   UNL A   1      41.279  34.801  38.521  1.00  0.00     0.009 A 
ATOM     75  C   UNL A   1      39.867  33.859  40.740  1.00  0.00     0.001 A 
ATOM     76  C   UNL A   1      41.254  35.543  39.704  1.00  0.00     0.001 A 
ATOM     77  C   UNL A   1      40.541  35.076  40.809  1.00  0.00     0.000 A 
ENDBRANCH  58  72
BRANCH  59  78
ATOM     78  C   UNL A   1      39.867  28.620  29.851  1.00  0.00    -0.014 A 
ATOM     79  C   UNL A   1      39.326  27.324  29.835  1.00  0.00     0.009 A 
ATOM     80  C   UNL A   1      40.329  29.177  28.650  1.00  0.00     0.009 A 
ATOM     81  C   UNL A   1      39.275  26.592  28.647  1.00  0.00     0.001 A 
ATOM     82  C   UNL A   1      40.250  28.453  27.457  1.00  0.00     0.001 A 
ATOM     83  C   UNL A   1      39.734  27.158  27.460  1.00  0.00     0.000 A 
ENDBRANCH  59  78
BRANCH  71  84
ATOM     84  C   UNL A   1      44.544  28.622  35.048  1.00  0.00    -0.014 A 
ATOM     85  C   UNL A   1      44.532  27.400  35.741  1.00  0.00     0.009 A 
ATOM     86  C   UNL A   1      45.775  29.194  34.699  1.00  0.00     0.009 A 
ATOM     87  C   UNL A   1      45.729  26.779  36.101  1.00  0.00     0.001 A 
ATOM     88  C   UNL A   1      46.971  28.557  35.039  1.00  0.00     0.001 A 
ATOM     89  C   UNL A   1      46.948  27.357  35.749  1.00  0.00     0.000 A 
ENDBRANCH  71  84
ENDBRANCH  45  46
ENDBRANCH  37  40
ENDBRANCH  35  36
ENDBRANCH  34  35
ENDBRANCH   1  34
TORSDOF 15
ENDMDL
MODEL 2
REMARK VINA RESULT:     -11.7      4.409      8.935
REMARK SMILES O=C(CNC(=O)[C@@H](CC1=c2ccccc2=NC1)N1C(=O)N=C2C=CC=C[C@H]2C1=O)NCCCNC(=O)c1ccc(-c2c3nc(c(-c4ccccc4)c4ccc([nH]4)c(-c4ccccc4)c4nc(c(-c5ccccc5)c5ccc2[nH]5)C=C4)C=C3)cc1
REMARK SMILES IDX 31 1 30 2 1 3 2 4 3 6 4 7 5 8 6 10 7 11 8 12 9 13 10 14
REMARK SMILES IDX 17 15 11 16 15 17 16 18 12 19 14 20 13 21 18 22 19 23 28 24
REMARK SMILES IDX 21 25 20 26 27 27 29 28 22 29 26 30 23 31 25 32 24 33 32 34
REMARK SMILES IDX 33 35 34 36 35 37 36 39 37 40 38 41 84 42 39 43 83 44 40 45
REMARK SMILES IDX 41 46 42 47 77 48 43 49 82 50 76 51 78 52 44 53 81 54 75 55
REMARK SMILES IDX 74 56 45 58 67 59 52 60 66 61 53 62 56 63 65 64 79 65 54 66
REMARK SMILES IDX 55 67 64 69 80 70 57 71 46 72 47 73 51 74 48 75 50 76 49 77
REMARK SMILES IDX 68 78 69 79 73 80 70 81 72 82 71 83 58 84 59 85 63 86 60 87
REMARK SMILES IDX 62 88 61 89
REMARK H PARENT 30 5 4 9 34 38 78 57 56 68
REMARK Flexibility Score: inf
ROOT
ATOM      1  C   UNL A   1      31.803  28.717  25.528  1.00  0.00     0.117 C 
ENDROOT
BRANCH   1   2
ATOM      2  N   UNL A   1      31.852  27.833  24.378  1.00  0.00    -0.355 N 
ATOM      3  O   UNL A   1      31.062  29.357  22.849  1.00  0.00    -0.273 OA
ATOM      4  C   UNL A   1      31.511  28.242  23.102  1.00  0.00     0.239 C 
ATOM      5  H   UNL A   1      32.141  26.902  24.512  1.00  0.00     0.163 HD
BRANCH   4   6
ATOM      6  C   UNL A   1      31.885  27.248  21.991  1.00  0.00     0.216 C 
BRANCH   6   7
ATOM      7  N   UNL A   1      32.894  26.280  22.418  1.00  0.00    -0.345 N 
ATOM      8  C   UNL A   1      32.741  24.955  22.064  1.00  0.00     0.244 C 
ATOM      9  H   UNL A   1      33.671  26.569  22.950  1.00  0.00     0.164 HD
ATOM     10  O   UNL A   1      32.825  24.625  20.882  1.00  0.00    -0.273 OA
BRANCH   8  11
ATOM     11  C   UNL A   1      32.826  23.953  23.231  1.00  0.00     0.188 C 
BRANCH  11  12
ATOM     12  C   UNL A   1      32.196  22.541  23.099  1.00  0.00     0.069 C 
BRANCH  12  13
ATOM     13  C   UNL A   1      32.351  21.371  24.031  1.00  0.00    -0.037 C 
ATOM     14  C   UNL A   1      32.407  20.102  23.614  1.00  0.00     0.001 A 
ATOM     15  C   UNL A   1      32.545  21.405  25.517  1.00  0.00     0.174 C 
ATOM     16  C   UNL A   1      32.210  19.443  22.362  1.00  0.00     0.010 A 
ATOM     17  C   UNL A   1      32.855  19.364  24.806  1.00  0.00     0.065 A 
ATOM     18  N   UNL A   1      32.974  20.035  25.906  1.00  0.00    -0.280 NA
ATOM     19  C   UNL A   1      32.473  18.128  22.275  1.00  0.00     0.001 A 
ATOM     20  C   UNL A   1      33.184  17.936  24.615  1.00  0.00     0.028 A 
ATOM     21  C   UNL A   1      33.002  17.384  23.404  1.00  0.00     0.002 A 
ENDBRANCH  12  13
ENDBRANCH  11  12
BRANCH  11  22
ATOM     22  N   UNL A   1      34.126  23.960  23.921  1.00  0.00    -0.249 N 
ATOM     23  C   UNL A   1      34.209  24.663  25.118  1.00  0.00     0.351 C 
ATOM     24  C   UNL A   1      35.181  23.249  23.382  1.00  0.00     0.244 C 
ATOM     25  N   UNL A   1      35.310  24.530  25.908  1.00  0.00    -0.197 NA
ATOM     26  O   UNL A   1      33.263  25.345  25.521  1.00  0.00    -0.246 OA
ATOM     27  C   UNL A   1      36.518  23.399  24.077  1.00  0.00     0.151 C 
ATOM     28  O   UNL A   1      35.075  22.597  22.344  1.00  0.00    -0.273 OA
ATOM     29  C   UNL A   1      36.360  23.908  25.488  1.00  0.00     0.062 C 
ATOM     30  C   UNL A   1      37.310  22.111  24.080  1.00  0.00    -0.007 C 
ATOM     31  C   UNL A   1      37.470  23.692  26.449  1.00  0.00     0.025 C 
ATOM     32  C   UNL A   1      38.122  21.777  25.095  1.00  0.00    -0.003 C 
ATOM     33  C   UNL A   1      38.287  22.656  26.229  1.00  0.00     0.002 C 
ENDBRANCH  11  22
ENDBRANCH   8  11
ENDBRANCH   6   7
ENDBRANCH   4   6
ENDBRANCH   1   2
BRANCH   1  34
ATOM     34  C   UNL A   1      33.112  29.449  25.798  1.00  0.00     0.042 C 
BRANCH  34  35
ATOM     35  C   UNL A   1      33.665  29.286  27.211  1.00  0.00     0.118 C 
BRANCH  35  36
ATOM     36  N   UNL A   1      33.717  30.520  27.979  1.00  0.00    -0.352 N 
ATOM     37  C   UNL A   1      34.727  31.052  28.747  1.00  0.00     0.251 C 
ATOM     38  H   UNL A   1      32.896  31.063  27.943  1.00  0.00     0.163 HD
ATOM     39  O   UNL A   1      34.513  32.073  29.395  1.00  0.00    -0.269 OA
BRANCH  37  40
ATOM     40  C   UNL A   1      36.056  30.398  28.846  1.00  0.00     0.039 A 
ATOM     41  C   UNL A   1      36.461  29.700  29.986  1.00  0.00     0.014 A 
ATOM     42  C   UNL A   1      36.911  30.461  27.740  1.00  0.00     0.014 A 
ATOM     43  C   UNL A   1      37.769  29.210  30.078  1.00  0.00     0.010 A 
ATOM     44  C   UNL A   1      38.200  29.920  27.813  1.00  0.00     0.010 A 
ATOM     45  C   UNL A   1      38.663  29.340  29.004  1.00  0.00    -0.014 A 
BRANCH  45  46
ATOM     46  C   UNL A   1      40.087  28.923  29.139  1.00  0.00     0.031 A 
ATOM     47  C   UNL A   1      40.516  27.540  28.714  1.00  0.00     0.074 A 
ATOM     48  C   UNL A   1      41.011  29.777  29.620  1.00  0.00     0.049 A 
ATOM     49  N   UNL A   1      41.700  26.984  28.784  1.00  0.00    -0.248 NA
ATOM     50  C   UNL A   1      39.481  26.667  28.134  1.00  0.00     0.031 C 
ATOM     51  C   UNL A   1      40.751  31.154  30.040  1.00  0.00     0.029 A 
ATOM     52  N   UNL A   1      42.360  29.613  29.828  1.00  0.00    -0.354 N 
ATOM     53  C   UNL A   1      41.551  25.699  28.275  1.00  0.00     0.074 A 
ATOM     54  C   UNL A   1      40.155  25.544  27.926  1.00  0.00     0.031 C 
ATOM     55  C   UNL A   1      41.906  31.719  30.426  1.00  0.00     0.029 A 
ATOM     56  C   UNL A   1      42.979  30.730  30.338  1.00  0.00     0.049 A 
ATOM     57  H   UNL A   1      42.837  28.775  29.631  1.00  0.00     0.167 HD
ATOM     58  C   UNL A   1      42.489  24.738  28.102  1.00  0.00     0.031 A 
ATOM     59  C   UNL A   1      44.257  30.936  30.713  1.00  0.00     0.031 A 
ATOM     60  C   UNL A   1      43.880  24.885  28.433  1.00  0.00     0.049 A 
ATOM     61  C   UNL A   1      45.263  29.826  30.589  1.00  0.00     0.074 A 
ATOM     62  C   UNL A   1      44.904  23.969  28.252  1.00  0.00     0.029 A 
ATOM     63  N   UNL A   1      44.444  26.008  29.014  1.00  0.00    -0.354 N 
ATOM     64  N   UNL A   1      45.105  28.625  30.089  1.00  0.00    -0.248 NA
ATOM     65  C   UNL A   1      46.621  30.095  31.088  1.00  0.00     0.031 C 
ATOM     66  C   UNL A   1      46.076  24.516  28.780  1.00  0.00     0.029 A 
ATOM     67  C   UNL A   1      45.795  25.794  29.232  1.00  0.00     0.049 A 
ATOM     68  H   UNL A   1      43.958  26.833  29.240  1.00  0.00     0.167 HD
ATOM     69  C   UNL A   1      46.343  28.003  30.200  1.00  0.00     0.074 A 
ATOM     70  C   UNL A   1      47.246  28.960  30.800  1.00  0.00     0.031 C 
ATOM     71  C   UNL A   1      46.692  26.746  29.835  1.00  0.00     0.031 A 
BRANCH  58  72
ATOM     72  C   UNL A   1      42.052  23.419  27.528  1.00  0.00    -0.014 A 
ATOM     73  C   UNL A   1      41.503  22.440  28.372  1.00  0.00     0.009 A 
ATOM     74  C   UNL A   1      42.276  23.106  26.179  1.00  0.00     0.009 A 
ATOM     75  C   UNL A   1      41.200  21.170  27.880  1.00  0.00     0.001 A 
ATOM     76  C   UNL A   1      41.947  21.842  25.684  1.00  0.00     0.001 A 
ATOM     77  C   UNL A   1      41.418  20.873  26.536  1.00  0.00     0.000 A 
ENDBRANCH  58  72
BRANCH  59  78
ATOM     78  C   UNL A   1      44.653  32.264  31.254  1.00  0.00    -0.014 A 
ATOM     79  C   UNL A   1      44.557  32.531  32.630  1.00  0.00     0.009 A 
ATOM     80  C   UNL A   1      45.092  33.281  30.395  1.00  0.00     0.009 A 
ATOM     81  C   UNL A   1      44.867  33.798  33.130  1.00  0.00     0.001 A 
ATOM     82  C   UNL A   1      45.429  34.539  30.901  1.00  0.00     0.001 A 
ATOM     83  C   UNL A   1      45.305  34.799  32.265  1.00  0.00     0.000 A 
ENDBRANCH  59  78
BRANCH  71  84
ATOM     84  C   UNL A   1      48.111  26.306  30.061  1.00  0.00    -0.014 A 
ATOM     85  C   UNL A   1      48.470  25.700  31.276  1.00  0.00     0.009 A 
ATOM     86  C   UNL A   1      49.114  26.603  29.127  1.00  0.00     0.009 A 
ATOM     87  C   UNL A   1      49.808  25.423  31.562  1.00  0.00     0.001 A 
ATOM     88  C   UNL A   1      50.449  26.301  29.406  1.00  0.00     0.001 A 
ATOM     89  C   UNL A   1      50.796  25.722  30.626  1.00  0.00     0.000 A 
ENDBRANCH  71  84
ENDBRANCH  45  46
ENDBRANCH  37  40
ENDBRANCH  35  36
ENDBRANCH  34  35
ENDBRANCH   1  34
TORSDOF 15
ENDMDL
MODEL 3
REMARK VINA RESULT:     -11.7      4.259      7.415
REMARK SMILES O=C(CNC(=O)[C@@H](CC1=c2ccccc2=NC1)N1C(=O)N=C2C=CC=C[C@H]2C1=O)NCCCNC(=O)c1ccc(-c2c3nc(c(-c4ccccc4)c4ccc([nH]4)c(-c4ccccc4)c4nc(c(-c5ccccc5)c5ccc2[nH]5)C=C4)C=C3)cc1
REMARK SMILES IDX 31 1 30 2 1 3 2 4 3 6 4 7 5 8 6 10 7 11 8 12 9 13 10 14
REMARK SMILES IDX 17 15 11 16 15 17 16 18 12 19 14 20 13 21 18 22 19 23 28 24
REMARK SMILES IDX 21 25 20 26 27 27 29 28 22 29 26 30 23 31 25 32 24 33 32 34
REMARK SMILES IDX 33 35 34 36 35 37 36 39 37 40 38 41 84 42 39 43 83 44 40 45
REMARK SMILES IDX 41 46 42 47 77 48 43 49 82 50 76 51 78 52 44 53 81 54 75 55
REMARK SMILES IDX 74 56 45 58 67 59 52 60 66 61 53 62 56 63 65 64 79 65 54 66
REMARK SMILES IDX 55 67 64 69 80 70 57 71 46 72 47 73 51 74 48 75 50 76 49 77
REMARK SMILES IDX 68 78 69 79 73 80 70 81 72 82 71 83 58 84 59 85 63 86 60 87
REMARK SMILES IDX 62 88 61 89
REMARK H PARENT 30 5 4 9 34 38 78 57 56 68
REMARK Flexibility Score: inf
ROOT
ATOM      1  C   UNL A   1      32.193  29.394  25.040  1.00  0.00     0.117 C 
ENDROOT
BRANCH   1   2
ATOM      2  N   UNL A   1      32.198  28.300  24.087  1.00  0.00    -0.355 N 
ATOM      3  O   UNL A   1      30.544  29.137  22.727  1.00  0.00    -0.273 OA
ATOM      4  C   UNL A   1      31.388  28.278  22.965  1.00  0.00     0.239 C 
ATOM      5  H   UNL A   1      32.804  27.540  24.245  1.00  0.00     0.163 HD
BRANCH   4   6
ATOM      6  C   UNL A   1      31.733  27.176  21.950  1.00  0.00     0.216 C 
BRANCH   6   7
ATOM      7  N   UNL A   1      32.778  26.274  22.432  1.00  0.00    -0.345 N 
ATOM      8  C   UNL A   1      32.716  24.937  22.091  1.00  0.00     0.244 C 
ATOM      9  H   UNL A   1      33.514  26.615  22.990  1.00  0.00     0.164 HD
ATOM     10  O   UNL A   1      32.866  24.599  20.919  1.00  0.00    -0.273 OA
BRANCH   8  11
ATOM     11  C   UNL A   1      32.811  23.957  23.275  1.00  0.00     0.188 C 
BRANCH  11  12
ATOM     12  C   UNL A   1      32.164  22.550  23.182  1.00  0.00     0.069 C 
BRANCH  12  13
ATOM     13  C   UNL A   1      32.365  21.378  24.103  1.00  0.00    -0.037 C 
ATOM     14  C   UNL A   1      32.432  20.112  23.679  1.00  0.00     0.001 A 
ATOM     15  C   UNL A   1      32.599  21.409  25.584  1.00  0.00     0.174 C 
ATOM     16  C   UNL A   1      32.213  19.455  22.429  1.00  0.00     0.010 A 
ATOM     17  C   UNL A   1      32.926  19.378  24.854  1.00  0.00     0.065 A 
ATOM     18  N   UNL A   1      33.063  20.046  25.954  1.00  0.00    -0.280 NA
ATOM     19  C   UNL A   1      32.496  18.146  22.329  1.00  0.00     0.001 A 
ATOM     20  C   UNL A   1      33.274  17.956  24.648  1.00  0.00     0.028 A 
ATOM     21  C   UNL A   1      33.069  17.406  23.439  1.00  0.00     0.002 A 
ENDBRANCH  12  13
ENDBRANCH  11  12
BRANCH  11  22
ATOM     22  N   UNL A   1      34.123  23.963  23.943  1.00  0.00    -0.249 N 
ATOM     23  C   UNL A   1      34.236  24.691  25.122  1.00  0.00     0.351 C 
ATOM     24  C   UNL A   1      35.159  23.228  23.402  1.00  0.00     0.244 C 
ATOM     25  N   UNL A   1      35.348  24.563  25.896  1.00  0.00    -0.197 NA
ATOM     26  O   UNL A   1      33.305  25.395  25.525  1.00  0.00    -0.246 OA
ATOM     27  C   UNL A   1      36.510  23.376  24.070  1.00  0.00     0.151 C 
ATOM     28  O   UNL A   1      35.027  22.554  22.381  1.00  0.00    -0.273 OA
ATOM     29  C   UNL A   1      36.383  23.918  25.472  1.00  0.00     0.062 C 
ATOM     30  C   UNL A   1      37.286  22.078  24.089  1.00  0.00    -0.007 C 
ATOM     31  C   UNL A   1      37.507  23.709  26.418  1.00  0.00     0.025 C 
ATOM     32  C   UNL A   1      38.112  21.757  25.097  1.00  0.00    -0.003 C 
ATOM     33  C   UNL A   1      38.307  22.659  26.207  1.00  0.00     0.002 C 
ENDBRANCH  11  22
ENDBRANCH   8  11
ENDBRANCH   6   7
ENDBRANCH   4   6
ENDBRANCH   1   2
BRANCH   1  34
ATOM     34  C   UNL A   1      33.524  29.593  25.756  1.00  0.00     0.042 C 
BRANCH  34  35
ATOM     35  C   UNL A   1      33.474  29.428  27.272  1.00  0.00     0.118 C 
BRANCH  35  36
ATOM     36  N   UNL A   1      33.572  30.676  28.013  1.00  0.00    -0.352 N 
ATOM     37  C   UNL A   1      34.608  31.196  28.753  1.00  0.00     0.251 C 
ATOM     38  H   UNL A   1      32.764  31.238  27.979  1.00  0.00     0.163 HD
ATOM     39  O   UNL A   1      34.432  32.236  29.384  1.00  0.00    -0.269 OA
BRANCH  37  40
ATOM     40  C   UNL A   1      35.921  30.509  28.844  1.00  0.00     0.039 A 
ATOM     41  C   UNL A   1      36.304  29.778  29.971  1.00  0.00     0.014 A 
ATOM     42  C   UNL A   1      36.783  30.577  27.743  1.00  0.00     0.014 A 
ATOM     43  C   UNL A   1      37.599  29.256  30.058  1.00  0.00     0.010 A 
ATOM     44  C   UNL A   1      38.058  30.004  27.811  1.00  0.00     0.010 A 
ATOM     45  C   UNL A   1      38.502  29.388  28.991  1.00  0.00    -0.014 A 
BRANCH  45  46
ATOM     46  C   UNL A   1      39.915  28.935  29.124  1.00  0.00     0.031 A 
ATOM     47  C   UNL A   1      40.955  29.856  29.714  1.00  0.00     0.074 A 
ATOM     48  C   UNL A   1      40.278  27.695  28.741  1.00  0.00     0.049 A 
ATOM     49  N   UNL A   1      42.239  29.653  29.881  1.00  0.00    -0.248 NA
ATOM     50  C   UNL A   1      40.495  31.176  30.178  1.00  0.00     0.031 C 
ATOM     51  C   UNL A   1      39.377  26.686  28.185  1.00  0.00     0.029 A 
ATOM     52  N   UNL A   1      41.502  27.071  28.772  1.00  0.00    -0.354 N 
ATOM     53  C   UNL A   1      42.739  30.818  30.450  1.00  0.00     0.074 A 
ATOM     54  C   UNL A   1      41.629  31.737  30.575  1.00  0.00     0.031 C 
ATOM     55  C   UNL A   1      40.072  25.560  27.955  1.00  0.00     0.029 A 
ATOM     56  C   UNL A   1      41.477  25.784  28.291  1.00  0.00     0.049 A 
ATOM     57  H   UNL A   1      42.321  27.506  29.105  1.00  0.00     0.167 HD
ATOM     58  C   UNL A   1      44.004  31.096  30.845  1.00  0.00     0.031 A 
ATOM     59  C   UNL A   1      42.469  24.886  28.118  1.00  0.00     0.031 A 
ATOM     60  C   UNL A   1      45.113  30.188  30.739  1.00  0.00     0.049 A 
ATOM     61  C   UNL A   1      43.880  25.249  28.486  1.00  0.00     0.074 A 
ATOM     62  C   UNL A   1      46.421  30.381  31.153  1.00  0.00     0.029 A 
ATOM     63  N   UNL A   1      45.052  28.923  30.178  1.00  0.00    -0.354 N 
ATOM     64  N   UNL A   1      44.329  26.349  29.040  1.00  0.00    -0.248 NA
ATOM     65  C   UNL A   1      44.923  24.252  28.200  1.00  0.00     0.031 C 
ATOM     66  C   UNL A   1      47.164  29.256  30.787  1.00  0.00     0.029 A 
ATOM     67  C   UNL A   1      46.308  28.339  30.202  1.00  0.00     0.049 A 
ATOM     68  H   UNL A   1      44.239  28.503  29.816  1.00  0.00     0.167 HD
ATOM     69  C   UNL A   1      45.700  26.170  29.180  1.00  0.00     0.074 A 
ATOM     70  C   UNL A   1      46.010  24.853  28.669  1.00  0.00     0.031 C 
ATOM     71  C   UNL A   1      46.616  27.030  29.688  1.00  0.00     0.031 A 
BRANCH  58  72
ATOM     72  C   UNL A   1      44.278  32.453  31.434  1.00  0.00    -0.014 A 
ATOM     73  C   UNL A   1      44.118  32.657  32.814  1.00  0.00     0.009 A 
ATOM     74  C   UNL A   1      44.592  33.548  30.616  1.00  0.00     0.009 A 
ATOM     75  C   UNL A   1      44.254  33.933  33.362  1.00  0.00     0.001 A 
ATOM     76  C   UNL A   1      44.754  34.820  31.171  1.00  0.00     0.001 A 
ATOM     77  C   UNL A   1      44.575  35.013  32.542  1.00  0.00     0.000 A 
ENDBRANCH  58  72
BRANCH  59  78
ATOM     78  C   UNL A   1      42.150  23.548  27.554  1.00  0.00    -0.014 A 
ATOM     79  C   UNL A   1      41.693  22.512  28.386  1.00  0.00     0.009 A 
ATOM     80  C   UNL A   1      42.338  23.288  26.189  1.00  0.00     0.009 A 
ATOM     81  C   UNL A   1      41.457  21.238  27.868  1.00  0.00     0.001 A 
ATOM     82  C   UNL A   1      42.072  22.019  25.667  1.00  0.00     0.001 A 
ATOM     83  C   UNL A   1      41.644  20.993  26.509  1.00  0.00     0.000 A 
ENDBRANCH  59  78
BRANCH  71  84
ATOM     84  C   UNL A   1      48.054  26.594  29.732  1.00  0.00    -0.014 A 
ATOM     85  C   UNL A   1      48.897  26.856  28.640  1.00  0.00     0.009 A 
ATOM     86  C   UNL A   1      48.539  25.819  30.795  1.00  0.00     0.009 A 
ATOM     87  C   UNL A   1      50.189  26.329  28.600  1.00  0.00     0.001 A 
ATOM     88  C   UNL A   1      49.842  25.316  30.764  1.00  0.00     0.001 A 
ATOM     89  C   UNL A   1      50.661  25.561  29.662  1.00  0.00     0.000 A 
ENDBRANCH  71  84
ENDBRANCH  45  46
ENDBRANCH  37  40
ENDBRANCH  35  36
ENDBRANCH  34  35
ENDBRANCH   1  34
TORSDOF 15
ENDMDL
