MODEL 1
REMARK VINA RESULT:     -11.5      0.000      0.000
REMARK SMILES CC(C)CCOc1ccc(/C=C2\SC(=S)N(CC(=O)NCCCNC(=O)c3ccc(-c4c5nc(c(-c6ccccc6)c6ccc([nH]6)c(-c6ccccc6)c6nc(c(-c7ccccc7)c7ccc4[nH]7)C=C6)C=C5)cc3)C2=O)cc1
REMARK SMILES IDX 18 1 19 2 20 3 17 5 16 6 11 7 12 8 13 9 75 10 14 11 76 12
REMARK SMILES IDX 15 13 10 14 7 15 8 16 78 17 9 18 77 19 6 20 5 21 4 22 2 23
REMARK SMILES IDX 1 24 3 25 21 26 22 27 23 28 24 29 25 30 26 32 27 33 28 34
REMARK SMILES IDX 74 35 29 36 73 37 30 38 31 39 32 40 67 41 33 42 72 43 66 44
REMARK SMILES IDX 68 45 34 46 71 47 65 48 64 49 35 51 57 52 42 53 56 54 43 55
REMARK SMILES IDX 46 56 55 57 69 58 44 59 45 60 54 62 70 63 47 64 36 65 37 66
REMARK SMILES IDX 41 67 38 68 40 69 39 70 58 71 59 72 63 73 60 74 62 75 61 76
REMARK SMILES IDX 48 77 49 78 53 79 50 80 52 81 51 82
REMARK H PARENT 20 4 24 31 68 50 46 61
REMARK Flexibility Score: inf
ROOT
ATOM      1  C   UNL A   1      30.517  29.537  23.582  1.00  0.00     0.240 C 
ATOM      2  O   UNL A   1      29.386  30.021  23.683  1.00  0.00    -0.273 OA
ATOM      3  N   UNL A   1      31.407  29.850  24.567  1.00  0.00    -0.354 N 
ATOM      4  H   UNL A   1      31.147  30.619  25.124  1.00  0.00     0.163 HD
ENDROOT
BRANCH   1   5
ATOM      5  C   UNL A   1      30.823  28.498  22.498  1.00  0.00     0.227 C 
BRANCH   5   6
ATOM      6  N   UNL A   1      30.992  27.148  23.021  1.00  0.00    -0.283 N 
ATOM      7  C   UNL A   1      33.202  24.281  23.251  1.00  0.00     0.029 C 
ATOM      8  C   UNL A   1      32.190  25.152  23.405  1.00  0.00     0.081 C 
ATOM      9  S   UNL A   1      30.744  24.969  24.321  1.00  0.00    -0.054 SA
ATOM     10  C   UNL A   1      32.184  26.490  22.753  1.00  0.00     0.266 C 
ATOM     11  C   UNL A   1      30.024  26.420  23.669  1.00  0.00     0.148 C 
ATOM     12  O   UNL A   1      33.106  26.920  22.073  1.00  0.00    -0.268 OA
ATOM     13  S   UNL A   1      28.404  26.762  23.868  1.00  0.00    -0.052 S 
BRANCH   7  14
ATOM     14  C   UNL A   1      33.307  22.915  23.801  1.00  0.00    -0.024 A 
ATOM     15  C   UNL A   1      33.643  20.280  24.699  1.00  0.00     0.119 A 
ATOM     16  C   UNL A   1      34.443  21.290  25.223  1.00  0.00     0.047 A 
ATOM     17  C   UNL A   1      32.615  20.583  23.825  1.00  0.00     0.047 A 
ATOM     18  C   UNL A   1      34.266  22.611  24.780  1.00  0.00     0.012 A 
ATOM     19  C   UNL A   1      32.516  21.868  23.312  1.00  0.00     0.012 A 
BRANCH  15  20
ATOM     20  O   UNL A   1      33.853  18.967  25.006  1.00  0.00    -0.494 OA
BRANCH  20  21
ATOM     21  C   UNL A   1      32.615  18.288  25.312  1.00  0.00     0.230 C 
BRANCH  21  22
ATOM     22  C   UNL A   1      32.693  16.747  25.252  1.00  0.00     0.044 C 
BRANCH  22  23
ATOM     23  C   UNL A   1      33.806  16.168  24.344  1.00  0.00    -0.014 C 
ATOM     24  C   UNL A   1      33.988  16.958  23.049  1.00  0.00     0.007 C 
ATOM     25  C   UNL A   1      35.133  16.083  25.104  1.00  0.00     0.007 C 
ENDBRANCH  22  23
ENDBRANCH  21  22
ENDBRANCH  20  21
ENDBRANCH  15  20
ENDBRANCH   7  14
ENDBRANCH   5   6
ENDBRANCH   1   5
BRANCH   3  26
ATOM     26  C   UNL A   1      32.672  29.243  24.931  1.00  0.00     0.117 C 
BRANCH  26  27
ATOM     27  C   UNL A   1      32.550  28.294  26.117  1.00  0.00     0.042 C 
BRANCH  27  28
ATOM     28  C   UNL A   1      33.526  28.590  27.249  1.00  0.00     0.118 C 
BRANCH  28  29
ATOM     29  N   UNL A   1      33.542  29.997  27.621  1.00  0.00    -0.352 N 
ATOM     30  C   UNL A   1      34.513  30.743  28.241  1.00  0.00     0.251 C 
ATOM     31  H   UNL A   1      32.724  30.495  27.392  1.00  0.00     0.163 HD
ATOM     32  O   UNL A   1      34.248  31.878  28.625  1.00  0.00    -0.269 OA
BRANCH  30  33
ATOM     33  C   UNL A   1      35.866  30.191  28.463  1.00  0.00     0.039 A 
ATOM     34  C   UNL A   1      36.783  30.218  27.408  1.00  0.00     0.014 A 
ATOM     35  C   UNL A   1      36.227  29.615  29.683  1.00  0.00     0.014 A 
ATOM     36  C   UNL A   1      38.075  29.724  27.595  1.00  0.00     0.010 A 
ATOM     37  C   UNL A   1      37.539  29.199  29.896  1.00  0.00     0.010 A 
ATOM     38  C   UNL A   1      38.475  29.243  28.853  1.00  0.00    -0.014 A 
BRANCH  38  39
ATOM     39  C   UNL A   1      39.868  28.785  29.093  1.00  0.00     0.031 A 
ATOM     40  C   UNL A   1      40.881  29.715  29.703  1.00  0.00     0.074 A 
ATOM     41  C   UNL A   1      40.236  27.548  28.707  1.00  0.00     0.049 A 
ATOM     42  N   UNL A   1      42.152  29.510  29.940  1.00  0.00    -0.248 NA
ATOM     43  C   UNL A   1      40.411  31.059  30.074  1.00  0.00     0.031 C 
ATOM     44  C   UNL A   1      39.360  26.561  28.071  1.00  0.00     0.029 A 
ATOM     45  N   UNL A   1      41.449  26.910  28.790  1.00  0.00    -0.354 N 
ATOM     46  C   UNL A   1      42.634  30.700  30.472  1.00  0.00     0.074 A 
ATOM     47  C   UNL A   1      41.534  31.638  30.473  1.00  0.00     0.031 C 
ATOM     48  C   UNL A   1      40.055  25.434  27.850  1.00  0.00     0.029 A 
ATOM     49  C   UNL A   1      41.433  25.632  28.284  1.00  0.00     0.049 A 
ATOM     50  H   UNL A   1      42.252  27.327  29.176  1.00  0.00     0.167 HD
ATOM     51  C   UNL A   1      43.876  30.982  30.936  1.00  0.00     0.031 A 
ATOM     52  C   UNL A   1      42.421  24.723  28.173  1.00  0.00     0.031 A 
ATOM     53  C   UNL A   1      44.970  30.047  30.937  1.00  0.00     0.049 A 
ATOM     54  C   UNL A   1      43.797  25.071  28.670  1.00  0.00     0.074 A 
ATOM     55  C   UNL A   1      46.251  30.221  31.430  1.00  0.00     0.029 A 
ATOM     56  N   UNL A   1      44.913  28.765  30.414  1.00  0.00    -0.354 N 
ATOM     57  N   UNL A   1      44.219  26.178  29.231  1.00  0.00    -0.248 NA
ATOM     58  C   UNL A   1      44.830  24.035  28.528  1.00  0.00     0.031 C 
ATOM     59  C   UNL A   1      46.988  29.066  31.151  1.00  0.00     0.029 A 
ATOM     60  C   UNL A   1      46.145  28.146  30.547  1.00  0.00     0.049 A 
ATOM     61  H   UNL A   1      44.115  28.354  30.009  1.00  0.00     0.167 HD
ATOM     62  C   UNL A   1      45.555  25.961  29.540  1.00  0.00     0.074 A 
ATOM     63  C   UNL A   1      45.868  24.610  29.117  1.00  0.00     0.031 C 
ATOM     64  C   UNL A   1      46.444  26.802  30.123  1.00  0.00     0.031 A 
BRANCH  51  65
ATOM     65  C   UNL A   1      44.118  32.367  31.472  1.00  0.00    -0.014 A 
ATOM     66  C   UNL A   1      44.672  33.376  30.667  1.00  0.00     0.009 A 
ATOM     67  C   UNL A   1      43.750  32.681  32.790  1.00  0.00     0.009 A 
ATOM     68  C   UNL A   1      44.890  34.655  31.183  1.00  0.00     0.001 A 
ATOM     69  C   UNL A   1      43.939  33.969  33.293  1.00  0.00     0.001 A 
ATOM     70  C   UNL A   1      44.519  34.952  32.493  1.00  0.00     0.000 A 
ENDBRANCH  51  65
BRANCH  52  71
ATOM     71  C   UNL A   1      42.143  23.390  27.576  1.00  0.00    -0.014 A 
ATOM     72  C   UNL A   1      42.478  23.123  26.239  1.00  0.00     0.009 A 
ATOM     73  C   UNL A   1      41.534  22.379  28.336  1.00  0.00     0.009 A 
ATOM     74  C   UNL A   1      42.179  21.884  25.667  1.00  0.00     0.001 A 
ATOM     75  C   UNL A   1      41.267  21.129  27.772  1.00  0.00     0.001 A 
ATOM     76  C   UNL A   1      41.578  20.887  26.434  1.00  0.00     0.000 A 
ENDBRANCH  52  71
BRANCH  64  77
ATOM     77  C   UNL A   1      47.828  26.273  30.380  1.00  0.00    -0.014 A 
ATOM     78  C   UNL A   1      48.818  26.288  29.386  1.00  0.00     0.009 A 
ATOM     79  C   UNL A   1      48.154  25.783  31.655  1.00  0.00     0.009 A 
ATOM     80  C   UNL A   1      50.094  25.787  29.652  1.00  0.00     0.001 A 
ATOM     81  C   UNL A   1      49.439  25.315  31.929  1.00  0.00     0.001 A 
ATOM     82  C   UNL A   1      50.405  25.307  30.924  1.00  0.00     0.000 A 
ENDBRANCH  64  77
ENDBRANCH  38  39
ENDBRANCH  30  33
ENDBRANCH  28  29
ENDBRANCH  27  28
ENDBRANCH  26  27
ENDBRANCH   3  26
TORSDOF 16
ENDMDL
MODEL 2
REMARK VINA RESULT:     -11.3      0.345      5.818
REMARK SMILES CC(C)CCOc1ccc(/C=C2\SC(=S)N(CC(=O)NCCCNC(=O)c3ccc(-c4c5nc(c(-c6ccccc6)c6ccc([nH]6)c(-c6ccccc6)c6nc(c(-c7ccccc7)c7ccc4[nH]7)C=C6)C=C5)cc3)C2=O)cc1
REMARK SMILES IDX 18 1 19 2 20 3 17 5 16 6 11 7 12 8 13 9 75 10 14 11 76 12
REMARK SMILES IDX 15 13 10 14 7 15 8 16 78 17 9 18 77 19 6 20 5 21 4 22 2 23
REMARK SMILES IDX 1 24 3 25 21 26 22 27 23 28 24 29 25 30 26 32 27 33 28 34
REMARK SMILES IDX 74 35 29 36 73 37 30 38 31 39 32 40 67 41 33 42 72 43 66 44
REMARK SMILES IDX 68 45 34 46 71 47 65 48 64 49 35 51 57 52 42 53 56 54 43 55
REMARK SMILES IDX 46 56 55 57 69 58 44 59 45 60 54 62 70 63 47 64 36 65 37 66
REMARK SMILES IDX 41 67 38 68 40 69 39 70 58 71 59 72 63 73 60 74 62 75 61 76
REMARK SMILES IDX 48 77 49 78 53 79 50 80 52 81 51 82
REMARK H PARENT 20 4 24 31 68 50 46 61
REMARK Flexibility Score: inf
ROOT
ATOM      1  C   UNL A   1      30.540  29.885  23.783  1.00  0.00     0.240 C 
ATOM      2  O   UNL A   1      29.441  30.429  23.927  1.00  0.00    -0.273 OA
ATOM      3  N   UNL A   1      31.460  30.096  24.768  1.00  0.00    -0.354 N 
ATOM      4  H   UNL A   1      31.253  30.848  25.368  1.00  0.00     0.163 HD
ENDROOT
BRANCH   1   5
ATOM      5  C   UNL A   1      30.770  28.888  22.643  1.00  0.00     0.227 C 
BRANCH   5   6
ATOM      6  N   UNL A   1      30.943  27.515  23.101  1.00  0.00    -0.283 N 
ATOM      7  C   UNL A   1      33.195  24.677  23.280  1.00  0.00     0.029 C 
ATOM      8  C   UNL A   1      32.160  25.522  23.433  1.00  0.00     0.081 C 
ATOM      9  S   UNL A   1      30.679  25.265  24.272  1.00  0.00    -0.054 SA
ATOM     10  C   UNL A   1      32.157  26.893  22.853  1.00  0.00     0.266 C 
ATOM     11  C   UNL A   1      29.960  26.737  23.666  1.00  0.00     0.148 C 
ATOM     12  O   UNL A   1      33.100  27.373  22.239  1.00  0.00    -0.268 OA
ATOM     13  S   UNL A   1      28.327  27.040  23.809  1.00  0.00    -0.052 S 
BRANCH   7  14
ATOM     14  C   UNL A   1      33.301  23.285  23.761  1.00  0.00    -0.024 A 
ATOM     15  C   UNL A   1      33.660  20.618  24.546  1.00  0.00     0.119 A 
ATOM     16  C   UNL A   1      34.330  21.629  25.227  1.00  0.00     0.047 A 
ATOM     17  C   UNL A   1      32.739  20.927  23.561  1.00  0.00     0.047 A 
ATOM     18  C   UNL A   1      34.140  22.966  24.840  1.00  0.00     0.012 A 
ATOM     19  C   UNL A   1      32.639  22.236  23.113  1.00  0.00     0.012 A 
BRANCH  15  20
ATOM     20  O   UNL A   1      33.899  19.299  24.804  1.00  0.00    -0.494 OA
BRANCH  20  21
ATOM     21  C   UNL A   1      32.703  18.503  24.661  1.00  0.00     0.230 C 
BRANCH  21  22
ATOM     22  C   UNL A   1      32.811  17.069  25.222  1.00  0.00     0.044 C 
BRANCH  22  23
ATOM     23  C   UNL A   1      33.795  16.132  24.479  1.00  0.00    -0.014 C 
ATOM     24  C   UNL A   1      34.087  16.588  23.052  1.00  0.00     0.007 C 
ATOM     25  C   UNL A   1      35.100  15.986  25.267  1.00  0.00     0.007 C 
ENDBRANCH  22  23
ENDBRANCH  21  22
ENDBRANCH  20  21
ENDBRANCH  15  20
ENDBRANCH   7  14
ENDBRANCH   5   6
ENDBRANCH   1   5
BRANCH   3  26
ATOM     26  C   UNL A   1      32.692  29.398  25.081  1.00  0.00     0.117 C 
BRANCH  26  27
ATOM     27  C   UNL A   1      32.554  28.470  26.282  1.00  0.00     0.042 C 
BRANCH  27  28
ATOM     28  C   UNL A   1      33.560  28.745  27.394  1.00  0.00     0.118 C 
BRANCH  28  29
ATOM     29  N   UNL A   1      33.566  30.139  27.812  1.00  0.00    -0.352 N 
ATOM     30  C   UNL A   1      34.543  30.879  28.430  1.00  0.00     0.251 C 
ATOM     31  H   UNL A   1      32.734  30.631  27.623  1.00  0.00     0.163 HD
ATOM     32  O   UNL A   1      34.271  31.996  28.859  1.00  0.00    -0.269 OA
BRANCH  30  33
ATOM     33  C   UNL A   1      35.910  30.341  28.596  1.00  0.00     0.039 A 
ATOM     34  C   UNL A   1      36.824  30.499  27.550  1.00  0.00     0.014 A 
ATOM     35  C   UNL A   1      36.287  29.653  29.752  1.00  0.00     0.014 A 
ATOM     36  C   UNL A   1      38.128  30.020  27.687  1.00  0.00     0.010 A 
ATOM     37  C   UNL A   1      37.609  29.251  29.922  1.00  0.00     0.010 A 
ATOM     38  C   UNL A   1      38.542  29.424  28.889  1.00  0.00    -0.014 A 
BRANCH  38  39
ATOM     39  C   UNL A   1      39.946  28.980  29.083  1.00  0.00     0.031 A 
ATOM     40  C   UNL A   1      40.370  27.595  28.672  1.00  0.00     0.074 A 
ATOM     41  C   UNL A   1      40.827  29.803  29.682  1.00  0.00     0.049 A 
ATOM     42  N   UNL A   1      41.535  27.014  28.808  1.00  0.00    -0.248 NA
ATOM     43  C   UNL A   1      39.345  26.744  28.047  1.00  0.00     0.031 C 
ATOM     44  C   UNL A   1      40.534  31.156  30.161  1.00  0.00     0.029 A 
ATOM     45  N   UNL A   1      42.151  29.620  29.997  1.00  0.00    -0.354 N 
ATOM     46  C   UNL A   1      41.379  25.730  28.303  1.00  0.00     0.074 A 
ATOM     47  C   UNL A   1      39.994  25.598  27.906  1.00  0.00     0.031 C 
ATOM     48  C   UNL A   1      41.651  31.691  30.679  1.00  0.00     0.029 A 
ATOM     49  C   UNL A   1      42.725  30.706  30.613  1.00  0.00     0.049 A 
ATOM     50  H   UNL A   1      42.642  28.790  29.800  1.00  0.00     0.167 HD
ATOM     51  C   UNL A   1      42.308  24.753  28.162  1.00  0.00     0.031 A 
ATOM     52  C   UNL A   1      43.974  30.887  31.082  1.00  0.00     0.031 A 
ATOM     53  C   UNL A   1      43.685  24.885  28.555  1.00  0.00     0.049 A 
ATOM     54  C   UNL A   1      44.979  29.777  30.940  1.00  0.00     0.074 A 
ATOM     55  C   UNL A   1      44.715  23.972  28.409  1.00  0.00     0.029 A 
ATOM     56  N   UNL A   1      44.226  26.000  29.177  1.00  0.00    -0.354 N 
ATOM     57  N   UNL A   1      44.832  28.592  30.398  1.00  0.00    -0.248 NA
ATOM     58  C   UNL A   1      46.327  30.036  31.464  1.00  0.00     0.031 C 
ATOM     59  C   UNL A   1      45.863  24.509  28.998  1.00  0.00     0.029 A 
ATOM     60  C   UNL A   1      45.567  25.786  29.447  1.00  0.00     0.049 A 
ATOM     61  H   UNL A   1      43.730  26.823  29.394  1.00  0.00     0.167 HD
ATOM     62  C   UNL A   1      46.074  27.978  30.485  1.00  0.00     0.074 A 
ATOM     63  C   UNL A   1      46.966  28.929  31.117  1.00  0.00     0.031 C 
ATOM     64  C   UNL A   1      46.445  26.740  30.077  1.00  0.00     0.031 A 
BRANCH  51  65
ATOM     65  C   UNL A   1      41.856  23.447  27.567  1.00  0.00    -0.014 A 
ATOM     66  C   UNL A   1      42.027  23.167  26.201  1.00  0.00     0.009 A 
ATOM     67  C   UNL A   1      41.285  22.464  28.392  1.00  0.00     0.009 A 
ATOM     68  C   UNL A   1      41.598  21.950  25.668  1.00  0.00     0.001 A 
ATOM     69  C   UNL A   1      40.888  21.236  27.862  1.00  0.00     0.001 A 
ATOM     70  C   UNL A   1      41.034  20.984  26.499  1.00  0.00     0.000 A 
ENDBRANCH  51  65
BRANCH  52  71
ATOM     71  C   UNL A   1      44.352  32.175  31.721  1.00  0.00    -0.014 A 
ATOM     72  C   UNL A   1      44.068  32.410  33.076  1.00  0.00     0.009 A 
ATOM     73  C   UNL A   1      44.990  33.181  30.979  1.00  0.00     0.009 A 
ATOM     74  C   UNL A   1      44.386  33.637  33.664  1.00  0.00     0.001 A 
ATOM     75  C   UNL A   1      45.337  34.395  31.578  1.00  0.00     0.001 A 
ATOM     76  C   UNL A   1      45.024  34.626  32.916  1.00  0.00     0.000 A 
ENDBRANCH  52  71
BRANCH  64  77
ATOM     77  C   UNL A   1      47.888  26.357  30.259  1.00  0.00    -0.014 A 
ATOM     78  C   UNL A   1      48.351  25.782  31.452  1.00  0.00     0.009 A 
ATOM     79  C   UNL A   1      48.791  26.545  29.200  1.00  0.00     0.009 A 
ATOM     80  C   UNL A   1      49.697  25.439  31.594  1.00  0.00     0.001 A 
ATOM     81  C   UNL A   1      50.128  26.170  29.332  1.00  0.00     0.001 A 
ATOM     82  C   UNL A   1      50.583  25.627  30.533  1.00  0.00     0.000 A 
ENDBRANCH  64  77
ENDBRANCH  38  39
ENDBRANCH  30  33
ENDBRANCH  28  29
ENDBRANCH  27  28
ENDBRANCH  26  27
ENDBRANCH   3  26
TORSDOF 16
ENDMDL
MODEL 3
REMARK VINA RESULT:     -11.3      3.201      8.381
REMARK SMILES CC(C)CCOc1ccc(/C=C2\SC(=S)N(CC(=O)NCCCNC(=O)c3ccc(-c4c5nc(c(-c6ccccc6)c6ccc([nH]6)c(-c6ccccc6)c6nc(c(-c7ccccc7)c7ccc4[nH]7)C=C6)C=C5)cc3)C2=O)cc1
REMARK SMILES IDX 18 1 19 2 20 3 17 5 16 6 11 7 12 8 13 9 75 10 14 11 76 12
REMARK SMILES IDX 15 13 10 14 7 15 8 16 78 17 9 18 77 19 6 20 5 21 4 22 2 23
REMARK SMILES IDX 1 24 3 25 21 26 22 27 23 28 24 29 25 30 26 32 27 33 28 34
REMARK SMILES IDX 74 35 29 36 73 37 30 38 31 39 32 40 67 41 33 42 72 43 66 44
REMARK SMILES IDX 68 45 34 46 71 47 65 48 64 49 35 51 57 52 42 53 56 54 43 55
REMARK SMILES IDX 46 56 55 57 69 58 44 59 45 60 54 62 70 63 47 64 36 65 37 66
REMARK SMILES IDX 41 67 38 68 40 69 39 70 58 71 59 72 63 73 60 74 62 75 61 76
REMARK SMILES IDX 48 77 49 78 53 79 50 80 52 81 51 82
REMARK H PARENT 20 4 24 31 68 50 46 61
REMARK Flexibility Score: inf
ROOT
ATOM      1  C   UNL A   1      32.578  22.669  23.586  1.00  0.00     0.240 C 
ATOM      2  O   UNL A   1      32.894  22.408  22.422  1.00  0.00    -0.273 OA
ATOM      3  N   UNL A   1      33.302  22.059  24.568  1.00  0.00    -0.354 N 
ATOM      4  H   UNL A   1      33.837  21.291  24.265  1.00  0.00     0.163 HD
ENDROOT
BRANCH   1   5
ATOM      5  C   UNL A   1      31.544  23.759  23.884  1.00  0.00     0.227 C 
BRANCH   5   6
ATOM      6  N   UNL A   1      32.140  25.053  24.193  1.00  0.00    -0.283 N 
ATOM      7  C   UNL A   1      32.703  27.556  26.758  1.00  0.00     0.029 C 
ATOM      8  C   UNL A   1      32.723  26.838  25.621  1.00  0.00     0.081 C 
ATOM      9  S   UNL A   1      33.508  27.204  24.133  1.00  0.00    -0.054 SA
ATOM     10  C   UNL A   1      32.014  25.537  25.487  1.00  0.00     0.266 C 
ATOM     11  C   UNL A   1      32.728  25.895  23.280  1.00  0.00     0.148 C 
ATOM     12  O   UNL A   1      31.404  24.997  26.401  1.00  0.00    -0.268 OA
ATOM     13  S   UNL A   1      32.759  25.790  21.616  1.00  0.00    -0.052 S 
BRANCH   7  14
ATOM     14  C   UNL A   1      33.321  28.874  27.003  1.00  0.00    -0.024 A 
ATOM     15  C   UNL A   1      34.452  31.352  27.667  1.00  0.00     0.119 A 
ATOM     16  C   UNL A   1      35.253  30.215  27.649  1.00  0.00     0.047 A 
ATOM     17  C   UNL A   1      33.133  31.287  27.254  1.00  0.00     0.047 A 
ATOM     18  C   UNL A   1      34.688  28.976  27.305  1.00  0.00     0.012 A 
ATOM     19  C   UNL A   1      32.556  30.046  27.021  1.00  0.00     0.012 A 
BRANCH  15  20
ATOM     20  O   UNL A   1      34.924  32.555  28.106  1.00  0.00    -0.494 OA
BRANCH  20  21
ATOM     21  C   UNL A   1      33.849  33.477  28.391  1.00  0.00     0.230 C 
BRANCH  21  22
ATOM     22  C   UNL A   1      34.261  34.714  29.218  1.00  0.00     0.044 C 
BRANCH  22  23
ATOM     23  C   UNL A   1      33.180  35.812  29.364  1.00  0.00    -0.014 C 
ATOM     24  C   UNL A   1      32.806  36.090  30.818  1.00  0.00     0.007 C 
ATOM     25  C   UNL A   1      33.627  37.104  28.674  1.00  0.00     0.007 C 
ENDBRANCH  22  23
ENDBRANCH  21  22
ENDBRANCH  20  21
ENDBRANCH  15  20
ENDBRANCH   7  14
ENDBRANCH   5   6
ENDBRANCH   1   5
BRANCH   3  26
ATOM     26  C   UNL A   1      33.416  22.352  25.984  1.00  0.00     0.117 C 
BRANCH  26  27
ATOM     27  C   UNL A   1      34.781  21.984  26.553  1.00  0.00     0.042 C 
BRANCH  27  28
ATOM     28  C   UNL A   1      35.939  22.239  25.595  1.00  0.00     0.118 C 
BRANCH  28  29
ATOM     29  N   UNL A   1      36.912  21.156  25.593  1.00  0.00    -0.352 N 
ATOM     30  C   UNL A   1      38.273  21.182  25.768  1.00  0.00     0.251 C 
ATOM     31  H   UNL A   1      36.533  20.260  25.441  1.00  0.00     0.163 HD
ATOM     32  O   UNL A   1      38.928  20.168  25.546  1.00  0.00    -0.269 OA
BRANCH  30  33
ATOM     33  C   UNL A   1      38.957  22.418  26.204  1.00  0.00     0.039 A 
ATOM     34  C   UNL A   1      40.074  22.307  27.038  1.00  0.00     0.014 A 
ATOM     35  C   UNL A   1      38.490  23.680  25.831  1.00  0.00     0.014 A 
ATOM     36  C   UNL A   1      40.754  23.456  27.448  1.00  0.00     0.010 A 
ATOM     37  C   UNL A   1      39.216  24.819  26.170  1.00  0.00     0.010 A 
ATOM     38  C   UNL A   1      40.351  24.720  26.987  1.00  0.00    -0.014 A 
BRANCH  38  39
ATOM     39  C   UNL A   1      41.108  25.946  27.349  1.00  0.00     0.031 A 
ATOM     40  C   UNL A   1      40.484  26.995  28.229  1.00  0.00     0.074 A 
ATOM     41  C   UNL A   1      42.338  26.142  26.837  1.00  0.00     0.049 A 
ATOM     42  N   UNL A   1      40.969  28.150  28.609  1.00  0.00    -0.248 NA
ATOM     43  C   UNL A   1      39.126  26.722  28.728  1.00  0.00     0.031 C 
ATOM     44  C   UNL A   1      43.043  25.220  25.943  1.00  0.00     0.029 A 
ATOM     45  N   UNL A   1      43.215  27.188  26.993  1.00  0.00    -0.354 N 
ATOM     46  C   UNL A   1      39.975  28.744  29.375  1.00  0.00     0.074 A 
ATOM     47  C   UNL A   1      38.840  27.849  29.363  1.00  0.00     0.031 C 
ATOM     48  C   UNL A   1      44.253  25.726  25.655  1.00  0.00     0.029 A 
ATOM     49  C   UNL A   1      44.393  27.025  26.303  1.00  0.00     0.049 A 
ATOM     50  H   UNL A   1      43.019  27.978  27.546  1.00  0.00     0.167 HD
ATOM     51  C   UNL A   1      40.009  29.921  30.047  1.00  0.00     0.031 A 
ATOM     52  C   UNL A   1      45.463  27.835  26.196  1.00  0.00     0.031 A 
ATOM     53  C   UNL A   1      41.139  30.811  30.060  1.00  0.00     0.049 A 
ATOM     54  C   UNL A   1      45.465  29.148  26.928  1.00  0.00     0.074 A 
ATOM     55  C   UNL A   1      41.290  32.002  30.749  1.00  0.00     0.029 A 
ATOM     56  N   UNL A   1      42.311  30.611  29.348  1.00  0.00    -0.354 N 
ATOM     57  N   UNL A   1      44.542  29.665  27.703  1.00  0.00    -0.248 NA
ATOM     58  C   UNL A   1      46.663  29.985  26.778  1.00  0.00     0.031 C 
ATOM     59  C   UNL A   1      42.529  32.553  30.406  1.00  0.00     0.029 A 
ATOM     60  C   UNL A   1      43.179  31.670  29.558  1.00  0.00     0.049 A 
ATOM     61  H   UNL A   1      42.500  29.830  28.777  1.00  0.00     0.167 HD
ATOM     62  C   UNL A   1      45.062  30.869  28.160  1.00  0.00     0.074 A 
ATOM     63  C   UNL A   1      46.386  30.997  27.588  1.00  0.00     0.031 C 
ATOM     64  C   UNL A   1      44.495  31.786  28.982  1.00  0.00     0.031 A 
BRANCH  51  65
ATOM     65  C   UNL A   1      38.776  30.318  30.813  1.00  0.00    -0.014 A 
ATOM     66  C   UNL A   1      37.776  31.113  30.229  1.00  0.00     0.009 A 
ATOM     67  C   UNL A   1      38.593  29.858  32.127  1.00  0.00     0.009 A 
ATOM     68  C   UNL A   1      36.641  31.472  30.958  1.00  0.00     0.001 A 
ATOM     69  C   UNL A   1      37.441  30.192  32.841  1.00  0.00     0.001 A 
ATOM     70  C   UNL A   1      36.472  31.007  32.261  1.00  0.00     0.000 A 
ENDBRANCH  51  65
BRANCH  52  71
ATOM     71  C   UNL A   1      46.630  27.423  25.372  1.00  0.00    -0.014 A 
ATOM     72  C   UNL A   1      47.609  26.566  25.900  1.00  0.00     0.009 A 
ATOM     73  C   UNL A   1      46.779  27.892  24.058  1.00  0.00     0.009 A 
ATOM     74  C   UNL A   1      48.727  26.214  25.140  1.00  0.00     0.001 A 
ATOM     75  C   UNL A   1      47.881  27.512  23.288  1.00  0.00     0.001 A 
ATOM     76  C   UNL A   1      48.860  26.683  23.834  1.00  0.00     0.000 A 
ENDBRANCH  52  71
BRANCH  64  77
ATOM     77  C   UNL A   1      45.321  32.988  29.349  1.00  0.00    -0.014 A 
ATOM     78  C   UNL A   1      45.197  34.203  28.660  1.00  0.00     0.009 A 
ATOM     79  C   UNL A   1      46.214  32.907  30.429  1.00  0.00     0.009 A 
ATOM     80  C   UNL A   1      45.980  35.302  29.020  1.00  0.00     0.001 A 
ATOM     81  C   UNL A   1      46.970  34.017  30.810  1.00  0.00     0.001 A 
ATOM     82  C   UNL A   1      46.860  35.210  30.098  1.00  0.00     0.000 A 
ENDBRANCH  64  77
ENDBRANCH  38  39
ENDBRANCH  30  33
ENDBRANCH  28  29
ENDBRANCH  27  28
ENDBRANCH  26  27
ENDBRANCH   3  26
TORSDOF 16
ENDMDL
