MODEL 1
REMARK VINA RESULT:     -12.6      0.000      0.000
REMARK SMILES NS(=O)(=O)c1ccc(-n2nc(C(F)(F)F)cc2-c2ccc(C(=O)NCCCNC(=O)c3ccc(-c4c5nc(c(-c6ccccc6)c6ccc([nH]6)c(-c6ccccc6)c6nc(c(-c7ccccc7)c7ccc4[nH]7)C=C6)C=C5)cc3)cc2)cc1
REMARK SMILES IDX 25 1 24 2 22 3 23 4 21 6 18 7 19 8 80 9 20 10 79 11 17 12
REMARK SMILES IDX 9 13 10 14 11 15 16 16 8 17 5 18 6 19 82 20 7 21 81 22 2 23
REMARK SMILES IDX 3 24 4 25 1 26 12 29 13 30 14 31 15 32 26 33 27 34 28 35
REMARK SMILES IDX 29 36 30 38 31 39 32 40 78 41 33 42 77 43 34 44 35 45 36 46
REMARK SMILES IDX 71 47 37 48 76 49 70 50 72 51 38 52 75 53 69 54 68 55 39 57
REMARK SMILES IDX 61 58 46 59 60 60 47 61 50 62 59 63 73 64 48 65 49 66 58 68
REMARK SMILES IDX 74 69 51 70 40 71 41 72 45 73 42 74 44 75 43 76 62 77 63 78
REMARK SMILES IDX 67 79 64 80 66 81 65 82 52 83 53 84 57 85 54 86 56 87 55 88
REMARK H PARENT 24 5 1 27 1 28 28 37 72 56 50 67
REMARK Flexibility Score: inf
ROOT
ATOM      1  C   UNL A   1      38.013  20.668  25.063  1.00  0.00     0.118 C 
ENDROOT
BRANCH   1   2
ATOM      2  N   UNL A   1      38.693  21.905  25.422  1.00  0.00    -0.352 N 
ATOM      3  C   UNL A   1      38.240  23.201  25.506  1.00  0.00     0.251 C 
ATOM      4  O   UNL A   1      39.015  24.061  25.923  1.00  0.00    -0.269 OA
ATOM      5  H   UNL A   1      39.646  21.794  25.642  1.00  0.00     0.163 HD
BRANCH   3   6
ATOM      6  C   UNL A   1      36.846  23.587  25.153  1.00  0.00     0.039 A 
ATOM      7  C   UNL A   1      34.249  24.329  24.379  1.00  0.00     0.000 A 
ATOM      8  C   UNL A   1      35.126  23.766  23.444  1.00  0.00     0.011 A 
ATOM      9  C   UNL A   1      34.663  24.504  25.694  1.00  0.00     0.011 A 
ATOM     10  C   UNL A   1      36.422  23.404  23.829  1.00  0.00     0.014 A 
ATOM     11  C   UNL A   1      35.930  24.089  26.079  1.00  0.00     0.014 A 
BRANCH   7  12
ATOM     12  C   UNL A   1      32.880  24.669  24.039  1.00  0.00     0.075 A 
ATOM     13  N   UNL A   1      31.905  23.757  23.665  1.00  0.00    -0.233 N 
ATOM     14  N   UNL A   1      30.771  24.380  23.253  1.00  0.00    -0.163 NA
ATOM     15  C   UNL A   1      30.942  25.673  23.604  1.00  0.00     0.167 A 
ATOM     16  C   UNL A   1      32.264  25.901  24.052  1.00  0.00     0.064 A 
BRANCH  13  17
ATOM     17  C   UNL A   1      31.978  22.340  23.716  1.00  0.00     0.065 A 
ATOM     18  C   UNL A   1      32.274  19.570  23.816  1.00  0.00     0.082 A 
ATOM     19  C   UNL A   1      32.195  20.293  25.006  1.00  0.00     0.024 A 
ATOM     20  C   UNL A   1      32.178  20.220  22.579  1.00  0.00     0.024 A 
ATOM     21  C   UNL A   1      32.054  21.679  24.954  1.00  0.00     0.030 A 
ATOM     22  C   UNL A   1      32.000  21.606  22.527  1.00  0.00     0.030 A 
BRANCH  18  23
ATOM     23  S   UNL A   1      32.525  17.820  23.836  1.00  0.00     0.238 S 
ATOM     24  O   UNL A   1      32.408  17.331  22.475  1.00  0.00    -0.207 OA
ATOM     25  O   UNL A   1      31.787  17.266  24.934  1.00  0.00    -0.207 OA
BRANCH  23  26
ATOM     26  N   UNL A   1      34.151  17.626  24.226  1.00  0.00    -0.225 NA
ATOM     27  H   UNL A   1      34.449  18.389  24.832  1.00  0.00     0.137 HD
ATOM     28  H   UNL A   1      34.709  17.631  23.373  1.00  0.00     0.137 HD
ENDBRANCH  23  26
ENDBRANCH  18  23
ENDBRANCH  13  17
BRANCH  15  29
ATOM     29  C   UNL A   1      29.853  26.710  23.529  1.00  0.00     0.435 C 
ATOM     30  F   UNL A   1      29.896  27.447  22.390  1.00  0.00    -0.164 F 
ATOM     31  F   UNL A   1      28.615  26.155  23.608  1.00  0.00    -0.164 F 
ATOM     32  F   UNL A   1      29.937  27.593  24.565  1.00  0.00    -0.164 F 
ENDBRANCH  15  29
ENDBRANCH   7  12
ENDBRANCH   3   6
ENDBRANCH   1   2
BRANCH   1  33
ATOM     33  C   UNL A   1      38.867  19.429  25.375  1.00  0.00     0.042 C 
BRANCH  33  34
ATOM     34  C   UNL A   1      40.039  19.739  26.280  1.00  0.00     0.118 C 
BRANCH  34  35
ATOM     35  N   UNL A   1      41.290  19.179  25.772  1.00  0.00    -0.352 N 
ATOM     36  C   UNL A   1      42.518  19.795  25.651  1.00  0.00     0.251 C 
ATOM     37  H   UNL A   1      41.250  18.240  25.478  1.00  0.00     0.163 HD
ATOM     38  O   UNL A   1      43.377  19.344  24.903  1.00  0.00    -0.269 OA
BRANCH  36  39
ATOM     39  C   UNL A   1      42.771  21.016  26.431  1.00  0.00     0.039 A 
ATOM     40  C   UNL A   1      43.335  22.151  25.843  1.00  0.00     0.014 A 
ATOM     41  C   UNL A   1      42.373  21.024  27.763  1.00  0.00     0.014 A 
ATOM     42  C   UNL A   1      43.411  23.321  26.591  1.00  0.00     0.010 A 
ATOM     43  C   UNL A   1      42.266  22.217  28.424  1.00  0.00     0.010 A 
ATOM     44  C   UNL A   1      42.851  23.353  27.878  1.00  0.00    -0.014 A 
BRANCH  44  45
ATOM     45  C   UNL A   1      42.796  24.587  28.647  1.00  0.00     0.031 A 
ATOM     46  C   UNL A   1      41.671  25.501  28.313  1.00  0.00     0.074 A 
ATOM     47  C   UNL A   1      43.561  24.802  29.738  1.00  0.00     0.049 A 
ATOM     48  N   UNL A   1      41.748  26.683  27.799  1.00  0.00    -0.248 NA
ATOM     49  C   UNL A   1      40.295  25.008  28.477  1.00  0.00     0.031 C 
ATOM     50  C   UNL A   1      44.489  23.883  30.410  1.00  0.00     0.029 A 
ATOM     51  N   UNL A   1      43.558  25.875  30.570  1.00  0.00    -0.354 N 
ATOM     52  C   UNL A   1      40.444  27.163  27.731  1.00  0.00     0.074 A 
ATOM     53  C   UNL A   1      39.585  26.040  28.015  1.00  0.00     0.031 C 
ATOM     54  C   UNL A   1      44.742  24.330  31.659  1.00  0.00     0.029 A 
ATOM     55  C   UNL A   1      44.155  25.649  31.801  1.00  0.00     0.049 A 
ATOM     56  H   UNL A   1      43.165  26.743  30.320  1.00  0.00     0.167 HD
ATOM     57  C   UNL A   1      40.176  28.497  27.666  1.00  0.00     0.031 A 
ATOM     58  C   UNL A   1      44.134  26.478  32.872  1.00  0.00     0.031 A 
ATOM     59  C   UNL A   1      41.351  29.266  27.343  1.00  0.00     0.049 A 
ATOM     60  C   UNL A   1      43.805  27.832  32.369  1.00  0.00     0.074 A 
ATOM     61  C   UNL A   1      42.244  29.269  26.290  1.00  0.00     0.029 A 
ATOM     62  N   UNL A   1      41.992  29.911  28.376  1.00  0.00    -0.354 N 
ATOM     63  N   UNL A   1      44.602  28.523  31.606  1.00  0.00    -0.248 NA
ATOM     64  C   UNL A   1      42.406  28.227  32.330  1.00  0.00     0.031 C 
ATOM     65  C   UNL A   1      43.524  29.430  26.901  1.00  0.00     0.029 A 
ATOM     66  C   UNL A   1      43.324  29.599  28.274  1.00  0.00     0.049 A 
ATOM     67  H   UNL A   1      41.575  30.485  29.059  1.00  0.00     0.167 HD
ATOM     68  C   UNL A   1      43.767  29.119  30.673  1.00  0.00     0.074 A 
ATOM     69  C   UNL A   1      42.422  28.990  31.232  1.00  0.00     0.031 C 
ATOM     70  C   UNL A   1      44.201  29.400  29.407  1.00  0.00     0.031 A 
BRANCH  57  71
ATOM     71  C   UNL A   1      38.947  29.133  28.262  1.00  0.00    -0.014 A 
ATOM     72  C   UNL A   1      38.658  28.917  29.622  1.00  0.00     0.009 A 
ATOM     73  C   UNL A   1      37.929  29.709  27.480  1.00  0.00     0.009 A 
ATOM     74  C   UNL A   1      37.394  29.209  30.150  1.00  0.00     0.001 A 
ATOM     75  C   UNL A   1      36.681  30.041  28.015  1.00  0.00     0.001 A 
ATOM     76  C   UNL A   1      36.405  29.767  29.345  1.00  0.00     0.000 A 
ENDBRANCH  57  71
BRANCH  58  77
ATOM     77  C   UNL A   1      44.133  26.137  34.309  1.00  0.00    -0.014 A 
ATOM     78  C   UNL A   1      43.018  25.514  34.892  1.00  0.00     0.009 A 
ATOM     79  C   UNL A   1      45.327  26.171  35.053  1.00  0.00     0.009 A 
ATOM     80  C   UNL A   1      43.109  24.904  36.151  1.00  0.00     0.001 A 
ATOM     81  C   UNL A   1      45.417  25.567  36.312  1.00  0.00     0.001 A 
ATOM     82  C   UNL A   1      44.312  24.917  36.852  1.00  0.00     0.000 A 
ENDBRANCH  58  77
BRANCH  70  83
ATOM     83  C   UNL A   1      45.671  29.223  29.098  1.00  0.00    -0.014 A 
ATOM     84  C   UNL A   1      46.613  30.263  29.211  1.00  0.00     0.009 A 
ATOM     85  C   UNL A   1      46.148  27.928  28.847  1.00  0.00     0.009 A 
ATOM     86  C   UNL A   1      47.980  30.020  29.047  1.00  0.00     0.001 A 
ATOM     87  C   UNL A   1      47.516  27.680  28.705  1.00  0.00     0.001 A 
ATOM     88  C   UNL A   1      48.431  28.726  28.798  1.00  0.00     0.000 A 
ENDBRANCH  70  83
ENDBRANCH  44  45
ENDBRANCH  36  39
ENDBRANCH  34  35
ENDBRANCH  33  34
ENDBRANCH   1  33
TORSDOF 15
ENDMDL
MODEL 2
REMARK VINA RESULT:     -12.5      3.243      7.975
REMARK SMILES NS(=O)(=O)c1ccc(-n2nc(C(F)(F)F)cc2-c2ccc(C(=O)NCCCNC(=O)c3ccc(-c4c5nc(c(-c6ccccc6)c6ccc([nH]6)c(-c6ccccc6)c6nc(c(-c7ccccc7)c7ccc4[nH]7)C=C6)C=C5)cc3)cc2)cc1
REMARK SMILES IDX 25 1 24 2 22 3 23 4 21 6 18 7 19 8 80 9 20 10 79 11 17 12
REMARK SMILES IDX 9 13 10 14 11 15 16 16 8 17 5 18 6 19 82 20 7 21 81 22 2 23
REMARK SMILES IDX 3 24 4 25 1 26 12 29 13 30 14 31 15 32 26 33 27 34 28 35
REMARK SMILES IDX 29 36 30 38 31 39 32 40 78 41 33 42 77 43 34 44 35 45 36 46
REMARK SMILES IDX 71 47 37 48 76 49 70 50 72 51 38 52 75 53 69 54 68 55 39 57
REMARK SMILES IDX 61 58 46 59 60 60 47 61 50 62 59 63 73 64 48 65 49 66 58 68
REMARK SMILES IDX 74 69 51 70 40 71 41 72 45 73 42 74 44 75 43 76 62 77 63 78
REMARK SMILES IDX 67 79 64 80 66 81 65 82 52 83 53 84 57 85 54 86 56 87 55 88
REMARK H PARENT 24 5 1 27 1 28 28 37 72 56 50 67
REMARK Flexibility Score: inf
ROOT
ATOM      1  C   UNL A   1      35.491  32.514  28.035  1.00  0.00     0.118 C 
ENDROOT
BRANCH   1   2
ATOM      2  N   UNL A   1      35.933  31.154  28.307  1.00  0.00    -0.352 N 
ATOM      3  C   UNL A   1      35.470  29.940  27.857  1.00  0.00     0.251 C 
ATOM      4  O   UNL A   1      36.089  28.926  28.179  1.00  0.00    -0.269 OA
ATOM      5  H   UNL A   1      36.699  31.092  28.923  1.00  0.00     0.163 HD
BRANCH   3   6
ATOM      6  C   UNL A   1      34.282  29.815  26.968  1.00  0.00     0.039 A 
ATOM      7  C   UNL A   1      32.109  29.563  25.204  1.00  0.00     0.000 A 
ATOM      8  C   UNL A   1      33.327  28.936  24.913  1.00  0.00     0.011 A 
ATOM      9  C   UNL A   1      31.976  30.297  26.376  1.00  0.00     0.011 A 
ATOM     10  C   UNL A   1      34.410  29.069  25.788  1.00  0.00     0.014 A 
ATOM     11  C   UNL A   1      33.038  30.375  27.266  1.00  0.00     0.014 A 
BRANCH   7  12
ATOM     12  C   UNL A   1      30.944  29.408  24.353  1.00  0.00     0.075 A 
ATOM     13  N   UNL A   1      30.360  28.196  24.020  1.00  0.00    -0.233 N 
ATOM     14  N   UNL A   1      29.387  28.351  23.085  1.00  0.00    -0.163 NA
ATOM     15  C   UNL A   1      29.188  29.685  23.015  1.00  0.00     0.167 A 
ATOM     16  C   UNL A   1      30.173  30.380  23.755  1.00  0.00     0.064 A 
BRANCH  13  17
ATOM     17  C   UNL A   1      30.646  26.917  24.565  1.00  0.00     0.065 A 
ATOM     18  C   UNL A   1      31.059  24.375  25.632  1.00  0.00     0.082 A 
ATOM     19  C   UNL A   1      31.084  24.548  24.249  1.00  0.00     0.024 A 
ATOM     20  C   UNL A   1      30.859  25.469  26.485  1.00  0.00     0.024 A 
ATOM     21  C   UNL A   1      30.870  25.820  23.717  1.00  0.00     0.030 A 
ATOM     22  C   UNL A   1      30.681  26.750  25.953  1.00  0.00     0.030 A 
BRANCH  18  23
ATOM     23  S   UNL A   1      31.255  22.769  26.346  1.00  0.00     0.238 S 
ATOM     24  O   UNL A   1      31.785  22.932  27.687  1.00  0.00    -0.207 OA
ATOM     25  O   UNL A   1      31.848  21.904  25.368  1.00  0.00    -0.207 OA
BRANCH  23  26
ATOM     26  N   UNL A   1      29.684  22.207  26.569  1.00  0.00    -0.225 NA
ATOM     27  H   UNL A   1      29.383  22.405  27.523  1.00  0.00     0.137 HD
ATOM     28  H   UNL A   1      29.656  21.201  26.406  1.00  0.00     0.137 HD
ENDBRANCH  23  26
ENDBRANCH  18  23
ENDBRANCH  13  17
BRANCH  15  29
ATOM     29  C   UNL A   1      28.055  30.321  22.254  1.00  0.00     0.435 C 
ATOM     30  F   UNL A   1      27.598  29.550  21.235  1.00  0.00    -0.164 F 
ATOM     31  F   UNL A   1      26.996  30.603  23.058  1.00  0.00    -0.164 F 
ATOM     32  F   UNL A   1      28.434  31.508  21.701  1.00  0.00    -0.164 F 
ENDBRANCH  15  29
ENDBRANCH   7  12
ENDBRANCH   3   6
ENDBRANCH   1   2
BRANCH   1  33
ATOM     33  C   UNL A   1      36.435  33.561  28.650  1.00  0.00     0.042 C 
BRANCH  33  34
ATOM     34  C   UNL A   1      37.778  32.981  29.037  1.00  0.00     0.118 C 
BRANCH  34  35
ATOM     35  N   UNL A   1      38.571  33.916  29.833  1.00  0.00    -0.352 N 
ATOM     36  C   UNL A   1      39.515  33.634  30.798  1.00  0.00     0.251 C 
ATOM     37  H   UNL A   1      38.410  34.872  29.657  1.00  0.00     0.163 HD
ATOM     38  O   UNL A   1      39.845  34.479  31.621  1.00  0.00    -0.269 OA
BRANCH  36  39
ATOM     39  C   UNL A   1      40.109  32.290  30.826  1.00  0.00     0.039 A 
ATOM     40  C   UNL A   1      39.409  31.197  31.345  1.00  0.00     0.014 A 
ATOM     41  C   UNL A   1      41.370  32.129  30.263  1.00  0.00     0.014 A 
ATOM     42  C   UNL A   1      39.961  29.927  31.208  1.00  0.00     0.010 A 
ATOM     43  C   UNL A   1      41.811  30.871  29.954  1.00  0.00     0.010 A 
ATOM     44  C   UNL A   1      41.155  29.769  30.487  1.00  0.00    -0.014 A 
BRANCH  44  45
ATOM     45  C   UNL A   1      41.701  28.448  30.212  1.00  0.00     0.031 A 
ATOM     46  C   UNL A   1      42.486  27.836  31.317  1.00  0.00     0.074 A 
ATOM     47  C   UNL A   1      41.345  27.722  29.131  1.00  0.00     0.049 A 
ATOM     48  N   UNL A   1      43.746  27.554  31.320  1.00  0.00    -0.248 NA
ATOM     49  C   UNL A   1      41.816  27.598  32.605  1.00  0.00     0.031 C 
ATOM     50  C   UNL A   1      40.336  28.024  28.108  1.00  0.00     0.029 A 
ATOM     51  N   UNL A   1      41.731  26.463  28.799  1.00  0.00    -0.354 N 
ATOM     52  C   UNL A   1      44.004  26.942  32.543  1.00  0.00     0.074 A 
ATOM     53  C   UNL A   1      42.823  27.136  33.349  1.00  0.00     0.031 C 
ATOM     54  C   UNL A   1      40.010  26.892  27.447  1.00  0.00     0.029 A 
ATOM     55  C   UNL A   1      40.916  25.840  27.866  1.00  0.00     0.049 A 
ATOM     56  H   UNL A   1      42.525  26.029  29.188  1.00  0.00     0.167 HD
ATOM     57  C   UNL A   1      45.083  26.131  32.723  1.00  0.00     0.031 A 
ATOM     58  C   UNL A   1      40.966  24.539  27.493  1.00  0.00     0.031 A 
ATOM     59  C   UNL A   1      46.042  26.268  31.656  1.00  0.00     0.049 A 
ATOM     60  C   UNL A   1      42.306  24.030  27.865  1.00  0.00     0.074 A 
ATOM     61  C   UNL A   1      46.767  27.324  31.138  1.00  0.00     0.029 A 
ATOM     62  N   UNL A   1      46.050  25.298  30.680  1.00  0.00    -0.354 N 
ATOM     63  N   UNL A   1      43.406  24.434  27.299  1.00  0.00    -0.248 NA
ATOM     64  C   UNL A   1      42.467  23.418  29.175  1.00  0.00     0.031 C 
ATOM     65  C   UNL A   1      46.710  27.142  29.723  1.00  0.00     0.029 A 
ATOM     66  C   UNL A   1      46.029  25.948  29.472  1.00  0.00     0.049 A 
ATOM     67  H   UNL A   1      46.066  24.324  30.823  1.00  0.00     0.167 HD
ATOM     68  C   UNL A   1      44.318  24.545  28.338  1.00  0.00     0.074 A 
ATOM     69  C   UNL A   1      43.717  23.805  29.448  1.00  0.00     0.031 C 
ATOM     70  C   UNL A   1      45.330  25.464  28.302  1.00  0.00     0.031 A 
BRANCH  57  71
ATOM     71  C   UNL A   1      45.095  24.949  33.656  1.00  0.00    -0.014 A 
ATOM     72  C   UNL A   1      44.420  23.774  33.278  1.00  0.00     0.009 A 
ATOM     73  C   UNL A   1      45.511  25.038  34.998  1.00  0.00     0.009 A 
ATOM     74  C   UNL A   1      44.129  22.771  34.211  1.00  0.00     0.001 A 
ATOM     75  C   UNL A   1      45.258  24.020  35.921  1.00  0.00     0.001 A 
ATOM     76  C   UNL A   1      44.544  22.897  35.533  1.00  0.00     0.000 A 
ENDBRANCH  57  71
BRANCH  58  77
ATOM     77  C   UNL A   1      39.862  23.653  27.070  1.00  0.00    -0.014 A 
ATOM     78  C   UNL A   1      38.612  24.188  26.723  1.00  0.00     0.009 A 
ATOM     79  C   UNL A   1      40.112  22.307  26.742  1.00  0.00     0.009 A 
ATOM     80  C   UNL A   1      37.667  23.420  26.029  1.00  0.00     0.001 A 
ATOM     81  C   UNL A   1      39.167  21.539  26.054  1.00  0.00     0.001 A 
ATOM     82  C   UNL A   1      37.952  22.102  25.681  1.00  0.00     0.000 A 
ENDBRANCH  58  77
BRANCH  70  83
ATOM     83  C   UNL A   1      45.554  26.231  27.018  1.00  0.00    -0.014 A 
ATOM     84  C   UNL A   1      44.886  27.431  26.711  1.00  0.00     0.009 A 
ATOM     85  C   UNL A   1      46.593  25.821  26.169  1.00  0.00     0.009 A 
ATOM     86  C   UNL A   1      45.224  28.175  25.576  1.00  0.00     0.001 A 
ATOM     87  C   UNL A   1      46.946  26.575  25.047  1.00  0.00     0.001 A 
ATOM     88  C   UNL A   1      46.259  27.748  24.747  1.00  0.00     0.000 A 
ENDBRANCH  70  83
ENDBRANCH  44  45
ENDBRANCH  36  39
ENDBRANCH  34  35
ENDBRANCH  33  34
ENDBRANCH   1  33
TORSDOF 15
ENDMDL
MODEL 3
REMARK VINA RESULT:     -12.5      3.186      5.398
REMARK SMILES NS(=O)(=O)c1ccc(-n2nc(C(F)(F)F)cc2-c2ccc(C(=O)NCCCNC(=O)c3ccc(-c4c5nc(c(-c6ccccc6)c6ccc([nH]6)c(-c6ccccc6)c6nc(c(-c7ccccc7)c7ccc4[nH]7)C=C6)C=C5)cc3)cc2)cc1
REMARK SMILES IDX 25 1 24 2 22 3 23 4 21 6 18 7 19 8 80 9 20 10 79 11 17 12
REMARK SMILES IDX 9 13 10 14 11 15 16 16 8 17 5 18 6 19 82 20 7 21 81 22 2 23
REMARK SMILES IDX 3 24 4 25 1 26 12 29 13 30 14 31 15 32 26 33 27 34 28 35
REMARK SMILES IDX 29 36 30 38 31 39 32 40 78 41 33 42 77 43 34 44 35 45 36 46
REMARK SMILES IDX 71 47 37 48 76 49 70 50 72 51 38 52 75 53 69 54 68 55 39 57
REMARK SMILES IDX 61 58 46 59 60 60 47 61 50 62 59 63 73 64 48 65 49 66 58 68
REMARK SMILES IDX 74 69 51 70 40 71 41 72 45 73 42 74 44 75 43 76 62 77 63 78
REMARK SMILES IDX 67 79 64 80 66 81 65 82 52 83 53 84 57 85 54 86 56 87 55 88
REMARK H PARENT 24 5 1 27 1 28 28 37 72 56 50 67
REMARK Flexibility Score: inf
ROOT
ATOM      1  C   UNL A   1      34.630  23.581  25.450  1.00  0.00     0.118 C 
ENDROOT
BRANCH   1   2
ATOM      2  N   UNL A   1      33.449  22.736  25.545  1.00  0.00    -0.352 N 
ATOM      3  C   UNL A   1      32.120  23.000  25.307  1.00  0.00     0.251 C 
ATOM      4  O   UNL A   1      31.320  22.068  25.381  1.00  0.00    -0.269 OA
ATOM      5  H   UNL A   1      33.633  21.812  25.831  1.00  0.00     0.163 HD
BRANCH   3   6
ATOM      6  C   UNL A   1      31.628  24.353  24.926  1.00  0.00     0.039 A 
ATOM      7  C   UNL A   1      30.631  26.903  24.296  1.00  0.00     0.000 A 
ATOM      8  C   UNL A   1      30.607  26.447  25.620  1.00  0.00     0.011 A 
ATOM      9  C   UNL A   1      31.164  26.095  23.299  1.00  0.00     0.011 A 
ATOM     10  C   UNL A   1      31.097  25.173  25.930  1.00  0.00     0.014 A 
ATOM     11  C   UNL A   1      31.700  24.858  23.626  1.00  0.00     0.014 A 
BRANCH   7  12
ATOM     12  C   UNL A   1      30.185  28.236  23.936  1.00  0.00     0.075 A 
ATOM     13  N   UNL A   1      30.701  29.413  24.455  1.00  0.00    -0.233 N 
ATOM     14  N   UNL A   1      29.981  30.493  24.054  1.00  0.00    -0.163 NA
ATOM     15  C   UNL A   1      29.167  30.022  23.085  1.00  0.00     0.167 A 
ATOM     16  C   UNL A   1      29.230  28.611  23.016  1.00  0.00     0.064 A 
BRANCH  13  17
ATOM     17  C   UNL A   1      31.853  29.569  25.270  1.00  0.00     0.065 A 
ATOM     18  C   UNL A   1      34.147  30.004  26.793  1.00  0.00     0.082 A 
ATOM     19  C   UNL A   1      32.931  30.537  27.220  1.00  0.00     0.024 A 
ATOM     20  C   UNL A   1      34.217  29.231  25.626  1.00  0.00     0.024 A 
ATOM     21  C   UNL A   1      31.786  30.324  26.453  1.00  0.00     0.030 A 
ATOM     22  C   UNL A   1      33.061  28.987  24.876  1.00  0.00     0.030 A 
BRANCH  18  23
ATOM     23  S   UNL A   1      35.635  30.308  27.697  1.00  0.00     0.238 S 
ATOM     24  O   UNL A   1      35.886  31.738  27.688  1.00  0.00    -0.207 OA
ATOM     25  O   UNL A   1      36.615  29.338  27.304  1.00  0.00    -0.207 OA
BRANCH  23  26
ATOM     26  N   UNL A   1      35.244  29.951  29.296  1.00  0.00    -0.225 NA
ATOM     27  H   UNL A   1      35.099  28.947  29.394  1.00  0.00     0.137 HD
ATOM     28  H   UNL A   1      34.392  30.445  29.557  1.00  0.00     0.137 HD
ENDBRANCH  23  26
ENDBRANCH  18  23
ENDBRANCH  13  17
BRANCH  15  29
ATOM     29  C   UNL A   1      28.324  30.904  22.201  1.00  0.00     0.435 C 
ATOM     30  F   UNL A   1      27.885  30.274  21.082  1.00  0.00    -0.164 F 
ATOM     31  F   UNL A   1      27.232  31.382  22.853  1.00  0.00    -0.164 F 
ATOM     32  F   UNL A   1      29.022  31.998  21.782  1.00  0.00    -0.164 F 
ENDBRANCH  15  29
ENDBRANCH   7  12
ENDBRANCH   3   6
ENDBRANCH   1   2
BRANCH   1  33
ATOM     33  C   UNL A   1      35.174  23.651  24.014  1.00  0.00     0.042 C 
BRANCH  33  34
ATOM     34  C   UNL A   1      36.610  23.184  23.909  1.00  0.00     0.118 C 
BRANCH  34  35
ATOM     35  N   UNL A   1      36.739  21.748  24.144  1.00  0.00    -0.352 N 
ATOM     36  C   UNL A   1      37.711  21.080  24.861  1.00  0.00     0.251 C 
ATOM     37  H   UNL A   1      36.043  21.182  23.738  1.00  0.00     0.163 HD
ATOM     38  O   UNL A   1      37.905  19.883  24.694  1.00  0.00    -0.269 OA
BRANCH  36  39
ATOM     39  C   UNL A   1      38.520  21.843  25.823  1.00  0.00     0.039 A 
ATOM     40  C   UNL A   1      39.719  21.334  26.329  1.00  0.00     0.014 A 
ATOM     41  C   UNL A   1      38.082  23.116  26.169  1.00  0.00     0.014 A 
ATOM     42  C   UNL A   1      40.513  22.160  27.118  1.00  0.00     0.010 A 
ATOM     43  C   UNL A   1      38.951  23.984  26.771  1.00  0.00     0.010 A 
ATOM     44  C   UNL A   1      40.133  23.497  27.315  1.00  0.00    -0.014 A 
BRANCH  44  45
ATOM     45  C   UNL A   1      40.994  24.429  28.027  1.00  0.00     0.031 A 
ATOM     46  C   UNL A   1      40.444  25.799  28.210  1.00  0.00     0.074 A 
ATOM     47  C   UNL A   1      42.112  24.040  28.677  1.00  0.00     0.049 A 
ATOM     48  N   UNL A   1      40.897  26.899  27.708  1.00  0.00    -0.248 NA
ATOM     49  C   UNL A   1      39.186  25.954  28.957  1.00  0.00     0.031 C 
ATOM     50  C   UNL A   1      42.634  22.683  28.884  1.00  0.00     0.029 A 
ATOM     51  N   UNL A   1      42.957  24.796  29.424  1.00  0.00    -0.354 N 
ATOM     52  C   UNL A   1      40.092  27.916  28.211  1.00  0.00     0.074 A 
ATOM     53  C   UNL A   1      38.969  27.267  28.844  1.00  0.00     0.031 C 
ATOM     54  C   UNL A   1      43.526  22.693  29.898  1.00  0.00     0.029 A 
ATOM     55  C   UNL A   1      43.776  24.070  30.276  1.00  0.00     0.049 A 
ATOM     56  H   UNL A   1      42.986  25.779  29.366  1.00  0.00     0.167 HD
ATOM     57  C   UNL A   1      40.520  29.208  28.264  1.00  0.00     0.031 A 
ATOM     58  C   UNL A   1      44.577  24.572  31.246  1.00  0.00     0.031 A 
ATOM     59  C   UNL A   1      41.697  29.416  27.460  1.00  0.00     0.049 A 
ATOM     60  C   UNL A   1      44.802  26.001  30.930  1.00  0.00     0.074 A 
ATOM     61  C   UNL A   1      41.998  29.240  26.123  1.00  0.00     0.029 A 
ATOM     62  N   UNL A   1      42.909  29.467  28.109  1.00  0.00    -0.354 N 
ATOM     63  N   UNL A   1      45.480  26.405  29.894  1.00  0.00    -0.248 NA
ATOM     64  C   UNL A   1      43.891  26.981  31.500  1.00  0.00     0.031 C 
ATOM     65  C   UNL A   1      43.309  28.675  26.118  1.00  0.00     0.029 A 
ATOM     66  C   UNL A   1      43.756  28.620  27.441  1.00  0.00     0.049 A 
ATOM     67  H   UNL A   1      43.127  30.008  28.903  1.00  0.00     0.167 HD
ATOM     68  C   UNL A   1      44.771  27.496  29.412  1.00  0.00     0.074 A 
ATOM     69  C   UNL A   1      43.868  27.869  30.501  1.00  0.00     0.031 C 
ATOM     70  C   UNL A   1      44.771  27.814  28.082  1.00  0.00     0.031 A 
BRANCH  57  71
ATOM     71  C   UNL A   1      40.102  30.185  29.330  1.00  0.00    -0.014 A 
ATOM     72  C   UNL A   1      40.641  30.057  30.623  1.00  0.00     0.009 A 
ATOM     73  C   UNL A   1      39.003  31.053  29.184  1.00  0.00     0.009 A 
ATOM     74  C   UNL A   1      40.069  30.718  31.718  1.00  0.00     0.001 A 
ATOM     75  C   UNL A   1      38.458  31.747  30.267  1.00  0.00     0.001 A 
ATOM     76  C   UNL A   1      38.975  31.560  31.539  1.00  0.00     0.000 A 
ENDBRANCH  57  71
BRANCH  58  77
ATOM     77  C   UNL A   1      44.950  23.971  32.543  1.00  0.00    -0.014 A 
ATOM     78  C   UNL A   1      46.020  24.493  33.287  1.00  0.00     0.009 A 
ATOM     79  C   UNL A   1      44.088  23.063  33.184  1.00  0.00     0.009 A 
ATOM     80  C   UNL A   1      46.191  24.156  34.637  1.00  0.00     0.001 A 
ATOM     81  C   UNL A   1      44.262  22.721  34.531  1.00  0.00     0.001 A 
ATOM     82  C   UNL A   1      45.302  23.284  35.261  1.00  0.00     0.000 A 
ENDBRANCH  58  77
BRANCH  70  83
ATOM     83  C   UNL A   1      45.715  27.065  27.167  1.00  0.00    -0.014 A 
ATOM     84  C   UNL A   1      45.398  25.825  26.582  1.00  0.00     0.009 A 
ATOM     85  C   UNL A   1      46.889  27.707  26.751  1.00  0.00     0.009 A 
ATOM     86  C   UNL A   1      46.244  25.235  25.638  1.00  0.00     0.001 A 
ATOM     87  C   UNL A   1      47.724  27.129  25.790  1.00  0.00     0.001 A 
ATOM     88  C   UNL A   1      47.405  25.891  25.239  1.00  0.00     0.000 A 
ENDBRANCH  70  83
ENDBRANCH  44  45
ENDBRANCH  36  39
ENDBRANCH  34  35
ENDBRANCH  33  34
ENDBRANCH   1  33
TORSDOF 15
ENDMDL
