MODEL 1
REMARK VINA RESULT:      -9.2      0.000      0.000
REMARK SMILES O=C(CC[P@TB4](=O)(O)C[NH+]1CCCCC1)NCCCNC(=O)c1ccc(-c2c3nc(c(-c4ccccc4)c4ccc([nH]4)c(-c4ccccc4)c4nc(c(-c5ccccc5)c5ccc2[nH]5)C=C4)C=C3)cc1
REMARK SMILES IDX 16 1 15 2 1 3 2 4 3 6 4 7 5 8 6 9 7 10 8 12 9 13 10 14 14 15
REMARK SMILES IDX 11 17 13 18 12 19 17 20 18 21 19 22 20 23 21 25 22 26 23 27
REMARK SMILES IDX 69 28 24 29 68 30 25 31 26 32 27 33 62 34 28 35 67 36 61 37
REMARK SMILES IDX 63 38 29 39 66 40 60 41 59 42 30 44 52 45 37 46 51 47 38 48
REMARK SMILES IDX 41 49 50 50 64 51 39 52 40 53 49 55 65 56 42 57 31 58 32 59
REMARK SMILES IDX 36 60 33 61 35 62 34 63 53 64 54 65 58 66 55 67 57 68 56 69
REMARK SMILES IDX 43 70 44 71 48 72 45 73 47 74 46 75
REMARK H PARENT 15 5 7 11 9 16 19 24 63 43 41 54
REMARK Flexibility Score: inf
ROOT
ATOM      1  C   UNL A   1      46.367  20.258  24.248  1.00  0.00       nan C 
ENDROOT
BRANCH   1   2
ATOM      2  N   UNL A   1      46.350  21.701  24.040  1.00  0.00       nan N 
ATOM      3  O   UNL A   1      45.866  22.289  26.208  1.00  0.00       nan OA
ATOM      4  C   UNL A   1      46.234  22.613  25.081  1.00  0.00       nan C 
ATOM      5  H   UNL A   1      46.424  22.044  23.121  1.00  0.00       nan HD
BRANCH   4   6
ATOM      6  C   UNL A   1      46.538  24.095  24.734  1.00  0.00       nan C 
BRANCH   6   7
ATOM      7  C   UNL A   1      45.492  25.202  25.078  1.00  0.00       nan C 
BRANCH   7   8
ATOM      8  P   UNL A   1      46.177  26.822  25.584  1.00  0.00       nan P 
ATOM      9  O   UNL A   1      47.610  26.359  25.376  1.00  0.00       nan OA
BRANCH   8  10
ATOM     10  O   UNL A   1      45.561  27.379  24.160  1.00  0.00       nan OA
ATOM     11  H   UNL A   1      44.592  27.332  24.188  1.00  0.00       nan HD
ENDBRANCH   8  10
BRANCH   8  12
ATOM     12  C   UNL A   1      46.863  28.441  26.090  1.00  0.00       nan C 
BRANCH  12  13
ATOM     13  N   UNL A   1      45.871  29.540  26.132  1.00  0.00       nan N 
ATOM     14  C   UNL A   1      44.726  29.164  26.987  1.00  0.00       nan C 
ATOM     15  C   UNL A   1      46.443  30.787  26.645  1.00  0.00       nan C 
ATOM     16  H   UNL A   1      45.565  29.695  25.170  1.00  0.00       nan HD
ATOM     17  C   UNL A   1      43.635  30.242  26.972  1.00  0.00       nan C 
ATOM     18  C   UNL A   1      45.424  31.909  26.451  1.00  0.00       nan C 
ATOM     19  C   UNL A   1      44.184  31.631  27.288  1.00  0.00       nan C 
ENDBRANCH  12  13
ENDBRANCH   8  12
ENDBRANCH   7   8
ENDBRANCH   6   7
ENDBRANCH   4   6
ENDBRANCH   1   2
BRANCH   1  20
ATOM     20  C   UNL A   1      44.995  19.568  24.237  1.00  0.00       nan C 
BRANCH  20  21
ATOM     21  C   UNL A   1      44.400  19.068  25.559  1.00  0.00       nan C 
BRANCH  21  22
ATOM     22  N   UNL A   1      42.976  18.764  25.544  1.00  0.00       nan N 
ATOM     23  C   UNL A   1      41.886  19.518  25.935  1.00  0.00       nan C 
ATOM     24  H   UNL A   1      42.753  17.871  25.197  1.00  0.00       nan HD
ATOM     25  O   UNL A   1      40.766  19.018  25.869  1.00  0.00       nan OA
BRANCH  23  26
ATOM     26  C   UNL A   1      42.006  20.921  26.436  1.00  0.00       nan A 
ATOM     27  C   UNL A   1      41.766  21.178  27.795  1.00  0.00       nan A 
ATOM     28  C   UNL A   1      42.279  21.999  25.594  1.00  0.00       nan A 
ATOM     29  C   UNL A   1      41.884  22.480  28.310  1.00  0.00       inf A 
ATOM     30  C   UNL A   1      42.405  23.296  26.103  1.00  0.00       inf A 
ATOM     31  C   UNL A   1      42.239  23.545  27.471  1.00  0.00    -0.014 A 
BRANCH  31  32
ATOM     32  C   UNL A   1      42.590  24.885  28.008  1.00  0.00     0.031 A 
ATOM     33  C   UNL A   1      43.961  25.197  28.536  1.00  0.00     0.074 A 
ATOM     34  C   UNL A   1      41.605  25.796  28.133  1.00  0.00     0.049 A 
ATOM     35  N   UNL A   1      44.394  26.301  29.095  1.00  0.00    -0.248 NA
ATOM     36  C   UNL A   1      44.968  24.133  28.439  1.00  0.00     0.031 C 
ATOM     37  C   UNL A   1      40.216  25.597  27.715  1.00  0.00     0.029 A 
ATOM     38  N   UNL A   1      41.612  27.055  28.678  1.00  0.00    -0.354 N 
ATOM     39  C   UNL A   1      45.725  26.069  29.415  1.00  0.00     0.074 A 
ATOM     40  C   UNL A   1      46.018  24.707  29.018  1.00  0.00     0.031 C 
ATOM     41  C   UNL A   1      39.504  26.691  28.024  1.00  0.00     0.029 A 
ATOM     42  C   UNL A   1      40.378  27.658  28.680  1.00  0.00     0.049 A 
ATOM     43  H   UNL A   1      42.423  27.486  29.033  1.00  0.00     0.167 HD
ATOM     44  C   UNL A   1      46.622  26.917  29.978  1.00  0.00     0.031 A 
ATOM     45  C   UNL A   1      39.985  28.850  29.164  1.00  0.00     0.031 A 
ATOM     46  C   UNL A   1      46.328  28.265  30.393  1.00  0.00     0.049 A 
ATOM     47  C   UNL A   1      40.991  29.760  29.806  1.00  0.00     0.074 A 
ATOM     48  C   UNL A   1      47.193  29.219  30.907  1.00  0.00     0.029 A 
ATOM     49  N   UNL A   1      45.070  28.847  30.362  1.00  0.00    -0.354 N 
ATOM     50  N   UNL A   1      42.270  29.562  30.006  1.00  0.00    -0.248 NA
ATOM     51  C   UNL A   1      40.500  31.065  30.271  1.00  0.00     0.031 C 
ATOM     52  C   UNL A   1      46.449  30.359  31.233  1.00  0.00     0.029 A 
ATOM     53  C   UNL A   1      45.130  30.133  30.876  1.00  0.00     0.049 A 
ATOM     54  H   UNL A   1      44.255  28.412  30.024  1.00  0.00     0.167 HD
ATOM     55  C   UNL A   1      42.743  30.726  30.596  1.00  0.00     0.074 A 
ATOM     56  C   UNL A   1      41.616  31.628  30.710  1.00  0.00     0.031 C 
ATOM     57  C   UNL A   1      44.003  31.020  30.999  1.00  0.00     0.031 A 
BRANCH  44  58
ATOM     58  C   UNL A   1      48.024  26.409  30.185  1.00  0.00    -0.014 A 
ATOM     59  C   UNL A   1      48.400  25.799  31.391  1.00  0.00     0.009 A 
ATOM     60  C   UNL A   1      48.959  26.482  29.140  1.00  0.00     0.009 A 
ATOM     61  C   UNL A   1      49.693  25.298  31.559  1.00  0.00     0.001 A 
ATOM     62  C   UNL A   1      50.244  25.959  29.302  1.00  0.00     0.001 A 
ATOM     63  C   UNL A   1      50.613  25.375  30.513  1.00  0.00     0.000 A 
ENDBRANCH  44  58
BRANCH  45  64
ATOM     64  C   UNL A   1      38.565  29.262  29.035  1.00  0.00    -0.014 A 
ATOM     65  C   UNL A   1      38.083  29.769  27.819  1.00  0.00     0.009 A 
ATOM     66  C   UNL A   1      37.684  29.139  30.120  1.00  0.00     0.009 A 
ATOM     67  C   UNL A   1      36.749  30.162  27.697  1.00  0.00     0.001 A 
ATOM     68  C   UNL A   1      36.344  29.511  29.988  1.00  0.00     0.001 A 
ATOM     69  C   UNL A   1      35.880  30.030  28.779  1.00  0.00     0.000 A 
ENDBRANCH  45  64
BRANCH  57  70
ATOM     70  C   UNL A   1      44.231  32.387  31.580  1.00  0.00    -0.014 A 
ATOM     71  C   UNL A   1      44.559  33.480  30.761  1.00  0.00     0.009 A 
ATOM     72  C   UNL A   1      44.097  32.587  32.963  1.00  0.00     0.009 A 
ATOM     73  C   UNL A   1      44.780  34.740  31.323  1.00  0.00     0.001 A 
ATOM     74  C   UNL A   1      44.295  33.853  33.517  1.00  0.00     0.001 A 
ATOM     75  C   UNL A   1      44.644  34.926  32.698  1.00  0.00     0.000 A 
ENDBRANCH  57  70
ENDBRANCH  31  32
ENDBRANCH  23  26
ENDBRANCH  21  22
ENDBRANCH  20  21
ENDBRANCH   1  20
TORSDOF 15
ENDMDL
MODEL 2
REMARK VINA RESULT:      -9.1      5.587     11.446
REMARK SMILES O=C(CC[P@TB4](=O)(O)C[NH+]1CCCCC1)NCCCNC(=O)c1ccc(-c2c3nc(c(-c4ccccc4)c4ccc([nH]4)c(-c4ccccc4)c4nc(c(-c5ccccc5)c5ccc2[nH]5)C=C4)C=C3)cc1
REMARK SMILES IDX 16 1 15 2 1 3 2 4 3 6 4 7 5 8 6 9 7 10 8 12 9 13 10 14 14 15
REMARK SMILES IDX 11 17 13 18 12 19 17 20 18 21 19 22 20 23 21 25 22 26 23 27
REMARK SMILES IDX 69 28 24 29 68 30 25 31 26 32 27 33 62 34 28 35 67 36 61 37
REMARK SMILES IDX 63 38 29 39 66 40 60 41 59 42 30 44 52 45 37 46 51 47 38 48
REMARK SMILES IDX 41 49 50 50 64 51 39 52 40 53 49 55 65 56 42 57 31 58 32 59
REMARK SMILES IDX 36 60 33 61 35 62 34 63 53 64 54 65 58 66 55 67 57 68 56 69
REMARK SMILES IDX 43 70 44 71 48 72 45 73 47 74 46 75
REMARK H PARENT 15 5 7 11 9 16 19 24 63 43 41 54
REMARK Flexibility Score: inf
ROOT
ATOM      1  C   UNL A   1      33.649  36.687  33.445  1.00  0.00       nan C 
ENDROOT
BRANCH   1   2
ATOM      2  N   UNL A   1      34.161  35.476  34.077  1.00  0.00       nan N 
ATOM      3  O   UNL A   1      36.088  35.310  32.837  1.00  0.00       nan OA
ATOM      4  C   UNL A   1      35.422  34.960  33.809  1.00  0.00       nan C 
ATOM      5  H   UNL A   1      33.588  35.004  34.722  1.00  0.00       nan HD
BRANCH   4   6
ATOM      6  C   UNL A   1      35.934  33.858  34.775  1.00  0.00       nan C 
BRANCH   6   7
ATOM      7  C   UNL A   1      37.450  33.793  35.142  1.00  0.00       nan C 
BRANCH   7   8
ATOM      8  P   UNL A   1      38.182  32.118  35.224  1.00  0.00       nan P 
ATOM      9  O   UNL A   1      37.455  31.788  36.518  1.00  0.00       nan OA
BRANCH   8  10
ATOM     10  O   UNL A   1      37.212  31.773  33.938  1.00  0.00       nan OA
ATOM     11  H   UNL A   1      36.921  30.849  33.992  1.00  0.00       nan HD
ENDBRANCH   8  10
BRANCH   8  12
ATOM     12  C   UNL A   1      38.914  30.442  35.308  1.00  0.00       nan C 
BRANCH  12  13
ATOM     13  N   UNL A   1      40.200  30.372  36.042  1.00  0.00       nan N 
ATOM     14  C   UNL A   1      41.112  29.412  35.384  1.00  0.00       nan C 
ATOM     15  C   UNL A   1      40.869  31.672  36.115  1.00  0.00       nan C 
ATOM     16  H   UNL A   1      39.979  30.066  36.990  1.00  0.00       nan HD
ATOM     17  C   UNL A   1      42.415  29.243  36.176  1.00  0.00       nan C 
ATOM     18  C   UNL A   1      42.063  31.554  37.063  1.00  0.00       nan C 
ATOM     19  C   UNL A   1      43.082  30.579  36.492  1.00  0.00       nan C 
ENDBRANCH  12  13
ENDBRANCH   8  12
ENDBRANCH   7   8
ENDBRANCH   6   7
ENDBRANCH   4   6
ENDBRANCH   1   2
BRANCH   1  20
ATOM     20  C   UNL A   1      32.779  36.469  32.199  1.00  0.00       nan C 
BRANCH  20  21
ATOM     21  C   UNL A   1      33.401  36.663  30.811  1.00  0.00       nan C 
BRANCH  21  22
ATOM     22  N   UNL A   1      32.744  35.966  29.714  1.00  0.00       nan N 
ATOM     23  C   UNL A   1      33.115  34.838  29.007  1.00  0.00       nan C 
ATOM     24  H   UNL A   1      31.892  36.367  29.427  1.00  0.00       nan HD
ATOM     25  O   UNL A   1      32.407  34.462  28.076  1.00  0.00       nan OA
BRANCH  23  26
ATOM     26  C   UNL A   1      34.344  34.049  29.324  1.00  0.00       nan A 
ATOM     27  C   UNL A   1      35.431  34.101  28.437  1.00  0.00       nan A 
ATOM     28  C   UNL A   1      34.430  33.205  30.431  1.00  0.00       nan A 
ATOM     29  C   UNL A   1      36.611  33.387  28.705  1.00  0.00       inf A 
ATOM     30  C   UNL A   1      35.605  32.498  30.708  1.00  0.00       inf A 
ATOM     31  C   UNL A   1      36.718  32.605  29.864  1.00  0.00    -0.014 A 
BRANCH  31  32
ATOM     32  C   UNL A   1      38.012  32.017  30.298  1.00  0.00     0.031 A 
ATOM     33  C   UNL A   1      38.988  32.779  31.147  1.00  0.00     0.074 A 
ATOM     34  C   UNL A   1      38.359  30.813  29.803  1.00  0.00     0.049 A 
ATOM     35  N   UNL A   1      40.183  32.421  31.549  1.00  0.00    -0.248 NA
ATOM     36  C   UNL A   1      38.579  34.119  31.591  1.00  0.00     0.031 C 
ATOM     37  C   UNL A   1      37.527  29.995  28.918  1.00  0.00     0.029 A 
ATOM     38  N   UNL A   1      39.513  30.084  29.945  1.00  0.00    -0.354 N 
ATOM     39  C   UNL A   1      40.670  33.486  32.295  1.00  0.00     0.074 A 
ATOM     40  C   UNL A   1      39.654  34.517  32.261  1.00  0.00     0.031 C 
ATOM     41  C   UNL A   1      38.200  28.881  28.590  1.00  0.00     0.029 A 
ATOM     42  C   UNL A   1      39.514  28.916  29.222  1.00  0.00     0.049 A 
ATOM     43  H   UNL A   1      40.266  30.370  30.509  1.00  0.00     0.167 HD
ATOM     44  C   UNL A   1      41.851  33.589  32.955  1.00  0.00     0.031 A 
ATOM     45  C   UNL A   1      40.468  27.979  29.073  1.00  0.00     0.031 A 
ATOM     46  C   UNL A   1      42.872  32.572  32.972  1.00  0.00     0.049 A 
ATOM     47  C   UNL A   1      41.776  28.128  29.792  1.00  0.00     0.074 A 
ATOM     48  C   UNL A   1      44.069  32.562  33.672  1.00  0.00     0.029 A 
ATOM     49  N   UNL A   1      42.830  31.394  32.243  1.00  0.00    -0.354 N 
ATOM     50  N   UNL A   1      42.177  29.096  30.577  1.00  0.00    -0.248 NA
ATOM     51  C   UNL A   1      42.754  27.044  29.619  1.00  0.00     0.031 C 
ATOM     52  C   UNL A   1      44.772  31.402  33.327  1.00  0.00     0.029 A 
ATOM     53  C   UNL A   1      43.991  30.666  32.451  1.00  0.00     0.049 A 
ATOM     54  H   UNL A   1      42.085  31.115  31.664  1.00  0.00     0.167 HD
ATOM     55  C   UNL A   1      43.443  28.727  31.013  1.00  0.00     0.074 A 
ATOM     56  C   UNL A   1      43.736  27.442  30.413  1.00  0.00     0.031 C 
ATOM     57  C   UNL A   1      44.282  29.394  31.842  1.00  0.00     0.031 A 
BRANCH  44  58
ATOM     58  C   UNL A   1      42.112  34.858  33.720  1.00  0.00    -0.014 A 
ATOM     59  C   UNL A   1      42.829  35.916  33.141  1.00  0.00     0.009 A 
ATOM     60  C   UNL A   1      41.578  35.024  35.008  1.00  0.00     0.009 A 
ATOM     61  C   UNL A   1      43.032  37.104  33.847  1.00  0.00     0.001 A 
ATOM     62  C   UNL A   1      41.763  36.221  35.703  1.00  0.00     0.001 A 
ATOM     63  C   UNL A   1      42.496  37.257  35.126  1.00  0.00     0.000 A 
ENDBRANCH  44  58
BRANCH  45  64
ATOM     64  C   UNL A   1      40.205  26.795  28.217  1.00  0.00    -0.014 A 
ATOM     65  C   UNL A   1      40.689  26.752  26.901  1.00  0.00     0.009 A 
ATOM     66  C   UNL A   1      39.482  25.700  28.715  1.00  0.00     0.009 A 
ATOM     67  C   UNL A   1      40.440  25.641  26.093  1.00  0.00     0.001 A 
ATOM     68  C   UNL A   1      39.255  24.580  27.911  1.00  0.00     0.001 A 
ATOM     69  C   UNL A   1      39.726  24.555  26.599  1.00  0.00     0.000 A 
ENDBRANCH  45  64
BRANCH  57  70
ATOM     70  C   UNL A   1      45.590  28.730  32.168  1.00  0.00    -0.014 A 
ATOM     71  C   UNL A   1      46.736  28.962  31.392  1.00  0.00     0.009 A 
ATOM     72  C   UNL A   1      45.680  27.876  33.278  1.00  0.00     0.009 A 
ATOM     73  C   UNL A   1      47.940  28.325  31.704  1.00  0.00     0.001 A 
ATOM     74  C   UNL A   1      46.891  27.261  33.601  1.00  0.00     0.001 A 
ATOM     75  C   UNL A   1      48.017  27.479  32.809  1.00  0.00     0.000 A 
ENDBRANCH  57  70
ENDBRANCH  31  32
ENDBRANCH  23  26
ENDBRANCH  21  22
ENDBRANCH  20  21
ENDBRANCH   1  20
TORSDOF 15
ENDMDL
MODEL 3
REMARK VINA RESULT:      -8.6      1.045      6.302
REMARK SMILES O=C(CC[P@TB4](=O)(O)C[NH+]1CCCCC1)NCCCNC(=O)c1ccc(-c2c3nc(c(-c4ccccc4)c4ccc([nH]4)c(-c4ccccc4)c4nc(c(-c5ccccc5)c5ccc2[nH]5)C=C4)C=C3)cc1
REMARK SMILES IDX 16 1 15 2 1 3 2 4 3 6 4 7 5 8 6 9 7 10 8 12 9 13 10 14 14 15
REMARK SMILES IDX 11 17 13 18 12 19 17 20 18 21 19 22 20 23 21 25 22 26 23 27
REMARK SMILES IDX 69 28 24 29 68 30 25 31 26 32 27 33 62 34 28 35 67 36 61 37
REMARK SMILES IDX 63 38 29 39 66 40 60 41 59 42 30 44 52 45 37 46 51 47 38 48
REMARK SMILES IDX 41 49 50 50 64 51 39 52 40 53 49 55 65 56 42 57 31 58 32 59
REMARK SMILES IDX 36 60 33 61 35 62 34 63 53 64 54 65 58 66 55 67 57 68 56 69
REMARK SMILES IDX 43 70 44 71 48 72 45 73 47 74 46 75
REMARK H PARENT 15 5 7 11 9 16 19 24 63 43 41 54
REMARK Flexibility Score: inf
ROOT
ATOM      1  C   UNL A   1      45.447  19.052  25.021  1.00  0.00       nan C 
ENDROOT
BRANCH   1   2
ATOM      2  N   UNL A   1      45.717  20.385  25.547  1.00  0.00       nan N 
ATOM      3  O   UNL A   1      44.828  21.564  23.786  1.00  0.00       nan OA
ATOM      4  C   UNL A   1      45.255  21.545  24.939  1.00  0.00       nan C 
ATOM      5  H   UNL A   1      46.250  20.466  26.370  1.00  0.00       nan HD
BRANCH   4   6
ATOM      6  C   UNL A   1      45.360  22.848  25.775  1.00  0.00       nan C 
BRANCH   6   7
ATOM      7  C   UNL A   1      46.734  23.580  25.900  1.00  0.00       nan C 
BRANCH   7   8
ATOM      8  P   UNL A   1      46.784  25.301  25.279  1.00  0.00       nan P 
ATOM      9  O   UNL A   1      48.054  25.617  26.053  1.00  0.00       nan OA
BRANCH   8  10
ATOM     10  O   UNL A   1      47.173  24.626  23.826  1.00  0.00       nan OA
ATOM     11  H   UNL A   1      48.067  24.253  23.873  1.00  0.00       nan HD
ENDBRANCH   8  10
BRANCH   8  12
ATOM     12  C   UNL A   1      46.835  27.022  24.659  1.00  0.00       nan C 
BRANCH  12  13
ATOM     13  N   UNL A   1      45.737  27.884  25.154  1.00  0.00       nan N 
ATOM     14  C   UNL A   1      44.558  27.062  25.501  1.00  0.00       nan C 
ATOM     15  C   UNL A   1      46.127  28.657  26.335  1.00  0.00       nan C 
ATOM     16  H   UNL A   1      45.513  28.534  24.401  1.00  0.00       nan HD
ATOM     17  C   UNL A   1      43.370  27.936  25.924  1.00  0.00       nan C 
ATOM     18  C   UNL A   1      45.023  29.668  26.645  1.00  0.00       nan C 
ATOM     19  C   UNL A   1      43.742  28.936  27.016  1.00  0.00       nan C 
ENDBRANCH  12  13
ENDBRANCH   8  12
ENDBRANCH   7   8
ENDBRANCH   6   7
ENDBRANCH   4   6
ENDBRANCH   1   2
BRANCH   1  20
ATOM     20  C   UNL A   1      43.964  18.678  24.887  1.00  0.00       nan C 
BRANCH  20  21
ATOM     21  C   UNL A   1      43.078  18.679  26.139  1.00  0.00       nan C 
BRANCH  21  22
ATOM     22  N   UNL A   1      41.651  18.860  25.911  1.00  0.00       nan N 
ATOM     23  C   UNL A   1      40.815  19.921  26.206  1.00  0.00       nan C 
ATOM     24  H   UNL A   1      41.207  18.099  25.473  1.00  0.00       nan HD
ATOM     25  O   UNL A   1      39.617  19.818  25.955  1.00  0.00       nan OA
BRANCH  23  26
ATOM     26  C   UNL A   1      41.303  21.193  26.819  1.00  0.00       nan A 
ATOM     27  C   UNL A   1      41.698  22.244  25.976  1.00  0.00       nan A 
ATOM     28  C   UNL A   1      41.451  21.355  28.196  1.00  0.00       nan A 
ATOM     29  C   UNL A   1      42.148  23.463  26.511  1.00  0.00       inf A 
ATOM     30  C   UNL A   1      41.891  22.569  28.735  1.00  0.00       inf A 
ATOM     31  C   UNL A   1      42.216  23.645  27.900  1.00  0.00    -0.014 A 
BRANCH  31  32
ATOM     32  C   UNL A   1      42.470  24.977  28.505  1.00  0.00     0.031 A 
ATOM     33  C   UNL A   1      41.404  26.031  28.590  1.00  0.00     0.074 A 
ATOM     34  C   UNL A   1      43.732  25.277  28.871  1.00  0.00     0.049 A 
ATOM     35  N   UNL A   1      41.497  27.262  29.032  1.00  0.00    -0.248 NA
ATOM     36  C   UNL A   1      40.067  25.664  28.103  1.00  0.00     0.031 C 
ATOM     37  C   UNL A   1      44.873  24.364  28.784  1.00  0.00     0.029 A 
ATOM     38  N   UNL A   1      44.273  26.442  29.355  1.00  0.00    -0.354 N 
ATOM     39  C   UNL A   1      40.233  27.818  28.882  1.00  0.00     0.074 A 
ATOM     40  C   UNL A   1      39.400  26.800  28.275  1.00  0.00     0.031 C 
ATOM     41  C   UNL A   1      45.979  25.004  29.194  1.00  0.00     0.029 A 
ATOM     42  C   UNL A   1      45.630  26.375  29.551  1.00  0.00     0.049 A 
ATOM     43  H   UNL A   1      43.740  27.247  29.544  1.00  0.00     0.167 HD
ATOM     44  C   UNL A   1      39.807  29.058  29.227  1.00  0.00     0.031 A 
ATOM     45  C   UNL A   1      46.505  27.311  29.962  1.00  0.00     0.031 A 
ATOM     46  C   UNL A   1      40.639  30.079  29.810  1.00  0.00     0.049 A 
ATOM     47  C   UNL A   1      46.012  28.684  30.313  1.00  0.00     0.074 A 
ATOM     48  C   UNL A   1      40.275  31.340  30.257  1.00  0.00     0.029 A 
ATOM     49  N   UNL A   1      42.006  29.969  30.011  1.00  0.00    -0.354 N 
ATOM     50  N   UNL A   1      44.792  29.160  30.261  1.00  0.00    -0.248 NA
ATOM     51  C   UNL A   1      47.015  29.644  30.797  1.00  0.00     0.031 C 
ATOM     52  C   UNL A   1      41.429  32.009  30.681  1.00  0.00     0.029 A 
ATOM     53  C   UNL A   1      42.504  31.147  30.545  1.00  0.00     0.049 A 
ATOM     54  H   UNL A   1      42.544  29.170  29.806  1.00  0.00     0.167 HD
ATOM     55  C   UNL A   1      44.876  30.463  30.730  1.00  0.00     0.074 A 
ATOM     56  C   UNL A   1      46.264  30.700  31.072  1.00  0.00     0.031 C 
ATOM     57  C   UNL A   1      43.887  31.379  30.871  1.00  0.00     0.031 A 
BRANCH  44  58
ATOM     58  C   UNL A   1      38.360  29.390  28.978  1.00  0.00    -0.014 A 
ATOM     59  C   UNL A   1      37.413  29.311  30.012  1.00  0.00     0.009 A 
ATOM     60  C   UNL A   1      37.951  29.849  27.716  1.00  0.00     0.009 A 
ATOM     61  C   UNL A   1      36.080  29.658  29.779  1.00  0.00     0.001 A 
ATOM     62  C   UNL A   1      36.622  30.216  27.493  1.00  0.00     0.001 A 
ATOM     63  C   UNL A   1      35.687  30.114  28.520  1.00  0.00     0.000 A 
ENDBRANCH  44  58
BRANCH  45  64
ATOM     64  C   UNL A   1      47.943  26.968  30.087  1.00  0.00    -0.014 A 
ATOM     65  C   UNL A   1      48.428  26.369  31.258  1.00  0.00     0.009 A 
ATOM     66  C   UNL A   1      48.833  27.227  29.033  1.00  0.00     0.009 A 
ATOM     67  C   UNL A   1      49.782  26.050  31.380  1.00  0.00     0.001 A 
ATOM     68  C   UNL A   1      50.182  26.884  29.148  1.00  0.00     0.001 A 
ATOM     69  C   UNL A   1      50.657  26.304  30.324  1.00  0.00     0.000 A 
ENDBRANCH  45  64
BRANCH  57  70
ATOM     70  C   UNL A   1      44.270  32.715  31.442  1.00  0.00    -0.014 A 
ATOM     71  C   UNL A   1      44.263  32.942  32.828  1.00  0.00     0.009 A 
ATOM     72  C   UNL A   1      44.662  33.753  30.583  1.00  0.00     0.009 A 
ATOM     73  C   UNL A   1      44.611  34.195  33.338  1.00  0.00     0.001 A 
ATOM     74  C   UNL A   1      45.032  34.997  31.099  1.00  0.00     0.001 A 
ATOM     75  C   UNL A   1      44.998  35.219  32.475  1.00  0.00     0.000 A 
ENDBRANCH  57  70
ENDBRANCH  31  32
ENDBRANCH  23  26
ENDBRANCH  21  22
ENDBRANCH  20  21
ENDBRANCH   1  20
TORSDOF 15
ENDMDL
