MODEL 1
REMARK VINA RESULT:     -12.6      0.000      0.000
REMARK SMILES Cc1cccc(-c2ncc([C@@H]3[NH2+][C@H](C(=O)NCCCNC(=O)c4ccc(-c5c6nc(c(-c7ccccc7)c7ccc([nH]7)c(-c7ccccc7)c7nc(c(-c8ccccc8)c8ccc5[nH]8)C=C7)C=C6)cc4)C(C)(C)S3)s2)c1
REMARK SMILES IDX 18 1 17 2 16 3 14 4 15 5 13 7 11 8 12 9 74 10 71 13 72 14
REMARK SMILES IDX 73 15 10 16 7 17 8 18 75 19 9 20 6 21 1 22 2 23 3 24 76 25
REMARK SMILES IDX 4 26 5 27 19 28 20 29 21 30 22 32 23 33 24 34 70 35 25 36
REMARK SMILES IDX 69 37 26 38 27 39 28 40 63 41 29 42 68 43 62 44 64 45 30 46
REMARK SMILES IDX 67 47 61 48 60 49 31 51 53 52 38 53 52 54 39 55 42 56 51 57
REMARK SMILES IDX 65 58 40 59 41 60 50 62 66 63 43 64 32 65 33 66 37 67 34 68
REMARK SMILES IDX 36 69 35 70 54 71 55 72 59 73 56 74 58 75 57 76 44 77 45 78
REMARK SMILES IDX 49 79 46 80 48 81 47 82
REMARK H PARENT 16 6 12 11 12 12 20 31 64 50 42 61
REMARK Flexibility Score: inf
ROOT
ATOM      1  C   UNL A   1      38.411  22.752  25.997  1.00  0.00     0.042 C 
ENDROOT
BRANCH   1   2
ATOM      2  C   UNL A   1      37.699  21.590  25.313  1.00  0.00     0.118 C 
BRANCH   2   3
ATOM      3  N   UNL A   1      36.640  22.087  24.470  1.00  0.00    -0.351 N 
ATOM      4  C   UNL A   1      35.343  21.757  24.285  1.00  0.00     0.279 C 
ATOM      5  O   UNL A   1      34.781  22.535  23.499  1.00  0.00    -0.268 OA
ATOM      6  H   UNL A   1      36.926  22.838  23.900  1.00  0.00     0.163 HD
BRANCH   4   7
ATOM      7  C   UNL A   1      34.519  20.669  25.076  1.00  0.00     0.289 C 
ATOM      8  C   UNL A   1      33.229  21.971  26.672  1.00  0.00     0.286 C 
ATOM      9  N   UNL A   1      34.445  21.160  26.503  1.00  0.00    -0.319 N 
ATOM     10  S   UNL A   1      31.944  21.244  25.632  1.00  0.00    -0.080 SA
ATOM     11  H   UNL A   1      34.414  20.363  27.137  1.00  0.00     0.348 HD
ATOM     12  H   UNL A   1      35.266  21.727  26.714  1.00  0.00     0.348 HD
ATOM     13  C   UNL A   1      33.093  20.109  24.784  1.00  0.00     0.077 C 
ATOM     14  C   UNL A   1      32.921  18.722  25.453  1.00  0.00     0.030 C 
ATOM     15  C   UNL A   1      32.588  19.964  23.361  1.00  0.00     0.030 C 
BRANCH   8  16
ATOM     16  C   UNL A   1      33.386  23.441  26.411  1.00  0.00     0.093 A 
ATOM     17  C   UNL A   1      33.003  25.816  25.932  1.00  0.00     0.123 A 
ATOM     18  N   UNL A   1      34.291  25.541  25.868  1.00  0.00    -0.244 NA
ATOM     19  S   UNL A   1      32.004  24.463  26.319  1.00  0.00    -0.112 S 
ATOM     20  C   UNL A   1      34.507  24.211  26.161  1.00  0.00     0.134 A 
BRANCH  17  21
ATOM     21  C   UNL A   1      32.431  27.141  25.622  1.00  0.00     0.011 A 
ATOM     22  C   UNL A   1      32.707  30.690  27.034  1.00  0.00     0.044 C 
ATOM     23  C   UNL A   1      32.303  29.529  26.174  1.00  0.00    -0.050 A 
ATOM     24  C   UNL A   1      31.429  29.724  25.101  1.00  0.00     0.003 A 
ATOM     25  C   UNL A   1      32.791  28.239  26.428  1.00  0.00     0.014 A 
ATOM     26  C   UNL A   1      31.047  28.649  24.301  1.00  0.00     0.001 A 
ATOM     27  C   UNL A   1      31.543  27.367  24.561  1.00  0.00     0.011 A 
ENDBRANCH  17  21
ENDBRANCH   8  16
ENDBRANCH   4   7
ENDBRANCH   2   3
ENDBRANCH   1   2
BRANCH   1  28
ATOM     28  C   UNL A   1      39.684  22.365  26.732  1.00  0.00     0.118 C 
BRANCH  28  29
ATOM     29  N   UNL A   1      40.348  21.240  26.071  1.00  0.00    -0.352 N 
ATOM     30  C   UNL A   1      41.686  20.880  26.051  1.00  0.00     0.251 C 
ATOM     31  H   UNL A   1      39.751  20.645  25.562  1.00  0.00     0.163 HD
ATOM     32  O   UNL A   1      42.060  19.857  25.517  1.00  0.00    -0.269 OA
BRANCH  30  33
ATOM     33  C   UNL A   1      42.625  21.715  26.829  1.00  0.00     0.039 A 
ATOM     34  C   UNL A   1      42.479  21.658  28.215  1.00  0.00     0.014 A 
ATOM     35  C   UNL A   1      43.271  22.778  26.200  1.00  0.00     0.014 A 
ATOM     36  C   UNL A   1      42.703  22.811  28.951  1.00  0.00     0.010 A 
ATOM     37  C   UNL A   1      43.424  23.947  26.923  1.00  0.00     0.010 A 
ATOM     38  C   UNL A   1      43.033  23.982  28.268  1.00  0.00    -0.014 A 
BRANCH  38  39
ATOM     39  C   UNL A   1      42.813  25.298  28.858  1.00  0.00     0.031 A 
ATOM     40  C   UNL A   1      41.673  26.117  28.418  1.00  0.00     0.074 A 
ATOM     41  C   UNL A   1      43.669  25.783  29.788  1.00  0.00     0.049 A 
ATOM     42  N   UNL A   1      41.631  27.401  28.523  1.00  0.00    -0.248 NA
ATOM     43  C   UNL A   1      40.525  25.556  27.710  1.00  0.00     0.031 C 
ATOM     44  C   UNL A   1      43.488  26.956  30.640  1.00  0.00     0.029 A 
ATOM     45  N   UNL A   1      45.012  25.430  29.967  1.00  0.00    -0.354 N 
ATOM     46  C   UNL A   1      40.356  27.791  28.200  1.00  0.00     0.074 A 
ATOM     47  C   UNL A   1      39.767  26.644  27.557  1.00  0.00     0.031 C 
ATOM     48  C   UNL A   1      44.692  27.396  31.036  1.00  0.00     0.029 A 
ATOM     49  C   UNL A   1      45.693  26.606  30.341  1.00  0.00     0.049 A 
ATOM     50  H   UNL A   1      45.405  24.535  29.852  1.00  0.00     0.167 HD
ATOM     51  C   UNL A   1      39.896  28.986  28.659  1.00  0.00     0.031 A 
ATOM     52  C   UNL A   1      46.708  27.120  29.590  1.00  0.00     0.031 A 
ATOM     53  C   UNL A   1      40.979  29.822  29.179  1.00  0.00     0.049 A 
ATOM     54  C   UNL A   1      46.456  28.525  29.089  1.00  0.00     0.074 A 
ATOM     55  C   UNL A   1      41.367  30.211  30.449  1.00  0.00     0.029 A 
ATOM     56  N   UNL A   1      42.022  30.174  28.325  1.00  0.00    -0.354 N 
ATOM     57  N   UNL A   1      45.288  29.106  29.091  1.00  0.00    -0.248 NA
ATOM     58  C   UNL A   1      47.492  29.368  28.499  1.00  0.00     0.031 C 
ATOM     59  C   UNL A   1      42.688  30.736  30.362  1.00  0.00     0.029 A 
ATOM     60  C   UNL A   1      43.080  30.703  29.034  1.00  0.00     0.049 A 
ATOM     61  H   UNL A   1      42.006  30.059  27.348  1.00  0.00     0.167 HD
ATOM     62  C   UNL A   1      45.384  30.343  28.507  1.00  0.00     0.074 A 
ATOM     63  C   UNL A   1      46.792  30.470  28.175  1.00  0.00     0.031 C 
ATOM     64  C   UNL A   1      44.285  31.139  28.332  1.00  0.00     0.031 A 
BRANCH  51  65
ATOM     65  C   UNL A   1      38.428  29.304  28.847  1.00  0.00    -0.014 A 
ATOM     66  C   UNL A   1      37.680  29.795  27.761  1.00  0.00     0.009 A 
ATOM     67  C   UNL A   1      37.750  29.264  30.081  1.00  0.00     0.009 A 
ATOM     68  C   UNL A   1      36.354  30.233  27.908  1.00  0.00     0.001 A 
ATOM     69  C   UNL A   1      36.419  29.674  30.232  1.00  0.00     0.001 A 
ATOM     70  C   UNL A   1      35.723  30.170  29.145  1.00  0.00     0.000 A 
ENDBRANCH  51  65
BRANCH  52  71
ATOM     71  C   UNL A   1      47.509  26.091  28.874  1.00  0.00    -0.014 A 
ATOM     72  C   UNL A   1      47.232  25.857  27.512  1.00  0.00     0.009 A 
ATOM     73  C   UNL A   1      48.722  25.628  29.400  1.00  0.00     0.009 A 
ATOM     74  C   UNL A   1      48.193  25.282  26.674  1.00  0.00     0.001 A 
ATOM     75  C   UNL A   1      49.678  25.045  28.558  1.00  0.00     0.001 A 
ATOM     76  C   UNL A   1      49.428  24.906  27.192  1.00  0.00     0.000 A 
ENDBRANCH  52  71
BRANCH  64  77
ATOM     77  C   UNL A   1      44.208  32.419  27.522  1.00  0.00    -0.014 A 
ATOM     78  C   UNL A   1      44.358  32.508  26.132  1.00  0.00     0.009 A 
ATOM     79  C   UNL A   1      43.848  33.617  28.184  1.00  0.00     0.009 A 
ATOM     80  C   UNL A   1      44.197  33.726  25.451  1.00  0.00     0.001 A 
ATOM     81  C   UNL A   1      43.641  34.822  27.507  1.00  0.00     0.001 A 
ATOM     82  C   UNL A   1      43.829  34.879  26.135  1.00  0.00     0.000 A 
ENDBRANCH  64  77
ENDBRANCH  38  39
ENDBRANCH  30  33
ENDBRANCH  28  29
ENDBRANCH   1  28
TORSDOF 12
ENDMDL
MODEL 2
REMARK VINA RESULT:     -12.4      3.883      9.141
REMARK SMILES Cc1cccc(-c2ncc([C@@H]3[NH2+][C@H](C(=O)NCCCNC(=O)c4ccc(-c5c6nc(c(-c7ccccc7)c7ccc([nH]7)c(-c7ccccc7)c7nc(c(-c8ccccc8)c8ccc5[nH]8)C=C7)C=C6)cc4)C(C)(C)S3)s2)c1
REMARK SMILES IDX 18 1 17 2 16 3 14 4 15 5 13 7 11 8 12 9 74 10 71 13 72 14
REMARK SMILES IDX 73 15 10 16 7 17 8 18 75 19 9 20 6 21 1 22 2 23 3 24 76 25
REMARK SMILES IDX 4 26 5 27 19 28 20 29 21 30 22 32 23 33 24 34 70 35 25 36
REMARK SMILES IDX 69 37 26 38 27 39 28 40 63 41 29 42 68 43 62 44 64 45 30 46
REMARK SMILES IDX 67 47 61 48 60 49 31 51 53 52 38 53 52 54 39 55 42 56 51 57
REMARK SMILES IDX 65 58 40 59 41 60 50 62 66 63 43 64 32 65 33 66 37 67 34 68
REMARK SMILES IDX 36 69 35 70 54 71 55 72 59 73 56 74 58 75 57 76 44 77 45 78
REMARK SMILES IDX 49 79 46 80 48 81 47 82
REMARK H PARENT 16 6 12 11 12 12 20 31 64 50 42 61
REMARK Flexibility Score: inf
ROOT
ATOM      1  C   UNL A   1      34.142  30.175  27.233  1.00  0.00     0.042 C 
ENDROOT
BRANCH   1   2
ATOM      2  C   UNL A   1      32.634  30.337  27.086  1.00  0.00     0.118 C 
BRANCH   2   3
ATOM      3  N   UNL A   1      32.020  29.054  26.850  1.00  0.00    -0.351 N 
ATOM      4  C   UNL A   1      31.363  28.496  25.810  1.00  0.00     0.279 C 
ATOM      5  O   UNL A   1      31.081  27.308  26.030  1.00  0.00    -0.268 OA
ATOM      6  H   UNL A   1      32.097  28.446  27.621  1.00  0.00     0.163 HD
BRANCH   4   7
ATOM      7  C   UNL A   1      31.125  29.134  24.387  1.00  0.00     0.289 C 
ATOM      8  C   UNL A   1      32.785  28.049  22.983  1.00  0.00     0.286 C 
ATOM      9  N   UNL A   1      32.491  29.266  23.755  1.00  0.00    -0.319 N 
ATOM     10  S   UNL A   1      31.231  27.474  22.264  1.00  0.00    -0.080 SA
ATOM     11  H   UNL A   1      32.504  30.075  23.136  1.00  0.00     0.348 HD
ATOM     12  H   UNL A   1      33.195  29.388  24.483  1.00  0.00     0.348 HD
ATOM     13  C   UNL A   1      30.207  28.637  23.226  1.00  0.00     0.077 C 
ATOM     14  C   UNL A   1      29.866  29.816  22.280  1.00  0.00     0.030 C 
ATOM     15  C   UNL A   1      28.899  27.926  23.515  1.00  0.00     0.030 C 
BRANCH   8  16
ATOM     16  C   UNL A   1      33.485  26.955  23.734  1.00  0.00     0.093 A 
ATOM     17  C   UNL A   1      34.405  24.806  24.480  1.00  0.00     0.123 A 
ATOM     18  N   UNL A   1      34.534  25.711  25.431  1.00  0.00    -0.244 NA
ATOM     19  S   UNL A   1      33.649  25.387  23.042  1.00  0.00    -0.112 S 
ATOM     20  C   UNL A   1      34.038  26.924  25.002  1.00  0.00     0.134 A 
BRANCH  17  21
ATOM     21  C   UNL A   1      34.792  23.391  24.637  1.00  0.00     0.011 A 
ATOM     22  C   UNL A   1      38.019  21.447  25.321  1.00  0.00     0.044 C 
ATOM     23  C   UNL A   1      36.576  21.758  25.057  1.00  0.00    -0.050 A 
ATOM     24  C   UNL A   1      35.638  20.725  24.991  1.00  0.00     0.003 A 
ATOM     25  C   UNL A   1      36.145  23.080  24.874  1.00  0.00     0.014 A 
ATOM     26  C   UNL A   1      34.296  21.008  24.741  1.00  0.00     0.001 A 
ATOM     27  C   UNL A   1      33.877  22.330  24.564  1.00  0.00     0.011 A 
ENDBRANCH  17  21
ENDBRANCH   8  16
ENDBRANCH   4   7
ENDBRANCH   2   3
ENDBRANCH   1   2
BRANCH   1  28
ATOM     28  C   UNL A   1      34.832  31.323  27.952  1.00  0.00     0.118 C 
BRANCH  28  29
ATOM     29  N   UNL A   1      33.874  32.376  28.296  1.00  0.00    -0.352 N 
ATOM     30  C   UNL A   1      34.018  33.477  29.125  1.00  0.00     0.251 C 
ATOM     31  H   UNL A   1      32.990  32.288  27.871  1.00  0.00     0.163 HD
ATOM     32  O   UNL A   1      33.141  34.307  29.234  1.00  0.00    -0.269 OA
BRANCH  30  33
ATOM     33  C   UNL A   1      35.336  33.680  29.761  1.00  0.00     0.039 A 
ATOM     34  C   UNL A   1      36.343  34.164  28.925  1.00  0.00     0.014 A 
ATOM     35  C   UNL A   1      35.624  33.019  30.954  1.00  0.00     0.014 A 
ATOM     36  C   UNL A   1      37.639  33.717  29.125  1.00  0.00     0.010 A 
ATOM     37  C   UNL A   1      36.903  32.515  31.109  1.00  0.00     0.010 A 
ATOM     38  C   UNL A   1      37.872  32.779  30.132  1.00  0.00    -0.014 A 
BRANCH  38  39
ATOM     39  C   UNL A   1      39.042  31.909  30.109  1.00  0.00     0.031 A 
ATOM     40  C   UNL A   1      38.892  30.489  29.756  1.00  0.00     0.074 A 
ATOM     41  C   UNL A   1      40.262  32.394  30.440  1.00  0.00     0.049 A 
ATOM     42  N   UNL A   1      39.719  29.569  30.119  1.00  0.00    -0.248 NA
ATOM     43  C   UNL A   1      37.719  29.970  29.056  1.00  0.00     0.031 C 
ATOM     44  C   UNL A   1      41.558  31.743  30.257  1.00  0.00     0.029 A 
ATOM     45  N   UNL A   1      40.541  33.499  31.252  1.00  0.00    -0.354 N 
ATOM     46  C   UNL A   1      39.370  28.425  29.449  1.00  0.00     0.074 A 
ATOM     47  C   UNL A   1      38.047  28.680  28.938  1.00  0.00     0.031 C 
ATOM     48  C   UNL A   1      42.435  32.270  31.125  1.00  0.00     0.029 A 
ATOM     49  C   UNL A   1      41.700  33.178  31.988  1.00  0.00     0.049 A 
ATOM     50  H   UNL A   1      40.028  34.337  31.301  1.00  0.00     0.167 HD
ATOM     51  C   UNL A   1      40.306  27.454  29.269  1.00  0.00     0.031 A 
ATOM     52  C   UNL A   1      41.696  33.125  33.350  1.00  0.00     0.031 A 
ATOM     53  C   UNL A   1      41.480  27.667  30.118  1.00  0.00     0.049 A 
ATOM     54  C   UNL A   1      42.077  31.776  33.918  1.00  0.00     0.074 A 
ATOM     55  C   UNL A   1      42.780  28.071  29.872  1.00  0.00     0.029 A 
ATOM     56  N   UNL A   1      41.309  27.712  31.499  1.00  0.00    -0.354 N 
ATOM     57  N   UNL A   1      42.117  30.673  33.223  1.00  0.00    -0.248 NA
ATOM     58  C   UNL A   1      42.397  31.555  35.326  1.00  0.00     0.031 C 
ATOM     59  C   UNL A   1      43.369  28.430  31.118  1.00  0.00     0.029 A 
ATOM     60  C   UNL A   1      42.439  28.202  32.118  1.00  0.00     0.049 A 
ATOM     61  H   UNL A   1      40.491  27.432  31.969  1.00  0.00     0.167 HD
ATOM     62  C   UNL A   1      42.427  29.618  34.044  1.00  0.00     0.074 A 
ATOM     63  C   UNL A   1      42.617  30.229  35.348  1.00  0.00     0.031 C 
ATOM     64  C   UNL A   1      42.476  28.335  33.573  1.00  0.00     0.031 A 
BRANCH  51  65
ATOM     65  C   UNL A   1      40.253  26.434  28.153  1.00  0.00    -0.014 A 
ATOM     66  C   UNL A   1      40.967  26.668  26.964  1.00  0.00     0.009 A 
ATOM     67  C   UNL A   1      39.430  25.290  28.149  1.00  0.00     0.009 A 
ATOM     68  C   UNL A   1      40.849  25.827  25.846  1.00  0.00     0.001 A 
ATOM     69  C   UNL A   1      39.326  24.431  27.048  1.00  0.00     0.001 A 
ATOM     70  C   UNL A   1      40.029  24.706  25.889  1.00  0.00     0.000 A 
ENDBRANCH  51  65
BRANCH  52  71
ATOM     71  C   UNL A   1      40.751  34.081  33.988  1.00  0.00    -0.014 A 
ATOM     72  C   UNL A   1      39.513  33.591  34.450  1.00  0.00     0.009 A 
ATOM     73  C   UNL A   1      41.191  35.330  34.449  1.00  0.00     0.009 A 
ATOM     74  C   UNL A   1      38.794  34.274  35.435  1.00  0.00     0.001 A 
ATOM     75  C   UNL A   1      40.462  36.015  35.429  1.00  0.00     0.001 A 
ATOM     76  C   UNL A   1      39.286  35.470  35.947  1.00  0.00     0.000 A 
ENDBRANCH  52  71
BRANCH  64  77
ATOM     77  C   UNL A   1      42.594  27.067  34.396  1.00  0.00    -0.014 A 
ATOM     78  C   UNL A   1      41.646  26.611  35.322  1.00  0.00     0.009 A 
ATOM     79  C   UNL A   1      43.685  26.200  34.150  1.00  0.00     0.009 A 
ATOM     80  C   UNL A   1      41.800  25.385  35.990  1.00  0.00     0.001 A 
ATOM     81  C   UNL A   1      43.820  24.957  34.775  1.00  0.00     0.001 A 
ATOM     82  C   UNL A   1      42.878  24.554  35.708  1.00  0.00     0.000 A 
ENDBRANCH  64  77
ENDBRANCH  38  39
ENDBRANCH  30  33
ENDBRANCH  28  29
ENDBRANCH   1  28
TORSDOF 12
ENDMDL
MODEL 3
REMARK VINA RESULT:     -12.4      3.748      9.217
REMARK SMILES Cc1cccc(-c2ncc([C@@H]3[NH2+][C@H](C(=O)NCCCNC(=O)c4ccc(-c5c6nc(c(-c7ccccc7)c7ccc([nH]7)c(-c7ccccc7)c7nc(c(-c8ccccc8)c8ccc5[nH]8)C=C7)C=C6)cc4)C(C)(C)S3)s2)c1
REMARK SMILES IDX 18 1 17 2 16 3 14 4 15 5 13 7 11 8 12 9 74 10 71 13 72 14
REMARK SMILES IDX 73 15 10 16 7 17 8 18 75 19 9 20 6 21 1 22 2 23 3 24 76 25
REMARK SMILES IDX 4 26 5 27 19 28 20 29 21 30 22 32 23 33 24 34 70 35 25 36
REMARK SMILES IDX 69 37 26 38 27 39 28 40 63 41 29 42 68 43 62 44 64 45 30 46
REMARK SMILES IDX 67 47 61 48 60 49 31 51 53 52 38 53 52 54 39 55 42 56 51 57
REMARK SMILES IDX 65 58 40 59 41 60 50 62 66 63 43 64 32 65 33 66 37 67 34 68
REMARK SMILES IDX 36 69 35 70 54 71 55 72 59 73 56 74 58 75 57 76 44 77 45 78
REMARK SMILES IDX 49 79 46 80 48 81 47 82
REMARK H PARENT 16 6 12 11 12 12 20 31 64 50 42 61
REMARK Flexibility Score: inf
ROOT
ATOM      1  C   UNL A   1      34.151  29.212  27.490  1.00  0.00     0.042 C 
ENDROOT
BRANCH   1   2
ATOM      2  C   UNL A   1      32.649  29.356  27.276  1.00  0.00     0.118 C 
BRANCH   2   3
ATOM      3  N   UNL A   1      32.072  28.077  26.948  1.00  0.00    -0.351 N 
ATOM      4  C   UNL A   1      31.462  27.566  25.856  1.00  0.00     0.279 C 
ATOM      5  O   UNL A   1      31.200  26.361  25.999  1.00  0.00    -0.268 OA
ATOM      6  H   UNL A   1      32.138  27.427  27.685  1.00  0.00     0.163 HD
BRANCH   4   7
ATOM      7  C   UNL A   1      31.256  28.279  24.464  1.00  0.00     0.289 C 
ATOM      8  C   UNL A   1      32.916  27.234  23.029  1.00  0.00     0.286 C 
ATOM      9  N   UNL A   1      32.633  28.416  23.858  1.00  0.00    -0.319 N 
ATOM     10  S   UNL A   1      31.362  26.726  22.262  1.00  0.00    -0.080 SA
ATOM     11  H   UNL A   1      32.670  29.255  23.281  1.00  0.00     0.348 HD
ATOM     12  H   UNL A   1      33.329  28.488  24.601  1.00  0.00     0.348 HD
ATOM     13  C   UNL A   1      30.346  27.859  23.268  1.00  0.00     0.077 C 
ATOM     14  C   UNL A   1      30.040  29.090  22.377  1.00  0.00     0.030 C 
ATOM     15  C   UNL A   1      29.021  27.160  23.503  1.00  0.00     0.030 C 
BRANCH   8  16
ATOM     16  C   UNL A   1      33.584  26.090  23.733  1.00  0.00     0.093 A 
ATOM     17  C   UNL A   1      34.357  23.874  24.448  1.00  0.00     0.123 A 
ATOM     18  N   UNL A   1      34.701  24.785  25.338  1.00  0.00    -0.244 NA
ATOM     19  S   UNL A   1      33.492  24.496  23.091  1.00  0.00    -0.112 S 
ATOM     20  C   UNL A   1      34.287  26.034  24.923  1.00  0.00     0.134 A 
BRANCH  17  21
ATOM     21  C   UNL A   1      34.608  22.429  24.615  1.00  0.00     0.011 A 
ATOM     22  C   UNL A   1      32.531  19.214  24.516  1.00  0.00     0.044 C 
ATOM     23  C   UNL A   1      33.696  20.151  24.639  1.00  0.00    -0.050 A 
ATOM     24  C   UNL A   1      34.976  19.647  24.881  1.00  0.00     0.003 A 
ATOM     25  C   UNL A   1      33.523  21.537  24.514  1.00  0.00     0.014 A 
ATOM     26  C   UNL A   1      36.062  20.513  25.002  1.00  0.00     0.001 A 
ATOM     27  C   UNL A   1      35.879  21.893  24.871  1.00  0.00     0.011 A 
ENDBRANCH  17  21
ENDBRANCH   8  16
ENDBRANCH   4   7
ENDBRANCH   2   3
ENDBRANCH   1   2
BRANCH   1  28
ATOM     28  C   UNL A   1      34.892  30.529  27.665  1.00  0.00     0.118 C 
BRANCH  28  29
ATOM     29  N   UNL A   1      33.967  31.661  27.596  1.00  0.00    -0.352 N 
ATOM     30  C   UNL A   1      33.948  32.843  28.320  1.00  0.00     0.251 C 
ATOM     31  H   UNL A   1      33.247  31.570  26.931  1.00  0.00     0.163 HD
ATOM     32  O   UNL A   1      33.151  33.724  28.075  1.00  0.00    -0.269 OA
BRANCH  30  33
ATOM     33  C   UNL A   1      35.027  33.051  29.308  1.00  0.00     0.039 A 
ATOM     34  C   UNL A   1      36.067  33.887  28.900  1.00  0.00     0.014 A 
ATOM     35  C   UNL A   1      35.182  32.136  30.347  1.00  0.00     0.014 A 
ATOM     36  C   UNL A   1      37.354  33.593  29.323  1.00  0.00     0.010 A 
ATOM     37  C   UNL A   1      36.474  31.799  30.711  1.00  0.00     0.010 A 
ATOM     38  C   UNL A   1      37.554  32.459  30.110  1.00  0.00    -0.014 A 
BRANCH  38  39
ATOM     39  C   UNL A   1      38.856  31.807  30.192  1.00  0.00     0.031 A 
ATOM     40  C   UNL A   1      39.058  30.492  29.564  1.00  0.00     0.074 A 
ATOM     41  C   UNL A   1      39.873  32.391  30.870  1.00  0.00     0.049 A 
ATOM     42  N   UNL A   1      39.968  29.655  29.931  1.00  0.00    -0.248 NA
ATOM     43  C   UNL A   1      38.164  29.962  28.538  1.00  0.00     0.031 C 
ATOM     44  C   UNL A   1      41.282  32.006  30.867  1.00  0.00     0.029 A 
ATOM     45  N   UNL A   1      39.770  33.323  31.910  1.00  0.00    -0.354 N 
ATOM     46  C   UNL A   1      39.983  28.644  29.005  1.00  0.00     0.074 A 
ATOM     47  C   UNL A   1      38.756  28.796  28.265  1.00  0.00     0.031 C 
ATOM     48  C   UNL A   1      41.859  32.461  31.990  1.00  0.00     0.029 A 
ATOM     49  C   UNL A   1      40.810  33.033  32.816  1.00  0.00     0.049 A 
ATOM     50  H   UNL A   1      39.102  34.040  31.993  1.00  0.00     0.167 HD
ATOM     51  C   UNL A   1      41.109  27.893  28.867  1.00  0.00     0.031 A 
ATOM     52  C   UNL A   1      40.561  32.684  34.110  1.00  0.00     0.031 A 
ATOM     53  C   UNL A   1      42.037  28.096  29.980  1.00  0.00     0.049 A 
ATOM     54  C   UNL A   1      41.088  31.320  34.496  1.00  0.00     0.074 A 
ATOM     55  C   UNL A   1      43.255  28.740  30.110  1.00  0.00     0.029 A 
ATOM     56  N   UNL A   1      41.605  27.812  31.273  1.00  0.00    -0.354 N 
ATOM     57  N   UNL A   1      41.474  30.414  33.640  1.00  0.00    -0.248 NA
ATOM     58  C   UNL A   1      41.175  30.850  35.876  1.00  0.00     0.031 C 
ATOM     59  C   UNL A   1      43.517  28.906  31.499  1.00  0.00     0.029 A 
ATOM     60  C   UNL A   1      42.480  28.325  32.208  1.00  0.00     0.049 A 
ATOM     61  H   UNL A   1      40.785  27.312  31.490  1.00  0.00     0.167 HD
ATOM     62  C   UNL A   1      41.828  29.268  34.305  1.00  0.00     0.074 A 
ATOM     63  C   UNL A   1      41.645  29.601  35.707  1.00  0.00     0.031 C 
ATOM     64  C   UNL A   1      42.216  28.142  33.633  1.00  0.00     0.031 A 
BRANCH  51  65
ATOM     65  C   UNL A   1      41.469  27.145  27.601  1.00  0.00    -0.014 A 
ATOM     66  C   UNL A   1      40.927  25.867  27.373  1.00  0.00     0.009 A 
ATOM     67  C   UNL A   1      42.422  27.577  26.658  1.00  0.00     0.009 A 
ATOM     68  C   UNL A   1      41.328  25.072  26.287  1.00  0.00     0.001 A 
ATOM     69  C   UNL A   1      42.808  26.801  25.557  1.00  0.00     0.001 A 
ATOM     70  C   UNL A   1      42.268  25.541  25.377  1.00  0.00     0.000 A 
ENDBRANCH  51  65
BRANCH  52  71
ATOM     71  C   UNL A   1      39.344  33.320  34.682  1.00  0.00    -0.014 A 
ATOM     72  C   UNL A   1      38.084  32.871  34.239  1.00  0.00     0.009 A 
ATOM     73  C   UNL A   1      39.410  34.069  35.865  1.00  0.00     0.009 A 
ATOM     74  C   UNL A   1      36.940  33.062  35.019  1.00  0.00     0.001 A 
ATOM     75  C   UNL A   1      38.259  34.266  36.639  1.00  0.00     0.001 A 
ATOM     76  C   UNL A   1      37.034  33.732  36.235  1.00  0.00     0.000 A 
ENDBRANCH  52  71
BRANCH  64  77
ATOM     77  C   UNL A   1      42.425  26.758  34.219  1.00  0.00    -0.014 A 
ATOM     78  C   UNL A   1      41.526  26.091  35.062  1.00  0.00     0.009 A 
ATOM     79  C   UNL A   1      43.560  26.016  33.812  1.00  0.00     0.009 A 
ATOM     80  C   UNL A   1      41.765  24.779  35.501  1.00  0.00     0.001 A 
ATOM     81  C   UNL A   1      43.780  24.694  34.208  1.00  0.00     0.001 A 
ATOM     82  C   UNL A   1      42.884  24.077  35.066  1.00  0.00     0.000 A 
ENDBRANCH  64  77
ENDBRANCH  38  39
ENDBRANCH  30  33
ENDBRANCH  28  29
ENDBRANCH   1  28
TORSDOF 12
ENDMDL
