MODEL 1
REMARK VINA RESULT:     -11.1      0.000      0.000
REMARK SMILES CCCc1cc(OC(F)(F)F)cc2c1O[C@@H](C(F)(F)F)C(C(=O)NCCCNC(=O)c1ccc(-c3c4nc(c(-c5ccccc5)c5ccc([nH]5)c(-c5ccccc5)c5nc(c(-c6ccccc6)c6ccc3[nH]6)C=C5)C=C4)cc1)=C2
REMARK SMILES IDX 26 1 25 2 24 3 22 4 23 5 21 7 4 8 5 9 14 10 6 11 13 12 15 13
REMARK SMILES IDX 12 14 79 15 16 16 3 17 2 18 1 19 7 20 8 21 9 22 10 23 11 24
REMARK SMILES IDX 17 25 18 26 19 27 20 28 27 29 28 30 29 31 30 33 31 34 32 35
REMARK SMILES IDX 78 36 33 37 77 38 34 39 35 40 36 41 71 42 37 43 76 44 70 45
REMARK SMILES IDX 72 46 38 47 75 48 69 49 68 50 39 52 61 53 46 54 60 55 47 56
REMARK SMILES IDX 50 57 59 58 73 59 48 60 49 61 58 63 74 64 51 65 40 66 41 67
REMARK SMILES IDX 45 68 42 69 44 70 43 71 62 72 63 73 67 74 64 75 66 76 65 77
REMARK SMILES IDX 52 78 53 79 57 80 54 81 56 82 55 83
REMARK H PARENT 24 6 28 32 72 51 50 62
REMARK Flexibility Score: inf
ROOT
ATOM      1  C   UNL A   1      36.812  23.385  23.811  1.00  0.00     0.042 C 
ENDROOT
BRANCH   1   2
ATOM      2  C   UNL A   1      35.383  23.004  23.417  1.00  0.00     0.118 C 
BRANCH   2   3
ATOM      3  N   UNL A   1      34.672  22.469  24.565  1.00  0.00    -0.352 N 
ATOM      4  C   UNL A   1      33.770  23.018  25.418  1.00  0.00     0.251 C 
ATOM      5  O   UNL A   1      33.467  22.384  26.426  1.00  0.00    -0.270 OA
ATOM      6  H   UNL A   1      34.885  21.529  24.762  1.00  0.00     0.163 HD
BRANCH   4   7
ATOM      7  C   UNL A   1      33.090  24.306  25.141  1.00  0.00     0.067 C 
ATOM      8  C   UNL A   1      30.902  27.773  24.192  1.00  0.00    -0.002 A 
ATOM      9  C   UNL A   1      31.401  29.019  24.639  1.00  0.00     0.054 A 
ATOM     10  C   UNL A   1      31.661  26.626  24.460  1.00  0.00     0.131 A 
ATOM     11  C   UNL A   1      32.596  29.113  25.357  1.00  0.00     0.130 A 
ATOM     12  C   UNL A   1      32.823  26.702  25.235  1.00  0.00     0.021 A 
ATOM     13  O   UNL A   1      31.306  25.448  23.871  1.00  0.00    -0.475 OA
ATOM     14  C   UNL A   1      33.285  27.944  25.676  1.00  0.00     0.058 A 
ATOM     15  C   UNL A   1      33.576  25.492  25.534  1.00  0.00     0.025 C 
ATOM     16  C   UNL A   1      31.702  24.212  24.524  1.00  0.00     0.314 C 
BRANCH   8  17
ATOM     17  C   UNL A   1      29.588  27.805  23.430  1.00  0.00     0.039 C 
BRANCH  17  18
ATOM     18  C   UNL A   1      29.158  29.054  22.649  1.00  0.00     0.001 C 
ATOM     19  C   UNL A   1      27.714  29.476  22.893  1.00  0.00     0.004 C 
ENDBRANCH  17  18
ENDBRANCH   8  17
BRANCH  11  20
ATOM     20  O   UNL A   1      33.195  30.255  25.802  1.00  0.00    -0.406 OA
BRANCH  20  21
ATOM     21  C   UNL A   1      32.911  30.684  27.123  1.00  0.00     0.573 C 
ATOM     22  F   UNL A   1      32.542  31.981  27.151  1.00  0.00    -0.132 F 
ATOM     23  F   UNL A   1      31.942  29.925  27.677  1.00  0.00    -0.132 F 
ATOM     24  F   UNL A   1      34.030  30.549  27.870  1.00  0.00    -0.132 F 
ENDBRANCH  20  21
ENDBRANCH  11  20
BRANCH  16  25
ATOM     25  C   UNL A   1      31.468  23.072  23.507  1.00  0.00     0.429 C 
ATOM     26  F   UNL A   1      31.500  21.847  24.077  1.00  0.00    -0.167 F 
ATOM     27  F   UNL A   1      30.236  23.173  22.939  1.00  0.00    -0.167 F 
ATOM     28  F   UNL A   1      32.365  23.091  22.494  1.00  0.00    -0.167 F 
ENDBRANCH  16  25
ENDBRANCH   4   7
ENDBRANCH   2   3
ENDBRANCH   1   2
BRANCH   1  29
ATOM     29  C   UNL A   1      37.024  23.423  25.322  1.00  0.00     0.118 C 
BRANCH  29  30
ATOM     30  N   UNL A   1      38.015  22.448  25.748  1.00  0.00    -0.352 N 
ATOM     31  C   UNL A   1      39.245  22.644  26.319  1.00  0.00     0.251 C 
ATOM     32  H   UNL A   1      37.765  21.506  25.603  1.00  0.00     0.163 HD
ATOM     33  O   UNL A   1      40.049  21.718  26.365  1.00  0.00    -0.269 OA
BRANCH  31  34
ATOM     34  C   UNL A   1      39.610  23.963  26.876  1.00  0.00     0.039 A 
ATOM     35  C   UNL A   1      39.196  24.286  28.171  1.00  0.00     0.014 A 
ATOM     36  C   UNL A   1      40.308  24.902  26.109  1.00  0.00     0.014 A 
ATOM     37  C   UNL A   1      39.515  25.534  28.713  1.00  0.00     0.010 A 
ATOM     38  C   UNL A   1      40.680  26.120  26.672  1.00  0.00     0.010 A 
ATOM     39  C   UNL A   1      40.279  26.452  27.975  1.00  0.00    -0.014 A 
BRANCH  39  40
ATOM     40  C   UNL A   1      40.662  27.768  28.545  1.00  0.00     0.031 A 
ATOM     41  C   UNL A   1      42.056  27.988  29.067  1.00  0.00     0.074 A 
ATOM     42  C   UNL A   1      39.734  28.738  28.660  1.00  0.00     0.049 A 
ATOM     43  N   UNL A   1      42.553  29.034  29.676  1.00  0.00    -0.248 NA
ATOM     44  C   UNL A   1      43.010  26.877  28.906  1.00  0.00     0.031 C 
ATOM     45  C   UNL A   1      38.337  28.631  28.232  1.00  0.00     0.029 A 
ATOM     46  N   UNL A   1      39.824  30.000  29.189  1.00  0.00    -0.354 N 
ATOM     47  C   UNL A   1      43.862  28.698  29.998  1.00  0.00     0.074 A 
ATOM     48  C   UNL A   1      44.075  27.341  29.545  1.00  0.00     0.031 C 
ATOM     49  C   UNL A   1      37.705  29.783  28.507  1.00  0.00     0.029 A 
ATOM     50  C   UNL A   1      38.637  30.693  29.164  1.00  0.00     0.049 A 
ATOM     51  H   UNL A   1      40.658  30.374  29.554  1.00  0.00     0.167 HD
ATOM     52  C   UNL A   1      44.806  29.456  30.604  1.00  0.00     0.031 A 
ATOM     53  C   UNL A   1      38.330  31.918  29.630  1.00  0.00     0.031 A 
ATOM     54  C   UNL A   1      44.601  30.816  31.025  1.00  0.00     0.049 A 
ATOM     55  C   UNL A   1      39.403  32.743  30.285  1.00  0.00     0.074 A 
ATOM     56  C   UNL A   1      45.520  31.694  31.574  1.00  0.00     0.029 A 
ATOM     57  N   UNL A   1      43.396  31.494  30.946  1.00  0.00    -0.354 N 
ATOM     58  N   UNL A   1      40.659  32.441  30.504  1.00  0.00    -0.248 NA
ATOM     59  C   UNL A   1      39.018  34.086  30.744  1.00  0.00     0.031 C 
ATOM     60  C   UNL A   1      44.858  32.888  31.871  1.00  0.00     0.029 A 
ATOM     61  C   UNL A   1      43.541  32.771  31.460  1.00  0.00     0.049 A 
ATOM     62  H   UNL A   1      42.561  31.123  30.578  1.00  0.00     0.167 HD
ATOM     63  C   UNL A   1      41.220  33.562  31.101  1.00  0.00     0.074 A 
ATOM     64  C   UNL A   1      40.173  34.558  31.193  1.00  0.00     0.031 C 
ATOM     65  C   UNL A   1      42.489  33.750  31.536  1.00  0.00     0.031 A 
BRANCH  52  66
ATOM     66  C   UNL A   1      46.149  28.834  30.859  1.00  0.00    -0.014 A 
ATOM     67  C   UNL A   1      46.413  28.127  32.041  1.00  0.00     0.009 A 
ATOM     68  C   UNL A   1      47.144  28.900  29.869  1.00  0.00     0.009 A 
ATOM     69  C   UNL A   1      47.656  27.520  32.239  1.00  0.00     0.001 A 
ATOM     70  C   UNL A   1      48.375  28.270  30.059  1.00  0.00     0.001 A 
ATOM     71  C   UNL A   1      48.632  27.586  31.247  1.00  0.00     0.000 A 
ENDBRANCH  52  66
BRANCH  53  72
ATOM     72  C   UNL A   1      36.946  32.442  29.502  1.00  0.00    -0.014 A 
ATOM     73  C   UNL A   1      36.575  33.217  28.393  1.00  0.00     0.009 A 
ATOM     74  C   UNL A   1      35.994  32.189  30.502  1.00  0.00     0.009 A 
ATOM     75  C   UNL A   1      35.288  33.755  28.303  1.00  0.00     0.001 A 
ATOM     76  C   UNL A   1      34.700  32.702  30.396  1.00  0.00     0.001 A 
ATOM     77  C   UNL A   1      34.352  33.495  29.303  1.00  0.00     0.000 A 
ENDBRANCH  53  72
BRANCH  65  78
ATOM     78  C   UNL A   1      42.825  35.095  32.115  1.00  0.00    -0.014 A 
ATOM     79  C   UNL A   1      42.563  35.393  33.461  1.00  0.00     0.009 A 
ATOM     80  C   UNL A   1      43.455  36.058  31.312  1.00  0.00     0.009 A 
ATOM     81  C   UNL A   1      42.900  36.643  33.982  1.00  0.00     0.001 A 
ATOM     82  C   UNL A   1      43.815  37.296  31.844  1.00  0.00     0.001 A 
ATOM     83  C   UNL A   1      43.530  37.591  33.176  1.00  0.00     0.000 A 
ENDBRANCH  65  78
ENDBRANCH  39  40
ENDBRANCH  31  34
ENDBRANCH  29  30
ENDBRANCH   1  29
TORSDOF 15
ENDMDL
MODEL 2
REMARK VINA RESULT:     -11.1      2.721      7.944
REMARK SMILES CCCc1cc(OC(F)(F)F)cc2c1O[C@@H](C(F)(F)F)C(C(=O)NCCCNC(=O)c1ccc(-c3c4nc(c(-c5ccccc5)c5ccc([nH]5)c(-c5ccccc5)c5nc(c(-c6ccccc6)c6ccc3[nH]6)C=C5)C=C4)cc1)=C2
REMARK SMILES IDX 26 1 25 2 24 3 22 4 23 5 21 7 4 8 5 9 14 10 6 11 13 12 15 13
REMARK SMILES IDX 12 14 79 15 16 16 3 17 2 18 1 19 7 20 8 21 9 22 10 23 11 24
REMARK SMILES IDX 17 25 18 26 19 27 20 28 27 29 28 30 29 31 30 33 31 34 32 35
REMARK SMILES IDX 78 36 33 37 77 38 34 39 35 40 36 41 71 42 37 43 76 44 70 45
REMARK SMILES IDX 72 46 38 47 75 48 69 49 68 50 39 52 61 53 46 54 60 55 47 56
REMARK SMILES IDX 50 57 59 58 73 59 48 60 49 61 58 63 74 64 51 65 40 66 41 67
REMARK SMILES IDX 45 68 42 69 44 70 43 71 62 72 63 73 67 74 64 75 66 76 65 77
REMARK SMILES IDX 52 78 53 79 57 80 54 81 56 82 55 83
REMARK H PARENT 24 6 28 32 72 51 50 62
REMARK Flexibility Score: inf
ROOT
ATOM      1  C   UNL A   1      33.918  28.037  25.851  1.00  0.00     0.042 C 
ENDROOT
BRANCH   1   2
ATOM      2  C   UNL A   1      32.607  27.917  25.069  1.00  0.00     0.118 C 
BRANCH   2   3
ATOM      3  N   UNL A   1      32.879  27.816  23.646  1.00  0.00    -0.352 N 
ATOM      4  C   UNL A   1      33.366  26.809  22.878  1.00  0.00     0.251 C 
ATOM      5  O   UNL A   1      33.674  27.064  21.716  1.00  0.00    -0.270 OA
ATOM      6  H   UNL A   1      32.671  28.635  23.142  1.00  0.00     0.163 HD
BRANCH   4   7
ATOM      7  C   UNL A   1      33.470  25.412  23.363  1.00  0.00     0.067 C 
ATOM      8  C   UNL A   1      33.431  21.394  24.617  1.00  0.00    -0.002 A 
ATOM      9  C   UNL A   1      34.596  20.877  25.230  1.00  0.00     0.054 A 
ATOM     10  C   UNL A   1      33.426  22.748  24.251  1.00  0.00     0.131 A 
ATOM     11  C   UNL A   1      35.726  21.670  25.441  1.00  0.00     0.130 A 
ATOM     12  C   UNL A   1      34.575  23.532  24.397  1.00  0.00     0.021 A 
ATOM     13  O   UNL A   1      32.254  23.317  23.845  1.00  0.00    -0.475 OA
ATOM     14  C   UNL A   1      35.716  22.991  24.993  1.00  0.00     0.058 A 
ATOM     15  C   UNL A   1      34.559  24.926  23.976  1.00  0.00     0.025 C 
ATOM     16  C   UNL A   1      32.326  24.483  22.983  1.00  0.00     0.314 C 
BRANCH   8  17
ATOM     17  C   UNL A   1      32.274  20.426  24.437  1.00  0.00     0.039 C 
BRANCH  17  18
ATOM     18  C   UNL A   1      32.509  18.910  24.413  1.00  0.00     0.001 C 
ATOM     19  C   UNL A   1      32.466  18.294  23.021  1.00  0.00     0.004 C 
ENDBRANCH  17  18
ENDBRANCH   8  17
BRANCH  11  20
ATOM     20  O   UNL A   1      36.885  21.297  26.056  1.00  0.00    -0.406 OA
BRANCH  20  21
ATOM     21  C   UNL A   1      38.060  21.218  25.268  1.00  0.00     0.573 C 
ATOM     22  F   UNL A   1      38.910  22.227  25.550  1.00  0.00    -0.132 F 
ATOM     23  F   UNL A   1      38.684  20.036  25.453  1.00  0.00    -0.132 F 
ATOM     24  F   UNL A   1      37.714  21.312  23.965  1.00  0.00    -0.132 F 
ENDBRANCH  20  21
ENDBRANCH  11  20
BRANCH  16  25
ATOM     25  C   UNL A   1      30.910  25.102  22.946  1.00  0.00     0.429 C 
ATOM     26  F   UNL A   1      30.627  25.828  24.050  1.00  0.00    -0.167 F 
ATOM     27  F   UNL A   1      30.785  25.967  21.904  1.00  0.00    -0.167 F 
ATOM     28  F   UNL A   1      29.943  24.168  22.794  1.00  0.00    -0.167 F 
ENDBRANCH  16  25
ENDBRANCH   4   7
ENDBRANCH   2   3
ENDBRANCH   1   2
BRANCH   1  29
ATOM     29  C   UNL A   1      33.703  28.351  27.330  1.00  0.00     0.118 C 
BRANCH  29  30
ATOM     30  N   UNL A   1      33.640  29.784  27.568  1.00  0.00    -0.352 N 
ATOM     31  C   UNL A   1      34.546  30.609  28.182  1.00  0.00     0.251 C 
ATOM     32  H   UNL A   1      32.824  30.228  27.240  1.00  0.00     0.163 HD
ATOM     33  O   UNL A   1      34.206  31.736  28.527  1.00  0.00    -0.269 OA
BRANCH  31  34
ATOM     34  C   UNL A   1      35.928  30.149  28.434  1.00  0.00     0.039 A 
ATOM     35  C   UNL A   1      36.256  29.660  29.701  1.00  0.00     0.014 A 
ATOM     36  C   UNL A   1      36.912  30.251  27.446  1.00  0.00     0.014 A 
ATOM     37  C   UNL A   1      37.560  29.234  29.967  1.00  0.00     0.010 A 
ATOM     38  C   UNL A   1      38.195  29.768  27.691  1.00  0.00     0.010 A 
ATOM     39  C   UNL A   1      38.534  29.265  28.957  1.00  0.00    -0.014 A 
BRANCH  39  40
ATOM     40  C   UNL A   1      39.916  28.783  29.205  1.00  0.00     0.031 A 
ATOM     41  C   UNL A   1      40.940  29.705  29.808  1.00  0.00     0.074 A 
ATOM     42  C   UNL A   1      40.266  27.541  28.817  1.00  0.00     0.049 A 
ATOM     43  N   UNL A   1      42.215  29.495  30.020  1.00  0.00    -0.248 NA
ATOM     44  C   UNL A   1      40.479  31.047  30.202  1.00  0.00     0.031 C 
ATOM     45  C   UNL A   1      39.375  26.568  28.180  1.00  0.00     0.029 A 
ATOM     46  N   UNL A   1      41.472  26.891  28.887  1.00  0.00    -0.354 N 
ATOM     47  C   UNL A   1      42.712  30.684  30.540  1.00  0.00     0.074 A 
ATOM     48  C   UNL A   1      41.611  31.621  30.584  1.00  0.00     0.031 C 
ATOM     49  C   UNL A   1      40.063  25.443  27.927  1.00  0.00     0.029 A 
ATOM     50  C   UNL A   1      41.448  25.628  28.346  1.00  0.00     0.049 A 
ATOM     51  H   UNL A   1      42.278  27.291  29.285  1.00  0.00     0.167 HD
ATOM     52  C   UNL A   1      43.969  30.965  30.956  1.00  0.00     0.031 A 
ATOM     53  C   UNL A   1      42.435  24.724  28.192  1.00  0.00     0.031 A 
ATOM     54  C   UNL A   1      45.055  30.021  30.941  1.00  0.00     0.049 A 
ATOM     55  C   UNL A   1      43.817  25.059  28.678  1.00  0.00     0.074 A 
ATOM     56  C   UNL A   1      46.345  30.187  31.417  1.00  0.00     0.029 A 
ATOM     57  N   UNL A   1      44.980  28.740  30.421  1.00  0.00    -0.354 N 
ATOM     58  N   UNL A   1      44.250  26.158  29.246  1.00  0.00    -0.248 NA
ATOM     59  C   UNL A   1      44.845  24.021  28.514  1.00  0.00     0.031 C 
ATOM     60  C   UNL A   1      47.063  29.020  31.142  1.00  0.00     0.029 A 
ATOM     61  C   UNL A   1      46.207  28.111  30.542  1.00  0.00     0.049 A 
ATOM     62  H   UNL A   1      44.173  28.336  30.026  1.00  0.00     0.167 HD
ATOM     63  C   UNL A   1      45.590  25.935  29.530  1.00  0.00     0.074 A 
ATOM     64  C   UNL A   1      45.895  24.590  29.090  1.00  0.00     0.031 C 
ATOM     65  C   UNL A   1      46.489  26.770  30.104  1.00  0.00     0.031 A 
BRANCH  52  66
ATOM     66  C   UNL A   1      44.248  32.352  31.459  1.00  0.00    -0.014 A 
ATOM     67  C   UNL A   1      44.145  32.669  32.822  1.00  0.00     0.009 A 
ATOM     68  C   UNL A   1      44.688  33.341  30.563  1.00  0.00     0.009 A 
ATOM     69  C   UNL A   1      44.450  33.956  33.273  1.00  0.00     0.001 A 
ATOM     70  C   UNL A   1      45.018  34.618  31.021  1.00  0.00     0.001 A 
ATOM     71  C   UNL A   1      44.892  34.926  32.376  1.00  0.00     0.000 A 
ENDBRANCH  52  66
BRANCH  53  72
ATOM     72  C   UNL A   1      42.156  23.416  27.544  1.00  0.00    -0.014 A 
ATOM     73  C   UNL A   1      41.598  22.359  28.279  1.00  0.00     0.009 A 
ATOM     74  C   UNL A   1      42.470  23.211  26.192  1.00  0.00     0.009 A 
ATOM     75  C   UNL A   1      41.390  21.114  27.681  1.00  0.00     0.001 A 
ATOM     76  C   UNL A   1      42.233  21.974  25.588  1.00  0.00     0.001 A 
ATOM     77  C   UNL A   1      41.705  20.923  26.337  1.00  0.00     0.000 A 
ENDBRANCH  53  72
BRANCH  65  78
ATOM     78  C   UNL A   1      47.878  26.240  30.323  1.00  0.00    -0.014 A 
ATOM     79  C   UNL A   1      48.837  26.269  29.300  1.00  0.00     0.009 A 
ATOM     80  C   UNL A   1      48.240  25.748  31.586  1.00  0.00     0.009 A 
ATOM     81  C   UNL A   1      50.127  25.787  29.531  1.00  0.00     0.001 A 
ATOM     82  C   UNL A   1      49.538  25.293  31.822  1.00  0.00     0.001 A 
ATOM     83  C   UNL A   1      50.478  25.305  30.792  1.00  0.00     0.000 A 
ENDBRANCH  65  78
ENDBRANCH  39  40
ENDBRANCH  31  34
ENDBRANCH  29  30
ENDBRANCH   1  29
TORSDOF 15
ENDMDL
MODEL 3
REMARK VINA RESULT:     -11.0      2.690      8.255
REMARK SMILES CCCc1cc(OC(F)(F)F)cc2c1O[C@@H](C(F)(F)F)C(C(=O)NCCCNC(=O)c1ccc(-c3c4nc(c(-c5ccccc5)c5ccc([nH]5)c(-c5ccccc5)c5nc(c(-c6ccccc6)c6ccc3[nH]6)C=C5)C=C4)cc1)=C2
REMARK SMILES IDX 26 1 25 2 24 3 22 4 23 5 21 7 4 8 5 9 14 10 6 11 13 12 15 13
REMARK SMILES IDX 12 14 79 15 16 16 3 17 2 18 1 19 7 20 8 21 9 22 10 23 11 24
REMARK SMILES IDX 17 25 18 26 19 27 20 28 27 29 28 30 29 31 30 33 31 34 32 35
REMARK SMILES IDX 78 36 33 37 77 38 34 39 35 40 36 41 71 42 37 43 76 44 70 45
REMARK SMILES IDX 72 46 38 47 75 48 69 49 68 50 39 52 61 53 46 54 60 55 47 56
REMARK SMILES IDX 50 57 59 58 73 59 48 60 49 61 58 63 74 64 51 65 40 66 41 67
REMARK SMILES IDX 45 68 42 69 44 70 43 71 62 72 63 73 67 74 64 75 66 76 65 77
REMARK SMILES IDX 52 78 53 79 57 80 54 81 56 82 55 83
REMARK H PARENT 24 6 28 32 72 51 50 62
REMARK Flexibility Score: inf
ROOT
ATOM      1  C   UNL A   1      32.499  28.345  26.296  1.00  0.00     0.042 C 
ENDROOT
BRANCH   1   2
ATOM      2  C   UNL A   1      31.695  27.119  26.739  1.00  0.00     0.118 C 
BRANCH   2   3
ATOM      3  N   UNL A   1      30.739  26.748  25.711  1.00  0.00    -0.352 N 
ATOM      4  C   UNL A   1      30.773  25.817  24.724  1.00  0.00     0.251 C 
ATOM      5  O   UNL A   1      29.891  25.847  23.870  1.00  0.00    -0.270 OA
ATOM      6  H   UNL A   1      29.906  27.273  25.733  1.00  0.00     0.163 HD
BRANCH   4   7
ATOM      7  C   UNL A   1      31.783  24.733  24.684  1.00  0.00     0.067 C 
ATOM      8  C   UNL A   1      34.882  21.895  24.443  1.00  0.00    -0.002 A 
ATOM      9  C   UNL A   1      34.612  20.576  24.877  1.00  0.00     0.054 A 
ATOM     10  C   UNL A   1      33.832  22.824  24.471  1.00  0.00     0.131 A 
ATOM     11  C   UNL A   1      33.352  20.205  25.353  1.00  0.00     0.130 A 
ATOM     12  C   UNL A   1      32.588  22.481  25.008  1.00  0.00     0.021 A 
ATOM     13  O   UNL A   1      34.011  24.038  23.875  1.00  0.00    -0.475 OA
ATOM     14  C   UNL A   1      32.353  21.174  25.443  1.00  0.00     0.058 A 
ATOM     15  C   UNL A   1      31.522  23.473  25.062  1.00  0.00     0.025 C 
ATOM     16  C   UNL A   1      33.205  25.152  24.344  1.00  0.00     0.314 C 
BRANCH   8  17
ATOM     17  C   UNL A   1      36.294  22.172  23.956  1.00  0.00     0.039 C 
BRANCH  17  18
ATOM     18  C   UNL A   1      37.466  22.260  24.943  1.00  0.00     0.001 C 
ATOM     19  C   UNL A   1      37.496  23.543  25.763  1.00  0.00     0.004 C 
ENDBRANCH  17  18
ENDBRANCH   8  17
BRANCH  11  20
ATOM     20  O   UNL A   1      32.963  18.962  25.757  1.00  0.00    -0.406 OA
BRANCH  20  21
ATOM     21  C   UNL A   1      32.933  17.927  24.790  1.00  0.00     0.573 C 
ATOM     22  F   UNL A   1      32.157  16.900  25.192  1.00  0.00    -0.132 F 
ATOM     23  F   UNL A   1      32.490  18.391  23.603  1.00  0.00    -0.132 F 
ATOM     24  F   UNL A   1      34.190  17.460  24.617  1.00  0.00    -0.132 F 
ENDBRANCH  20  21
ENDBRANCH  11  20
BRANCH  16  25
ATOM     25  C   UNL A   1      33.367  26.289  23.309  1.00  0.00     0.429 C 
ATOM     26  F   UNL A   1      34.056  27.346  23.795  1.00  0.00    -0.167 F 
ATOM     27  F   UNL A   1      34.075  25.864  22.228  1.00  0.00    -0.167 F 
ATOM     28  F   UNL A   1      32.178  26.737  22.844  1.00  0.00    -0.167 F 
ENDBRANCH  16  25
ENDBRANCH   4   7
ENDBRANCH   2   3
ENDBRANCH   1   2
BRANCH   1  29
ATOM     29  C   UNL A   1      33.630  28.696  27.260  1.00  0.00     0.118 C 
BRANCH  29  30
ATOM     30  N   UNL A   1      33.605  30.104  27.622  1.00  0.00    -0.352 N 
ATOM     31  C   UNL A   1      34.522  30.842  28.325  1.00  0.00     0.251 C 
ATOM     32  H   UNL A   1      32.811  30.601  27.319  1.00  0.00     0.163 HD
ATOM     33  O   UNL A   1      34.208  31.946  28.761  1.00  0.00    -0.269 OA
BRANCH  31  34
ATOM     34  C   UNL A   1      35.883  30.317  28.562  1.00  0.00     0.039 A 
ATOM     35  C   UNL A   1      36.813  30.361  27.520  1.00  0.00     0.014 A 
ATOM     36  C   UNL A   1      36.226  29.731  29.784  1.00  0.00     0.014 A 
ATOM     37  C   UNL A   1      38.101  29.856  27.716  1.00  0.00     0.010 A 
ATOM     38  C   UNL A   1      37.528  29.285  29.999  1.00  0.00     0.010 A 
ATOM     39  C   UNL A   1      38.474  29.333  28.964  1.00  0.00    -0.014 A 
BRANCH  39  40
ATOM     40  C   UNL A   1      39.848  28.826  29.206  1.00  0.00     0.031 A 
ATOM     41  C   UNL A   1      40.898  29.734  29.787  1.00  0.00     0.074 A 
ATOM     42  C   UNL A   1      40.168  27.571  28.834  1.00  0.00     0.049 A 
ATOM     43  N   UNL A   1      42.169  29.501  29.990  1.00  0.00    -0.248 NA
ATOM     44  C   UNL A   1      40.468  31.092  30.164  1.00  0.00     0.031 C 
ATOM     45  C   UNL A   1      39.250  26.608  28.220  1.00  0.00     0.029 A 
ATOM     46  N   UNL A   1      41.360  26.897  28.902  1.00  0.00    -0.354 N 
ATOM     47  C   UNL A   1      42.696  30.686  30.488  1.00  0.00     0.074 A 
ATOM     48  C   UNL A   1      41.616  31.647  30.528  1.00  0.00     0.031 C 
ATOM     49  C   UNL A   1      39.912  25.465  27.977  1.00  0.00     0.029 A 
ATOM     50  C   UNL A   1      41.305  25.627  28.380  1.00  0.00     0.049 A 
ATOM     51  H   UNL A   1      42.179  27.285  29.287  1.00  0.00     0.167 HD
ATOM     52  C   UNL A   1      43.963  30.946  30.887  1.00  0.00     0.031 A 
ATOM     53  C   UNL A   1      42.270  24.700  28.231  1.00  0.00     0.031 A 
ATOM     54  C   UNL A   1      45.028  29.980  30.876  1.00  0.00     0.049 A 
ATOM     55  C   UNL A   1      43.664  25.012  28.699  1.00  0.00     0.074 A 
ATOM     56  C   UNL A   1      46.326  30.125  31.338  1.00  0.00     0.029 A 
ATOM     57  N   UNL A   1      44.921  28.693  30.377  1.00  0.00    -0.354 N 
ATOM     58  N   UNL A   1      44.126  26.110  29.247  1.00  0.00    -0.248 NA
ATOM     59  C   UNL A   1      44.669  23.950  28.541  1.00  0.00     0.031 C 
ATOM     60  C   UNL A   1      47.016  28.939  31.074  1.00  0.00     0.029 A 
ATOM     61  C   UNL A   1      46.136  28.040  30.495  1.00  0.00     0.049 A 
ATOM     62  H   UNL A   1      44.102  28.300  29.995  1.00  0.00     0.167 HD
ATOM     63  C   UNL A   1      45.464  25.863  29.522  1.00  0.00     0.074 A 
ATOM     64  C   UNL A   1      45.736  24.505  29.099  1.00  0.00     0.031 C 
ATOM     65  C   UNL A   1      46.386  26.686  30.075  1.00  0.00     0.031 A 
BRANCH  52  66
ATOM     66  C   UNL A   1      44.276  32.335  31.367  1.00  0.00    -0.014 A 
ATOM     67  C   UNL A   1      44.191  32.675  32.726  1.00  0.00     0.009 A 
ATOM     68  C   UNL A   1      44.730  33.301  30.452  1.00  0.00     0.009 A 
ATOM     69  C   UNL A   1      44.528  33.961  33.155  1.00  0.00     0.001 A 
ATOM     70  C   UNL A   1      45.091  34.576  30.889  1.00  0.00     0.001 A 
ATOM     71  C   UNL A   1      44.983  34.907  32.239  1.00  0.00     0.000 A 
ENDBRANCH  52  66
BRANCH  53  72
ATOM     72  C   UNL A   1      41.959  23.389  27.606  1.00  0.00    -0.014 A 
ATOM     73  C   UNL A   1      41.441  22.336  28.374  1.00  0.00     0.009 A 
ATOM     74  C   UNL A   1      42.199  23.177  26.239  1.00  0.00     0.009 A 
ATOM     75  C   UNL A   1      41.201  21.087  27.795  1.00  0.00     0.001 A 
ATOM     76  C   UNL A   1      41.931  21.937  25.655  1.00  0.00     0.001 A 
ATOM     77  C   UNL A   1      41.444  20.890  26.436  1.00  0.00     0.000 A 
ENDBRANCH  53  72
BRANCH  65  78
ATOM     78  C   UNL A   1      47.764  26.131  30.289  1.00  0.00    -0.014 A 
ATOM     79  C   UNL A   1      48.704  26.094  29.248  1.00  0.00     0.009 A 
ATOM     80  C   UNL A   1      48.140  25.680  31.564  1.00  0.00     0.009 A 
ATOM     81  C   UNL A   1      49.985  25.589  29.474  1.00  0.00     0.001 A 
ATOM     82  C   UNL A   1      49.430  25.202  31.793  1.00  0.00     0.001 A 
ATOM     83  C   UNL A   1      50.349  25.149  30.747  1.00  0.00     0.000 A 
ENDBRANCH  65  78
ENDBRANCH  39  40
ENDBRANCH  31  34
ENDBRANCH  29  30
ENDBRANCH   1  29
TORSDOF 15
ENDMDL
