MODEL 1
REMARK VINA RESULT:     -11.3      0.000      0.000
REMARK SMILES O=C(NCCCNC(=O)[C@@H]1C[C@@H]1C(=O)Nc1cc(F)ccc1F)c1ccc(-c2c3nc(c(-c4ccccc4)c4ccc([nH]4)c(-c4ccccc4)c4nc(c(-c5ccccc5)c5ccc2[nH]5)C=C4)C=C3)cc1
REMARK SMILES IDX 5 1 4 2 3 3 1 4 2 5 24 7 25 8 71 9 26 10 70 11 27 12 28 13
REMARK SMILES IDX 29 14 64 15 30 16 69 17 63 18 65 19 31 20 68 21 62 22 61 23
REMARK SMILES IDX 32 25 54 26 39 27 53 28 40 29 43 30 52 31 66 32 41 33 42 34
REMARK SMILES IDX 51 36 67 37 44 38 33 39 34 40 38 41 35 42 37 43 36 44 55 45
REMARK SMILES IDX 56 46 60 47 57 48 59 49 58 50 45 51 46 52 50 53 47 54 49 55
REMARK SMILES IDX 48 56 6 57 7 58 8 59 9 61 10 62 11 63 12 64 13 65 14 66
REMARK SMILES IDX 15 67 16 69 17 70 22 71 18 72 21 73 23 74 19 75 20 76
REMARK H PARENT 3 6 65 24 43 35 7 60 15 68
REMARK Flexibility Score: inf
ROOT
ATOM      1  C   UNL A   1      37.864  19.951  24.665  1.00  0.00     0.042 C 
ENDROOT
BRANCH   1   2
ATOM      2  C   UNL A   1      38.882  20.255  25.753  1.00  0.00     0.118 C 
BRANCH   2   3
ATOM      3  N   UNL A   1      39.908  19.228  25.864  1.00  0.00    -0.352 N 
ATOM      4  O   UNL A   1      41.999  18.391  25.988  1.00  0.00    -0.269 OA
ATOM      5  C   UNL A   1      41.254  19.360  26.102  1.00  0.00     0.251 C 
ATOM      6  H   UNL A   1      39.591  18.303  25.751  1.00  0.00     0.163 HD
BRANCH   5   7
ATOM      7  C   UNL A   1      41.807  20.676  26.484  1.00  0.00     0.039 A 
ATOM      8  C   UNL A   1      42.150  21.613  25.508  1.00  0.00     0.014 A 
ATOM      9  C   UNL A   1      41.947  20.990  27.839  1.00  0.00     0.014 A 
ATOM     10  C   UNL A   1      42.749  22.811  25.876  1.00  0.00     0.010 A 
ATOM     11  C   UNL A   1      42.458  22.236  28.212  1.00  0.00     0.010 A 
ATOM     12  C   UNL A   1      42.868  23.152  27.232  1.00  0.00    -0.014 A 
BRANCH  12  13
ATOM     13  C   UNL A   1      43.286  24.529  27.592  1.00  0.00     0.031 A 
ATOM     14  C   UNL A   1      42.288  25.582  27.976  1.00  0.00     0.074 A 
ATOM     15  C   UNL A   1      44.603  24.815  27.558  1.00  0.00     0.049 A 
ATOM     16  N   UNL A   1      42.504  26.832  28.301  1.00  0.00    -0.248 NA
ATOM     17  C   UNL A   1      40.869  25.193  27.996  1.00  0.00     0.031 C 
ATOM     18  C   UNL A   1      45.662  23.870  27.187  1.00  0.00     0.029 A 
ATOM     19  N   UNL A   1      45.280  25.972  27.844  1.00  0.00    -0.354 N 
ATOM     20  C   UNL A   1      41.254  27.385  28.542  1.00  0.00     0.074 A 
ATOM     21  C   UNL A   1      40.279  26.339  28.317  1.00  0.00     0.031 C 
ATOM     22  C   UNL A   1      46.853  24.474  27.299  1.00  0.00     0.029 A 
ATOM     23  C   UNL A   1      46.640  25.866  27.671  1.00  0.00     0.049 A 
ATOM     24  H   UNL A   1      44.836  26.799  28.143  1.00  0.00     0.167 HD
ATOM     25  C   UNL A   1      40.955  28.652  28.915  1.00  0.00     0.031 A 
ATOM     26  C   UNL A   1      47.609  26.795  27.760  1.00  0.00     0.031 A 
ATOM     27  C   UNL A   1      41.933  29.685  29.139  1.00  0.00     0.049 A 
ATOM     28  C   UNL A   1      47.231  28.201  28.123  1.00  0.00     0.074 A 
ATOM     29  C   UNL A   1      41.729  30.981  29.580  1.00  0.00     0.029 A 
ATOM     30  N   UNL A   1      43.296  29.548  28.922  1.00  0.00    -0.354 N 
ATOM     31  N   UNL A   1      46.052  28.684  28.427  1.00  0.00    -0.248 NA
ATOM     32  C   UNL A   1      48.316  29.190  28.148  1.00  0.00     0.031 C 
ATOM     33  C   UNL A   1      42.955  31.651  29.556  1.00  0.00     0.029 A 
ATOM     34  C   UNL A   1      43.934  30.752  29.167  1.00  0.00     0.049 A 
ATOM     35  H   UNL A   1      43.742  28.719  28.636  1.00  0.00     0.167 HD
ATOM     36  C   UNL A   1      46.256  30.032  28.692  1.00  0.00     0.074 A 
ATOM     37  C   UNL A   1      47.676  30.277  28.548  1.00  0.00     0.031 C 
ATOM     38  C   UNL A   1      45.347  30.982  29.014  1.00  0.00     0.031 A 
BRANCH  25  39
ATOM     39  C   UNL A   1      39.507  29.026  29.079  1.00  0.00    -0.014 A 
ATOM     40  C   UNL A   1      38.745  29.497  27.999  1.00  0.00     0.009 A 
ATOM     41  C   UNL A   1      38.869  28.791  30.308  1.00  0.00     0.009 A 
ATOM     42  C   UNL A   1      37.375  29.735  28.152  1.00  0.00     0.001 A 
ATOM     43  C   UNL A   1      37.498  29.006  30.451  1.00  0.00     0.001 A 
ATOM     44  C   UNL A   1      36.752  29.480  29.374  1.00  0.00     0.000 A 
ENDBRANCH  25  39
BRANCH  26  45
ATOM     45  C   UNL A   1      49.017  26.442  27.437  1.00  0.00    -0.014 A 
ATOM     46  C   UNL A   1      49.494  26.513  26.120  1.00  0.00     0.009 A 
ATOM     47  C   UNL A   1      49.883  25.995  28.449  1.00  0.00     0.009 A 
ATOM     48  C   UNL A   1      50.796  26.105  25.818  1.00  0.00     0.001 A 
ATOM     49  C   UNL A   1      51.195  25.628  28.150  1.00  0.00     0.001 A 
ATOM     50  C   UNL A   1      51.645  25.666  26.833  1.00  0.00     0.000 A 
ENDBRANCH  26  45
BRANCH  38  51
ATOM     51  C   UNL A   1      45.867  32.372  29.244  1.00  0.00    -0.014 A 
ATOM     52  C   UNL A   1      46.312  32.779  30.512  1.00  0.00     0.009 A 
ATOM     53  C   UNL A   1      45.944  33.276  28.174  1.00  0.00     0.009 A 
ATOM     54  C   UNL A   1      46.794  34.074  30.709  1.00  0.00     0.001 A 
ATOM     55  C   UNL A   1      46.458  34.558  28.366  1.00  0.00     0.001 A 
ATOM     56  C   UNL A   1      46.873  34.959  29.635  1.00  0.00     0.000 A 
ENDBRANCH  38  51
ENDBRANCH  12  13
ENDBRANCH   5   7
ENDBRANCH   2   3
ENDBRANCH   1   2
BRANCH   1  57
ATOM     57  C   UNL A   1      36.432  20.259  25.074  1.00  0.00     0.117 C 
BRANCH  57  58
ATOM     58  N   UNL A   1      36.343  21.492  25.829  1.00  0.00    -0.356 N 
ATOM     59  C   UNL A   1      35.871  22.704  25.420  1.00  0.00     0.223 C 
ATOM     60  H   UNL A   1      36.667  21.449  26.758  1.00  0.00     0.163 HD
ATOM     61  O   UNL A   1      35.893  23.677  26.168  1.00  0.00    -0.275 OA
BRANCH  59  62
ATOM     62  C   UNL A   1      35.410  22.843  24.024  1.00  0.00     0.091 C 
ATOM     63  C   UNL A   1      34.774  24.140  23.581  1.00  0.00     0.028 C 
ATOM     64  C   UNL A   1      33.949  22.880  23.624  1.00  0.00     0.092 C 
BRANCH  64  65
ATOM     65  C   UNL A   1      32.820  22.803  24.600  1.00  0.00     0.228 C 
ATOM     66  O   UNL A   1      32.419  23.806  25.183  1.00  0.00    -0.274 OA
ATOM     67  N   UNL A   1      32.113  21.633  24.731  1.00  0.00    -0.323 N 
ATOM     68  H   UNL A   1      31.249  21.727  25.194  1.00  0.00     0.170 HD
BRANCH  67  69
ATOM     69  C   UNL A   1      32.414  20.327  24.316  1.00  0.00     0.080 A 
ATOM     70  C   UNL A   1      32.197  19.864  23.019  1.00  0.00     0.068 A 
ATOM     71  C   UNL A   1      33.002  19.464  25.249  1.00  0.00     0.146 A 
ATOM     72  C   UNL A   1      32.460  18.532  22.710  1.00  0.00     0.125 A 
ATOM     73  C   UNL A   1      33.258  18.131  24.940  1.00  0.00     0.044 A 
ATOM     74  F   UNL A   1      33.276  19.910  26.484  1.00  0.00    -0.205 F 
ATOM     75  F   UNL A   1      32.218  18.089  21.470  1.00  0.00    -0.207 F 
ATOM     76  C   UNL A   1      32.966  17.656  23.664  1.00  0.00     0.042 A 
ENDBRANCH  67  69
ENDBRANCH  64  65
ENDBRANCH  59  62
ENDBRANCH  57  58
ENDBRANCH   1  57
TORSDOF 12
ENDMDL
MODEL 2
REMARK VINA RESULT:     -11.2      5.980     10.398
REMARK SMILES O=C(NCCCNC(=O)[C@@H]1C[C@@H]1C(=O)Nc1cc(F)ccc1F)c1ccc(-c2c3nc(c(-c4ccccc4)c4ccc([nH]4)c(-c4ccccc4)c4nc(c(-c5ccccc5)c5ccc2[nH]5)C=C4)C=C3)cc1
REMARK SMILES IDX 5 1 4 2 3 3 1 4 2 5 24 7 25 8 71 9 26 10 70 11 27 12 28 13
REMARK SMILES IDX 29 14 64 15 30 16 69 17 63 18 65 19 31 20 68 21 62 22 61 23
REMARK SMILES IDX 32 25 54 26 39 27 53 28 40 29 43 30 52 31 66 32 41 33 42 34
REMARK SMILES IDX 51 36 67 37 44 38 33 39 34 40 38 41 35 42 37 43 36 44 55 45
REMARK SMILES IDX 56 46 60 47 57 48 59 49 58 50 45 51 46 52 50 53 47 54 49 55
REMARK SMILES IDX 48 56 6 57 7 58 8 59 9 61 10 62 11 63 12 64 13 65 14 66
REMARK SMILES IDX 15 67 16 69 17 70 22 71 18 72 21 73 23 74 19 75 20 76
REMARK H PARENT 3 6 65 24 43 35 7 60 15 68
REMARK Flexibility Score: inf
ROOT
ATOM      1  C   UNL A   1      31.328  31.543  26.532  1.00  0.00     0.042 C 
ENDROOT
BRANCH   1   2
ATOM      2  C   UNL A   1      32.595  32.241  27.003  1.00  0.00     0.118 C 
BRANCH   2   3
ATOM      3  N   UNL A   1      32.364  33.629  27.378  1.00  0.00    -0.352 N 
ATOM      4  O   UNL A   1      32.567  35.504  28.615  1.00  0.00    -0.269 OA
ATOM      5  C   UNL A   1      33.013  34.402  28.309  1.00  0.00     0.251 C 
ATOM      6  H   UNL A   1      31.636  34.080  26.892  1.00  0.00     0.163 HD
BRANCH   5   7
ATOM      7  C   UNL A   1      34.244  33.900  28.952  1.00  0.00     0.039 A 
ATOM      8  C   UNL A   1      34.173  33.007  30.024  1.00  0.00     0.014 A 
ATOM      9  C   UNL A   1      35.488  34.295  28.451  1.00  0.00     0.014 A 
ATOM     10  C   UNL A   1      35.334  32.610  30.675  1.00  0.00     0.010 A 
ATOM     11  C   UNL A   1      36.658  33.817  29.044  1.00  0.00     0.010 A 
ATOM     12  C   UNL A   1      36.589  32.976  30.165  1.00  0.00    -0.014 A 
BRANCH  12  13
ATOM     13  C   UNL A   1      37.806  32.345  30.730  1.00  0.00     0.031 A 
ATOM     14  C   UNL A   1      38.413  31.115  30.123  1.00  0.00     0.074 A 
ATOM     15  C   UNL A   1      38.356  32.910  31.825  1.00  0.00     0.049 A 
ATOM     16  N   UNL A   1      39.466  30.444  30.516  1.00  0.00    -0.248 NA
ATOM     17  C   UNL A   1      37.761  30.559  28.927  1.00  0.00     0.031 C 
ATOM     18  C   UNL A   1      37.841  34.103  32.506  1.00  0.00     0.029 A 
ATOM     19  N   UNL A   1      39.466  32.569  32.552  1.00  0.00    -0.354 N 
ATOM     20  C   UNL A   1      39.592  29.379  29.636  1.00  0.00     0.074 A 
ATOM     21  C   UNL A   1      38.501  29.483  28.690  1.00  0.00     0.031 C 
ATOM     22  C   UNL A   1      38.650  34.410  33.530  1.00  0.00     0.029 A 
ATOM     23  C   UNL A   1      39.691  33.397  33.626  1.00  0.00     0.049 A 
ATOM     24  H   UNL A   1      40.045  31.804  32.329  1.00  0.00     0.167 HD
ATOM     25  C   UNL A   1      40.534  28.405  29.625  1.00  0.00     0.031 A 
ATOM     26  C   UNL A   1      40.609  33.329  34.607  1.00  0.00     0.031 A 
ATOM     27  C   UNL A   1      41.616  28.312  30.571  1.00  0.00     0.049 A 
ATOM     28  C   UNL A   1      41.601  32.204  34.591  1.00  0.00     0.074 A 
ATOM     29  C   UNL A   1      42.655  27.397  30.601  1.00  0.00     0.029 A 
ATOM     30  N   UNL A   1      41.791  29.150  31.662  1.00  0.00    -0.354 N 
ATOM     31  N   UNL A   1      41.754  31.253  33.702  1.00  0.00    -0.248 NA
ATOM     32  C   UNL A   1      42.543  32.139  35.715  1.00  0.00     0.031 C 
ATOM     33  C   UNL A   1      43.412  27.632  31.751  1.00  0.00     0.029 A 
ATOM     34  C   UNL A   1      42.888  28.737  32.400  1.00  0.00     0.049 A 
ATOM     35  H   UNL A   1      41.221  29.922  31.879  1.00  0.00     0.167 HD
ATOM     36  C   UNL A   1      42.818  30.483  34.155  1.00  0.00     0.074 A 
ATOM     37  C   UNL A   1      43.293  31.102  35.375  1.00  0.00     0.031 C 
ATOM     38  C   UNL A   1      43.345  29.360  33.615  1.00  0.00     0.031 A 
BRANCH  25  39
ATOM     39  C   UNL A   1      40.434  27.326  28.582  1.00  0.00    -0.014 A 
ATOM     40  C   UNL A   1      39.656  26.176  28.788  1.00  0.00     0.009 A 
ATOM     41  C   UNL A   1      41.036  27.522  27.329  1.00  0.00     0.009 A 
ATOM     42  C   UNL A   1      39.494  25.241  27.761  1.00  0.00     0.001 A 
ATOM     43  C   UNL A   1      40.853  26.599  26.298  1.00  0.00     0.001 A 
ATOM     44  C   UNL A   1      40.084  25.458  26.516  1.00  0.00     0.000 A 
ENDBRANCH  25  39
BRANCH  26  45
ATOM     45  C   UNL A   1      40.590  34.315  35.720  1.00  0.00    -0.014 A 
ATOM     46  C   UNL A   1      39.819  34.090  36.869  1.00  0.00     0.009 A 
ATOM     47  C   UNL A   1      41.323  35.509  35.618  1.00  0.00     0.009 A 
ATOM     48  C   UNL A   1      39.750  35.059  37.874  1.00  0.00     0.001 A 
ATOM     49  C   UNL A   1      41.285  36.456  36.641  1.00  0.00     0.001 A 
ATOM     50  C   UNL A   1      40.484  36.239  37.759  1.00  0.00     0.000 A 
ENDBRANCH  26  45
BRANCH  38  51
ATOM     51  C   UNL A   1      44.505  28.736  34.336  1.00  0.00    -0.014 A 
ATOM     52  C   UNL A   1      44.305  27.736  35.301  1.00  0.00     0.009 A 
ATOM     53  C   UNL A   1      45.815  29.128  34.023  1.00  0.00     0.009 A 
ATOM     54  C   UNL A   1      45.395  27.165  35.961  1.00  0.00     0.001 A 
ATOM     55  C   UNL A   1      46.903  28.531  34.660  1.00  0.00     0.001 A 
ATOM     56  C   UNL A   1      46.692  27.557  35.634  1.00  0.00     0.000 A 
ENDBRANCH  38  51
ENDBRANCH  12  13
ENDBRANCH   5   7
ENDBRANCH   2   3
ENDBRANCH   1   2
BRANCH   1  57
ATOM     57  C   UNL A   1      31.587  30.453  25.504  1.00  0.00     0.117 C 
BRANCH  57  58
ATOM     58  N   UNL A   1      32.792  29.707  25.805  1.00  0.00    -0.356 N 
ATOM     59  C   UNL A   1      32.906  28.409  26.209  1.00  0.00     0.223 C 
ATOM     60  H   UNL A   1      33.637  30.201  25.704  1.00  0.00     0.163 HD
ATOM     61  O   UNL A   1      34.003  27.921  26.463  1.00  0.00    -0.275 OA
BRANCH  59  62
ATOM     62  C   UNL A   1      31.671  27.628  26.419  1.00  0.00     0.091 C 
ATOM     63  C   UNL A   1      31.750  26.120  26.470  1.00  0.00     0.028 C 
ATOM     64  C   UNL A   1      31.016  26.791  25.338  1.00  0.00     0.092 C 
BRANCH  64  65
ATOM     65  C   UNL A   1      31.563  26.650  23.954  1.00  0.00     0.228 C 
ATOM     66  O   UNL A   1      32.564  25.973  23.737  1.00  0.00    -0.274 OA
ATOM     67  N   UNL A   1      30.852  27.142  22.888  1.00  0.00    -0.323 N 
ATOM     68  H   UNL A   1      31.139  26.801  22.011  1.00  0.00     0.170 HD
BRANCH  67  69
ATOM     69  C   UNL A   1      29.783  28.050  22.839  1.00  0.00     0.080 A 
ATOM     70  C   UNL A   1      28.493  27.743  23.270  1.00  0.00     0.068 A 
ATOM     71  C   UNL A   1      30.046  29.344  22.370  1.00  0.00     0.146 A 
ATOM     72  C   UNL A   1      27.475  28.682  23.121  1.00  0.00     0.125 A 
ATOM     73  C   UNL A   1      29.026  30.279  22.216  1.00  0.00     0.044 A 
ATOM     74  F   UNL A   1      31.294  29.677  22.009  1.00  0.00    -0.205 F 
ATOM     75  F   UNL A   1      26.234  28.366  23.509  1.00  0.00    -0.207 F 
ATOM     76  C   UNL A   1      27.724  29.937  22.577  1.00  0.00     0.042 A 
ENDBRANCH  67  69
ENDBRANCH  64  65
ENDBRANCH  59  62
ENDBRANCH  57  58
ENDBRANCH   1  57
TORSDOF 12
ENDMDL
MODEL 3
REMARK VINA RESULT:     -11.2      5.344      9.565
REMARK SMILES O=C(NCCCNC(=O)[C@@H]1C[C@@H]1C(=O)Nc1cc(F)ccc1F)c1ccc(-c2c3nc(c(-c4ccccc4)c4ccc([nH]4)c(-c4ccccc4)c4nc(c(-c5ccccc5)c5ccc2[nH]5)C=C4)C=C3)cc1
REMARK SMILES IDX 5 1 4 2 3 3 1 4 2 5 24 7 25 8 71 9 26 10 70 11 27 12 28 13
REMARK SMILES IDX 29 14 64 15 30 16 69 17 63 18 65 19 31 20 68 21 62 22 61 23
REMARK SMILES IDX 32 25 54 26 39 27 53 28 40 29 43 30 52 31 66 32 41 33 42 34
REMARK SMILES IDX 51 36 67 37 44 38 33 39 34 40 38 41 35 42 37 43 36 44 55 45
REMARK SMILES IDX 56 46 60 47 57 48 59 49 58 50 45 51 46 52 50 53 47 54 49 55
REMARK SMILES IDX 48 56 6 57 7 58 8 59 9 61 10 62 11 63 12 64 13 65 14 66
REMARK SMILES IDX 15 67 16 69 17 70 22 71 18 72 21 73 23 74 19 75 20 76
REMARK H PARENT 3 6 65 24 43 35 7 60 15 68
REMARK Flexibility Score: inf
ROOT
ATOM      1  C   UNL A   1      31.045  31.985  26.528  1.00  0.00     0.042 C 
ENDROOT
BRANCH   1   2
ATOM      2  C   UNL A   1      32.409  32.558  26.883  1.00  0.00     0.118 C 
BRANCH   2   3
ATOM      3  N   UNL A   1      32.320  33.868  27.513  1.00  0.00    -0.352 N 
ATOM      4  O   UNL A   1      32.792  35.481  29.017  1.00  0.00    -0.269 OA
ATOM      5  C   UNL A   1      33.122  34.430  28.476  1.00  0.00     0.251 C 
ATOM      6  H   UNL A   1      31.576  34.434  27.204  1.00  0.00     0.163 HD
BRANCH   5   7
ATOM      7  C   UNL A   1      34.379  33.760  28.869  1.00  0.00     0.039 A 
ATOM      8  C   UNL A   1      35.551  33.962  28.137  1.00  0.00     0.014 A 
ATOM      9  C   UNL A   1      34.394  32.950  30.008  1.00  0.00     0.014 A 
ATOM     10  C   UNL A   1      36.704  33.261  28.465  1.00  0.00     0.010 A 
ATOM     11  C   UNL A   1      35.580  32.322  30.396  1.00  0.00     0.010 A 
ATOM     12  C   UNL A   1      36.741  32.468  29.622  1.00  0.00    -0.014 A 
BRANCH  12  13
ATOM     13  C   UNL A   1      38.043  31.926  30.079  1.00  0.00     0.031 A 
ATOM     14  C   UNL A   1      38.927  32.685  31.025  1.00  0.00     0.074 A 
ATOM     15  C   UNL A   1      38.421  30.718  29.611  1.00  0.00     0.049 A 
ATOM     16  N   UNL A   1      40.099  32.345  31.500  1.00  0.00    -0.248 NA
ATOM     17  C   UNL A   1      38.445  33.993  31.497  1.00  0.00     0.031 C 
ATOM     18  C   UNL A   1      37.645  29.896  28.677  1.00  0.00     0.029 A 
ATOM     19  N   UNL A   1      39.541  29.968  29.857  1.00  0.00    -0.354 N 
ATOM     20  C   UNL A   1      40.505  33.400  32.306  1.00  0.00     0.074 A 
ATOM     21  C   UNL A   1      39.460  34.400  32.250  1.00  0.00     0.031 C 
ATOM     22  C   UNL A   1      38.295  28.746  28.455  1.00  0.00     0.029 A 
ATOM     23  C   UNL A   1      39.566  28.781  29.164  1.00  0.00     0.049 A 
ATOM     24  H   UNL A   1      40.259  30.253  30.469  1.00  0.00     0.167 HD
ATOM     25  C   UNL A   1      41.648  33.516  33.023  1.00  0.00     0.031 A 
ATOM     26  C   UNL A   1      40.523  27.840  29.075  1.00  0.00     0.031 A 
ATOM     27  C   UNL A   1      42.681  32.513  33.072  1.00  0.00     0.049 A 
ATOM     28  C   UNL A   1      41.799  28.031  29.841  1.00  0.00     0.074 A 
ATOM     29  C   UNL A   1      43.846  32.515  33.820  1.00  0.00     0.029 A 
ATOM     30  N   UNL A   1      42.685  31.340  32.333  1.00  0.00    -0.354 N 
ATOM     31  N   UNL A   1      42.129  28.996  30.663  1.00  0.00    -0.248 NA
ATOM     32  C   UNL A   1      42.835  27.007  29.663  1.00  0.00     0.031 C 
ATOM     33  C   UNL A   1      44.590  31.384  33.477  1.00  0.00     0.029 A 
ATOM     34  C   UNL A   1      43.857  30.641  32.567  1.00  0.00     0.049 A 
ATOM     35  H   UNL A   1      41.962  31.049  31.731  1.00  0.00     0.167 HD
ATOM     36  C   UNL A   1      43.408  28.689  31.109  1.00  0.00     0.074 A 
ATOM     37  C   UNL A   1      43.775  27.430  30.494  1.00  0.00     0.031 C 
ATOM     38  C   UNL A   1      44.210  29.392  31.943  1.00  0.00     0.031 A 
BRANCH  25  39
ATOM     39  C   UNL A   1      41.881  34.785  33.796  1.00  0.00    -0.014 A 
ATOM     40  C   UNL A   1      41.475  34.914  35.133  1.00  0.00     0.009 A 
ATOM     41  C   UNL A   1      42.622  35.823  33.208  1.00  0.00     0.009 A 
ATOM     42  C   UNL A   1      41.800  36.063  35.861  1.00  0.00     0.001 A 
ATOM     43  C   UNL A   1      42.965  36.958  33.945  1.00  0.00     0.001 A 
ATOM     44  C   UNL A   1      42.551  37.078  35.269  1.00  0.00     0.000 A 
ENDBRANCH  25  39
BRANCH  26  45
ATOM     45  C   UNL A   1      40.340  26.669  28.177  1.00  0.00    -0.014 A 
ATOM     46  C   UNL A   1      40.869  26.666  26.879  1.00  0.00     0.009 A 
ATOM     47  C   UNL A   1      39.598  25.556  28.609  1.00  0.00     0.009 A 
ATOM     48  C   UNL A   1      40.625  25.592  26.019  1.00  0.00     0.001 A 
ATOM     49  C   UNL A   1      39.391  24.468  27.762  1.00  0.00     0.001 A 
ATOM     50  C   UNL A   1      39.889  24.494  26.462  1.00  0.00     0.000 A 
ENDBRANCH  26  45
BRANCH  38  51
ATOM     51  C   UNL A   1      45.558  28.805  32.247  1.00  0.00    -0.014 A 
ATOM     52  C   UNL A   1      45.734  27.907  33.312  1.00  0.00     0.009 A 
ATOM     53  C   UNL A   1      46.659  29.127  31.439  1.00  0.00     0.009 A 
ATOM     54  C   UNL A   1      46.994  27.370  33.581  1.00  0.00     0.001 A 
ATOM     55  C   UNL A   1      47.910  28.562  31.690  1.00  0.00     0.001 A 
ATOM     56  C   UNL A   1      48.078  27.691  32.765  1.00  0.00     0.000 A 
ENDBRANCH  38  51
ENDBRANCH  12  13
ENDBRANCH   5   7
ENDBRANCH   2   3
ENDBRANCH   1   2
BRANCH   1  57
ATOM     57  C   UNL A   1      31.109  30.866  25.501  1.00  0.00     0.117 C 
BRANCH  57  58
ATOM     58  N   UNL A   1      32.419  30.248  25.462  1.00  0.00    -0.356 N 
ATOM     59  C   UNL A   1      32.762  28.968  25.786  1.00  0.00     0.223 C 
ATOM     60  H   UNL A   1      33.157  30.827  25.163  1.00  0.00     0.163 HD
ATOM     61  O   UNL A   1      33.930  28.595  25.738  1.00  0.00    -0.275 OA
BRANCH  59  62
ATOM     62  C   UNL A   1      31.706  28.063  26.282  1.00  0.00     0.091 C 
ATOM     63  C   UNL A   1      32.051  26.624  26.591  1.00  0.00     0.028 C 
ATOM     64  C   UNL A   1      31.111  26.940  25.456  1.00  0.00     0.092 C 
BRANCH  64  65
ATOM     65  C   UNL A   1      31.544  26.616  24.063  1.00  0.00     0.228 C 
ATOM     66  O   UNL A   1      32.504  25.879  23.855  1.00  0.00    -0.274 OA
ATOM     67  N   UNL A   1      30.769  27.010  23.000  1.00  0.00    -0.323 N 
ATOM     68  H   UNL A   1      30.977  26.558  22.151  1.00  0.00     0.170 HD
BRANCH  67  69
ATOM     69  C   UNL A   1      29.730  27.950  22.921  1.00  0.00     0.080 A 
ATOM     70  C   UNL A   1      28.424  27.688  23.334  1.00  0.00     0.068 A 
ATOM     71  C   UNL A   1      30.040  29.228  22.441  1.00  0.00     0.146 A 
ATOM     72  C   UNL A   1      27.438  28.655  23.156  1.00  0.00     0.125 A 
ATOM     73  C   UNL A   1      29.052  30.192  22.257  1.00  0.00     0.044 A 
ATOM     74  F   UNL A   1      31.303  29.519  22.098  1.00  0.00    -0.205 F 
ATOM     75  F   UNL A   1      26.181  28.381  23.526  1.00  0.00    -0.207 F 
ATOM     76  C   UNL A   1      27.734  29.895  22.600  1.00  0.00     0.042 A 
ENDBRANCH  67  69
ENDBRANCH  64  65
ENDBRANCH  59  62
ENDBRANCH  57  58
ENDBRANCH   1  57
TORSDOF 12
ENDMDL
