MODEL 1
REMARK VINA RESULT:     -11.9      0.000      0.000
REMARK SMILES O=C(NCCCNC(=O)c1cccc(NC(=O)c2cc3ccccc3[nH]2)c1)c1ccc(-c2c3nc(c(-c4ccccc4)c4ccc([nH]4)c(-c4ccccc4)c4nc(c(-c5ccccc5)c5ccc2[nH]5)C=C4)C=C3)cc1
REMARK SMILES IDX 5 1 4 2 3 3 1 4 2 5 28 7 29 8 75 9 30 10 74 11 31 12 32 13
REMARK SMILES IDX 33 14 68 15 34 16 73 17 67 18 69 19 35 20 72 21 66 22 65 23
REMARK SMILES IDX 36 25 58 26 43 27 57 28 44 29 47 30 56 31 70 32 45 33 46 34
REMARK SMILES IDX 55 36 71 37 48 38 37 39 38 40 42 41 39 42 41 43 40 44 59 45
REMARK SMILES IDX 60 46 64 47 61 48 63 49 62 50 49 51 50 52 54 53 51 54 53 55
REMARK SMILES IDX 52 56 6 57 7 58 8 59 9 61 10 62 11 63 27 64 12 65 14 66
REMARK SMILES IDX 13 67 15 68 16 69 17 71 18 72 19 73 26 74 20 75 25 76 21 78
REMARK SMILES IDX 24 79 22 80 23 81
REMARK H PARENT 3 6 69 24 47 35 7 60 15 70 26 77
REMARK Flexibility Score: inf
ROOT
ATOM      1  C   UNL A   1      32.450  28.034  26.100  1.00  0.00     0.042 C 
ENDROOT
BRANCH   1   2
ATOM      2  C   UNL A   1      33.524  28.423  27.104  1.00  0.00     0.118 C 
BRANCH   2   3
ATOM      3  N   UNL A   1      33.486  29.835  27.459  1.00  0.00    -0.352 N 
ATOM      4  O   UNL A   1      34.112  31.761  28.435  1.00  0.00    -0.269 OA
ATOM      5  C   UNL A   1      34.421  30.627  28.079  1.00  0.00     0.251 C 
ATOM      6  H   UNL A   1      32.653  30.297  27.214  1.00  0.00     0.163 HD
BRANCH   5   7
ATOM      7  C   UNL A   1      35.786  30.124  28.341  1.00  0.00     0.039 A 
ATOM      8  C   UNL A   1      36.126  29.555  29.570  1.00  0.00     0.014 A 
ATOM      9  C   UNL A   1      36.739  30.188  27.319  1.00  0.00     0.014 A 
ATOM     10  C   UNL A   1      37.445  29.204  29.833  1.00  0.00     0.010 A 
ATOM     11  C   UNL A   1      38.043  29.745  27.553  1.00  0.00     0.010 A 
ATOM     12  C   UNL A   1      38.416  29.282  28.823  1.00  0.00    -0.014 A 
BRANCH  12  13
ATOM     13  C   UNL A   1      39.803  28.832  29.101  1.00  0.00     0.031 A 
ATOM     14  C   UNL A   1      40.783  29.731  29.801  1.00  0.00     0.074 A 
ATOM     15  C   UNL A   1      40.176  27.595  28.720  1.00  0.00     0.049 A 
ATOM     16  N   UNL A   1      42.037  29.505  30.104  1.00  0.00    -0.248 NA
ATOM     17  C   UNL A   1      40.297  31.058  30.210  1.00  0.00     0.031 C 
ATOM     18  C   UNL A   1      39.317  26.626  28.035  1.00  0.00     0.029 A 
ATOM     19  N   UNL A   1      41.370  26.936  28.865  1.00  0.00    -0.354 N 
ATOM     20  C   UNL A   1      42.497  30.664  30.714  1.00  0.00     0.074 A 
ATOM     21  C   UNL A   1      41.394  31.602  30.718  1.00  0.00     0.031 C 
ATOM     22  C   UNL A   1      39.999  25.487  27.852  1.00  0.00     0.029 A 
ATOM     23  C   UNL A   1      41.358  25.665  28.346  1.00  0.00     0.049 A 
ATOM     24  H   UNL A   1      42.159  27.336  29.298  1.00  0.00     0.167 HD
ATOM     25  C   UNL A   1      43.724  30.924  31.227  1.00  0.00     0.031 A 
ATOM     26  C   UNL A   1      42.339  24.748  28.253  1.00  0.00     0.031 A 
ATOM     27  C   UNL A   1      44.820  29.990  31.220  1.00  0.00     0.049 A 
ATOM     28  C   UNL A   1      43.700  25.074  28.791  1.00  0.00     0.074 A 
ATOM     29  C   UNL A   1      46.093  30.150  31.741  1.00  0.00     0.029 A 
ATOM     30  N   UNL A   1      44.776  28.724  30.656  1.00  0.00    -0.354 N 
ATOM     31  N   UNL A   1      44.109  26.166  29.391  1.00  0.00    -0.248 NA
ATOM     32  C   UNL A   1      44.734  24.042  28.641  1.00  0.00     0.031 C 
ATOM     33  C   UNL A   1      46.834  29.000  31.447  1.00  0.00     0.029 A 
ATOM     34  C   UNL A   1      46.006  28.102  30.794  1.00  0.00     0.049 A 
ATOM     35  H   UNL A   1      43.987  28.325  30.222  1.00  0.00     0.167 HD
ATOM     36  C   UNL A   1      45.441  25.945  29.708  1.00  0.00     0.074 A 
ATOM     37  C   UNL A   1      45.767  24.609  29.248  1.00  0.00     0.031 C 
ATOM     38  C   UNL A   1      46.316  26.774  30.327  1.00  0.00     0.031 A 
BRANCH  25  39
ATOM     39  C   UNL A   1      43.957  32.291  31.809  1.00  0.00    -0.014 A 
ATOM     40  C   UNL A   1      43.733  32.556  33.170  1.00  0.00     0.009 A 
ATOM     41  C   UNL A   1      44.437  33.324  30.987  1.00  0.00     0.009 A 
ATOM     42  C   UNL A   1      43.950  33.837  33.686  1.00  0.00     0.001 A 
ATOM     43  C   UNL A   1      44.679  34.594  31.512  1.00  0.00     0.001 A 
ATOM     44  C   UNL A   1      44.425  34.852  32.858  1.00  0.00     0.000 A 
ENDBRANCH  25  39
BRANCH  26  45
ATOM     45  C   UNL A   1      42.059  23.439  27.612  1.00  0.00    -0.014 A 
ATOM     46  C   UNL A   1      42.397  23.214  26.269  1.00  0.00     0.009 A 
ATOM     47  C   UNL A   1      41.479  22.396  28.351  1.00  0.00     0.009 A 
ATOM     48  C   UNL A   1      42.146  21.975  25.677  1.00  0.00     0.001 A 
ATOM     49  C   UNL A   1      41.256  21.149  27.764  1.00  0.00     0.001 A 
ATOM     50  C   UNL A   1      41.582  20.942  26.426  1.00  0.00     0.000 A 
ENDBRANCH  26  45
BRANCH  38  51
ATOM     51  C   UNL A   1      47.700  26.247  30.576  1.00  0.00    -0.014 A 
ATOM     52  C   UNL A   1      48.678  26.262  29.570  1.00  0.00     0.009 A 
ATOM     53  C   UNL A   1      48.038  25.760  31.848  1.00  0.00     0.009 A 
ATOM     54  C   UNL A   1      49.960  25.771  29.827  1.00  0.00     0.001 A 
ATOM     55  C   UNL A   1      49.327  25.294  32.109  1.00  0.00     0.001 A 
ATOM     56  C   UNL A   1      50.284  25.292  31.095  1.00  0.00     0.000 A 
ENDBRANCH  38  51
ENDBRANCH  12  13
ENDBRANCH   5   7
ENDBRANCH   2   3
ENDBRANCH   1   2
BRANCH   1  57
ATOM     57  C   UNL A   1      32.881  28.163  24.647  1.00  0.00     0.118 C 
BRANCH  57  58
ATOM     58  N   UNL A   1      31.760  28.416  23.745  1.00  0.00    -0.352 N 
ATOM     59  C   UNL A   1      31.107  27.582  22.868  1.00  0.00     0.251 C 
ATOM     60  H   UNL A   1      31.415  29.338  23.769  1.00  0.00     0.163 HD
ATOM     61  O   UNL A   1      30.318  28.048  22.050  1.00  0.00    -0.269 OA
BRANCH  59  62
ATOM     62  C   UNL A   1      31.352  26.126  22.901  1.00  0.00     0.041 A 
ATOM     63  C   UNL A   1      32.309  25.551  22.068  1.00  0.00     0.014 A 
ATOM     64  C   UNL A   1      30.640  25.327  23.792  1.00  0.00     0.040 A 
ATOM     65  C   UNL A   1      32.601  24.189  22.197  1.00  0.00     0.003 A 
ATOM     66  C   UNL A   1      31.003  23.995  23.999  1.00  0.00     0.042 A 
ATOM     67  C   UNL A   1      31.968  23.414  23.181  1.00  0.00     0.026 A 
BRANCH  66  68
ATOM     68  N   UNL A   1      30.477  23.436  25.168  1.00  0.00    -0.321 N 
ATOM     69  C   UNL A   1      30.846  23.534  26.473  1.00  0.00     0.272 C 
ATOM     70  H   UNL A   1      29.691  22.861  25.017  1.00  0.00     0.170 HD
ATOM     71  O   UNL A   1      29.935  23.560  27.302  1.00  0.00    -0.267 OA
BRANCH  69  72
ATOM     72  C   UNL A   1      32.214  23.380  26.881  1.00  0.00     0.105 A 
ATOM     73  C   UNL A   1      32.956  22.209  26.912  1.00  0.00     0.042 A 
ATOM     74  N   UNL A   1      33.136  24.400  26.726  1.00  0.00    -0.351 N 
ATOM     75  C   UNL A   1      34.127  22.498  26.148  1.00  0.00     0.000 A 
ATOM     76  C   UNL A   1      34.177  23.881  25.978  1.00  0.00     0.046 A 
ATOM     77  H   UNL A   1      33.065  25.316  27.080  1.00  0.00     0.167 HD
ATOM     78  C   UNL A   1      35.042  21.694  25.445  1.00  0.00     0.010 A 
ATOM     79  C   UNL A   1      35.070  24.513  25.109  1.00  0.00     0.026 A 
ATOM     80  C   UNL A   1      35.898  22.302  24.519  1.00  0.00     0.001 A 
ATOM     81  C   UNL A   1      35.902  23.686  24.348  1.00  0.00     0.002 A 
ENDBRANCH  69  72
ENDBRANCH  66  68
ENDBRANCH  59  62
ENDBRANCH  57  58
ENDBRANCH   1  57
TORSDOF 12
ENDMDL
MODEL 2
REMARK VINA RESULT:     -11.9      2.358      7.420
REMARK SMILES O=C(NCCCNC(=O)c1cccc(NC(=O)c2cc3ccccc3[nH]2)c1)c1ccc(-c2c3nc(c(-c4ccccc4)c4ccc([nH]4)c(-c4ccccc4)c4nc(c(-c5ccccc5)c5ccc2[nH]5)C=C4)C=C3)cc1
REMARK SMILES IDX 5 1 4 2 3 3 1 4 2 5 28 7 29 8 75 9 30 10 74 11 31 12 32 13
REMARK SMILES IDX 33 14 68 15 34 16 73 17 67 18 69 19 35 20 72 21 66 22 65 23
REMARK SMILES IDX 36 25 58 26 43 27 57 28 44 29 47 30 56 31 70 32 45 33 46 34
REMARK SMILES IDX 55 36 71 37 48 38 37 39 38 40 42 41 39 42 41 43 40 44 59 45
REMARK SMILES IDX 60 46 64 47 61 48 63 49 62 50 49 51 50 52 54 53 51 54 53 55
REMARK SMILES IDX 52 56 6 57 7 58 8 59 9 61 10 62 11 63 27 64 12 65 14 66
REMARK SMILES IDX 13 67 15 68 16 69 17 71 18 72 19 73 26 74 20 75 25 76 21 78
REMARK SMILES IDX 24 79 22 80 23 81
REMARK H PARENT 3 6 69 24 47 35 7 60 15 70 26 77
REMARK Flexibility Score: inf
ROOT
ATOM      1  C   UNL A   1      37.380  19.562  24.991  1.00  0.00     0.042 C 
ENDROOT
BRANCH   1   2
ATOM      2  C   UNL A   1      38.634  20.246  25.513  1.00  0.00     0.118 C 
BRANCH   2   3
ATOM      3  N   UNL A   1      39.757  19.331  25.669  1.00  0.00    -0.352 N 
ATOM      4  O   UNL A   1      41.883  18.667  25.972  1.00  0.00    -0.269 OA
ATOM      5  C   UNL A   1      41.048  19.561  26.077  1.00  0.00     0.251 C 
ATOM      6  H   UNL A   1      39.558  18.394  25.445  1.00  0.00     0.163 HD
BRANCH   5   7
ATOM      7  C   UNL A   1      41.448  20.877  26.619  1.00  0.00     0.039 A 
ATOM      8  C   UNL A   1      41.329  21.169  27.978  1.00  0.00     0.014 A 
ATOM      9  C   UNL A   1      41.992  21.829  25.749  1.00  0.00     0.014 A 
ATOM     10  C   UNL A   1      41.595  22.453  28.440  1.00  0.00     0.010 A 
ATOM     11  C   UNL A   1      42.351  23.090  26.233  1.00  0.00     0.010 A 
ATOM     12  C   UNL A   1      42.122  23.425  27.576  1.00  0.00    -0.014 A 
BRANCH  12  13
ATOM     13  C   UNL A   1      42.471  24.767  28.104  1.00  0.00     0.031 A 
ATOM     14  C   UNL A   1      43.885  25.105  28.484  1.00  0.00     0.074 A 
ATOM     15  C   UNL A   1      41.499  25.690  28.234  1.00  0.00     0.049 A 
ATOM     16  N   UNL A   1      44.360  26.221  28.978  1.00  0.00    -0.248 NA
ATOM     17  C   UNL A   1      44.897  24.056  28.290  1.00  0.00     0.031 C 
ATOM     18  C   UNL A   1      40.088  25.485  27.896  1.00  0.00     0.029 A 
ATOM     19  N   UNL A   1      41.550  26.988  28.673  1.00  0.00    -0.354 N 
ATOM     20  C   UNL A   1      45.717  26.002  29.178  1.00  0.00     0.074 A 
ATOM     21  C   UNL A   1      45.986  24.638  28.773  1.00  0.00     0.031 C 
ATOM     22  C   UNL A   1      39.416  26.626  28.107  1.00  0.00     0.029 A 
ATOM     23  C   UNL A   1      40.332  27.620  28.653  1.00  0.00     0.049 A 
ATOM     24  H   UNL A   1      42.380  27.424  28.975  1.00  0.00     0.167 HD
ATOM     25  C   UNL A   1      46.653  26.858  29.653  1.00  0.00     0.031 A 
ATOM     26  C   UNL A   1      39.979  28.856  29.052  1.00  0.00     0.031 A 
ATOM     27  C   UNL A   1      46.383  28.213  30.058  1.00  0.00     0.049 A 
ATOM     28  C   UNL A   1      41.026  29.770  29.613  1.00  0.00     0.074 A 
ATOM     29  C   UNL A   1      47.271  29.167  30.524  1.00  0.00     0.029 A 
ATOM     30  N   UNL A   1      45.129  28.804  30.050  1.00  0.00    -0.354 N 
ATOM     31  N   UNL A   1      42.311  29.556  29.768  1.00  0.00    -0.248 NA
ATOM     32  C   UNL A   1      40.577  31.098  30.051  1.00  0.00     0.031 C 
ATOM     33  C   UNL A   1      46.546  30.319  30.848  1.00  0.00     0.029 A 
ATOM     34  C   UNL A   1      45.216  30.102  30.529  1.00  0.00     0.049 A 
ATOM     35  H   UNL A   1      44.299  28.367  29.750  1.00  0.00     0.167 HD
ATOM     36  C   UNL A   1      42.827  30.728  30.303  1.00  0.00     0.074 A 
ATOM     37  C   UNL A   1      41.719  31.654  30.431  1.00  0.00     0.031 C 
ATOM     38  C   UNL A   1      44.104  31.010  30.655  1.00  0.00     0.031 A 
BRANCH  25  39
ATOM     39  C   UNL A   1      48.058  26.339  29.795  1.00  0.00    -0.014 A 
ATOM     40  C   UNL A   1      48.985  26.437  28.745  1.00  0.00     0.009 A 
ATOM     41  C   UNL A   1      48.469  25.770  31.011  1.00  0.00     0.009 A 
ATOM     42  C   UNL A   1      50.283  25.941  28.898  1.00  0.00     0.001 A 
ATOM     43  C   UNL A   1      49.774  25.301  31.170  1.00  0.00     0.001 A 
ATOM     44  C   UNL A   1      50.676  25.377  30.111  1.00  0.00     0.000 A 
ENDBRANCH  25  39
BRANCH  26  45
ATOM     45  C   UNL A   1      38.562  29.285  28.942  1.00  0.00    -0.014 A 
ATOM     46  C   UNL A   1      38.043  29.729  27.717  1.00  0.00     0.009 A 
ATOM     47  C   UNL A   1      37.713  29.222  30.059  1.00  0.00     0.009 A 
ATOM     48  C   UNL A   1      36.705  30.116  27.618  1.00  0.00     0.001 A 
ATOM     49  C   UNL A   1      36.369  29.582  29.948  1.00  0.00     0.001 A 
ATOM     50  C   UNL A   1      35.868  30.036  28.730  1.00  0.00     0.000 A 
ENDBRANCH  26  45
BRANCH  38  51
ATOM     51  C   UNL A   1      44.380  32.391  31.178  1.00  0.00    -0.014 A 
ATOM     52  C   UNL A   1      44.700  33.449  30.313  1.00  0.00     0.009 A 
ATOM     53  C   UNL A   1      44.283  32.642  32.556  1.00  0.00     0.009 A 
ATOM     54  C   UNL A   1      44.947  34.725  30.823  1.00  0.00     0.001 A 
ATOM     55  C   UNL A   1      44.505  33.924  33.060  1.00  0.00     0.001 A 
ATOM     56  C   UNL A   1      44.845  34.962  32.194  1.00  0.00     0.000 A 
ENDBRANCH  38  51
ENDBRANCH  12  13
ENDBRANCH   5   7
ENDBRANCH   2   3
ENDBRANCH   1   2
BRANCH   1  57
ATOM     57  C   UNL A   1      36.154  20.460  24.946  1.00  0.00     0.118 C 
BRANCH  57  58
ATOM     58  N   UNL A   1      36.459  21.851  25.271  1.00  0.00    -0.352 N 
ATOM     59  C   UNL A   1      35.728  23.000  25.075  1.00  0.00     0.251 C 
ATOM     60  H   UNL A   1      37.334  21.989  25.702  1.00  0.00     0.163 HD
ATOM     61  O   UNL A   1      36.257  24.097  25.237  1.00  0.00    -0.269 OA
BRANCH  59  62
ATOM     62  C   UNL A   1      34.312  22.922  24.667  1.00  0.00     0.041 A 
ATOM     63  C   UNL A   1      33.322  22.630  25.603  1.00  0.00     0.014 A 
ATOM     64  C   UNL A   1      33.960  23.168  23.343  1.00  0.00     0.040 A 
ATOM     65  C   UNL A   1      31.978  22.672  25.215  1.00  0.00     0.003 A 
ATOM     66  C   UNL A   1      32.622  23.317  22.977  1.00  0.00     0.042 A 
ATOM     67  C   UNL A   1      31.624  23.042  23.909  1.00  0.00     0.026 A 
BRANCH  66  68
ATOM     68  N   UNL A   1      32.434  23.933  21.736  1.00  0.00    -0.321 N 
ATOM     69  C   UNL A   1      32.814  25.145  21.250  1.00  0.00     0.272 C 
ATOM     70  H   UNL A   1      31.931  23.384  21.090  1.00  0.00     0.170 HD
ATOM     71  O   UNL A   1      33.147  25.183  20.065  1.00  0.00    -0.267 OA
BRANCH  69  72
ATOM     72  C   UNL A   1      32.616  26.351  22.004  1.00  0.00     0.105 A 
ATOM     73  C   UNL A   1      31.416  26.865  22.469  1.00  0.00     0.042 A 
ATOM     74  N   UNL A   1      33.586  26.837  22.863  1.00  0.00    -0.351 N 
ATOM     75  C   UNL A   1      31.618  27.056  23.870  1.00  0.00     0.000 A 
ATOM     76  C   UNL A   1      32.989  26.957  24.105  1.00  0.00     0.046 A 
ATOM     77  H   UNL A   1      34.518  27.054  22.635  1.00  0.00     0.167 HD
ATOM     78  C   UNL A   1      30.744  27.129  24.969  1.00  0.00     0.010 A 
ATOM     79  C   UNL A   1      33.542  26.886  25.386  1.00  0.00     0.026 A 
ATOM     80  C   UNL A   1      31.272  26.991  26.258  1.00  0.00     0.001 A 
ATOM     81  C   UNL A   1      32.647  26.860  26.459  1.00  0.00     0.002 A 
ENDBRANCH  69  72
ENDBRANCH  66  68
ENDBRANCH  59  62
ENDBRANCH  57  58
ENDBRANCH   1  57
TORSDOF 12
ENDMDL
MODEL 3
REMARK VINA RESULT:     -11.8      2.370      7.309
REMARK SMILES O=C(NCCCNC(=O)c1cccc(NC(=O)c2cc3ccccc3[nH]2)c1)c1ccc(-c2c3nc(c(-c4ccccc4)c4ccc([nH]4)c(-c4ccccc4)c4nc(c(-c5ccccc5)c5ccc2[nH]5)C=C4)C=C3)cc1
REMARK SMILES IDX 5 1 4 2 3 3 1 4 2 5 28 7 29 8 75 9 30 10 74 11 31 12 32 13
REMARK SMILES IDX 33 14 68 15 34 16 73 17 67 18 69 19 35 20 72 21 66 22 65 23
REMARK SMILES IDX 36 25 58 26 43 27 57 28 44 29 47 30 56 31 70 32 45 33 46 34
REMARK SMILES IDX 55 36 71 37 48 38 37 39 38 40 42 41 39 42 41 43 40 44 59 45
REMARK SMILES IDX 60 46 64 47 61 48 63 49 62 50 49 51 50 52 54 53 51 54 53 55
REMARK SMILES IDX 52 56 6 57 7 58 8 59 9 61 10 62 11 63 27 64 12 65 14 66
REMARK SMILES IDX 13 67 15 68 16 69 17 71 18 72 19 73 26 74 20 75 25 76 21 78
REMARK SMILES IDX 24 79 22 80 23 81
REMARK H PARENT 3 6 69 24 47 35 7 60 15 70 26 77
REMARK Flexibility Score: inf
ROOT
ATOM      1  C   UNL A   1      37.491  19.704  24.918  1.00  0.00     0.042 C 
ENDROOT
BRANCH   1   2
ATOM      2  C   UNL A   1      38.707  20.324  25.589  1.00  0.00     0.118 C 
BRANCH   2   3
ATOM      3  N   UNL A   1      39.829  19.402  25.696  1.00  0.00    -0.352 N 
ATOM      4  O   UNL A   1      41.960  18.723  25.921  1.00  0.00    -0.269 OA
ATOM      5  C   UNL A   1      41.134  19.619  26.064  1.00  0.00     0.251 C 
ATOM      6  H   UNL A   1      39.617  18.469  25.466  1.00  0.00     0.163 HD
BRANCH   5   7
ATOM      7  C   UNL A   1      41.559  20.927  26.610  1.00  0.00     0.039 A 
ATOM      8  C   UNL A   1      41.526  21.185  27.982  1.00  0.00     0.014 A 
ATOM      9  C   UNL A   1      42.037  21.903  25.731  1.00  0.00     0.014 A 
ATOM     10  C   UNL A   1      41.812  22.461  28.456  1.00  0.00     0.010 A 
ATOM     11  C   UNL A   1      42.417  23.156  26.220  1.00  0.00     0.010 A 
ATOM     12  C   UNL A   1      42.274  23.457  27.582  1.00  0.00    -0.014 A 
BRANCH  12  13
ATOM     13  C   UNL A   1      42.646  24.790  28.118  1.00  0.00     0.031 A 
ATOM     14  C   UNL A   1      41.607  25.854  28.336  1.00  0.00     0.074 A 
ATOM     15  C   UNL A   1      43.936  25.037  28.416  1.00  0.00     0.049 A 
ATOM     16  N   UNL A   1      41.761  27.077  28.778  1.00  0.00    -0.248 NA
ATOM     17  C   UNL A   1      40.216  25.504  28.013  1.00  0.00     0.031 C 
ATOM     18  C   UNL A   1      45.038  24.085  28.252  1.00  0.00     0.029 A 
ATOM     19  N   UNL A   1      44.538  26.157  28.929  1.00  0.00    -0.354 N 
ATOM     20  C   UNL A   1      40.497  27.651  28.762  1.00  0.00     0.074 A 
ATOM     21  C   UNL A   1      39.588  26.649  28.245  1.00  0.00     0.031 C 
ATOM     22  C   UNL A   1      46.173  24.649  28.689  1.00  0.00     0.029 A 
ATOM     23  C   UNL A   1      45.892  26.018  29.103  1.00  0.00     0.049 A 
ATOM     24  H   UNL A   1      44.046  26.981  29.150  1.00  0.00     0.167 HD
ATOM     25  C   UNL A   1      40.125  28.896  29.144  1.00  0.00     0.031 A 
ATOM     26  C   UNL A   1      46.816  26.900  29.526  1.00  0.00     0.031 A 
ATOM     27  C   UNL A   1      41.031  29.892  29.656  1.00  0.00     0.049 A 
ATOM     28  C   UNL A   1      46.386  28.286  29.904  1.00  0.00     0.074 A 
ATOM     29  C   UNL A   1      40.745  31.173  30.097  1.00  0.00     0.029 A 
ATOM     30  N   UNL A   1      42.401  29.721  29.787  1.00  0.00    -0.354 N 
ATOM     31  N   UNL A   1      45.180  28.802  29.910  1.00  0.00    -0.248 NA
ATOM     32  C   UNL A   1      47.443  29.210  30.337  1.00  0.00     0.031 C 
ATOM     33  C   UNL A   1      41.949  31.794  30.447  1.00  0.00     0.029 A 
ATOM     34  C   UNL A   1      42.977  30.881  30.278  1.00  0.00     0.049 A 
ATOM     35  H   UNL A   1      42.892  28.897  29.563  1.00  0.00     0.167 HD
ATOM     36  C   UNL A   1      45.330  30.104  30.365  1.00  0.00     0.074 A 
ATOM     37  C   UNL A   1      46.741  30.294  30.640  1.00  0.00     0.031 C 
ATOM     38  C   UNL A   1      44.383  31.056  30.542  1.00  0.00     0.031 A 
BRANCH  25  39
ATOM     39  C   UNL A   1      38.675  29.265  28.990  1.00  0.00    -0.014 A 
ATOM     40  C   UNL A   1      38.162  29.726  27.767  1.00  0.00     0.009 A 
ATOM     41  C   UNL A   1      37.801  29.119  30.080  1.00  0.00     0.009 A 
ATOM     42  C   UNL A   1      36.812  30.070  27.651  1.00  0.00     0.001 A 
ATOM     43  C   UNL A   1      36.448  29.436  29.952  1.00  0.00     0.001 A 
ATOM     44  C   UNL A   1      35.957  29.922  28.741  1.00  0.00     0.000 A 
ENDBRANCH  25  39
BRANCH  26  45
ATOM     45  C   UNL A   1      48.241  26.491  29.597  1.00  0.00    -0.014 A 
ATOM     46  C   UNL A   1      48.756  25.892  30.756  1.00  0.00     0.009 A 
ATOM     47  C   UNL A   1      49.087  26.671  28.491  1.00  0.00     0.009 A 
ATOM     48  C   UNL A   1      50.094  25.495  30.809  1.00  0.00     0.001 A 
ATOM     49  C   UNL A   1      50.416  26.247  28.537  1.00  0.00     0.001 A 
ATOM     50  C   UNL A   1      50.920  25.666  29.699  1.00  0.00     0.000 A 
ENDBRANCH  26  45
BRANCH  38  51
ATOM     51  C   UNL A   1      44.836  32.379  31.090  1.00  0.00    -0.014 A 
ATOM     52  C   UNL A   1      45.182  33.441  30.241  1.00  0.00     0.009 A 
ATOM     53  C   UNL A   1      44.883  32.573  32.480  1.00  0.00     0.009 A 
ATOM     54  C   UNL A   1      45.595  34.664  30.775  1.00  0.00     0.001 A 
ATOM     55  C   UNL A   1      45.270  33.804  33.010  1.00  0.00     0.001 A 
ATOM     56  C   UNL A   1      45.635  34.845  32.157  1.00  0.00     0.000 A 
ENDBRANCH  38  51
ENDBRANCH  12  13
ENDBRANCH   5   7
ENDBRANCH   2   3
ENDBRANCH   1   2
BRANCH   1  57
ATOM     57  C   UNL A   1      36.239  20.566  24.978  1.00  0.00     0.118 C 
BRANCH  57  58
ATOM     58  N   UNL A   1      36.512  21.930  25.422  1.00  0.00    -0.352 N 
ATOM     59  C   UNL A   1      35.752  23.073  25.330  1.00  0.00     0.251 C 
ATOM     60  H   UNL A   1      37.386  22.052  25.859  1.00  0.00     0.163 HD
ATOM     61  O   UNL A   1      36.254  24.165  25.586  1.00  0.00    -0.269 OA
BRANCH  59  62
ATOM     62  C   UNL A   1      34.335  22.995  24.924  1.00  0.00     0.041 A 
ATOM     63  C   UNL A   1      33.342  22.742  25.867  1.00  0.00     0.014 A 
ATOM     64  C   UNL A   1      33.987  23.203  23.592  1.00  0.00     0.040 A 
ATOM     65  C   UNL A   1      31.999  22.784  25.477  1.00  0.00     0.003 A 
ATOM     66  C   UNL A   1      32.650  23.353  23.220  1.00  0.00     0.042 A 
ATOM     67  C   UNL A   1      31.649  23.117  24.159  1.00  0.00     0.026 A 
BRANCH  66  68
ATOM     68  N   UNL A   1      32.469  23.931  21.960  1.00  0.00    -0.321 N 
ATOM     69  C   UNL A   1      32.833  25.137  21.447  1.00  0.00     0.272 C 
ATOM     70  H   UNL A   1      31.987  23.355  21.322  1.00  0.00     0.170 HD
ATOM     71  O   UNL A   1      33.183  25.151  20.266  1.00  0.00    -0.267 OA
BRANCH  69  72
ATOM     72  C   UNL A   1      32.600  26.359  22.165  1.00  0.00     0.105 A 
ATOM     73  C   UNL A   1      31.394  26.822  22.669  1.00  0.00     0.042 A 
ATOM     74  N   UNL A   1      33.579  26.932  22.958  1.00  0.00    -0.351 N 
ATOM     75  C   UNL A   1      31.650  27.080  24.050  1.00  0.00     0.000 A 
ATOM     76  C   UNL A   1      33.034  27.067  24.222  1.00  0.00     0.046 A 
ATOM     77  H   UNL A   1      34.485  27.193  22.677  1.00  0.00     0.167 HD
ATOM     78  C   UNL A   1      30.825  27.146  25.187  1.00  0.00     0.010 A 
ATOM     79  C   UNL A   1      33.648  27.078  25.476  1.00  0.00     0.026 A 
ATOM     80  C   UNL A   1      31.420  27.089  26.453  1.00  0.00     0.001 A 
ATOM     81  C   UNL A   1      32.807  27.044  26.592  1.00  0.00     0.002 A 
ENDBRANCH  69  72
ENDBRANCH  66  68
ENDBRANCH  59  62
ENDBRANCH  57  58
ENDBRANCH   1  57
TORSDOF 12
ENDMDL
