MODEL 1
REMARK VINA RESULT:     -13.6      0.000      0.000
REMARK SMILES O=C(Cn1c(-c2nc(-c3ccc(C(F)(F)F)cc3)no2)cc2ccccc21)NCCCNC(=O)c1ccc(-c2c3nc(c(-c4ccccc4)c4ccc([nH]4)c(-c4ccccc4)c4nc(c(-c5ccccc5)c5ccc2[nH]5)C=C4)C=C3)cc1
REMARK SMILES IDX 29 1 28 2 1 3 2 4 3 6 4 7 5 8 27 9 21 10 22 11 26 12 23 13
REMARK SMILES IDX 25 14 24 15 6 16 7 17 20 18 8 19 19 20 9 21 10 22 18 23
REMARK SMILES IDX 11 24 17 25 12 26 13 27 14 28 15 29 16 30 30 31 31 32 32 33
REMARK SMILES IDX 33 34 34 36 35 37 36 38 82 39 37 40 81 41 38 42 39 43 40 44
REMARK SMILES IDX 75 45 41 46 80 47 74 48 76 49 42 50 79 51 73 52 72 53 43 55
REMARK SMILES IDX 65 56 50 57 64 58 51 59 54 60 63 61 77 62 52 63 53 64 62 66
REMARK SMILES IDX 78 67 55 68 44 69 45 70 49 71 46 72 48 73 47 74 66 75 67 76
REMARK SMILES IDX 71 77 68 78 70 79 69 80 56 81 57 82 61 83 58 84 60 85 59 86
REMARK H PARENT 28 5 32 35 76 54 54 65
REMARK Flexibility Score: inf
ROOT
ATOM      1  C   UNL A   1      33.593  27.667  25.886  1.00  0.00     0.117 C 
ENDROOT
BRANCH   1   2
ATOM      2  N   UNL A   1      33.708  26.243  26.141  1.00  0.00    -0.354 N 
ATOM      3  O   UNL A   1      34.403  25.680  24.022  1.00  0.00    -0.273 OA
ATOM      4  C   UNL A   1      34.219  25.371  25.199  1.00  0.00     0.239 C 
ATOM      5  H   UNL A   1      33.414  25.889  27.010  1.00  0.00     0.163 HD
BRANCH   4   6
ATOM      6  C   UNL A   1      34.451  23.968  25.699  1.00  0.00     0.222 C 
BRANCH   6   7
ATOM      7  N   UNL A   1      33.395  22.973  25.480  1.00  0.00    -0.327 N 
ATOM      8  C   UNL A   1      32.024  23.122  25.399  1.00  0.00     0.109 A 
ATOM      9  C   UNL A   1      33.723  21.632  25.237  1.00  0.00     0.049 A 
ATOM     10  C   UNL A   1      31.483  21.872  25.156  1.00  0.00     0.042 A 
ATOM     11  C   UNL A   1      32.531  20.940  25.022  1.00  0.00     0.000 A 
ATOM     12  C   UNL A   1      34.966  20.972  25.169  1.00  0.00     0.027 A 
ATOM     13  C   UNL A   1      32.567  19.568  24.706  1.00  0.00     0.010 A 
ATOM     14  C   UNL A   1      34.979  19.608  24.853  1.00  0.00     0.002 A 
ATOM     15  C   UNL A   1      33.797  18.914  24.620  1.00  0.00     0.001 A 
BRANCH   8  16
ATOM     16  C   UNL A   1      31.246  24.322  25.354  1.00  0.00     0.274 A 
ATOM     17  N   UNL A   1      30.976  25.086  24.314  1.00  0.00    -0.185 NA
ATOM     18  O   UNL A   1      30.738  24.831  26.519  1.00  0.00    -0.332 OA
ATOM     19  C   UNL A   1      30.264  26.134  24.882  1.00  0.00     0.202 A 
ATOM     20  N   UNL A   1      30.097  26.007  26.209  1.00  0.00    -0.057 NA
BRANCH  19  21
ATOM     21  C   UNL A   1      29.702  27.278  24.162  1.00  0.00     0.023 A 
ATOM     22  C   UNL A   1      30.479  28.445  24.023  1.00  0.00     0.013 A 
ATOM     23  C   UNL A   1      28.421  27.268  23.603  1.00  0.00     0.013 A 
ATOM     24  C   UNL A   1      29.995  29.570  23.354  1.00  0.00     0.014 A 
ATOM     25  C   UNL A   1      27.931  28.401  22.926  1.00  0.00     0.014 A 
ATOM     26  C   UNL A   1      28.713  29.562  22.797  1.00  0.00     0.056 A 
BRANCH  26  27
ATOM     27  C   UNL A   1      28.214  30.802  22.094  1.00  0.00     0.416 C 
ATOM     28  F   UNL A   1      27.267  31.461  22.819  1.00  0.00    -0.166 F 
ATOM     29  F   UNL A   1      29.207  31.710  21.873  1.00  0.00    -0.166 F 
ATOM     30  F   UNL A   1      27.653  30.559  20.878  1.00  0.00    -0.166 F 
ENDBRANCH  26  27
ENDBRANCH  19  21
ENDBRANCH   8  16
ENDBRANCH   6   7
ENDBRANCH   4   6
ENDBRANCH   1   2
BRANCH   1  31
ATOM     31  C   UNL A   1      33.703  28.524  27.140  1.00  0.00     0.042 C 
BRANCH  31  32
ATOM     32  C   UNL A   1      34.632  29.731  27.008  1.00  0.00     0.118 C 
BRANCH  32  33
ATOM     33  N   UNL A   1      34.570  30.680  28.100  1.00  0.00    -0.352 N 
ATOM     34  C   UNL A   1      35.492  31.198  28.966  1.00  0.00     0.251 C 
ATOM     35  H   UNL A   1      33.662  31.028  28.255  1.00  0.00     0.163 HD
ATOM     36  O   UNL A   1      35.159  32.224  29.565  1.00  0.00    -0.269 OA
BRANCH  34  37
ATOM     37  C   UNL A   1      36.790  30.563  29.307  1.00  0.00     0.039 A 
ATOM     38  C   UNL A   1      38.030  30.905  28.765  1.00  0.00     0.014 A 
ATOM     39  C   UNL A   1      36.708  29.445  30.159  1.00  0.00     0.014 A 
ATOM     40  C   UNL A   1      39.127  30.072  28.948  1.00  0.00     0.010 A 
ATOM     41  C   UNL A   1      37.801  28.619  30.359  1.00  0.00     0.010 A 
ATOM     42  C   UNL A   1      38.989  28.901  29.693  1.00  0.00    -0.014 A 
BRANCH  42  43
ATOM     43  C   UNL A   1      40.149  28.030  29.832  1.00  0.00     0.031 A 
ATOM     44  C   UNL A   1      40.779  28.043  31.182  1.00  0.00     0.074 A 
ATOM     45  C   UNL A   1      40.524  27.179  28.855  1.00  0.00     0.049 A 
ATOM     46  N   UNL A   1      42.009  28.286  31.497  1.00  0.00    -0.248 NA
ATOM     47  C   UNL A   1      39.888  27.856  32.342  1.00  0.00     0.031 C 
ATOM     48  C   UNL A   1      39.810  26.872  27.612  1.00  0.00     0.029 A 
ATOM     49  N   UNL A   1      41.565  26.301  28.832  1.00  0.00    -0.354 N 
ATOM     50  C   UNL A   1      42.090  28.124  32.880  1.00  0.00     0.074 A 
ATOM     51  C   UNL A   1      40.737  28.004  33.357  1.00  0.00     0.031 C 
ATOM     52  C   UNL A   1      40.288  25.716  27.097  1.00  0.00     0.029 A 
ATOM     53  C   UNL A   1      41.426  25.287  27.890  1.00  0.00     0.049 A 
ATOM     54  H   UNL A   1      42.345  26.377  29.427  1.00  0.00     0.167 HD
ATOM     55  C   UNL A   1      43.270  27.879  33.512  1.00  0.00     0.031 A 
ATOM     56  C   UNL A   1      42.142  24.137  27.828  1.00  0.00     0.031 A 
ATOM     57  C   UNL A   1      44.396  28.282  32.714  1.00  0.00     0.049 A 
ATOM     58  C   UNL A   1      43.372  24.328  28.629  1.00  0.00     0.074 A 
ATOM     59  C   UNL A   1      44.835  29.486  32.203  1.00  0.00     0.029 A 
ATOM     60  N   UNL A   1      45.071  27.309  32.019  1.00  0.00    -0.354 N 
ATOM     61  N   UNL A   1      44.329  25.146  28.304  1.00  0.00    -0.248 NA
ATOM     62  C   UNL A   1      43.338  23.922  30.025  1.00  0.00     0.031 C 
ATOM     63  C   UNL A   1      45.362  29.168  30.918  1.00  0.00     0.029 A 
ATOM     64  C   UNL A   1      45.281  27.783  30.751  1.00  0.00     0.049 A 
ATOM     65  H   UNL A   1      45.352  26.432  32.367  1.00  0.00     0.167 HD
ATOM     66  C   UNL A   1      44.740  25.699  29.507  1.00  0.00     0.074 A 
ATOM     67  C   UNL A   1      44.165  24.837  30.537  1.00  0.00     0.031 C 
ATOM     68  C   UNL A   1      45.265  26.959  29.562  1.00  0.00     0.031 A 
BRANCH  55  69
ATOM     69  C   UNL A   1      43.399  26.922  34.675  1.00  0.00    -0.014 A 
ATOM     70  C   UNL A   1      43.297  27.317  36.023  1.00  0.00     0.009 A 
ATOM     71  C   UNL A   1      43.349  25.537  34.426  1.00  0.00     0.009 A 
ATOM     72  C   UNL A   1      43.120  26.399  37.061  1.00  0.00     0.001 A 
ATOM     73  C   UNL A   1      43.128  24.615  35.458  1.00  0.00     0.001 A 
ATOM     74  C   UNL A   1      43.005  25.047  36.774  1.00  0.00     0.000 A 
ENDBRANCH  55  69
BRANCH  56  75
ATOM     75  C   UNL A   1      41.660  22.783  27.467  1.00  0.00    -0.014 A 
ATOM     76  C   UNL A   1      42.580  21.777  27.117  1.00  0.00     0.009 A 
ATOM     77  C   UNL A   1      40.305  22.561  27.170  1.00  0.00     0.009 A 
ATOM     78  C   UNL A   1      42.171  20.616  26.453  1.00  0.00     0.001 A 
ATOM     79  C   UNL A   1      39.896  21.397  26.502  1.00  0.00     0.001 A 
ATOM     80  C   UNL A   1      40.831  20.435  26.130  1.00  0.00     0.000 A 
ENDBRANCH  56  75
BRANCH  68  81
ATOM     81  C   UNL A   1      45.594  27.663  28.265  1.00  0.00    -0.014 A 
ATOM     82  C   UNL A   1      46.934  27.681  27.846  1.00  0.00     0.009 A 
ATOM     83  C   UNL A   1      44.672  28.468  27.572  1.00  0.00     0.009 A 
ATOM     84  C   UNL A   1      47.346  28.490  26.785  1.00  0.00     0.001 A 
ATOM     85  C   UNL A   1      45.080  29.259  26.491  1.00  0.00     0.001 A 
ATOM     86  C   UNL A   1      46.419  29.280  26.107  1.00  0.00     0.000 A 
ENDBRANCH  68  81
ENDBRANCH  42  43
ENDBRANCH  34  37
ENDBRANCH  32  33
ENDBRANCH  31  32
ENDBRANCH   1  31
TORSDOF 14
ENDMDL
MODEL 2
REMARK VINA RESULT:     -13.5      3.131      5.392
REMARK SMILES O=C(Cn1c(-c2nc(-c3ccc(C(F)(F)F)cc3)no2)cc2ccccc21)NCCCNC(=O)c1ccc(-c2c3nc(c(-c4ccccc4)c4ccc([nH]4)c(-c4ccccc4)c4nc(c(-c5ccccc5)c5ccc2[nH]5)C=C4)C=C3)cc1
REMARK SMILES IDX 29 1 28 2 1 3 2 4 3 6 4 7 5 8 27 9 21 10 22 11 26 12 23 13
REMARK SMILES IDX 25 14 24 15 6 16 7 17 20 18 8 19 19 20 9 21 10 22 18 23
REMARK SMILES IDX 11 24 17 25 12 26 13 27 14 28 15 29 16 30 30 31 31 32 32 33
REMARK SMILES IDX 33 34 34 36 35 37 36 38 82 39 37 40 81 41 38 42 39 43 40 44
REMARK SMILES IDX 75 45 41 46 80 47 74 48 76 49 42 50 79 51 73 52 72 53 43 55
REMARK SMILES IDX 65 56 50 57 64 58 51 59 54 60 63 61 77 62 52 63 53 64 62 66
REMARK SMILES IDX 78 67 55 68 44 69 45 70 49 71 46 72 48 73 47 74 66 75 67 76
REMARK SMILES IDX 71 77 68 78 70 79 69 80 56 81 57 82 61 83 58 84 60 85 59 86
REMARK H PARENT 28 5 32 35 76 54 54 65
REMARK Flexibility Score: inf
ROOT
ATOM      1  C   UNL A   1      34.605  29.764  27.085  1.00  0.00     0.117 C 
ENDROOT
BRANCH   1   2
ATOM      2  N   UNL A   1      34.183  29.229  25.804  1.00  0.00    -0.354 N 
ATOM      3  O   UNL A   1      32.223  28.301  26.571  1.00  0.00    -0.273 OA
ATOM      4  C   UNL A   1      32.952  28.627  25.634  1.00  0.00     0.239 C 
ATOM      5  H   UNL A   1      34.792  29.297  25.034  1.00  0.00     0.163 HD
BRANCH   4   6
ATOM      6  C   UNL A   1      32.598  28.309  24.203  1.00  0.00     0.222 C 
BRANCH   6   7
ATOM      7  N   UNL A   1      31.301  27.676  23.937  1.00  0.00    -0.327 N 
ATOM      8  C   UNL A   1      30.918  26.350  24.006  1.00  0.00     0.109 A 
ATOM      9  C   UNL A   1      30.183  28.458  23.615  1.00  0.00     0.049 A 
ATOM     10  C   UNL A   1      29.574  26.288  23.681  1.00  0.00     0.042 A 
ATOM     11  C   UNL A   1      29.096  27.596  23.465  1.00  0.00     0.000 A 
ATOM     12  C   UNL A   1      30.029  29.849  23.462  1.00  0.00     0.027 A 
ATOM     13  C   UNL A   1      27.820  28.122  23.182  1.00  0.00     0.010 A 
ATOM     14  C   UNL A   1      28.752  30.351  23.182  1.00  0.00     0.002 A 
ATOM     15  C   UNL A   1      27.660  29.502  23.048  1.00  0.00     0.001 A 
BRANCH   8  16
ATOM     16  C   UNL A   1      31.643  25.224  24.510  1.00  0.00     0.274 A 
ATOM     17  N   UNL A   1      31.888  24.073  23.915  1.00  0.00    -0.185 NA
ATOM     18  O   UNL A   1      32.118  25.258  25.793  1.00  0.00    -0.332 OA
ATOM     19  C   UNL A   1      32.548  23.355  24.902  1.00  0.00     0.202 A 
ATOM     20  N   UNL A   1      32.710  24.042  26.044  1.00  0.00    -0.057 NA
BRANCH  19  21
ATOM     21  C   UNL A   1      33.066  21.991  24.769  1.00  0.00     0.023 A 
ATOM     22  C   UNL A   1      32.235  20.998  24.216  1.00  0.00     0.013 A 
ATOM     23  C   UNL A   1      34.355  21.627  25.168  1.00  0.00     0.013 A 
ATOM     24  C   UNL A   1      32.669  19.680  24.071  1.00  0.00     0.014 A 
ATOM     25  C   UNL A   1      34.797  20.299  25.020  1.00  0.00     0.014 A 
ATOM     26  C   UNL A   1      33.957  19.313  24.472  1.00  0.00     0.056 A 
BRANCH  26  27
ATOM     27  C   UNL A   1      34.390  17.874  24.315  1.00  0.00     0.416 C 
ATOM     28  F   UNL A   1      35.717  17.704  24.575  1.00  0.00    -0.166 F 
ATOM     29  F   UNL A   1      33.737  17.038  25.171  1.00  0.00    -0.166 F 
ATOM     30  F   UNL A   1      34.184  17.369  23.068  1.00  0.00    -0.166 F 
ENDBRANCH  26  27
ENDBRANCH  19  21
ENDBRANCH   8  16
ENDBRANCH   6   7
ENDBRANCH   4   6
ENDBRANCH   1   2
BRANCH   1  31
ATOM     31  C   UNL A   1      33.736  30.909  27.587  1.00  0.00     0.042 C 
BRANCH  31  32
ATOM     32  C   UNL A   1      34.512  32.131  28.079  1.00  0.00     0.118 C 
BRANCH  32  33
ATOM     33  N   UNL A   1      34.682  32.215  29.515  1.00  0.00    -0.352 N 
ATOM     34  C   UNL A   1      35.696  31.899  30.374  1.00  0.00     0.251 C 
ATOM     35  H   UNL A   1      33.892  32.581  29.975  1.00  0.00     0.163 HD
ATOM     36  O   UNL A   1      35.630  32.397  31.501  1.00  0.00    -0.269 OA
BRANCH  34  37
ATOM     37  C   UNL A   1      36.786  30.932  30.085  1.00  0.00     0.039 A 
ATOM     38  C   UNL A   1      36.678  29.541  30.148  1.00  0.00     0.014 A 
ATOM     39  C   UNL A   1      38.051  31.504  29.851  1.00  0.00     0.014 A 
ATOM     40  C   UNL A   1      37.819  28.750  30.126  1.00  0.00     0.010 A 
ATOM     41  C   UNL A   1      39.192  30.719  29.812  1.00  0.00     0.010 A 
ATOM     42  C   UNL A   1      39.074  29.349  30.020  1.00  0.00    -0.014 A 
BRANCH  42  43
ATOM     43  C   UNL A   1      40.253  28.492  30.040  1.00  0.00     0.031 A 
ATOM     44  C   UNL A   1      40.889  28.339  31.378  1.00  0.00     0.074 A 
ATOM     45  C   UNL A   1      40.640  27.785  28.958  1.00  0.00     0.049 A 
ATOM     46  N   UNL A   1      42.115  28.565  31.720  1.00  0.00    -0.248 NA
ATOM     47  C   UNL A   1      40.008  27.983  32.505  1.00  0.00     0.031 C 
ATOM     48  C   UNL A   1      39.927  27.631  27.687  1.00  0.00     0.029 A 
ATOM     49  N   UNL A   1      41.699  26.941  28.817  1.00  0.00    -0.354 N 
ATOM     50  C   UNL A   1      42.206  28.223  33.069  1.00  0.00     0.074 A 
ATOM     51  C   UNL A   1      40.858  28.012  33.529  1.00  0.00     0.031 C 
ATOM     52  C   UNL A   1      40.426  26.563  27.023  1.00  0.00     0.029 A 
ATOM     53  C   UNL A   1      41.577  26.058  27.750  1.00  0.00     0.049 A 
ATOM     54  H   UNL A   1      42.480  26.954  29.416  1.00  0.00     0.167 HD
ATOM     55  C   UNL A   1      43.394  27.922  33.661  1.00  0.00     0.031 A 
ATOM     56  C   UNL A   1      42.316  24.941  27.534  1.00  0.00     0.031 A 
ATOM     57  C   UNL A   1      44.508  28.451  32.921  1.00  0.00     0.049 A 
ATOM     58  C   UNL A   1      43.546  25.050  28.351  1.00  0.00     0.074 A 
ATOM     59  C   UNL A   1      44.919  29.721  32.573  1.00  0.00     0.029 A 
ATOM     60  N   UNL A   1      45.199  27.593  32.102  1.00  0.00    -0.354 N 
ATOM     61  N   UNL A   1      44.484  25.925  28.135  1.00  0.00    -0.248 NA
ATOM     62  C   UNL A   1      43.527  24.463  29.681  1.00  0.00     0.031 C 
ATOM     63  C   UNL A   1      45.446  29.586  31.256  1.00  0.00     0.029 A 
ATOM     64  C   UNL A   1      45.393  28.235  30.907  1.00  0.00     0.049 A 
ATOM     65  H   UNL A   1      45.500  26.683  32.330  1.00  0.00     0.167 HD
ATOM     66  C   UNL A   1      44.889  26.323  29.400  1.00  0.00     0.074 A 
ATOM     67  C   UNL A   1      44.337  25.319  30.308  1.00  0.00     0.031 C 
ATOM     68  C   UNL A   1      45.388  27.574  29.620  1.00  0.00     0.031 A 
BRANCH  55  69
ATOM     69  C   UNL A   1      43.549  26.822  34.687  1.00  0.00    -0.014 A 
ATOM     70  C   UNL A   1      43.350  25.458  34.401  1.00  0.00     0.009 A 
ATOM     71  C   UNL A   1      44.177  27.118  35.911  1.00  0.00     0.009 A 
ATOM     72  C   UNL A   1      43.780  24.443  35.260  1.00  0.00     0.001 A 
ATOM     73  C   UNL A   1      44.648  26.103  36.756  1.00  0.00     0.001 A 
ATOM     74  C   UNL A   1      44.457  24.766  36.426  1.00  0.00     0.000 A 
ENDBRANCH  55  69
BRANCH  56  75
ATOM     75  C   UNL A   1      41.861  23.637  26.999  1.00  0.00    -0.014 A 
ATOM     76  C   UNL A   1      40.781  22.965  27.602  1.00  0.00     0.009 A 
ATOM     77  C   UNL A   1      42.663  22.911  26.103  1.00  0.00     0.009 A 
ATOM     78  C   UNL A   1      40.541  21.609  27.358  1.00  0.00     0.001 A 
ATOM     79  C   UNL A   1      42.424  21.551  25.861  1.00  0.00     0.001 A 
ATOM     80  C   UNL A   1      41.374  20.897  26.501  1.00  0.00     0.000 A 
ENDBRANCH  56  75
BRANCH  68  81
ATOM     81  C   UNL A   1      45.697  28.451  28.427  1.00  0.00    -0.014 A 
ATOM     82  C   UNL A   1      47.037  28.576  28.029  1.00  0.00     0.009 A 
ATOM     83  C   UNL A   1      44.746  29.299  27.830  1.00  0.00     0.009 A 
ATOM     84  C   UNL A   1      47.422  29.530  27.084  1.00  0.00     0.001 A 
ATOM     85  C   UNL A   1      45.128  30.237  26.864  1.00  0.00     0.001 A 
ATOM     86  C   UNL A   1      46.467  30.361  26.501  1.00  0.00     0.000 A 
ENDBRANCH  68  81
ENDBRANCH  42  43
ENDBRANCH  34  37
ENDBRANCH  32  33
ENDBRANCH  31  32
ENDBRANCH   1  31
TORSDOF 14
ENDMDL
MODEL 3
REMARK VINA RESULT:     -13.5      2.913      7.328
REMARK SMILES O=C(Cn1c(-c2nc(-c3ccc(C(F)(F)F)cc3)no2)cc2ccccc21)NCCCNC(=O)c1ccc(-c2c3nc(c(-c4ccccc4)c4ccc([nH]4)c(-c4ccccc4)c4nc(c(-c5ccccc5)c5ccc2[nH]5)C=C4)C=C3)cc1
REMARK SMILES IDX 29 1 28 2 1 3 2 4 3 6 4 7 5 8 27 9 21 10 22 11 26 12 23 13
REMARK SMILES IDX 25 14 24 15 6 16 7 17 20 18 8 19 19 20 9 21 10 22 18 23
REMARK SMILES IDX 11 24 17 25 12 26 13 27 14 28 15 29 16 30 30 31 31 32 32 33
REMARK SMILES IDX 33 34 34 36 35 37 36 38 82 39 37 40 81 41 38 42 39 43 40 44
REMARK SMILES IDX 75 45 41 46 80 47 74 48 76 49 42 50 79 51 73 52 72 53 43 55
REMARK SMILES IDX 65 56 50 57 64 58 51 59 54 60 63 61 77 62 52 63 53 64 62 66
REMARK SMILES IDX 78 67 55 68 44 69 45 70 49 71 46 72 48 73 47 74 66 75 67 76
REMARK SMILES IDX 71 77 68 78 70 79 69 80 56 81 57 82 61 83 58 84 60 85 59 86
REMARK H PARENT 28 5 32 35 76 54 54 65
REMARK Flexibility Score: inf
ROOT
ATOM      1  C   UNL A   1      38.577  22.263  25.636  1.00  0.00     0.117 C 
ENDROOT
BRANCH   1   2
ATOM      2  N   UNL A   1      37.192  22.055  26.013  1.00  0.00    -0.354 N 
ATOM      3  O   UNL A   1      36.363  22.046  23.868  1.00  0.00    -0.273 OA
ATOM      4  C   UNL A   1      36.202  21.851  25.072  1.00  0.00     0.239 C 
ATOM      5  H   UNL A   1      36.951  22.059  26.967  1.00  0.00     0.163 HD
BRANCH   4   6
ATOM      6  C   UNL A   1      34.863  21.456  25.641  1.00  0.00     0.222 C 
BRANCH   6   7
ATOM      7  N   UNL A   1      33.851  20.924  24.721  1.00  0.00    -0.327 N 
ATOM      8  C   UNL A   1      32.833  21.562  24.039  1.00  0.00     0.109 A 
ATOM      9  C   UNL A   1      33.867  19.570  24.355  1.00  0.00     0.049 A 
ATOM     10  C   UNL A   1      32.177  20.608  23.283  1.00  0.00     0.042 A 
ATOM     11  C   UNL A   1      32.829  19.369  23.445  1.00  0.00     0.000 A 
ATOM     12  C   UNL A   1      34.716  18.512  24.730  1.00  0.00     0.027 A 
ATOM     13  C   UNL A   1      32.639  18.097  22.871  1.00  0.00     0.010 A 
ATOM     14  C   UNL A   1      34.511  17.255  24.146  1.00  0.00     0.002 A 
ATOM     15  C   UNL A   1      33.490  17.049  23.226  1.00  0.00     0.001 A 
BRANCH   8  16
ATOM     16  C   UNL A   1      32.568  22.963  23.915  1.00  0.00     0.274 A 
ATOM     17  N   UNL A   1      31.406  23.567  23.764  1.00  0.00    -0.185 NA
ATOM     18  O   UNL A   1      33.619  23.839  23.877  1.00  0.00    -0.332 OA
ATOM     19  C   UNL A   1      31.772  24.898  23.617  1.00  0.00     0.202 A 
ATOM     20  N   UNL A   1      33.098  25.097  23.688  1.00  0.00    -0.057 NA
BRANCH  19  21
ATOM     21  C   UNL A   1      30.854  26.024  23.428  1.00  0.00     0.023 A 
ATOM     22  C   UNL A   1      29.532  25.911  23.897  1.00  0.00     0.013 A 
ATOM     23  C   UNL A   1      31.232  27.213  22.798  1.00  0.00     0.013 A 
ATOM     24  C   UNL A   1      28.610  26.946  23.739  1.00  0.00     0.014 A 
ATOM     25  C   UNL A   1      30.305  28.260  22.640  1.00  0.00     0.014 A 
ATOM     26  C   UNL A   1      28.985  28.135  23.107  1.00  0.00     0.056 A 
BRANCH  26  27
ATOM     27  C   UNL A   1      27.958  29.230  22.939  1.00  0.00     0.416 C 
ATOM     28  F   UNL A   1      27.746  29.541  21.629  1.00  0.00    -0.166 F 
ATOM     29  F   UNL A   1      26.738  28.879  23.436  1.00  0.00    -0.166 F 
ATOM     30  F   UNL A   1      28.290  30.398  23.553  1.00  0.00    -0.166 F 
ENDBRANCH  26  27
ENDBRANCH  19  21
ENDBRANCH   8  16
ENDBRANCH   6   7
ENDBRANCH   4   6
ENDBRANCH   1   2
BRANCH   1  31
ATOM     31  C   UNL A   1      39.521  22.402  26.824  1.00  0.00     0.042 C 
BRANCH  31  32
ATOM     32  C   UNL A   1      40.895  21.763  26.625  1.00  0.00     0.118 C 
BRANCH  32  33
ATOM     33  N   UNL A   1      41.759  22.441  25.680  1.00  0.00    -0.352 N 
ATOM     34  C   UNL A   1      42.331  23.681  25.632  1.00  0.00     0.251 C 
ATOM     35  H   UNL A   1      41.982  21.886  24.898  1.00  0.00     0.163 HD
ATOM     36  O   UNL A   1      43.268  23.817  24.842  1.00  0.00    -0.269 OA
BRANCH  34  37
ATOM     37  C   UNL A   1      41.840  24.874  26.369  1.00  0.00     0.039 A 
ATOM     38  C   UNL A   1      41.005  25.864  25.850  1.00  0.00     0.014 A 
ATOM     39  C   UNL A   1      42.382  25.050  27.656  1.00  0.00     0.014 A 
ATOM     40  C   UNL A   1      40.834  27.062  26.531  1.00  0.00     0.010 A 
ATOM     41  C   UNL A   1      42.202  26.236  28.349  1.00  0.00     0.010 A 
ATOM     42  C   UNL A   1      41.484  27.265  27.748  1.00  0.00    -0.014 A 
BRANCH  42  43
ATOM     43  C   UNL A   1      41.314  28.548  28.417  1.00  0.00     0.031 A 
ATOM     44  C   UNL A   1      42.413  29.524  28.180  1.00  0.00     0.074 A 
ATOM     45  C   UNL A   1      40.181  28.865  29.077  1.00  0.00     0.049 A 
ATOM     46  N   UNL A   1      43.140  30.149  29.048  1.00  0.00    -0.248 NA
ATOM     47  C   UNL A   1      42.819  29.754  26.781  1.00  0.00     0.031 C 
ATOM     48  C   UNL A   1      38.929  28.103  29.124  1.00  0.00     0.029 A 
ATOM     49  N   UNL A   1      39.862  30.012  29.738  1.00  0.00    -0.354 N 
ATOM     50  C   UNL A   1      43.988  30.977  28.313  1.00  0.00     0.074 A 
ATOM     51  C   UNL A   1      43.846  30.587  26.934  1.00  0.00     0.031 C 
ATOM     52  C   UNL A   1      37.930  28.913  29.545  1.00  0.00     0.029 A 
ATOM     53  C   UNL A   1      38.497  30.192  29.930  1.00  0.00     0.049 A 
ATOM     54  H   UNL A   1      40.538  30.655  30.053  1.00  0.00     0.167 HD
ATOM     55  C   UNL A   1      44.583  32.072  28.860  1.00  0.00     0.031 A 
ATOM     56  C   UNL A   1      37.875  31.342  30.292  1.00  0.00     0.031 A 
ATOM     57  C   UNL A   1      44.638  31.989  30.294  1.00  0.00     0.049 A 
ATOM     58  C   UNL A   1      38.895  32.240  30.880  1.00  0.00     0.074 A 
ATOM     59  C   UNL A   1      45.235  31.126  31.189  1.00  0.00     0.029 A 
ATOM     60  N   UNL A   1      43.696  32.685  31.013  1.00  0.00    -0.354 N 
ATOM     61  N   UNL A   1      39.503  32.007  32.006  1.00  0.00    -0.248 NA
ATOM     62  C   UNL A   1      39.554  33.185  29.993  1.00  0.00     0.031 C 
ATOM     63  C   UNL A   1      44.298  30.999  32.255  1.00  0.00     0.029 A 
ATOM     64  C   UNL A   1      43.221  31.845  31.985  1.00  0.00     0.049 A 
ATOM     65  H   UNL A   1      43.415  33.616  30.857  1.00  0.00     0.167 HD
ATOM     66  C   UNL A   1      40.809  32.419  31.790  1.00  0.00     0.074 A 
ATOM     67  C   UNL A   1      40.756  33.224  30.572  1.00  0.00     0.031 C 
ATOM     68  C   UNL A   1      41.852  31.837  32.452  1.00  0.00     0.031 A 
BRANCH  55  69
ATOM     69  C   UNL A   1      44.756  33.376  28.114  1.00  0.00    -0.014 A 
ATOM     70  C   UNL A   1      43.685  34.225  27.774  1.00  0.00     0.009 A 
ATOM     71  C   UNL A   1      46.048  33.918  27.981  1.00  0.00     0.009 A 
ATOM     72  C   UNL A   1      43.880  35.545  27.360  1.00  0.00     0.001 A 
ATOM     73  C   UNL A   1      46.247  35.254  27.607  1.00  0.00     0.001 A 
ATOM     74  C   UNL A   1      45.161  36.070  27.306  1.00  0.00     0.000 A 
ENDBRANCH  55  69
BRANCH  56  75
ATOM     75  C   UNL A   1      36.574  31.864  29.813  1.00  0.00    -0.014 A 
ATOM     76  C   UNL A   1      36.420  32.245  28.468  1.00  0.00     0.009 A 
ATOM     77  C   UNL A   1      35.588  32.274  30.725  1.00  0.00     0.009 A 
ATOM     78  C   UNL A   1      35.348  33.045  28.056  1.00  0.00     0.001 A 
ATOM     79  C   UNL A   1      34.515  33.077  30.313  1.00  0.00     0.001 A 
ATOM     80  C   UNL A   1      34.405  33.476  28.983  1.00  0.00     0.000 A 
ENDBRANCH  56  75
BRANCH  68  81
ATOM     81  C   UNL A   1      41.547  30.885  33.587  1.00  0.00    -0.014 A 
ATOM     82  C   UNL A   1      41.692  31.356  34.901  1.00  0.00     0.009 A 
ATOM     83  C   UNL A   1      41.327  29.508  33.397  1.00  0.00     0.009 A 
ATOM     84  C   UNL A   1      41.643  30.482  35.989  1.00  0.00     0.001 A 
ATOM     85  C   UNL A   1      41.251  28.636  34.489  1.00  0.00     0.001 A 
ATOM     86  C   UNL A   1      41.423  29.121  35.784  1.00  0.00     0.000 A 
ENDBRANCH  68  81
ENDBRANCH  42  43
ENDBRANCH  34  37
ENDBRANCH  32  33
ENDBRANCH  31  32
ENDBRANCH   1  31
TORSDOF 14
ENDMDL
